#------------------------------------------------------------------------------
#$Date: 2016-03-03 16:39:40 +0200 (Thu, 03 Mar 2016) $
#$Revision: 177180 $
#$URL: svn://www.crystallography.net/cod/cif/3/50/00/3500029.cif $
#------------------------------------------------------------------------------
#
# This file is available in the Crystallography Open Database (COD),
# http://www.crystallography.net/
#
# All data on this site have been placed in the public domain by the
# contributors.
#
data_3500029
loop_
_publ_author_name
'Thierry Maris'
_publ_section_references
;
Dolomanov, O.V., Bourhis, L.J., Gildea, R.J, Howard, J.A.K. & Puschmann, H.
 (2009), J. Appl. Cryst. 42, 339-341.

Sheldrick, G.M. (2008). Acta Cryst. A64, 112-122.

Sheldrick, G.M. (2015). Acta Cryst. A71, 3-8.
;
_publ_section_title
;
 2-Naphthylsulfonyl chloride
;
_journal_name_full               'Personal communication to COD'
_journal_year                    2016
_chemical_formula_moiety         'C10 H7 Cl O2 S'
_chemical_formula_sum            'C10 H7 Cl O2 S'
_chemical_formula_weight         226.67
_chemical_name_common            '2-Naphthylsulfonyl chloride'
_chemical_name_systematic        '2-Naphthalenesulfonyl chloride'
_space_group_crystal_system      triclinic
_space_group_IT_number           2
_space_group_name_Hall           '-P 1'
_space_group_name_H-M_alt        'P -1'
_symmetry_space_group_name_Hall  '-P 1'
_symmetry_space_group_name_H-M   'P -1'
_atom_sites_solution_hydrogens   difmap
_audit_creation_date             2015-12-03
_audit_creation_method
;
Olex2 1.2
(compiled 2015.09.30 svn.r3233 for OlexSys, GUI svn.r5103)
;
_cell_angle_alpha                73.632(2)
_cell_angle_beta                 85.635(2)
_cell_angle_gamma                82.993(2)
_cell_formula_units_Z            2
_cell_length_a                   5.0373(2)
_cell_length_b                   8.7819(3)
_cell_length_c                   11.2288(4)
_cell_measurement_reflns_used    9925
_cell_measurement_temperature    100
_cell_measurement_theta_max      60.565
_cell_measurement_theta_min      3.574
_cell_volume                     472.58(3)
_computing_cell_refinement
;
'SAINT (2013) V8.35A; Integration Software for Single Crystal 
Data. Bruker AXS Inc., Madison, WI 53719-1173.
;
_computing_data_collection
;
APEX 2 (2013) Bruker AXS Inc., Madison, WI 53719-1173.
;
_computing_data_reduction
;
SAINT (2013) V8.35A; Integration Software for Single Crystal 
Data. Bruker AXS Inc., Madison, WI 53719-1173.'
;
_computing_molecular_graphics    'Olex2 (Dolomanov et al., 2009)'
_computing_publication_material  'Olex2 (Dolomanov et al., 2009)'
_computing_structure_refinement  'XL (Sheldrick, 2008)'
_computing_structure_solution    'XT (Sheldrick, 2015)'
_diffrn_ambient_temperature      100
_diffrn_detector                 'CMOS Area detector'
_diffrn_detector_area_resol_mean 10.24
_diffrn_detector_type            'Bruker Photon 100 CMOS Detector'
_diffrn_measured_fraction_theta_full 0.992
_diffrn_measured_fraction_theta_max 0.992
_diffrn_measurement_device       'k-geometry diffractometer'
_diffrn_measurement_device_type  'Bruker Venture Metaljet'
_diffrn_measurement_method       '\w and \f scans'
_diffrn_radiation_collimation    'Focusing mirrors'
_diffrn_radiation_monochromator  'Helios MX Mirror Optics'
_diffrn_radiation_probe          x-ray
_diffrn_radiation_type           GaK\a
_diffrn_radiation_wavelength     1.34139
_diffrn_reflns_av_R_equivalents  0.0525
_diffrn_reflns_av_unetI/netI     0.0328
_diffrn_reflns_laue_measured_fraction_full 0.992
_diffrn_reflns_laue_measured_fraction_max 0.992
_diffrn_reflns_limit_h_max       6
_diffrn_reflns_limit_h_min       -6
_diffrn_reflns_limit_k_max       11
_diffrn_reflns_limit_k_min       -11
_diffrn_reflns_limit_l_max       14
_diffrn_reflns_limit_l_min       -14
_diffrn_reflns_number            12354
_diffrn_reflns_point_group_measured_fraction_full 0.992
_diffrn_reflns_point_group_measured_fraction_max 0.992
_diffrn_reflns_theta_full        53.594
_diffrn_reflns_theta_max         60.646
_diffrn_reflns_theta_min         3.573
_diffrn_source                   'Metal Jet'
_diffrn_source_target            Ga
_diffrn_source_type              'Gallium Liquid Metal Jet Source'
_exptl_absorpt_coefficient_mu    3.512
_exptl_absorpt_correction_T_max  0.7519
_exptl_absorpt_correction_T_min  0.5224
_exptl_absorpt_correction_type   multi-scan
_exptl_absorpt_process_details
;
SADABS-2014/5 (Bruker,2014/5) was used for absorption correction.
wR2(int) was 0.1345 before and 0.0743 after correction.
The Ratio of minimum to maximum transmission is 0.6948.
The \l/2 correction factor is 0.00150.
;
_exptl_crystal_colour            'clear light colourless'
_exptl_crystal_colour_lustre     clear
_exptl_crystal_colour_modifier   light
_exptl_crystal_colour_primary    colourless
_exptl_crystal_density_diffrn    1.593
_exptl_crystal_description       block
_exptl_crystal_F_000             232
_exptl_crystal_preparation       'from the commercial source'
_exptl_crystal_recrystallization_method 'extracted from the bottle'
_exptl_crystal_size_max          0.14
_exptl_crystal_size_mid          0.12
_exptl_crystal_size_min          0.099
_exptl_special_details
;
X-ray crystallographic data for I were collected from a single crystal
sample, which was mounted on a loop fiber. Data were collected using
a Bruker Venture diffractometer equipped with a Photon 100 CMOS Detector,
a Helios MX optics and a Kappa goniometer. The crystal-to-detector distance 
was 4.0 cm, and the data collection was carried out in 1024 x 1024 pixel mode.
;
_geom_special_details
;
 All esds (except the esd in the dihedral angle between two l.s. planes)
 are estimated using the full covariance matrix.  The cell esds are taken
 into account individually in the estimation of esds in distances, angles
 and torsion angles; correlations between esds in cell parameters are only
 used when they are defined by crystal symmetry.  An approximate (isotropic)
 treatment of cell esds is used for estimating esds involving l.s. planes.
;
_refine_diff_density_max         0.664
_refine_diff_density_min         -0.347
_refine_diff_density_rms         0.078
_refine_ls_extinction_coef       .
_refine_ls_extinction_method     none
_refine_ls_goodness_of_fit_ref   1.058
_refine_ls_hydrogen_treatment    refall
_refine_ls_matrix_type           full
_refine_ls_number_parameters     155
_refine_ls_number_reflns         2167
_refine_ls_number_restraints     0
_refine_ls_restrained_S_all      1.058
_refine_ls_R_factor_all          0.0329
_refine_ls_R_factor_gt           0.0312
_refine_ls_shift/su_max          0.001
_refine_ls_shift/su_mean         0.000
_refine_ls_structure_factor_coef Fsqd
_refine_ls_weighting_details
'w=1/[\s^2^(Fo^2^)+(0.0526P)^2^+0.2210P] where P=(Fo^2^+2Fc^2^)/3'
_refine_ls_weighting_scheme      calc
_refine_ls_wR_factor_gt          0.0868
_refine_ls_wR_factor_ref         0.0885
_reflns_Friedel_coverage         0.000
_reflns_friedel_fraction_full    .
_reflns_friedel_fraction_max     .
_reflns_number_gt                2038
_reflns_number_total             2167
_reflns_special_details
;
 Reflections were merged by SHELXL according to the crystal
 class for the calculation of statistics and refinement.
 
 _reflns_Friedel_fraction is defined as the number of unique
 Friedel pairs measured divided by the number that would be
 possible theoretically, ignoring centric projections and
 systematic absences.
;
_reflns_threshold_expression     'I > 2\s(I)'
_cod_data_source_file            PhPhSO2Cl.cif
_cod_data_source_block           phphso2cl
_cod_depositor_comments
;
The following automatic conversions were performed:

'_diffrn_radiation_probe' value 'X-ray' changed to 'x-ray' according
to the built-in table from CIF Core dictionary named 'cif_core.dic'
version 2.4.1 from 2010-06-29.

Automatic conversion script
Id: cif_fix_values 4287 2015-11-16 14:04:37Z antanas 
;
_cod_database_code               3500029
_shelxl_version_number           2014-3
_shelx_space_group_comment
;
The symmetry employed for this shelxl refinement is uniquely defined
by the following loop, which should always be used as a source of
symmetry information in preference to the above space-group names.
They are only intended as comments.
;
_shelx_estimated_absorpt_t_max   0.722
_shelx_estimated_absorpt_t_min   0.639
_olex2_refinement_description
;
;
_shelx_res_file
;
    phphso2.res created by SHELXL-2014/7

TITL phphso2_a.res in P-1
REM Old TITL PhPhSO2 in P-1 #2
REM SHELXT solution in P-1
REM R1 0.067, Rweak 0.004, Alpha 0.044, Orientation as input
REM Formula found by SHELXT: C10 O2 S Cl
CELL 1.34139 5.0373 8.7819 11.2288 73.632 85.635 82.993
ZERR 2 0.0002 0.0003 0.0004 0.002 0.002 0.002
LATT 1
SFAC C H Cl O S
DISP C 0.014 0.007 57.748
DISP Cl 0.329 0.54 4086.178
DISP H -0 0 0.648
DISP O 0.039 0.025 193.954
DISP S 0.292 0.425 3241.763
UNIT 20 14 2 4 2

L.S. 30
PLAN  7
SIZE 0.099 0.12 0.14
TEMP -173
ACTA
BOND $H
LIST 4
fmap 2
MORE -1
CONF
REM <olex2.extras>
REM <HklSrc "%.\\PhPhSO2.hkl">
REM </olex2.extras>

WGHT    0.052600    0.221000
FVAR       1.48101
S1    5    0.007173    0.371753    0.782557    11.00000    0.01359    0.01657 =
         0.01142   -0.00459    0.00227   -0.00498
CL1   3    0.287994    0.176369    0.809916    11.00000    0.01883    0.01628 =
         0.02436   -0.00652    0.00035   -0.00301
O1    4   -0.115289    0.366520    0.902339    11.00000    0.02106    0.02387 =
         0.01583   -0.00688    0.00807   -0.00811
O2    4   -0.147114    0.363992    0.683567    11.00000    0.02000    0.02640 =
         0.01677   -0.00534   -0.00241   -0.00857
C10   1    0.274856    0.585454    0.604213    11.00000    0.01757    0.01835 =
         0.01060   -0.00547    0.00082   -0.00225
C1    1    0.207853    0.529330    0.732944    11.00000    0.01360    0.01511 =
         0.01209   -0.00428    0.00311   -0.00363
C8    1    0.549241    0.767031    0.653142    11.00000    0.01536    0.01528 =
         0.01277   -0.00368    0.00283   -0.00141
C2    1    0.300856    0.588858    0.820492    11.00000    0.01498    0.01591 =
         0.01111   -0.00366    0.00258   -0.00280
C3    1    0.475947    0.710013    0.782067    11.00000    0.01447    0.01437 =
         0.01153   -0.00357    0.00176   -0.00165
C9    1    0.441364    0.703371    0.566262    11.00000    0.01862    0.01875 =
         0.00987   -0.00382    0.00303   -0.00235
C6    1    0.833960    0.942725    0.702271    11.00000    0.01860    0.01757 =
         0.02151   -0.00509    0.00476   -0.00678
C7    1    0.729081    0.885430    0.616189    11.00000    0.01959    0.01821 =
         0.01432   -0.00307    0.00432   -0.00414
C4    1    0.585649    0.772452    0.869219    11.00000    0.01794    0.01777 =
         0.01371   -0.00562    0.00130   -0.00249
C5    1    0.761929    0.885290    0.830125    11.00000    0.01949    0.01837 =
         0.01773   -0.00741    0.00007   -0.00400
H10   2    0.212371    0.540255    0.549491    11.00000    0.02066
H6    2    0.947162    1.026534    0.673929    11.00000    0.02430
H2    2    0.251082    0.550826    0.906842    11.00000    0.02704
H4    2    0.532440    0.731069    0.958795    11.00000    0.02339
H9    2    0.485624    0.744032    0.480450    11.00000    0.02460
H5    2    0.837030    0.924608    0.887550    11.00000    0.02743
H7    2    0.780562    0.922265    0.533318    11.00000    0.02596
HKLF 4

REM  phphso2_a.res in P-1
REM R1 =  0.0312 for    2038 Fo > 4sig(Fo)  and  0.0329 for all    2167 data
REM    155 parameters refined using      0 restraints

END

WGHT      0.0527      0.2213

REM Highest difference peak  0.664,  deepest hole -0.347,  1-sigma level  0.078
Q1    1   0.0888  0.4643  0.7543  11.00000  0.05    0.66
Q2    1   0.2732  0.0738  0.8353  11.00000  0.05    0.50
Q3    1   0.1416  0.2754  0.7966  11.00000  0.05    0.47
Q4    1   0.3314  0.2760  0.7820  11.00000  0.05    0.46
Q5    1   0.5087  0.7256  0.6157  11.00000  0.05    0.41
Q6    1   0.4004  0.6347  0.7997  11.00000  0.05    0.41
Q7    1   0.3392  0.6694  0.5867  11.00000  0.05    0.36
;
_shelx_res_checksum              83644
_shelx_hkl_file
;
  -1   0   0   59.59    3.90
  -1   0   0   53.79    4.00
  -1   0   0   61.19    4.00
   1   0   0   59.39    4.00
   1   0   0   51.39    4.10
   1   0   0   64.69    4.00
   1   0   0   49.10    4.10
  -2   0   0  576.44   37.10
  -2   0   0  556.64   37.00
  -2   0   0  507.65   36.90
   2   0   0  594.54   37.00
   2   0   0  492.55   37.10
   2   0   0  585.84   37.00
   2   0   0  500.25   37.10
  -3   0   0   66.79    4.40
  -3   0   0   58.69    4.70
  -3   0   0   47.50    4.50
  -3   0   0   58.19    4.80
  -3   0   0   54.79    4.20
   3   0   0   60.49    4.90
   3   0   0   45.70    5.40
   3   0   0   61.89    4.70
   3   0   0   60.99    5.00
  -4   0   0 1396.86   98.19
  -4   0   0 1402.76   98.89
  -4   0   0 1464.15   98.79
  -4   0   0 1474.75   98.29
  -4   0   0 1392.66   98.39
   4   0   0 1371.46   98.49
   4   0   0 1535.85   98.99
   4   0   0 1539.35   98.79
   4   0   0 1530.65   98.79
  -6   0   0   61.19    5.40
  -6   0   0   54.19    5.10
   6   0   0   44.60    7.30
   6   0   0   43.30    7.40
   6  -1   0  121.09   11.70
   6  -1   0  125.09   11.90
   6  -1   0  133.09   10.30
  -6   1   0  140.99    9.90
  -6   1   0  148.79   10.20
   5  -1   0    3.20    3.40
   5  -1   0    5.70    3.70
  -5   1   0    8.10    2.10
  -5   1   0    5.70    1.80
   4  -1   0   57.59    6.50
   4  -1   0   59.49    6.00
   4  -1   0   51.39    5.70
   4  -1   0   61.99    5.80
  -4   1   0   56.29    4.60
  -4   1   0   55.59    4.40
   3  -1   0  762.32   49.40
   3  -1   0  703.93   49.20
   3  -1   0  766.42   49.40
   3  -1   0  784.52   49.60
   3  -1   0  714.63   49.00
  -3   1   0  624.34   49.00
  -3   1   0  693.93   48.90
  -3   1   0  696.83   48.90
  -3   1   0  767.12   49.40
   2  -1   0 4289.77  278.87
   2  -1   0 3987.50  278.87
  -2   1   0 4152.48  278.67
   1  -1   0   61.09    3.80
   1  -1   0   56.29    4.00
   1  -1   0   55.89    4.00
   1  -1   0   49.90    3.80
  -1   1   0   46.30    3.70
  -1   1   0   52.09    3.70
  -1   1   0   54.19    3.90
  -1   1   0   50.59    3.80
  -1   1   0   50.49    3.90
   0   1   0 2464.65  166.08
  -1  -1   0 4999.20  329.67
   1   1   0 4791.32  329.67
  -2  -1   0   13.70    1.50
  -2  -1   0   14.80    1.70
  -2  -1   0   13.10    1.30
  -2  -1   0   15.00    1.60
   2   1   0   13.90    1.70
   2   1   0   14.30    1.10
   2   1   0   12.40    1.70
  -3  -1   0  299.47   21.50
  -3  -1   0  312.27   21.30
  -3  -1   0  312.77   21.40
  -3  -1   0  319.17   21.80
   3   1   0  287.87   21.70
   3   1   0  292.37   21.60
   3   1   0  337.47   21.80
   3   1   0  333.37   21.70
  -4  -1   0  311.77   20.90
  -4  -1   0  297.57   21.70
  -4  -1   0  299.47   21.10
  -4  -1   0  271.47   20.80
   4   1   0  324.47   21.40
   4   1   0  322.07   21.60
  -5  -1   0  597.44   46.80
  -5  -1   0  733.23   47.30
  -5  -1   0  635.04   47.20
   5   1   0  726.83   48.60
   5   1   0  773.52   48.90
  -6  -1   0  123.79    8.60
  -6  -1   0  101.99    8.40
  -6  -1   0  115.59    8.50
   6   1   0   93.19   10.00
   6   1   0   94.79    9.80
   6  -2   0  393.96   27.40
   6  -2   0  337.87   28.70
  -6   2   0  429.16   26.60
  -6   2   0  376.26   26.60
   5  -2   0  176.68   15.20
   5  -2   0  208.08   14.30
   5  -2   0  182.08   15.40
  -5   2   0  204.68   13.90
  -5   2   0  200.08   13.70
   4  -2   0   -4.00    2.70
   4  -2   0    1.40    2.70
   4  -2   0    1.20    2.50
  -4   2   0   -0.50    1.40
  -4   2   0    2.70    1.20
   3  -2   0  499.35   37.10
   3  -2   0  618.44   38.00
   3  -2   0  555.84   37.40
   3  -2   0  521.95   37.40
  -3   2   0  508.45   36.70
  -3   2   0  582.34   36.70
  -3   2   0  538.25   37.20
  -3   2   0  518.25   36.70
   2  -2   0  845.52   50.29
   2  -2   0  782.52   50.29
   2  -2   0  729.53   50.79
   2  -2   0  669.03   50.59
  -2   2   0  674.63   50.19
  -2   2   0  813.02   50.59
  -2   2   0  787.82   50.59
  -2   2   0  707.23   50.29
  -2   2   0  690.33   50.29
   0  -2   0 1820.72  110.79
   0  -2   0 1889.41  110.69
   0   2   0 1406.66  110.59
   0   2   0 1453.85  110.69
   0   2   0 1624.94  110.69
  -1  -2   0 5974.30  386.76
   1   2   0 5518.35  386.76
  -2  -2   0 2084.09  132.69
  -2  -2   0 1972.30  132.89
  -2  -2   0 2015.90  132.89
  -2  -2   0 1929.81  132.59
  -2  -2   0 1993.80  132.69
  -2  -2   0 1822.02  132.79
   2   2   0 2035.90  132.59
   2   2   0 1935.41  132.89
   2   2   0 1952.30  132.89
  -3  -2   0  374.86   27.60
  -3  -2   0  391.56   27.60
  -3  -2   0  403.86   28.00
  -3  -2   0  427.86   27.60
  -3  -2   0  415.36   27.80
  -3  -2   0  401.96   27.50
   3   2   0  391.36   27.90
   3   2   0  444.86   28.00
   3   2   0  369.36   27.90
   3   2   0  427.46   27.80
  -4  -2   0   76.39    6.90
  -4  -2   0   87.99    9.50
  -4  -2   0   91.29    7.80
  -4  -2   0   81.49    6.10
  -4  -2   0   81.09    6.40
   4   2   0   84.99    7.00
   4   2   0   71.69    7.60
   4   2   0   91.19    6.90
  -5  -2   0   21.60    3.00
  -5  -2   0   32.70    5.80
   5   2   0   31.20    5.90
  -6  -2   0  915.71   61.99
  -6  -2   0  970.90   61.69
  -6  -2   0  907.31   61.39
   6   2   0  896.01   62.19
   6   2   0  849.61   62.39
   6  -3   0  510.55   35.30
   6  -3   0  441.16   36.20
  -6   3   0  586.04   35.00
   5  -3   0  348.17   23.40
   5  -3   0  286.77   24.20
   5  -3   0  301.77   24.50
  -5   3   0  358.96   22.90
  -5   3   0  351.66   23.10
  -5   3   0  341.97   23.10
   4  -3   0  138.89   11.40
   4  -3   0  140.99   10.00
   4  -3   0  121.59   10.90
   4  -3   0  125.89   10.90
  -4   3   0  131.89    9.70
  -4   3   0  139.59    9.50
   3  -3   0  148.19   14.10
   3  -3   0  199.78   13.70
   3  -3   0  163.68   13.20
   3  -3   0  191.68   12.60
   3  -3   0  180.68   13.70
  -3   3   0  177.98   12.20
  -3   3   0  182.68   13.00
  -3   3   0  174.18   12.30
   2  -3   0 4041.20  307.07
   2  -3   0 4904.41  306.77
   2  -3   0 4542.75  307.27
   2  -3   0 4532.75  306.77
   2  -3   0 4173.28  306.97
   2  -3   0 4651.03  307.37
   2  -3   0 4862.41  306.87
  -2   3   0 4173.98  306.57
  -2   3   0 4874.01  307.17
  -2   3   0 4839.62  307.07
   1  -3   0  326.77   22.70
   1  -3   0  379.16   22.10
   1  -3   0  351.06   22.30
   1  -3   0  334.87   22.30
  -1   3   0  297.47   22.20
  -1   3   0  335.27   22.50
  -1   3   0  319.27   22.10
  -1   3   0  315.47   22.50
  -1   3   0  278.47   22.30
   0  -3   0  120.89    8.10
   0  -3   0  111.49    7.60
   0   3   0  108.79    7.40
   0   3   0  110.49    7.90
   0   3   0   98.79    7.70
   0   3   0  101.19    7.50
   1   3   0 4082.59  284.47
   1   3   0 4143.99  284.67
   1   3   0 4593.94  284.67
   1   3   0 4101.59  284.47
  -2  -3   0 3620.94  246.98
  -2  -3   0 3846.42  246.88
  -2  -3   0 3665.53  247.18
  -2  -3   0 3396.06  246.98
  -2  -3   0 3746.53  246.88
  -2  -3   0 3949.80  246.88
   2   3   0 3522.15  247.18
   2   3   0 3689.03  247.08
   2   3   0 3680.43  246.88
   2   3   0 3586.44  246.98
  -3  -3   0   66.19    4.70
  -3  -3   0   61.49    5.20
  -3  -3   0   65.29    5.90
  -3  -3   0   61.69    4.60
  -3  -3   0   58.99    4.80
  -3  -3   0   79.89    6.40
   3   3   0   54.89    5.60
   3   3   0   62.89    5.50
  -4  -3   0   31.30    4.30
  -4  -3   0   23.40    3.30
   4   3   0   29.70    3.80
   4   3   0   24.00    3.90
   4   3   0   30.90    4.00
  -5  -3   0  215.88   15.80
  -5  -3   0  226.88   16.50
   5   3   0  218.28   16.60
   5   3   0  228.48   16.40
  -6  -3   0   64.39    6.00
  -6  -3   0   68.79    5.40
  -6  -3   0   59.69    7.80
   6   3   0   57.59    7.60
   6   3   0   57.69    7.40
   5  -4   0   53.09    6.20
   5  -4   0   53.99    8.30
   5  -4   0   60.49    6.20
  -5   4   0   68.29    5.40
  -5   4   0   64.49    5.10
   4  -4   0  397.26   29.30
   4  -4   0  369.76   28.60
   4  -4   0  427.66   28.10
  -4   4   0  421.56   27.60
   3  -4   0 1141.49   79.99
   3  -4   0 1175.68   80.49
   3  -4   0 1233.28   79.69
   3  -4   0 1168.08   80.59
  -3   4   0 1152.68   80.19
  -3   4   0 1149.39   80.09
  -3   4   0 1212.48   79.29
   2  -4   0  824.32   60.79
   2  -4   0  868.51   60.59
   2  -4   0  954.40   60.69
   2  -4   0  869.51   61.29
  -2   4   0  851.41   60.29
  -2   4   0  966.20   60.99
  -2   4   0  923.41   60.89
   1  -4   0 3879.41  236.58
   1  -4   0 3397.76  237.08
   1  -4   0 3429.36  236.58
   1  -4   0 3266.87  236.78
   1  -4   0 3129.29  236.98
  -1   4   0 3806.22  236.98
  -1   4   0 3606.54  236.88
  -1   4   0 3582.64  236.28
   0  -4   0 2545.15  188.88
   0  -4   0 2622.94  188.58
   0  -4   0 3263.67  188.78
   0  -4   0 2415.06  189.08
   0   4   0 3114.39  189.08
   0   4   0 2929.21  188.88
   0   4   0 2861.71  188.48
   0   4   0 2668.83  188.68
  -1  -4   0 3429.86  210.68
  -1  -4   0 3476.35  210.38
  -1  -4   0 3377.16  210.58
  -1  -4   0 3199.98  210.58
  -1  -4   0 2733.33  210.68
  -1  -4   0 3196.58  210.78
  -1  -4   0 3385.86  210.48
  -1  -4   0 2870.01  210.48
   1   4   0 2715.73  210.48
   1   4   0 3203.68  210.58
   1   4   0 2756.32  210.48
   1   4   0 3350.86  210.98
   1   4   0 2977.40  210.78
  -2  -4   0   68.49    6.30
  -2  -4   0   57.89    5.10
  -2  -4   0   63.99    5.00
  -2  -4   0   73.39    4.80
  -2  -4   0   75.29    5.10
  -2  -4   0   67.59    4.80
  -2  -4   0   70.49    5.40
  -2  -4   0   65.39    5.30
  -2  -4   0   63.99    5.60
   2   4   0   63.99    5.10
   2   4   0   57.59    5.00
   2   4   0   65.39    5.70
  -3  -4   0  330.17   23.20
  -3  -4   0  290.87   23.00
  -3  -4   0  370.16   23.10
  -3  -4   0  345.57   22.90
  -3  -4   0  344.07   23.30
   3   4   0  304.17   23.60
   3   4   0  343.57   23.20
   3   4   0  348.87   23.20
  -4  -4   0  107.79    8.30
  -4  -4   0  111.39    9.00
   4   4   0  118.89    9.00
   4   4   0  100.19    9.40
   4   4   0  113.79    8.80
  -5  -4   0   80.19    8.00
  -5  -4   0   84.79    6.90
   5   4   0   77.99    7.80
   5   4   0   82.39    7.70
  -6  -4   0  774.12   52.49
  -6  -4   0  804.32   53.39
   6   4   0  754.72   53.49
   6   4   0  768.32   54.09
   5  -5   0  257.47   18.80
   5  -5   0  228.98   20.50
   5  -5   0  253.77   19.20
  -5   5   0  293.07   18.50
  -5   5   0  299.77   18.70
   4  -5   0  131.69   10.30
   4  -5   0  122.39   11.50
   4  -5   0  118.09   12.10
   4  -5   0  121.19   10.20
  -4   5   0  135.99    9.50
  -4   5   0  145.89    9.60
   3  -5   0 3022.80  195.38
   3  -5   0 2745.73  197.28
   3  -5   0 2907.81  196.38
   3  -5   0 2749.72  195.58
  -3   5   0 3047.30  194.88
   2  -5   0  187.58   13.80
   2  -5   0  202.48   13.40
   2  -5   0  173.08   15.30
   2  -5   0  197.58   13.60
   2  -5   0  175.58   14.50
  -2   5   0  189.08   12.80
  -2   5   0  179.58   13.90
  -2   5   0  183.68   14.00
   1  -5   0   36.50    5.50
   1  -5   0   33.40    3.30
   1  -5   0   32.00    4.10
   1  -5   0   36.60    4.00
   1  -5   0   39.20    3.50
   1  -5   0   32.90    3.80
  -1   5   0   31.70    3.00
  -1   5   0   33.70    2.80
  -1   5   0   29.50    3.90
  -1   5   0   30.70    4.00
   0  -5   0  962.50   62.99
   0  -5   0  961.30   62.59
   0  -5   0  849.12   62.69
   0  -5   0  862.61   63.49
   0  -5   0  975.40   62.59
   0   5   0  928.11   62.49
   0   5   0 1046.10   63.29
   0   5   0  822.42   62.79
  -1  -5   0  984.00   61.39
  -1  -5   0  909.71   61.19
  -1  -5   0  974.10   61.29
  -1  -5   0  867.21   61.19
  -1  -5   0  960.90   61.59
  -1  -5   0  885.61   61.49
  -1  -5   0  767.02   62.09
  -1  -5   0  918.41   61.09
  -1  -5   0 1015.60   61.09
   1   5   0  981.40   61.19
   1   5   0  816.72   61.09
   1   5   0  791.12   61.49
   1   5   0  892.41   61.69
  -2  -5   0  472.35   30.40
  -2  -5   0  489.45   30.80
  -2  -5   0  402.06   30.50
  -2  -5   0  451.75   31.60
  -2  -5   0  462.95   30.60
  -2  -5   0  453.35   31.10
  -2  -5   0  428.46   30.40
   2   5   0  411.66   31.10
   2   5   0  457.25   30.60
  -3  -5   0    1.80    2.30
  -3  -5   0    0.00    2.10
  -3  -5   0    1.80    1.80
  -3  -5   0    0.90    1.80
  -3  -5   0    3.30    1.90
  -3  -5   0    5.60    1.90
   3   5   0    5.80    6.10
   3   5   0    3.20    2.10
   3   5   0    2.00    1.70
   3   5   0    2.80    4.50
  -4  -5   0  733.13   51.79
  -4  -5   0  777.72   51.99
  -4  -5   0  781.02   52.29
   4   5   0  731.83   52.29
   4   5   0  795.12   52.29
  -5  -5   0  101.99    9.50
  -5  -5   0   99.09    8.60
   5   5   0  115.69    9.30
   5   5   0  108.69    9.50
  -6  -5   0   84.69    8.40
  -6  -5   0   70.69    7.40
  -6  -5   0   85.19    6.20
   6   5   0   75.99    8.20
   6   5   0   69.69    8.90
   5  -6   0   10.70    4.70
   5  -6   0   13.10    5.00
   5  -6   0   14.00    2.50
  -5   6   0   10.80    2.00
  -5   6   0   18.50    2.90
   4  -6   0   17.50    5.10
   4  -6   0   14.50    3.70
   4  -6   0   11.10    4.50
   4  -6   0   13.30    2.40
  -4   6   0   11.70    1.90
  -4   6   0   12.30    1.90
   3  -6   0  169.08   15.40
   3  -6   0  173.88   14.30
   3  -6   0  175.68   13.60
   3  -6   0  193.58   13.40
  -3   6   0  200.68   13.10
  -3   6   0  181.38   12.80
   2  -6   0  440.96   31.20
   2  -6   0  428.46   32.40
   2  -6   0  460.95   31.70
   2  -6   0  506.25   31.10
   2  -6   0  411.56   32.50
  -2   6   0  433.16   30.70
  -2   6   0  476.75   30.90
   1  -6   0  131.59   12.20
   1  -6   0  147.79   10.20
   1  -6   0  130.39   10.60
   1  -6   0  161.78   10.70
   1  -6   0  130.69   11.80
   1  -6   0  135.69   10.90
  -1   6   0  145.29    9.90
  -1   6   0  131.79   11.10
  -1   6   0  139.59   11.10
   0  -6   0   20.60    2.10
   0  -6   0   17.60    3.10
   0  -6   0   10.50    3.90
   0  -6   0   19.40    2.60
   0  -6   0   21.70    2.90
   0  -6   0   16.70    3.00
   0  -6   0   12.60    2.60
   0   6   0   22.30    3.70
   0   6   0   15.40    2.30
  -1  -6   0   83.79    6.30
  -1  -6   0   94.09    7.20
  -1  -6   0   78.89    6.40
  -1  -6   0   73.39    8.60
  -1  -6   0   80.69    5.90
  -1  -6   0   70.39    6.80
   1   6   0   67.89    7.20
   1   6   0   84.29    6.00
   1   6   0   72.89    6.20
  -2  -6   0   89.39    6.80
  -2  -6   0   83.79    7.20
  -2  -6   0   82.39    7.20
  -2  -6   0   85.09    6.50
  -2  -6   0   88.69    6.50
  -2  -6   0   82.09    7.10
  -2  -6   0   91.79    8.10
   2   6   0   87.89    6.60
   2   6   0   68.29    8.20
  -3  -6   0   19.40    2.90
  -3  -6   0   25.30    3.40
  -3  -6   0   23.90    3.10
   3   6   0   28.50    3.80
   3   6   0   30.80    4.30
  -4  -6   0  124.19    9.80
  -4  -6   0  112.19   10.00
   4   6   0  122.19    9.70
  -5  -6   0  334.87   22.60
  -5  -6   0  305.37   23.30
  -5  -6   0  341.17   23.50
   5   6   0  328.77   23.50
   5   6   0  328.07   23.60
   4  -7   0  338.97   28.20
   4  -7   0  372.06   27.60
   4  -7   0  390.36   25.80
  -4   7   0  387.16   26.00
   3  -7   0  160.78   13.00
   3  -7   0  167.68   13.50
   3  -7   0  165.68   12.30
   3  -7   0  159.08   14.80
  -3   7   0  165.28   11.90
  -3   7   0  182.08   12.10
   2  -7   0  352.26   24.00
   2  -7   0  326.77   25.90
   2  -7   0  338.27   23.70
   2  -7   0  357.06   24.80
   2  -7   0  335.17   26.50
   2  -7   0  342.87   24.40
  -2   7   0  358.66   23.80
   1  -7   0  212.78   16.20
   1  -7   0  230.08   15.40
   1  -7   0  213.58   15.70
   1  -7   0  220.08   15.60
   1  -7   0  234.78   16.60
   1  -7   0  209.48   18.10
  -1   7   0  222.48   15.40
   0  -7   0  288.27   20.70
   0  -7   0  312.47   21.40
   0  -7   0  287.97   21.20
   0  -7   0  315.27   20.50
   0  -7   0  295.57   22.90
   0  -7   0  298.77   20.60
   0   7   0  282.47   20.50
  -1  -7   0 1932.91  122.89
  -1  -7   0 1665.33  123.89
  -1  -7   0 1801.92  122.79
  -1  -7   0 1720.83  122.29
  -1  -7   0 1813.92  122.39
  -1  -7   0 1843.02  122.19
   1   7   0 1910.31  122.39
  -2  -7   0  209.58   16.30
  -2  -7   0  237.58   16.00
  -2  -7   0  224.28   15.70
  -2  -7   0  218.48   16.20
  -2  -7   0  217.08   17.00
   2   7   0  233.68   15.90
  -3  -7   0   99.79    8.00
  -3  -7   0   93.99    8.00
  -3  -7   0   90.29    8.40
   3   7   0  102.09    8.10
   3   7   0   99.39    8.30
  -4  -7   0  208.58   16.10
  -4  -7   0  226.38   15.20
  -4  -7   0  213.38   15.80
   4   7   0  218.78   15.90
  -5  -7   0   84.69    8.10
  -5  -7   0   74.29    6.90
   5   7   0   90.59    7.70
   5   7   0   69.49   11.30
   3  -8   0   14.10    2.50
   3  -8   0    8.30    3.90
  -3   8   0    9.40    1.90
   2  -8   0 1056.49   78.79
   2  -8   0 1094.19   77.09
   2  -8   0 1130.99   76.39
   2  -8   0 1180.38   76.69
   2  -8   0 1124.39   77.29
  -2   8   0 1194.18   76.59
   1  -8   0  515.95   41.90
   1  -8   0  542.75   40.10
   1  -8   0  664.83   41.40
   1  -8   0  605.74   39.70
  -1   8   0  566.14   39.40
   0  -8   0   96.99    9.90
   0  -8   0  109.79    7.90
   0  -8   0  118.09    9.60
   0  -8   0  101.09    8.40
   0  -8   0   97.89    8.40
   0  -8   0   97.89   12.20
   0   8   0  116.89    8.00
   0   8   0   96.39    8.10
  -1  -8   0  499.55   34.70
  -1  -8   0  506.35   34.80
  -1  -8   0  496.55   34.00
  -1  -8   0  479.45   33.80
  -1  -8   0  473.45   34.00
   1   8   0  513.65   33.90
  -2  -8   0  171.98   14.40
  -2  -8   0  200.68   15.30
  -2  -8   0  199.68   13.60
  -2  -8   0  167.38   14.30
  -2  -8   0  198.08   14.00
   2   8   0  188.28   13.60
  -3  -8   0  123.29   11.00
  -3  -8   0  134.19   10.50
  -3  -8   0  143.29   10.50
   3   8   0  132.09   10.80
   3   8   0  137.99   10.40
  -4  -8   0   -0.20    3.30
  -4  -8   0    5.70    3.00
   4   8   0   -2.80    2.70
   3  -9   0    9.90    3.90
   3  -9   0    9.10    2.20
  -3   9   0   11.20    2.10
   2  -9   0   94.99    7.70
   2  -9   0   85.29    8.90
   2  -9   0   99.49    7.90
  -2   9   0   96.89    7.60
  -2   9   0  106.49    7.50
   1  -9   0  199.88   14.10
   1  -9   0  196.38   15.40
   1  -9   0  195.48   14.50
   1  -9   0  195.08   18.90
  -1   9   0  189.48   14.20
  -1   9   0  218.18   14.30
   0  -9   0  383.66   26.00
   0  -9   0  360.16   26.20
   0  -9   0  351.36   26.30
   0  -9   0  395.96   27.10
   0  -9   0  367.76   27.70
   0   9   0  408.26   26.20
   0   9   0  370.86   26.20
  -1  -9   0   -1.60    6.30
  -1  -9   0    3.20    3.60
  -1  -9   0    6.40    3.10
  -1  -9   0    4.70    2.00
   1   9   0    3.60    2.00
  -2  -9   0  135.69    9.80
  -2  -9   0  123.89   13.00
  -2  -9   0  123.89    9.60
   2   9   0  118.19    9.70
  -3  -9   0  240.28   16.60
  -3  -9   0  219.88   17.50
  -3  -9   0  233.58   16.50
   3   9   0  221.48   16.70
  -4  -9   0   60.59    7.80
   4   9   0   49.20    6.00
   4   9   0   50.49    6.70
   2 -10   0   -1.50    2.20
   2 -10   0    1.80    2.40
   2 -10   0   -0.10    3.20
  -2  10   0    1.10    1.50
  -2  10   0    1.00    2.30
   1 -10   0  243.58   17.70
   1 -10   0  240.28   16.80
   1 -10   0  229.28   17.20
  -1  10   0  237.28   17.20
  -1  10   0  250.57   16.90
   0 -10   0    0.40    4.20
   0 -10   0    5.20    2.10
   0 -10   0   12.90    4.80
   0  10   0    5.00    2.10
  -1 -10   0   30.80    4.10
  -1 -10   0   35.60    4.40
   1  10   0   40.80    4.40
  -2 -10   0  142.99   11.20
  -2 -10   0  145.49   11.30
   2  10   0  145.39   11.30
   2  10   0  160.78   11.20
  -3 -10   0   89.39    7.50
  -3 -10   0   87.69    8.60
   3  10   0   86.39    7.40
   2  10  -1   31.20    4.30
   2  10  -1   38.70    4.60
  -2 -10   1   18.80    5.50
  -2 -10   1   40.50    4.50
   1  10  -1   31.90    4.40
  -1 -10   1   36.20    4.60
  -1 -10   1   31.10    4.80
   0  10  -1  902.51   58.49
   0 -10   1  793.92   58.59
   0 -10   1  885.21   58.39
  -1  10  -1   90.29    7.70
   1 -10   1   79.79    7.60
   1 -10   1   82.49    7.00
   4   9  -1    3.10    2.60
   4   9  -1    2.20    3.30
  -4  -9   1    6.70    5.20
   3   9  -1  353.46   24.30
  -3  -9   1  342.87   24.20
  -3  -9   1  343.07   24.20
   2   9  -1  908.31   61.89
   2   9  -1  947.41   62.09
  -2  -9   1  930.61   61.79
  -2  -9   1  880.21   62.59
  -2  -9   1  898.11   61.89
  -2  -9   1  896.71   62.69
   1   9  -1   28.60    4.00
  -1  -9   1   26.20    6.40
  -1  -9   1   25.40    4.10
  -1  -9   1   30.60    4.10
  -1  -9   1   35.10    4.20
   0   9  -1  311.57   20.10
   0  -9   1  294.37   20.00
   0  -9   1  258.57   20.30
   0  -9   1  254.37   23.70
   0  -9   1  321.47   21.10
   0  -9   1  287.37   21.70
   0  -9   1  273.17   20.30
  -1   9  -1 1304.47   78.99
  -1   9  -1 1122.19   78.79
   1  -9   1 1131.09   79.49
   1  -9   1 1150.38   78.89
   1  -9   1 1050.79   80.89
   1  -9   1 1189.28   78.79
   1  -9   1 1199.68   79.49
  -2   9  -1    0.50    2.00
  -2   9  -1    0.50    1.60
   2  -9   1   -8.70   14.80
   2  -9   1    1.60    2.20
   2  -9   1    2.00    2.50
   2  -9   1   -2.00    3.30
   4   8  -1    9.60    3.00
  -4  -8   1    6.90    4.00
   3   8  -1  130.19    9.80
   3   8  -1  117.49   10.60
  -3  -8   1  132.69   10.80
  -3  -8   1  122.79   10.00
  -3  -8   1  121.29    9.80
   2   8  -1  188.98   13.70
  -2  -8   1  194.78   15.40
  -2  -8   1  182.48   13.50
  -2  -8   1  198.58   13.70
  -2  -8   1  170.28   14.30
   1   8  -1  822.22   51.29
  -1  -8   1  742.83   51.29
  -1  -8   1  780.12   51.19
  -1  -8   1  686.03   53.59
  -1  -8   1  772.92   52.09
  -1  -8   1  709.83   51.29
   0   8  -1    1.90    1.80
   0   8  -1    1.90    2.40
   0  -8   1    0.50    5.80
   0  -8   1    1.80    1.60
   0  -8   1   -3.00    2.60
   0  -8   1   -0.60    2.30
   0  -8   1   -4.10    4.00
   0  -8   1    5.20    3.50
  -1   8  -1   42.70    4.60
   1  -8   1   39.20    8.30
   1  -8   1   52.59    5.20
   1  -8   1   44.20    6.40
   1  -8   1   50.29    4.50
   1  -8   1   42.80    6.10
  -2   8  -1  578.14   37.70
   2  -8   1  516.25   38.40
   2  -8   1  500.85   40.30
   2  -8   1  564.04   37.90
   2  -8   1  586.34   38.60
   2  -8   1  564.84   37.70
  -3   8  -1    6.80    1.80
   3  -8   1    8.50    4.20
   3  -8   1    0.70    4.40
   3  -8   1    8.20    2.50
   5   7  -1  398.86   30.90
   5   7  -1  498.95   31.80
  -5  -7   1  429.26   30.00
   4   7  -1   15.00    3.40
  -4  -7   1   11.70    3.50
  -4  -7   1   17.40    2.70
   3   7  -1  216.68   16.90
   3   7  -1  238.38   16.80
  -3  -7   1  222.28   16.50
  -3  -7   1  228.18   16.00
  -3  -7   1  241.98   17.70
   2   7  -1  633.84   42.60
  -2  -7   1  656.23   43.30
  -2  -7   1  616.34   42.60
  -2  -7   1  599.04   42.70
  -2  -7   1  641.04   42.60
  -2  -7   1  595.14   42.40
   1   7  -1    9.50    1.80
  -1  -7   1    2.30    4.80
  -1  -7   1   10.50    2.40
  -1  -7   1   11.30    3.70
  -1  -7   1    6.00    2.20
  -1  -7   1    4.70    1.50
  -1  -7   1   12.60    3.20
   0   7  -1  327.57   23.80
   0  -7   1  389.16   24.80
   0  -7   1  333.67   26.20
   0  -7   1  364.96   23.80
   0  -7   1  334.07   24.00
   0  -7   1  340.07   24.00
   0  -7   1  337.77   24.50
  -1   7  -1 1739.03  114.29
   1  -7   1 1739.83  114.99
   1  -7   1 1623.54  114.69
   1  -7   1 1722.43  114.19
   1  -7   1 1638.74  116.09
  -2   7  -1  242.48   16.40
   2  -7   1  220.48   19.40
   2  -7   1  242.38   17.60
   2  -7   1  225.18   16.40
   2  -7   1  230.68   17.30
   2  -7   1  245.18   16.70
   2  -7   1  237.08   18.90
  -3   7  -1   72.49    5.70
   3  -7   1   76.79    9.50
   3  -7   1   63.69    6.20
   3  -7   1   61.89    7.40
   3  -7   1   75.49    8.10
  -4   7  -1   43.40    3.80
   4  -7   1   38.60    4.90
   4  -7   1   27.50    5.70
   4  -7   1   32.40    5.50
   5   6  -1  493.25   33.60
   5   6  -1  467.35   33.70
  -5  -6   1  481.75   32.80
   4   6  -1  628.74   43.10
  -4  -6   1  618.44   43.10
  -4  -6   1  628.04   42.50
   3   6  -1   40.40    4.40
   3   6  -1   29.90    4.20
  -3  -6   1   32.60    4.60
  -3  -6   1   38.70    5.10
  -3  -6   1   35.00    5.20
  -3  -6   1   44.80    4.50
  -3  -6   1   31.40    4.40
   2   6  -1    2.30    1.80
  -2  -6   1   -0.80    2.00
  -2  -6   1    2.90    1.50
  -2  -6   1    1.40    3.30
  -2  -6   1    3.10    2.70
  -2  -6   1    0.90    2.50
  -2  -6   1    4.70    1.80
  -2  -6   1    1.50    1.60
  -2  -6   1    4.70    2.50
   1   6  -1 1482.95  109.79
   1   6  -1 1737.03  109.19
  -1  -6   1 1466.25  110.49
  -1  -6   1 1738.43  109.69
  -1  -6   1 1669.13  109.09
  -1  -6   1 1626.04  109.59
  -1  -6   1 1624.14  109.19
  -1  -6   1 1639.24  109.49
  -1  -6   1 1629.34  109.19
  -1  -6   1 1562.54  109.19
   0   6  -1 1186.78   85.29
   0   6  -1 1209.98   84.89
   0  -6   1 1287.17   84.59
   0  -6   1 1291.67   84.99
   0  -6   1 1380.16   85.19
   0  -6   1 1226.78   84.69
   0  -6   1 1293.57   84.59
   0  -6   1 1197.48   86.09
   0  -6   1 1202.68   84.99
  -1   6  -1    9.50    3.20
  -1   6  -1   13.60    2.10
  -1   6  -1   11.70    3.70
   1  -6   1   16.50    2.30
   1  -6   1   12.30    2.60
   1  -6   1   15.20    3.00
   1  -6   1   17.40    4.10
   1  -6   1   14.70    2.90
   1  -6   1   15.30    2.10
   1  -6   1   11.50    4.00
   1  -6   1   11.70    4.20
  -2   6  -1  560.64   40.50
  -2   6  -1  653.93   40.70
   2  -6   1  599.04   41.10
   2  -6   1  580.44   42.30
   2  -6   1  567.34   42.40
   2  -6   1  588.24   41.40
   2  -6   1  645.04   40.90
   2  -6   1  587.44   40.60
  -3   6  -1  356.46   23.80
   3  -6   1  348.47   25.00
   3  -6   1  349.87   25.50
   3  -6   1  337.57   26.50
  -4   6  -1   68.19    6.10
  -4   6  -1   89.19    6.20
   4  -6   1   80.49    6.70
   4  -6   1   74.49    9.60
   4  -6   1   69.69    7.50
   5   5  -1    7.20    3.30
   5   5  -1   16.30    3.80
  -5  -5   1    7.90    3.30
  -5  -5   1    4.20    3.00
  -5  -5   1   11.50    2.20
   4   5  -1   75.49    6.40
  -4  -5   1   54.99    6.10
  -4  -5   1   69.89    6.80
   3   5  -1 1127.39   74.39
   3   5  -1 1206.58   74.49
  -3  -5   1  982.30   74.59
  -3  -5   1 1147.29   74.29
  -3  -5   1  996.40   74.09
  -3  -5   1 1043.00   74.09
  -3  -5   1 1125.29   74.79
  -3  -5   1 1147.29   74.49
  -3  -5   1 1100.89   74.29
   2   5  -1   70.69    7.60
   2   5  -1   81.39    7.80
   2   5  -1   92.89    6.80
  -2  -5   1   95.09    6.90
  -2  -5   1   91.39    6.50
  -2  -5   1   87.29    6.60
  -2  -5   1   97.99    7.20
  -2  -5   1   85.09    6.80
  -2  -5   1   92.39    7.90
  -2  -5   1   83.59    7.10
   1   5  -1   43.20    3.40
   1   5  -1   33.60    4.40
   1   5  -1   31.00    4.70
  -1  -5   1   43.50    3.10
  -1  -5   1   32.20    3.20
  -1  -5   1   30.80    4.30
  -1  -5   1   41.60    4.40
  -1  -5   1   32.20    3.70
  -1  -5   1   34.60    5.80
  -1  -5   1   36.40    3.70
  -1  -5   1   35.40    4.50
  -1  -5   1   42.00    3.60
   0   5  -1 6921.51  492.75
   0   5  -1 6804.82  493.15
   0   5  -1 7570.34  493.45
   0  -5   1 6868.81  493.05
   0  -5   1 7626.24  492.85
   0  -5   1 6713.73  493.85
   0  -5   1 7674.03  493.35
   0  -5   1 7556.64  492.85
   0  -5   1 8133.49  493.15
   0  -5   1 7421.66  492.95
  -1   5  -1  906.81   63.59
  -1   5  -1  990.60   63.59
   1  -5   1 1011.70   62.99
   1  -5   1  873.01   63.89
   1  -5   1  889.51   64.09
   1  -5   1  981.20   63.29
   1  -5   1  886.21   62.89
   1  -5   1  906.01   63.19
  -2   5  -1    7.20    1.30
  -2   5  -1    6.20    2.90
  -2   5  -1    8.90    3.50
   2  -5   1    9.40    3.30
   2  -5   1    8.40    1.70
   2  -5   1   11.70    3.80
   2  -5   1    7.30    2.00
   2  -5   1    7.30    2.50
   2  -5   1    8.20    2.50
   2  -5   1    3.00    3.30
  -3   5  -1   32.30    3.10
   3  -5   1   34.30    6.10
   3  -5   1   32.10    4.20
   3  -5   1   21.30    5.40
   3  -5   1   37.00    4.40
   3  -5   1   32.50    4.50
   3  -5   1   32.00    5.50
  -4   5  -1 1221.48   73.59
  -4   5  -1 1088.09   73.29
   4  -5   1 1106.19   73.59
   4  -5   1 1082.29   73.89
   4  -5   1  923.71   74.79
  -5   5  -1   36.80    3.70
  -5   5  -1   32.30    3.50
   5  -5   1   28.80    5.90
   5  -5   1   33.10    5.40
   5  -5   1   33.20    4.00
   6   4  -1   19.40    4.50
   6   4  -1   27.40    5.10
  -6  -4   1   17.10    4.00
  -6  -4   1   20.10    3.50
  -6  -4   1   21.40    4.50
   5   4  -1   27.70    4.30
   5   4  -1   29.60    5.40
  -5  -4   1   33.40    4.50
  -5  -4   1   24.20    3.90
   4   4  -1  599.74   41.10
   4   4  -1  643.04   41.40
  -4  -4   1  555.74   40.70
  -4  -4   1  594.54   41.10
   3   4  -1   27.60    4.20
   3   4  -1   29.50    3.20
   3   4  -1   22.60    3.90
  -3  -4   1   28.00    3.40
  -3  -4   1   24.40    3.10
  -3  -4   1   25.90    4.40
  -3  -4   1   27.00    2.90
  -3  -4   1   24.50    3.90
  -3  -4   1   27.20    3.30
  -3  -4   1   21.60    2.60
   2   4  -1 2139.89  142.79
   2   4  -1 2125.39  143.09
   2   4  -1 2101.69  143.29
  -2  -4   1 1838.92  142.59
  -2  -4   1 2004.10  142.69
  -2  -4   1 2188.68  142.89
  -2  -4   1 2195.58  143.09
  -2  -4   1 2230.68  142.79
  -2  -4   1 2371.46  142.89
  -2  -4   1 1998.80  142.69
   1   4  -1  303.37   19.40
   1   4  -1  264.07   19.30
   1   4  -1  306.27   20.00
   1   4  -1  279.57   19.70
  -1  -4   1  304.47   19.30
  -1  -4   1  272.27   19.80
  -1  -4   1  262.17   19.50
  -1  -4   1  298.17   19.50
  -1  -4   1  241.98   20.50
  -1  -4   1  274.17   19.60
  -1  -4   1  317.77   19.60
  -1  -4   1  272.97   19.40
  -1  -4   1  290.47   19.80
   0   4  -1   19.10    2.50
   0   4  -1   22.50    2.80
   0   4  -1   18.30    2.20
   0   4  -1   19.80    2.70
   0  -4   1   18.50    3.20
   0  -4   1   22.10    2.10
   0  -4   1   16.10    2.40
   0  -4   1   15.80    3.10
   0  -4   1   24.80    2.70
   0  -4   1   12.80    3.00
   0  -4   1   25.00    2.50
   0  -4   1   21.30    2.90
   0  -4   1   19.60    2.00
  -1   4  -1  411.56   28.70
  -1   4  -1  418.06   27.90
  -1   4  -1  442.86   28.70
   1  -4   1  434.26   28.20
   1  -4   1  458.75   28.40
   1  -4   1  416.66   28.40
   1  -4   1  431.76   28.20
   1  -4   1  349.77   29.00
   1  -4   1  395.46   28.50
   1  -4   1  366.96   28.90
   1  -4   1  419.46   29.10
  -2   4  -1    2.50    1.70
  -2   4  -1    4.00    0.90
  -2   4  -1    4.50    2.10
   2  -4   1    3.50    2.30
   2  -4   1    3.60    2.60
   2  -4   1    2.00    2.10
   2  -4   1    6.50    1.70
   2  -4   1    0.70    2.60
  -3   4  -1   64.19    6.90
  -3   4  -1   54.19    4.10
   3  -4   1   56.29    7.50
   3  -4   1   58.09    6.90
   3  -4   1   45.80    6.50
   3  -4   1   39.70    5.90
   3  -4   1   51.89    4.70
  -4   4  -1  113.59    8.20
   4  -4   1  108.89    8.90
   4  -4   1  101.49   10.60
   4  -4   1  124.29    9.00
  -5   4  -1  347.37   22.20
  -5   4  -1  332.87   22.10
   5  -4   1  322.87   22.60
   5  -4   1  285.37   23.80
   5  -4   1  304.87   22.30
   6   3  -1  391.66   29.00
   6   3  -1  387.26   29.20
  -6  -3   1  420.96   28.20
  -6  -3   1  429.46   29.00
  -6  -3   1  411.46   27.90
   5   3  -1  460.05   32.20
   5   3  -1  455.35   32.00
  -5  -3   1  467.75   31.90
  -5  -3   1  445.56   31.40
   4   3  -1   73.09    6.20
   4   3  -1   65.99    5.90
  -4  -3   1   60.39    5.50
  -4  -3   1   65.59    6.20
   3   3  -1  142.39   10.20
   3   3  -1  121.99   10.30
   3   3  -1  145.29    9.90
  -3  -3   1  142.89    9.80
  -3  -3   1  138.59   10.10
  -3  -3   1  135.29   10.00
  -3  -3   1  142.79    9.60
  -3  -3   1  133.79    9.70
  -3  -3   1  123.89    9.80
   2   3  -1 1771.92  114.79
   2   3  -1 1708.83  114.89
  -2  -3   1 1636.94  114.79
  -2  -3   1 1746.63  114.59
  -2  -3   1 1865.51  114.59
  -2  -3   1 1867.21  114.79
  -2  -3   1 1579.84  114.69
  -2  -3   1 1767.02  114.49
  -2  -3   1 1589.44  114.69
  -2  -3   1 1466.45  114.59
  -2  -3   1 1721.13  114.99
  -2  -3   1 1697.03  114.69
   1   3  -1 4030.10  266.77
   1   3  -1 4094.19  266.97
   1   3  -1 3518.95  266.67
   1   3  -1 3509.75  266.97
   1   3  -1 4170.48  267.17
  -1  -3   1 4103.59  266.67
  -1  -3   1 4339.27  266.97
   0   3  -1  278.07   19.30
   0   3  -1  280.77   19.60
   0   3  -1  274.27   19.20
   0   3  -1  273.87   19.30
   0   3  -1  253.47   19.20
   0  -3   1  326.27   19.30
   0  -3   1  287.57   19.30
  -1   3  -1 1409.56   93.89
  -1   3  -1 1361.56   93.79
  -1   3  -1 1391.66   93.69
  -1   3  -1 1509.35   93.99
   1  -3   1 1181.08   94.09
   1  -3   1 1273.67   93.69
   1  -3   1 1469.65   93.69
   1  -3   1 1510.75   94.09
  -2   3  -1 3473.45  210.88
  -2   3  -1 3463.15  210.88
  -2   3  -1 2958.90  210.28
   2  -3   1 3325.67  211.08
   2  -3   1 2704.63  210.68
   2  -3   1 2892.21  211.08
   2  -3   1 3246.68  210.58
   2  -3   1 3302.47  210.68
   2  -3   1 3099.39  211.08
   2  -3   1 2797.62  210.78
  -3   3  -1   74.29    6.30
  -3   3  -1   73.59    5.20
  -3   3  -1   59.09    5.40
  -3   3  -1   77.69    6.50
   3  -3   1   68.89    6.60
   3  -3   1   73.59    7.10
   3  -3   1   67.59    6.60
   3  -3   1   77.89    5.70
   3  -3   1   57.19    7.80
  -4   3  -1  132.09    9.20
  -4   3  -1  125.29    9.50
   4  -3   1  134.29   11.80
   4  -3   1  116.89   10.60
   4  -3   1  127.69   11.30
   4  -3   1  139.69    9.80
  -5   3  -1   -0.40    2.70
  -5   3  -1    1.50    1.70
   5  -3   1   -0.20    3.90
   5  -3   1    0.00    2.40
   5  -3   1    6.20    3.90
   5  -3   1    1.20    2.80
  -6   3  -1   38.00    3.90
   6  -3   1   33.00    6.20
   6  -3   1   43.20    5.20
   6   2  -1   68.39    7.90
   6   2  -1   67.59    8.20
  -6  -2   1   73.09    5.90
  -6  -2   1   68.69    6.30
  -6  -2   1   70.99    8.30
   5   2  -1 1202.28   80.79
   5   2  -1 1142.39   80.99
  -5  -2   1 1180.88   80.29
  -5  -2   1 1218.68   80.69
   4   2  -1    5.90    2.20
   4   2  -1    9.90    2.30
   4   2  -1   -0.20    4.00
  -4  -2   1    4.70    2.10
  -4  -2   1    2.50    1.60
  -4  -2   1    4.10    1.50
   3   2  -1  462.35   30.20
   3   2  -1  420.06   30.30
   3   2  -1  430.86   30.30
  -3  -2   1  428.16   30.00
  -3  -2   1  478.65   30.00
  -3  -2   1  380.96   29.90
  -3  -2   1  444.66   30.20
  -3  -2   1  435.46   29.80
  -3  -2   1  487.45   30.20
   2   2  -1 2496.15  176.68
   2   2  -1 2617.54  176.58
   2   2  -1 2824.62  176.78
   2   2  -1 2735.53  176.58
  -2  -2   1 2708.63  176.88
  -2  -2   1 2368.76  176.68
  -2  -2   1 2587.44  176.58
  -2  -2   1 2678.33  176.48
  -2  -2   1 2444.86  176.58
  -2  -2   1 2781.42  176.58
   0   2  -1  565.94   43.40
   0   2  -1  659.23   43.70
   0   2  -1  629.84   43.40
   0   2  -1  608.34   43.50
   0  -2   1  601.64   43.50
   0  -2   1  684.73   43.40
   0  -2   1  742.03   43.50
  -1   2  -1 3594.44  246.88
   1  -2   1 3740.43  246.88
  -2   2  -1 3499.65  211.58
  -2   2  -1 2879.71  211.38
  -2   2  -1 3390.66  211.68
  -2   2  -1 3025.30  211.28
   2  -2   1 2798.92  211.78
   2  -2   1 2891.11  211.58
   2  -2   1 2982.30  211.78
   2  -2   1 3619.74  211.48
   2  -2   1 3165.78  211.78
  -3   2  -1   -0.60    1.00
  -3   2  -1    1.20    0.80
  -3   2  -1    2.10    1.60
   3  -2   1   -0.10    2.00
   3  -2   1    3.20    2.20
   3  -2   1    1.20    2.00
   3  -2   1    4.70    3.20
   3  -2   1    0.80    1.90
   3  -2   1    4.90    2.50
  -4   2  -1   15.70    2.00
  -4   2  -1   17.70    2.30
   4  -2   1   16.70    4.10
   4  -2   1   13.60    3.30
   4  -2   1   19.40    2.80
   4  -2   1   16.00    3.50
  -5   2  -1  750.32   49.10
  -5   2  -1  752.92   49.10
   5  -2   1  679.03   50.39
   5  -2   1  768.52   49.50
   5  -2   1  662.23   49.99
  -6   2  -1  308.37   21.10
  -6   2  -1  343.77   20.90
   6  -2   1  286.97   21.60
   6  -2   1  259.97   23.30
   6   1  -1   26.90    5.60
   6   1  -1   30.20    5.10
  -6  -1   1   36.20    4.10
  -6  -1   1   39.50    4.50
   5   1  -1   11.10    3.60
   5   1  -1   16.70    5.40
  -5  -1   1   12.80    3.50
  -5  -1   1   13.40    4.20
  -5  -1   1   21.30    3.60
   4   1  -1  113.09    8.10
   4   1  -1   87.89    9.30
   4   1  -1  110.29    8.30
  -4  -1   1  107.29    8.00
  -4  -1   1  106.99    7.50
  -4  -1   1   94.09    8.50
  -4  -1   1   86.49    7.30
   3   1  -1 2008.40  119.69
   3   1  -1 1901.81  119.49
   3   1  -1 1834.22  119.49
   3   1  -1 1595.54  119.39
  -3  -1   1 1538.55  119.09
  -3  -1   1 1688.83  119.19
  -3  -1   1 1740.43  119.39
  -3  -1   1 1708.33  119.19
  -3  -1   1 1910.61  119.59
   2   1  -1  112.39    7.00
   2   1  -1   99.79    6.80
   2   1  -1   95.89    6.70
   2   1  -1   82.09    6.90
  -2  -1   1   97.79    6.90
  -2  -1   1   93.89    6.80
   1   1  -1 6059.09  407.76
   0   1  -1  202.98   14.20
   0   1  -1  199.18   14.20
   0   1  -1  203.98   14.20
   0   1  -1  217.58   14.40
   0   1  -1  214.48   14.30
   0  -1   1  202.08   14.20
   0  -1   1  227.08   14.20
   0  -1   1  216.58   14.20
  -2   1  -1  362.46   21.70
  -2   1  -1  318.07   21.90
  -2   1  -1  300.07   22.00
  -2   1  -1  340.87   22.10
  -2   1  -1  339.87   22.20
   2  -1   1  329.57   22.20
   2  -1   1  286.77   22.30
   2  -1   1  302.27   22.20
  -3   1  -1  623.44   44.00
  -3   1  -1  728.43   44.60
   3  -1   1  671.83   44.70
   3  -1   1  592.94   44.30
   3  -1   1  568.04   44.70
   3  -1   1  657.23   44.50
   3  -1   1  712.63   44.60
  -4   1  -1    3.20    1.10
  -4   1  -1    2.10    1.30
  -4   1  -1    2.80    3.10
   4  -1   1    0.90    2.30
   4  -1   1    0.90    2.60
   4  -1   1   -0.80    2.30
  -5   1  -1    4.00    1.70
  -5   1  -1    7.60    2.10
   5  -1   1    7.40    3.80
   5  -1   1    9.50    3.60
  -6   1  -1  582.84   36.30
  -6   1  -1  573.24   36.40
   6  -1   1  546.45   36.60
   6  -1   1  472.45   37.10
   6  -1   1  481.25   37.50
   6   0  -1   49.70    8.00
   6   0  -1   49.80    7.30
  -6   0   1   54.49    5.40
  -6   0   1   56.29    5.30
   5   0  -1  257.27   23.00
   5   0  -1  328.37   22.10
   5   0  -1  269.77   21.50
  -5   0   1  297.77   21.40
  -5   0   1  331.97   21.10
   4   0  -1  846.92   55.49
   4   0  -1  876.21   55.69
   4   0  -1  830.02   55.29
  -4   0   1  805.72   55.19
  -4   0   1  781.42   55.59
  -4   0   1  814.52   54.99
  -4   0   1  731.33   54.89
   3   0  -1 2150.98  139.59
   3   0  -1 1974.90  139.39
   3   0  -1 2312.27  139.79
   3   0  -1 2108.29  139.49
  -3   0   1 1846.32  139.19
  -3   0   1 1970.50  139.39
  -3   0   1 2056.49  139.29
  -3   0   1 2131.29  139.59
   2   0  -1 1651.33  119.89
   2   0  -1 1712.33  119.89
   2   0  -1 1910.81  119.69
   2   0  -1 1911.51  119.79
  -2   0   1 1795.52  119.69
  -2   0   1 1779.52  119.79
  -2   0   1 1668.53  119.59
   1   0  -1   35.60    2.60
   1   0  -1   36.60    2.50
   1   0  -1   31.90    2.50
   1   0  -1   34.00    2.40
  -1   0   1   37.90    2.40
  -1   0   1   30.60    2.50
   0   0  -1   54.29    4.00
   0   0  -1   58.99    4.00
   0   0  -1   60.99    4.00
   0   0  -1   63.19    4.10
   0   0  -1   54.89    4.00
   0   0   1   54.49    4.00
   0   0   1   59.39    4.00
   0   0   1   62.79    4.10
   0   0   1   58.69    4.00
  -1   0  -1 1433.86   88.29
  -1   0  -1 1244.58   88.29
   1   0   1 1265.17   88.29
   1   0   1 1303.17   88.29
  -2   0  -1 1669.93  108.29
  -2   0  -1 1756.72  108.49
  -2   0  -1 1460.45  108.29
   2   0   1 1446.16  108.49
   2   0   1 1692.03  108.29
   2   0   1 1623.64  108.39
  -3   0  -1  228.18   17.20
  -3   0  -1  266.77   17.50
  -3   0  -1  235.38   17.00
   3   0   1  263.57   17.60
   3   0   1  232.08   17.20
   3   0   1  260.67   17.40
   3   0   1  270.37   17.50
   3   0   1  223.28   17.40
  -4   0  -1  749.82   52.49
  -4   0  -1  783.22   52.59
  -4   0  -1  812.42   53.69
  -4   0  -1  762.02   52.99
  -4   0  -1  706.93   52.69
   4   0   1  775.32   53.39
   4   0   1  822.82   53.19
   4   0   1  807.12   53.19
   5   0   1  148.39   12.40
  -6   0  -1   21.60    3.10
  -6   0  -1   12.50    2.70
   6   0   1   19.60    4.70
   6   0   1   17.60    3.10
   6   0   1   13.60    4.60
   6  -1  -1  202.48   17.00
   6  -1  -1  218.48   15.80
   6  -1  -1  193.88   19.00
  -6   1   1  235.58   15.50
  -6   1   1  237.08   15.70
   5  -1  -1  116.09   10.80
   5  -1  -1  123.29   11.00
  -5   1   1  128.49    9.40
  -5   1   1  117.69    9.20
  -5   1   1  140.09    9.70
   4  -1  -1    3.20    2.20
   4  -1  -1    0.50    2.40
   4  -1  -1    1.70    2.10
  -4   1   1    1.30    1.10
  -4   1   1    5.80    2.40
  -4   1   1    1.10    1.30
  -4   1   1   -0.90    2.80
   3  -1  -1  245.68   16.70
   3  -1  -1  206.18   16.30
   3  -1  -1  259.87   16.80
   3  -1  -1  236.38   16.30
   3  -1  -1  250.87   16.50
  -3   1   1  219.68   16.10
  -3   1   1  226.28   16.20
  -3   1   1  220.38   16.40
  -3   1   1  255.07   16.00
  -3   1   1  240.68   17.00
   2  -1  -1 1267.17   88.59
   2  -1  -1 1219.28   88.59
   2  -1  -1 1362.86   88.39
   2  -1  -1 1324.37   88.39
  -2   1   1 1413.76   88.29
  -2   1   1 1261.97   88.29
  -2   1   1 1333.37   88.59
   0  -1  -1   61.89    4.20
   0  -1  -1   58.09    4.10
   0  -1  -1   56.39    4.30
   0  -1  -1   57.89    4.10
   0  -1  -1   67.59    4.30
   0   1   1   62.59    4.20
   0   1   1   56.49    4.10
   0   1   1   62.09    4.20
  -1  -1  -1   62.99    4.10
   1   1   1   47.40    4.10
  -3  -1  -1 1917.41  141.59
  -3  -1  -1 2245.18  142.79
  -3  -1  -1 2215.08  141.69
  -3  -1  -1 2032.30  141.49
   3   1   1 2300.27  141.79
   3   1   1 2292.77  141.89
   3   1   1 1850.51  141.69
   3   1   1 1964.20  141.69
  -4  -1  -1  331.77   23.00
  -4  -1  -1  306.67   22.30
  -4  -1  -1  294.77   22.00
  -4  -1  -1  336.47   22.10
  -4  -1  -1  332.37   22.40
   4   1   1  342.17   22.70
   4   1   1  346.87   22.70
   4   1   1  278.47   22.60
   4   1   1  330.27   22.80
  -5  -1  -1  220.48   16.60
  -5  -1  -1  212.78   15.80
  -5  -1  -1  240.28   16.20
   5   1   1  234.88   17.00
   5   1   1  230.38   17.10
   5   1   1  225.68   17.10
  -6  -1  -1   -1.00    2.30
  -6  -1  -1    0.50    2.10
  -6  -1  -1    0.30    2.40
   6   1   1    2.40    4.20
   6   1   1   -1.40    3.70
   6  -2  -1  355.86   28.80
   6  -2  -1  394.06   28.00
  -6   2   1  426.86   27.90
  -6   2   1  420.96   27.50
   5  -2  -1  742.43   52.79
   5  -2  -1  651.33   52.09
   5  -2  -1  828.82   51.89
   5  -2  -1  699.83   52.39
  -5   2   1  818.32   51.49
  -5   2   1  749.03   51.59
  -5   2   1  817.02   51.59
   4  -2  -1  225.18   16.00
   4  -2  -1  205.78   15.60
   4  -2  -1  197.68   15.20
  -4   2   1  214.18   14.60
  -4   2   1  205.88   14.50
   3  -2  -1   67.39    5.90
   3  -2  -1   61.89    5.40
   3  -2  -1   65.09    4.90
   3  -2  -1   63.39    5.00
   3  -2  -1   61.39    5.80
  -3   2   1   63.49    5.30
  -3   2   1   59.69    4.80
  -3   2   1   62.69    4.70
  -3   2   1   67.19    4.60
   2  -2  -1  481.35   32.90
   2  -2  -1  567.74   33.90
   2  -2  -1  451.55   33.20
   2  -2  -1  489.35   33.00
   2  -2  -1  470.25   33.40
  -2   2   1  505.25   32.90
  -2   2   1  518.75   32.90
  -2   2   1  415.46   32.80
  -2   2   1  496.95   33.20
  -2   2   1  455.15   32.90
  -2   2   1  492.45   32.80
  -2   2   1  494.55   33.10
   1  -2  -1 5316.47  368.66
  -1   2   1 5634.64  368.56
   0  -2  -1 2876.31  180.08
   0   2   1 2473.25  179.98
  -1  -2  -1 9999.00  651.73
   1   2   1 9369.56  651.63
  -2  -2  -1  995.30   65.49
  -2  -2  -1 1035.10   65.59
  -2  -2  -1 1001.40   65.59
  -2  -2  -1  938.11   65.39
   2   2   1  949.71   65.29
   2   2   1  900.31   65.59
  -3  -2  -1   50.99    3.90
  -3  -2  -1   45.80    4.50
  -3  -2  -1   53.29    4.50
  -3  -2  -1   50.09    4.10
  -3  -2  -1   53.19    4.40
   3   2   1   52.49    4.40
   3   2   1   52.89    4.50
   3   2   1   46.60    4.70
   3   2   1   43.10    4.70
  -4  -2  -1  383.16   26.40
  -4  -2  -1  388.76   26.20
  -4  -2  -1  379.06   26.10
  -4  -2  -1  346.77   25.90
   4   2   1  357.86   26.50
   4   2   1  415.76   26.60
   4   2   1  398.86   26.60
  -5  -2  -1  667.73   45.60
  -5  -2  -1  609.14   45.10
   5   2   1  678.33   46.00
   5   2   1  711.03   47.60
  -6  -2  -1    4.90    2.30
  -6  -2  -1    1.20    3.70
   6   2   1    4.30    3.70
   6   2   1    4.90    4.20
   6  -3  -1    6.90    3.50
   6  -3  -1    4.50    3.10
   6  -3  -1    7.20    4.70
  -6   3   1    7.70    2.10
   5  -3  -1   54.79    7.80
   5  -3  -1   63.09    6.00
   5  -3  -1   50.89    7.60
   5  -3  -1   56.39    8.30
  -5   3   1   62.99    5.70
  -5   3   1   63.19    5.50
  -5   3   1   61.29    5.10
   4  -3  -1   64.59    7.40
   4  -3  -1   63.89    7.20
   4  -3  -1   69.39    5.70
   4  -3  -1   55.69    6.60
  -4   3   1   67.39    5.20
  -4   3   1   71.99    5.40
   3  -3  -1  434.16   31.30
   3  -3  -1  455.15   31.60
   3  -3  -1  442.26   31.80
   3  -3  -1  470.85   32.10
  -3   3   1  445.56   31.20
  -3   3   1  477.55   31.70
  -3   3   1  484.65   31.10
  -3   3   1  456.45   31.10
   2  -3  -1 8144.49  520.95
   2  -3  -1 7479.25  520.45
   2  -3  -1 8154.88  520.35
   2  -3  -1 7122.79  520.65
   2  -3  -1 8090.99  520.65
  -2   3   1 7437.46  520.25
   1  -3  -1 3397.96  215.88
   1  -3  -1 3072.99  215.58
   1  -3  -1 3476.75  215.38
  -1   3   1 3277.77  215.68
  -1   3   1 2950.50  215.48
  -1   3   1 3276.77  215.78
  -1   3   1 2965.20  215.38
   0  -3  -1    1.50    1.00
   0  -3  -1    0.70    0.60
   0  -3  -1    0.60    0.50
   0   3   1    0.20    0.50
   0   3   1    0.20    0.90
   0   3   1    0.90    0.40
   0   3   1    1.20    1.00
   0   3   1    1.30    0.90
  -1  -3  -1  206.28   13.00
  -1  -3  -1  218.98   13.40
  -1  -3  -1  196.78   13.10
   1   3   1  196.28   13.40
   1   3   1  163.88   13.20
   1   3   1  189.98   13.40
   1   3   1  169.28   13.10
  -2  -3  -1 3512.95  232.18
  -2  -3  -1 3078.39  232.18
  -2  -3  -1 3800.92  232.18
  -2  -3  -1 3322.37  232.28
  -2  -3  -1 3397.36  232.28
  -2  -3  -1 3818.22  232.28
   2   3   1 3583.14  232.08
   2   3   1 3349.56  232.28
   2   3   1 3136.69  232.48
   2   3   1 3517.95  232.28
  -3  -3  -1  520.45   35.80
  -3  -3  -1  526.25   35.50
  -3  -3  -1  516.05   35.60
  -3  -3  -1  548.25   35.50
  -3  -3  -1  494.85   35.50
   3   3   1  528.85   36.30
   3   3   1  533.35   35.80
  -4  -3  -1   86.99    7.00
  -4  -3  -1   97.39    7.70
  -4  -3  -1   91.99    7.10
   4   3   1   96.19    7.80
   4   3   1  101.39    7.60
   4   3   1   96.79    8.00
  -5  -3  -1  539.55   37.60
  -5  -3  -1  526.65   37.10
   5   3   1  534.15   37.60
   5   3   1  601.84   38.30
   5   3   1  510.95   37.80
  -6  -3  -1  399.36   27.20
  -6  -3  -1  403.26   26.50
   6   3   1  347.17   27.40
   6   3   1  382.66   27.20
   5  -4  -1  274.47   20.50
  -5   4   1  297.27   20.20
  -5   4   1  297.97   20.00
   4  -4  -1   49.20    6.40
   4  -4  -1   43.50    7.10
   4  -4  -1   47.00    4.90
  -4   4   1   42.90    4.90
  -4   4   1   54.59    4.40
  -4   4   1   49.20    4.20
   3  -4  -1  107.49    9.30
   3  -4  -1  100.69    8.60
   3  -4  -1  109.19    7.90
  -3   4   1  100.89    8.60
  -3   4   1  103.29    7.70
  -3   4   1  104.59    7.50
   2  -4  -1  405.96   26.50
   2  -4  -1  368.76   27.20
   2  -4  -1  374.26   26.80
   2  -4  -1  383.56   26.50
   2  -4  -1  331.47   26.50
   2  -4  -1  425.36   26.30
   2  -4  -1  353.06   27.30
  -2   4   1  377.96   26.20
  -2   4   1  415.06   26.80
  -2   4   1  422.56   26.90
   1  -4  -1  470.65   37.30
   1  -4  -1  593.74   36.80
   1  -4  -1  582.24   36.90
   1  -4  -1  531.05   37.00
   1  -4  -1  515.45   37.10
  -1   4   1  499.35   36.50
  -1   4   1  599.44   37.10
  -1   4   1  533.75   36.60
  -1   4   1  544.35   36.50
  -1   4   1  529.45   37.10
   0  -4  -1 1232.38   80.79
   0  -4  -1 1232.08   80.49
   0  -4  -1 1286.27   80.29
   0  -4  -1 1308.17   80.69
   0   4   1 1120.59   80.29
   0   4   1 1163.28   80.49
   0   4   1 1001.00   80.39
   0   4   1 1204.68   80.79
  -1  -4  -1  976.70   66.19
  -1  -4  -1 1084.09   66.09
  -1  -4  -1 1108.69   65.99
  -1  -4  -1 1110.29   65.99
  -1  -4  -1  880.31   66.29
   1   4   1 1025.50   66.39
   1   4   1  852.61   65.99
   1   4   1  986.00   66.09
   1   4   1  877.21   66.29
   1   4   1  874.41   65.89
  -2  -4  -1  878.91   58.79
  -2  -4  -1  940.41   58.69
  -2  -4  -1  944.31   58.79
  -2  -4  -1  771.12   58.59
  -2  -4  -1  790.82   58.59
  -2  -4  -1  891.21   58.99
  -2  -4  -1  963.40   58.59
  -2  -4  -1  948.51   58.69
   2   4   1  763.32   58.69
   2   4   1  777.02   58.99
   2   4   1  913.71   58.79
   2   4   1  861.31   58.79
   2   4   1  846.12   59.09
  -3  -4  -1  305.17   21.60
  -3  -4  -1  329.47   21.80
  -3  -4  -1  335.57   21.50
  -3  -4  -1  325.57   21.90
  -3  -4  -1  289.37   22.00
   3   4   1  329.27   21.80
   3   4   1  290.87   22.20
  -4  -4  -1  204.68   14.60
  -4  -4  -1  212.38   15.10
   4   4   1  189.18   15.10
   4   4   1  216.88   15.20
   4   4   1  213.58   15.00
  -5  -4  -1   44.00    6.10
  -5  -4  -1   38.00    4.60
   5   4   1   40.00    5.90
   5   4   1   39.00    5.40
  -6  -4  -1   42.60    5.00
  -6  -4  -1   30.10    3.80
  -6  -4  -1   44.50    6.10
   6   4   1   39.10    5.30
   6   4   1   33.40    5.80
   5  -5  -1   88.09    7.90
   5  -5  -1   80.59    9.10
   5  -5  -1   74.49   10.00
  -5   5   1  108.49    7.40
  -5   5   1  103.69    7.10
   4  -5  -1  979.40   76.09
   4  -5  -1 1112.09   75.79
   4  -5  -1 1033.20   76.89
  -4   5   1 1189.88   75.39
  -4   5   1 1259.07   75.59
   3  -5  -1  733.23   53.89
   3  -5  -1  723.63   53.29
   3  -5  -1  756.92   52.79
  -3   5   1  856.91   52.69
  -3   5   1  802.62   52.49
   2  -5  -1   64.59    7.10
   2  -5  -1   67.69    6.30
   2  -5  -1   66.19    5.80
   2  -5  -1   61.39    8.10
  -2   5   1   66.69    4.90
  -2   5   1   64.69    6.40
  -2   5   1   68.39    5.10
  -2   5   1   69.29    6.10
   1  -5  -1 1639.14  110.29
   1  -5  -1 1565.34  110.89
   1  -5  -1 1490.95  110.89
   1  -5  -1 1644.34  110.19
   1  -5  -1 1629.04  110.59
  -1   5   1 1794.12  110.09
  -1   5   1 1620.24  109.99
  -1   5   1 1589.94  110.69
  -1   5   1 1728.73  110.69
   0  -5  -1 2724.93  190.38
   0  -5  -1 3257.57  190.18
   0  -5  -1 2887.51  190.08
   0  -5  -1 2488.15  190.78
   0  -5  -1 2784.12  189.98
   0  -5  -1 2479.65  190.08
   0   5   1 2827.82  189.98
   0   5   1 3127.79  190.58
  -1  -5  -1   50.29    3.70
  -1  -5  -1   53.09    5.10
  -1  -5  -1   58.69    4.70
  -1  -5  -1   53.29    4.30
  -1  -5  -1   48.00    5.80
  -1  -5  -1   61.89    3.80
  -1  -5  -1   45.80    4.80
  -1  -5  -1   52.69    4.90
  -1  -5  -1   48.00    6.40
   1   5   1   53.89    4.40
   1   5   1   55.79    4.20
   1   5   1   56.79    4.90
   1   5   1   49.50    5.10
  -2  -5  -1  232.98   16.40
  -2  -5  -1  225.38   15.60
  -2  -5  -1  208.58   15.60
  -2  -5  -1  234.48   15.70
  -2  -5  -1  224.98   15.80
  -2  -5  -1  257.27   15.50
   2   5   1  217.48   16.20
   2   5   1  191.88   16.20
   2   5   1  236.28   15.70
  -3  -5  -1 1154.18   80.09
  -3  -5  -1 1252.27   80.49
  -3  -5  -1 1130.19   80.09
  -3  -5  -1 1239.08   80.29
   3   5   1 1280.67   80.49
   3   5   1 1017.90   80.79
   3   5   1 1232.08   80.39
  -4  -5  -1  165.98   12.70
  -4  -5  -1  171.68   12.40
  -4  -5  -1  183.88   13.10
   4   5   1  176.18   13.10
   4   5   1  167.78   13.10
   4   5   1  174.48   12.90
  -5  -5  -1   -0.20    2.40
  -5  -5  -1    0.70    3.10
   5   5   1   -3.60    3.00
   5   5   1   -2.10    3.10
  -6  -5  -1  464.15   28.10
  -6  -5  -1  405.26   28.20
  -6  -5  -1  425.26   28.80
   6   5   1  339.37   29.10
   6   5   1  405.56   28.70
   5  -6  -1   55.89    8.60
   5  -6  -1   59.29    5.70
  -5   6   1   62.19    5.00
  -5   6   1   64.09    5.30
   4  -6  -1  785.72   60.79
   4  -6  -1  790.82   60.09
   4  -6  -1  911.71   59.59
   4  -6  -1  820.02   59.69
  -4   6   1  944.41   59.29
  -4   6   1  993.80   59.49
   3  -6  -1  264.27   17.80
   3  -6  -1  239.18   18.60
   3  -6  -1  223.58   19.40
   3  -6  -1  242.88   17.90
  -3   6   1  269.07   17.50
  -3   6   1  256.07   17.30
   2  -6  -1   18.10    2.50
   2  -6  -1   15.50    3.30
   2  -6  -1   28.20    5.30
   2  -6  -1   14.30    3.00
   2  -6  -1   15.60    5.80
   2  -6  -1   15.70    4.30
  -2   6   1   15.90    2.20
  -2   6   1   13.40    1.70
   1  -6  -1   11.10    2.20
   1  -6  -1   11.20    2.80
   1  -6  -1   18.70    4.40
   1  -6  -1   12.50    3.60
   1  -6  -1   12.00    2.90
   1  -6  -1   10.70    2.50
  -1   6   1   15.10    1.70
  -1   6   1   18.50    2.10
  -1   6   1   14.10    3.20
  -1   6   1    7.20    2.70
   0  -6  -1 4068.89  251.27
   0  -6  -1 3909.91  251.57
   0  -6  -1 3647.03  251.27
   0  -6  -1 3595.54  250.97
   0  -6  -1 3571.04  251.17
   0   6   1 3564.24  251.57
   0   6   1 3752.12  251.07
  -1  -6  -1 1866.61  121.59
  -1  -6  -1 1772.72  121.29
  -1  -6  -1 1787.32  121.59
  -1  -6  -1 1971.30  121.39
  -1  -6  -1 1891.41  121.19
  -1  -6  -1 1901.31  121.79
  -1  -6  -1 1682.53  122.49
  -1  -6  -1 1749.22  121.19
   1   6   1 1522.55  121.69
   1   6   1 1827.72  121.29
   1   6   1 2028.30  121.39
   1   6   1 1739.33  121.79
   1   6   1 1644.84  121.69
  -2  -6  -1   18.60    2.80
  -2  -6  -1   19.60    2.70
  -2  -6  -1   26.60    3.40
  -2  -6  -1   22.20    3.90
  -2  -6  -1   21.10    3.60
  -2  -6  -1   18.30    2.70
   2   6   1   13.40    3.80
   2   6   1   20.50    4.30
   2   6   1   20.90    2.90
  -3  -6  -1  210.18   15.10
  -3  -6  -1  209.98   15.30
  -3  -6  -1  188.98   15.00
   3   6   1  222.98   15.20
   3   6   1  227.08   15.20
  -4  -6  -1  661.63   47.20
  -4  -6  -1  690.53   46.90
   4   6   1  714.63   47.40
  -5  -6  -1   61.19    7.20
  -5  -6  -1   62.19    6.90
   5   6   1   74.09    6.90
   5   6   1   64.59    7.50
   4  -7  -1  168.18   12.50
   4  -7  -1  152.38   13.70
   4  -7  -1  162.38   14.80
  -4   7   1  171.68   12.10
  -4   7   1  194.28   12.30
   3  -7  -1    3.50    4.70
   3  -7  -1   10.00    2.70
   3  -7  -1    7.40    4.30
   3  -7  -1   11.10    2.20
   3  -7  -1    8.50    3.90
  -3   7   1   10.70    1.90
  -3   7   1   12.80    2.10
   2  -7  -1 1078.99   75.89
   2  -7  -1 1100.09   76.29
   2  -7  -1 1154.18   75.59
   2  -7  -1 1067.19   77.09
   2  -7  -1 1190.58   80.99
  -2   7   1 1049.79   75.29
  -2   7   1 1174.48   75.49
   1  -7  -1  901.31   64.39
   1  -7  -1  899.41   64.09
   1  -7  -1  989.10   64.89
   1  -7  -1  899.21   65.69
   1  -7  -1  994.00   64.09
  -1   7   1  989.80   64.09
   0  -7  -1    9.10    4.60
   0  -7  -1   10.50    3.60
   0  -7  -1    5.10    2.40
   0  -7  -1    6.60    2.10
   0  -7  -1   10.10    2.90
   0   7   1    6.90    1.50
  -1  -7  -1  302.37   22.00
  -1  -7  -1  327.07   22.10
  -1  -7  -1  345.97   22.70
  -1  -7  -1  300.27   22.80
  -1  -7  -1  309.87   22.20
  -1  -7  -1  320.07   21.80
   1   7   1  299.47   21.90
   1   7   1  334.27   22.00
  -2  -7  -1  839.22   58.39
  -2  -7  -1  908.61   58.59
  -2  -7  -1  833.62   58.59
  -2  -7  -1  872.01   59.09
   2   7   1  859.21   58.59
  -3  -7  -1  209.28   16.00
  -3  -7  -1  221.48   16.30
  -3  -7  -1  227.38   16.10
   3   7   1  231.28   16.20
   3   7   1  233.98   16.20
  -4  -7  -1   67.69    6.90
  -4  -7  -1   64.09    6.50
   4   7   1   60.99    7.40
   4   7   1   56.99    6.10
  -5  -7  -1 1034.70   67.99
  -5  -7  -1  997.50   67.49
   5   7   1 1011.30   68.09
   5   7   1  947.31   68.79
   4  -8  -1   26.70    6.20
   4  -8  -1   41.50    4.60
  -4   8   1   35.80    5.00
  -4   8   1   50.29    4.10
   3  -8  -1  101.99    8.50
   3  -8  -1  108.79   12.00
   3  -8  -1  102.69    9.80
  -3   8   1  118.09    8.20
   2  -8  -1  177.08   13.20
   2  -8  -1  185.08   14.40
   2  -8  -1  174.58   12.90
  -2   8   1  188.08   13.00
   1  -8  -1  774.92   50.99
   1  -8  -1  778.22   51.79
   1  -8  -1  695.63   50.89
   1  -8  -1  763.82   50.79
   1  -8  -1  708.43   53.09
  -1   8   1  770.22   50.89
   0  -8  -1   34.80    4.80
   0  -8  -1   40.50    4.80
   0  -8  -1   43.80    5.90
   0  -8  -1   36.20    5.90
   0  -8  -1   38.10    7.50
   0  -8  -1   39.30    3.80
   0   8   1   42.00    4.00
   0   8   1   36.40    4.10
  -1  -8  -1  746.33   50.39
  -1  -8  -1  686.63   50.29
  -1  -8  -1  791.72   51.09
  -1  -8  -1  734.73   51.09
  -1  -8  -1  741.73   50.19
   1   8   1  698.83   50.29
   1   8   1  780.02   50.39
  -2  -8  -1   60.49    5.60
  -2  -8  -1   61.69    6.10
  -2  -8  -1   76.69    9.00
  -2  -8  -1   57.49    7.00
   2   8   1   69.39    5.80
  -3  -8  -1  130.39   10.60
  -3  -8  -1  136.29   10.40
  -3  -8  -1  131.39   11.00
   3   8   1  144.09   10.70
   3   8   1  133.29   10.40
  -4  -8  -1   56.29    6.80
  -4  -8  -1   47.60    5.40
  -4  -8  -1   49.10    6.10
   4   8   1   63.99    7.40
   4   8   1   53.59    5.70
  -5  -8  -1    5.60    3.30
  -5  -8  -1    5.30    2.80
   5   8   1    2.90    3.00
   3  -9  -1   22.40    3.10
   3  -9  -1   25.00    4.40
  -3   9   1   33.10    3.70
  -3   9   1   29.90    3.70
   2  -9  -1   77.29    7.90
   2  -9  -1   72.09    6.20
   2  -9  -1   68.49    6.70
  -2   9   1   80.99    6.20
  -2   9   1   77.39    6.20
   1  -9  -1  604.84   40.20
   1  -9  -1  555.24   39.00
   1  -9  -1  530.85   39.20
  -1   9   1  613.14   39.30
  -1   9   1  565.04   39.20
   0  -9  -1   28.70    4.80
   0  -9  -1   34.90    3.90
   0  -9  -1   23.90    4.00
   0  -9  -1   29.10    3.90
   0   9   1   36.60    4.50
   0   9   1   37.00    4.00
  -1  -9  -1    3.70    3.90
  -1  -9  -1    4.60    1.80
  -1  -9  -1    6.80    3.40
  -1  -9  -1    5.50    2.60
   1   9   1    4.40    2.10
  -2  -9  -1 1171.38   81.69
  -2  -9  -1 1204.98   81.89
   2   9   1 1198.28   81.89
   2   9   1 1257.97   81.99
  -3  -9  -1   60.19    8.30
  -3  -9  -1   71.99    7.60
  -3  -9  -1   81.69    7.00
   3   9   1   78.99    7.30
   3   9   1   81.59    6.70
  -4  -9  -1   70.69    8.00
   4   9   1   66.49    6.30
   4   9   1   62.09    7.80
   2 -10  -1   17.00    3.80
   2 -10  -1   12.90    2.50
   2 -10  -1   13.00    3.00
  -2  10   1   12.70    2.10
  -2  10   1   13.80    2.50
   1 -10  -1  223.68   16.80
   1 -10  -1  229.88   16.40
   1 -10  -1  228.88   17.40
  -1  10   1  235.48   16.60
  -1  10   1  249.48   16.50
   0 -10  -1 1212.48   87.49
   0 -10  -1 1322.87   87.29
   0 -10  -1 1343.17   88.09
   0 -10  -1 1232.48   87.39
   0  10   1 1349.47   87.49
  -1 -10  -1   -1.70    2.00
  -1 -10  -1    1.10    3.10
   1  10   1    6.60    2.10
  -2 -10  -1   16.10    2.90
  -2 -10  -1   14.80    2.90
   2  10   1   22.70    3.30
   2  10   1   22.80    3.40
  -3 -10  -1  582.44   37.90
   3  10   1  535.35   37.70
   3  10   1  530.55   37.90
   0 -11  -1   18.30    2.70
   0  11   1   20.60    3.40
  -1 -11  -1  465.35   33.60
  -1 -11  -1  501.95   33.50
   1  11   1  485.25   33.60
   1  11   1  505.85   33.60
   2  10  -2   17.90    3.10
  -2 -10   2   18.40    3.00
   1  10  -2   13.10    2.90
  -1 -10   2   25.80    7.50
  -1 -10   2    1.10    4.00
  -1 -10   2   11.40    2.60
   0  10  -2  294.67   18.50
   0 -10   2  270.97   22.00
   0 -10   2  217.28   18.90
   0 -10   2  267.47   18.80
  -1  10  -2  174.38   12.10
   1 -10   2  162.58   12.60
   1 -10   2  171.08   12.30
   3   9  -2   81.29    7.00
  -3  -9   2   73.79    9.00
   2   9  -2  197.68   12.80
   2   9  -2  162.78   13.10
  -2  -9   2  175.18   12.70
  -2  -9   2  137.89   13.60
  -2  -9   2  169.98   12.80
  -2  -9   2  185.48   14.80
   1   9  -2   -1.20    2.20
  -1  -9   2    2.90    3.00
  -1  -9   2   -6.90    5.40
  -1  -9   2    3.40    2.00
  -1  -9   2   -5.60    3.20
   0   9  -2  321.47   21.40
   0  -9   2  318.57   21.30
   0  -9   2  318.77   22.80
   0  -9   2  300.67   21.60
   0  -9   2  267.77   24.70
  -1   9  -2    9.80    2.50
   1  -9   2    1.80    7.00
   1  -9   2   12.50    2.30
   1  -9   2    7.00    2.50
   1  -9   2    4.20    5.10
  -2   9  -2   60.49    4.70
  -2   9  -2   50.69    5.20
   2  -9   2   39.20    6.50
   2  -9   2   52.29    5.50
   2  -9   2   48.40    9.30
   2  -9   2   42.80    5.90
   4   8  -2   23.00    3.90
  -4  -8   2   22.10    5.00
   3   8  -2  478.25   32.10
  -3  -8   2  445.16   32.40
  -3  -8   2  463.45   31.90
   2   8  -2  182.38   13.00
  -2  -8   2  170.28   12.90
  -2  -8   2  168.48   13.50
  -2  -8   2  175.88   12.80
  -2  -8   2  176.28   14.60
   1   8  -2   29.90    3.90
  -1  -8   2   21.90    7.30
  -1  -8   2   29.20    5.60
  -1  -8   2   18.10    3.50
  -1  -8   2   26.10    3.40
  -1  -8   2   26.40    3.70
   0   8  -2  123.39    8.80
   0  -8   2  105.19    9.20
   0  -8   2  124.59   10.10
   0  -8   2  113.39   10.70
   0  -8   2  103.89    8.60
   0  -8   2  108.09   13.40
   0  -8   2  121.19   11.80
  -1   8  -2  781.02   54.29
   1  -8   2  796.62   55.09
   1  -8   2  799.62   54.49
   1  -8   2  822.72   54.29
   1  -8   2  843.32   55.19
   1  -8   2  758.62   56.79
  -2   8  -2  188.58   13.10
   2  -8   2  180.58   14.40
   2  -8   2  180.58   14.30
   2  -8   2  182.38   17.00
   2  -8   2  188.68   13.40
   2  -8   2  182.98   13.30
  -3   8  -2    8.70    1.90
   3  -8   2    3.90    2.20
   3  -8   2    3.20    6.40
   5   7  -2  404.56   27.60
   5   7  -2  383.56   27.70
  -5  -7   2  387.16   26.90
  -5  -7   2  395.76   27.60
   4   7  -2  129.49   10.10
  -4  -7   2  120.89    9.30
  -4  -7   2  120.99   10.50
   3   7  -2    6.50    2.80
  -3  -7   2    8.60    2.50
  -3  -7   2    7.40    3.50
  -3  -7   2    7.00    3.00
  -3  -7   2    8.70    5.10
  -3  -7   2    5.30    2.60
  -3  -7   2    7.50    4.20
   2   7  -2  471.35   32.10
  -2  -7   2  443.06   32.20
  -2  -7   2  480.05   33.00
  -2  -7   2  477.95   32.10
  -2  -7   2  469.75   32.00
  -2  -7   2  454.55   32.30
   1   7  -2 1259.57   79.99
  -1  -7   2 1171.78   79.99
  -1  -7   2 1104.49   81.89
  -1  -7   2 1136.69   79.99
  -1  -7   2 1210.48   79.89
  -1  -7   2 1202.48   80.59
   0  -7   2   37.90    5.80
   0  -7   2   40.10    5.60
   0  -7   2   43.50    4.70
   0  -7   2   41.70    8.30
   0  -7   2   37.40    3.90
   0  -7   2   33.10    4.50
  -1   7  -2  125.69    9.10
   1  -7   2  118.79    9.40
   1  -7   2  138.39   10.40
   1  -7   2  114.79   12.40
   1  -7   2  122.79    9.10
   1  -7   2  126.79   10.20
  -2   7  -2  840.12   56.09
   2  -7   2  892.01   56.09
   2  -7   2  815.92   56.69
   2  -7   2  727.23   57.99
   2  -7   2  851.51   56.79
  -3   7  -2  113.49    7.90
   3  -7   2  105.79    9.30
   3  -7   2   86.09   12.00
   3  -7   2  101.89   12.90
   3  -7   2  104.49   10.20
  -4   7  -2    1.10    2.10
   4  -7   2    1.60    2.20
   4  -7   2    1.30    4.20
   5   6  -2   36.20    5.10
   5   6  -2   32.40    4.70
  -5  -6   2   30.60    4.60
  -5  -6   2   31.90    4.00
   4   6  -2  477.85   32.60
  -4  -6   2  460.05   31.90
  -4  -6   2  466.35   32.60
   3   6  -2   41.10    4.70
  -3  -6   2   39.00    4.70
  -3  -6   2   37.00    4.70
  -3  -6   2   39.10    3.90
  -3  -6   2   47.50    6.30
  -3  -6   2   43.50    5.40
  -3  -6   2   38.10    5.80
   2   6  -2  131.09    9.70
  -2  -6   2  131.59    9.60
  -2  -6   2  133.39   10.90
  -2  -6   2  122.39   10.00
  -2  -6   2  125.39    9.30
  -2  -6   2  127.39    9.90
  -2  -6   2  127.69    9.40
   1   6  -2  315.47   20.10
   1   6  -2  244.18   21.20
  -1  -6   2  289.57   20.70
  -1  -6   2  302.27   20.10
  -1  -6   2  265.07   22.10
  -1  -6   2  300.67   20.20
  -1  -6   2  298.87   20.20
  -1  -6   2  302.17   20.90
   0   6  -2  561.74   39.90
   0   6  -2  518.65   40.70
   0  -6   2  580.74   40.40
   0  -6   2  671.63   40.60
   0  -6   2  547.55   41.60
   0  -6   2  619.74   39.80
   0  -6   2  595.94   39.90
   0  -6   2  576.94   40.30
   0  -6   2  604.14   39.90
  -1   6  -2   60.79    5.00
   1  -6   2   70.59    5.40
   1  -6   2   65.19    5.00
   1  -6   2   67.59    6.50
   1  -6   2   66.09    6.10
   1  -6   2   58.09    7.90
   1  -6   2   47.80    7.90
  -2   6  -2    2.80    1.30
   2  -6   2    3.10    2.90
   2  -6   2    2.50    4.20
   2  -6   2    1.80    1.50
   2  -6   2    1.90    3.50
   2  -6   2    2.90    4.10
   2  -6   2    2.00    2.60
   2  -6   2    1.00    1.70
  -3   6  -2  343.27   24.80
  -3   6  -2  399.16   25.00
   3  -6   2  384.16   25.20
   3  -6   2  360.86   25.70
   3  -6   2  346.07   27.30
   3  -6   2  351.56   27.10
   3  -6   2  348.47   26.00
  -4   6  -2   88.99    6.70
  -4   6  -2   79.79    6.60
   4  -6   2   83.49    7.10
   4  -6   2   91.59    8.00
   4  -6   2   81.09   10.10
   5   5  -2  318.97   23.20
   5   5  -2  336.67   23.10
  -5  -5   2  331.37   22.20
  -5  -5   2  300.77   22.60
  -5  -5   2  317.87   23.00
  -4  -5   2  311.67   22.60
  -4  -5   2  338.57   23.20
   3   5  -2  112.59    8.30
  -3  -5   2   96.79    8.00
  -3  -5   2  107.19    7.70
  -3  -5   2   99.09    8.80
  -3  -5   2  102.89    8.20
  -3  -5   2  112.79    9.60
  -3  -5   2  105.39    8.60
   2   5  -2   91.49    8.70
   2   5  -2   99.49    7.60
   2   5  -2   75.39    8.30
  -2  -5   2   99.59    7.20
  -2  -5   2   92.19    7.00
  -2  -5   2   98.49    6.80
  -2  -5   2  101.59    7.60
  -2  -5   2   90.39    6.90
  -2  -5   2   78.59    9.70
  -2  -5   2   99.39    7.50
  -2  -5   2   95.99    7.50
  -2  -5   2   96.09    8.30
   1   5  -2  478.95   36.50
   1   5  -2  503.25   36.80
   1   5  -2  586.44   36.10
  -1  -5   2  534.15   36.60
  -1  -5   2  542.15   36.00
  -1  -5   2  577.34   36.40
  -1  -5   2  480.45   37.40
  -1  -5   2  552.34   36.00
  -1  -5   2  518.25   36.20
   0   5  -2   59.69    5.60
   0   5  -2   50.79    5.60
   0   5  -2   55.49    4.50
   0  -5   2   63.79    4.90
   0  -5   2   61.69    6.70
   0  -5   2   53.39    4.60
   0  -5   2   66.89    4.90
   0  -5   2   41.60    7.10
   0  -5   2   62.79    5.00
  -1   5  -2  204.78   16.10
  -1   5  -2  230.88   16.10
   1  -5   2  229.88   15.80
   1  -5   2  206.48   16.70
   1  -5   2  232.88   15.30
   1  -5   2  220.88   16.70
   1  -5   2  221.38   15.70
   1  -5   2  189.58   16.60
   1  -5   2  231.28   15.90
   1  -5   2  228.48   15.20
  -2   5  -2  145.19   12.30
  -2   5  -2  143.89   10.60
   2  -5   2  160.28   11.30
   2  -5   2  159.78   11.80
   2  -5   2  166.08   11.00
   2  -5   2  144.49   11.90
   2  -5   2  146.69   12.60
   2  -5   2  134.69   12.80
   2  -5   2  155.08   10.70
   2  -5   2  162.58   12.80
  -3   5  -2  289.37   19.30
   3  -5   2  294.07   20.10
   3  -5   2  273.67   20.50
   3  -5   2  284.77   21.50
   3  -5   2  317.77   19.70
   3  -5   2  271.57   21.40
   3  -5   2  233.08   21.50
  -4   5  -2   81.69    6.50
   4  -5   2   81.49   10.00
   4  -5   2  101.49    7.90
   4  -5   2   79.39   12.30
   4  -5   2   84.39    7.20
  -5   5  -2   37.40    4.40
  -5   5  -2   48.30    4.20
   5  -5   2   30.10    8.80
   5  -5   2   32.30    5.00
   6   4  -2  384.86   29.60
   6   4  -2  425.76   29.60
  -6  -4   2  410.96   28.80
  -6  -4   2  421.96   29.20
  -6  -4   2  442.96   28.50
   5   4  -2   33.90    4.70
   5   4  -2   34.70    4.90
  -5  -4   2   22.50    4.00
  -5  -4   2   29.50    3.60
  -5  -4   2   29.00    3.60
   4   4  -2  329.77   22.60
   4   4  -2  346.97   23.00
  -4  -4   2  297.97   22.20
  -4  -4   2  320.57   22.80
  -4  -4   2  306.17   22.60
   3   4  -2 1210.08   77.39
  -3  -4   2 1170.38   77.29
  -3  -4   2 1054.59   77.09
  -3  -4   2 1075.19   77.09
  -3  -4   2 1096.99   77.09
  -3  -4   2 1167.58   77.49
  -3  -4   2 1166.58   77.29
  -3  -4   2 1196.88   77.79
   2   4  -2   -0.30    1.80
   2   4  -2    1.30    2.50
   2   4  -2    1.10    1.80
  -2  -4   2    0.60    1.30
  -2  -4   2    0.60    1.00
  -2  -4   2   -1.60    1.70
  -2  -4   2    1.50    1.60
  -2  -4   2    3.90    3.40
  -2  -4   2    0.20    1.00
   1   4  -2  372.26   26.80
   1   4  -2  401.46   27.50
   1   4  -2  413.26   27.20
  -1  -4   2  396.36   26.90
  -1  -4   2  390.36   27.30
  -1  -4   2  426.76   26.80
  -1  -4   2  442.86   27.10
  -1  -4   2  401.46   27.00
  -1  -4   2  390.06   27.10
  -1  -4   2  340.47   28.00
  -1  -4   2  384.36   26.90
  -1  -4   2  378.76   26.80
   0   4  -2 1538.15  103.59
   0   4  -2 1602.44  103.99
   0   4  -2 1524.95  103.59
   0   4  -2 1474.25  103.59
   0  -4   2 1650.43  103.79
   0  -4   2 1319.67  104.19
   0  -4   2 1557.74  103.49
   0  -4   2 1705.93  103.69
   0  -4   2 1468.25  103.49
   0  -4   2 1649.13  103.59
   0  -4   2 1416.46  103.69
   0  -4   2 1514.05  103.39
  -1   4  -2  422.76   28.60
  -1   4  -2  408.06   28.60
   1  -4   2  379.26   28.90
   1  -4   2  436.26   28.30
   1  -4   2  412.36   28.30
   1  -4   2  420.96   28.50
   1  -4   2  402.46   28.00
   1  -4   2  357.26   29.00
   1  -4   2  432.66   29.10
   1  -4   2  446.76   28.10
  -2   4  -2   27.10    3.70
  -2   4  -2   25.00    2.30
  -2   4  -2   28.30    3.90
   2  -4   2   27.20    3.50
   2  -4   2   24.10    4.60
   2  -4   2   25.90    5.30
   2  -4   2   26.20    4.20
   2  -4   2   24.50    2.70
   2  -4   2   20.90    3.70
   2  -4   2   25.80    3.20
   2  -4   2   17.60    3.30
   2  -4   2   27.90    3.20
  -3   4  -2  554.14   39.10
  -3   4  -2  537.95   35.50
   3  -4   2  570.74   36.10
   3  -4   2  548.25   35.80
   3  -4   2  497.25   36.30
   3  -4   2  439.86   37.00
   3  -4   2  544.05   36.90
   3  -4   2  499.25   37.00
  -4   4  -2 1058.69   66.29
   4  -4   2  898.21   67.09
   4  -4   2  970.30   69.39
   4  -4   2 1050.49   66.89
   4  -4   2  902.81   68.19
  -5   4  -2   19.80    3.00
  -5   4  -2   18.20    2.30
   5  -4   2   20.20    3.20
   5  -4   2   15.00    5.30
   5  -4   2   18.20    3.60
   6   3  -2  644.04   44.10
   6   3  -2  560.04   42.70
  -6  -3   2  565.34   42.70
  -6  -3   2  662.63   42.20
  -6  -3   2  645.24   42.70
   5   3  -2  224.18   16.60
   5   3  -2  227.48   16.40
  -5  -3   2  209.68   15.40
  -5  -3   2  215.28   15.70
  -5  -3   2  225.08   16.40
   4   3  -2   77.29    6.80
   4   3  -2   73.69    6.50
  -4  -3   2   74.79    6.10
  -4  -3   2   69.49    6.80
   3   3  -2  148.79   10.00
   3   3  -2  117.69   10.30
  -3  -3   2  132.49    9.70
  -3  -3   2  151.58   10.10
  -3  -3   2  137.89    9.70
  -3  -3   2  123.69    9.70
  -3  -3   2  142.89   10.20
   2   3  -2 2182.98  139.09
  -2  -3   2 1898.21  138.69
  -2  -3   2 2221.38  138.69
  -2  -3   2 2134.59  138.79
  -2  -3   2 2162.98  138.89
  -2  -3   2 2022.40  138.89
  -2  -3   2 1975.40  138.79
  -2  -3   2 1835.62  138.69
  -2  -3   2 2015.30  138.69
  -2  -3   2 2140.29  139.09
   1   3  -2  787.62   56.19
   1   3  -2  899.11   56.79
  -1  -3   2  777.62   56.29
  -1  -3   2  782.42   56.39
  -1  -3   2  790.52   56.39
  -1  -3   2  938.81   56.29
  -1  -3   2  925.21   56.49
  -1  -3   2  776.92   56.59
   0   3  -2   77.99    5.80
   0   3  -2   61.69    5.40
   0   3  -2   73.09    5.20
   0   3  -2   70.39    5.30
   0   3  -2   78.89    5.50
   0   3  -2   73.09    5.60
   0   3  -2   77.69    5.30
   0  -3   2   64.39    5.60
   0  -3   2   61.99    6.50
   0  -3   2   73.99    5.40
   0  -3   2   80.69    5.40
   0  -3   2   61.69    5.80
   0  -3   2   75.79    5.70
  -1   3  -2 1906.11  142.99
  -1   3  -2 2393.36  143.69
  -1   3  -2 2330.37  143.59
   1  -3   2 2117.99  143.89
   1  -3   2 2280.47  143.89
   1  -3   2 2251.17  143.19
   1  -3   2 2159.88  143.39
   1  -3   2 1851.21  143.69
   1  -3   2 1849.11  143.49
  -2   3  -2 1382.06   83.09
  -2   3  -2 1219.58   82.29
  -2   3  -2 1368.76   82.89
   2  -3   2 1257.87   82.69
   2  -3   2 1090.79   82.39
   2  -3   2 1157.98   83.19
   2  -3   2 1231.88   83.29
   2  -3   2 1328.37   83.29
   2  -3   2 1063.69   82.79
   2  -3   2 1121.89   82.99
  -3   3  -2    4.80    2.40
  -3   3  -2   11.70    3.10
  -3   3  -2    5.80    1.10
   3  -3   2    7.20    3.10
   3  -3   2    4.10    3.30
   3  -3   2    2.50    2.70
   3  -3   2    5.50    2.60
   3  -3   2    6.70    2.70
   3  -3   2    7.50    3.20
   3  -3   2    3.30    1.40
  -4   3  -2  248.88   15.90
  -4   3  -2  226.38   16.70
   4  -3   2  190.48   18.40
   4  -3   2  252.27   17.80
   4  -3   2  228.18   17.30
   4  -3   2  219.28   17.80
   4  -3   2  237.78   16.40
  -5   3  -2  630.94   39.10
   5  -3   2  549.85   39.30
   5  -3   2  526.45   40.60
   5  -3   2  614.04   39.60
   5  -3   2  545.95   40.20
   6   2  -2  279.17   23.00
   6   2  -2  303.07   22.20
  -6  -2   2  300.37   20.90
  -6  -2   2  326.07   21.30
   5   2  -2   39.20    5.60
   5   2  -2   48.10    6.00
  -5  -2   2   37.30    3.90
  -5  -2   2   33.20    4.70
  -5  -2   2   38.50    4.60
   4   2  -2  260.97   17.90
   4   2  -2  248.58   17.60
  -4  -2   2  231.98   17.20
  -4  -2   2  247.38   17.60
   3   2  -2  429.36   30.70
   3   2  -2  470.45   30.60
  -3  -2   2  432.36   30.30
  -3  -2   2  400.06   30.30
  -3  -2   2  431.56   30.40
  -3  -2   2  459.15   30.30
  -3  -2   2  484.35   30.50
  -3  -2   2  462.25   30.60
   2   2  -2  863.71   54.29
   2   2  -2  828.82   54.09
   2   2  -2  815.72   54.19
  -2  -2   2  849.91   54.49
  -2  -2   2  694.23   54.09
  -2  -2   2  717.23   54.09
  -2  -2   2  772.42   54.19
  -2  -2   2  797.42   54.09
  -2  -2   2  792.82   54.19
  -2  -2   2  883.11   54.09
  -2  -2   2  838.92   54.09
  -2  -2   2  760.02   54.19
   1   2  -2 3139.39  226.88
   1   2  -2 3763.72  226.88
   1   2  -2 3072.89  226.98
  -1  -2   2 3511.65  226.98
   0   2  -2    9.00    1.50
   0   2  -2    7.20    1.00
   0   2  -2    7.30    0.70
   0   2  -2    9.30    1.10
   0   2  -2    9.50    1.00
   0   2  -2    7.40    1.20
   0   2  -2    6.50    1.50
   0  -2   2    9.00    1.10
   0  -2   2    7.30    1.10
   0  -2   2    8.40    1.00
  -1   2  -2 1445.26   96.79
  -1   2  -2 1461.65   96.49
  -1   2  -2 1328.87   96.59
  -1   2  -2 1474.25   96.79
  -1   2  -2 1526.95   96.39
   1  -2   2 1446.46   96.59
   1  -2   2 1464.75   96.79
   1  -2   2 1316.67   96.99
  -2   2  -2 1200.38   75.09
  -2   2  -2 1054.59   74.59
  -2   2  -2 1218.08   74.89
   2  -2   2  985.20   74.99
   2  -2   2  979.60   75.19
   2  -2   2 1115.19   75.29
   2  -2   2 1125.09   75.19
   2  -2   2 1153.58   75.19
   2  -2   2 1128.29   74.79
  -3   2  -2 1537.75   94.49
  -3   2  -2 1308.57   93.69
   3  -2   2 1511.25   94.09
   3  -2   2 1353.46   94.89
   3  -2   2 1322.17   94.39
   3  -2   2 1371.66   94.59
   3  -2   2 1333.97   94.59
  -4   2  -2    1.00    1.10
  -4   2  -2   -0.10    1.50
   4  -2   2    0.00    1.80
   4  -2   2   -1.30    4.80
   4  -2   2   -1.20    3.00
   4  -2   2    1.10    2.90
   4  -2   2    1.10    2.70
   4  -2   2    2.80    3.00
  -5   2  -2   -0.20    2.20
  -5   2  -2    4.20    1.60
   5  -2   2    2.40    2.30
   5  -2   2   -0.10    3.10
   5  -2   2    4.50    3.50
   5  -2   2    6.60    4.00
  -6   2  -2  176.38   14.20
  -6   2  -2  210.28   14.50
   6  -2   2  215.18   15.70
   6   1  -2  182.58   14.60
  -6  -1   2  195.78   13.40
  -6  -1   2  174.78   13.10
   5   1  -2 1001.80   64.59
   5   1  -2  912.11   63.89
   5   1  -2  957.70   64.19
  -5  -1   2  951.80   63.89
  -5  -1   2  939.51   63.39
  -5  -1   2  956.30   63.59
  -5  -1   2  846.42   63.39
   4   1  -2    2.70    2.00
   4   1  -2    2.20    2.30
   4   1  -2    5.30    3.90
  -4  -1   2    4.30    1.50
  -4  -1   2    4.60    1.50
  -4  -1   2    4.90    2.20
   3   1  -2   31.60    3.50
   3   1  -2   33.60    3.40
   3   1  -2   31.90    3.00
   3   1  -2   38.20    3.70
  -3  -1   2   37.70    3.60
  -3  -1   2   31.50    3.20
  -3  -1   2   34.60    2.90
  -3  -1   2   32.80    3.60
  -3  -1   2   27.50    3.00
  -3  -1   2   37.00    2.80
  -3  -1   2   34.10    3.70
  -3  -1   2   36.80    3.10
   2   1  -2  232.18   15.00
   2   1  -2  217.18   14.80
   2   1  -2  189.28   15.00
   2   1  -2  233.58   14.90
  -2  -1   2  195.08   14.90
  -2  -1   2  207.88   15.00
  -2  -1   2  233.98   15.40
  -2  -1   2  198.08   15.00
  -2  -1   2  248.98   14.80
  -2  -1   2  221.18   14.80
  -2  -1   2  225.88   14.90
  -2  -1   2  209.18   15.00
   1   1  -2  447.76   29.70
   1   1  -2  478.15   29.90
   1   1  -2  386.46   29.80
   1   1  -2  471.15   29.80
  -1  -1   2  422.36   29.80
  -1  -1   2  465.85   29.80
  -1  -1   2  431.66   29.80
  -1  -1   2  423.16   29.70
   0   1  -2 1207.08   75.99
   0   1  -2 1116.19   76.19
   0   1  -2 1075.79   75.99
   0   1  -2 1157.68   75.99
   0   1  -2 1213.58   76.19
   0   1  -2 1079.09   75.89
   0  -1   2 1113.09   75.99
   0  -1   2 1043.60   75.99
  -1   1  -2  231.88   15.70
  -1   1  -2  200.58   15.50
  -1   1  -2  244.78   15.40
  -1   1  -2  233.38   15.40
  -1   1  -2  215.08   15.60
   1  -1   2  245.08   15.70
   1  -1   2  200.48   15.50
  -2   1  -2 1619.54  100.59
  -2   1  -2 1586.94  100.49
  -2   1  -2 1316.67  100.39
  -2   1  -2 1459.85  100.29
   2  -1   2 1692.73  100.69
   2  -1   2 1546.35  100.69
   2  -1   2 1380.26  100.59
   2  -1   2 1539.95  100.59
   2  -1   2 1252.47  100.59
  -3   1  -2   14.60    2.20
  -3   1  -2   20.90    2.90
   3  -1   2   18.50    3.00
   3  -1   2   23.20    3.80
   3  -1   2   23.80    3.50
   3  -1   2   17.90    3.70
   3  -1   2   20.00    3.20
  -4   1  -2   90.09    6.40
  -4   1  -2   83.69    6.60
   4  -1   2   85.99    8.10
   4  -1   2   90.39    7.80
   4  -1   2   88.59    7.70
  -5   1  -2  297.77   20.40
  -5   1  -2  310.17   20.60
   5  -1   2  315.77   21.00
   5  -1   2  279.77   22.00
   5  -1   2  301.47   22.10
   5  -1   2  270.17   21.50
  -6   1  -2   53.69    6.80
  -6   1  -2   51.59    4.80
   6  -1   2   47.50    8.90
   6  -1   2   57.79    5.50
   6  -1   2   47.80    7.10
   6   0  -2   27.40    7.10
   6   0  -2   40.90    6.60
  -6   0   2   30.40    4.60
  -6   0   2   40.70    4.50
  -6   0   2   32.60    4.30
   5   0  -2   50.19    6.30
   5   0  -2   46.40    6.90
   5   0  -2   42.60    6.10
  -5   0   2   50.49    6.70
  -5   0   2   50.69    5.00
  -5   0   2   52.89    4.50
  -5   0   2   49.50    4.70
   4   0  -2 1556.64  124.69
   4   0  -2 2092.99  125.09
   4   0  -2 1987.10  124.79
  -4   0   2 1715.03  124.19
  -4   0   2 1718.93  124.79
  -4   0   2 1944.21  124.29
  -4   0   2 1891.61  124.49
   3   0  -2    3.20    1.10
   3   0  -2    1.10    1.20
   3   0  -2    1.60    1.50
   3   0  -2    1.30    1.70
  -3   0   2    1.20    1.20
  -3   0   2    2.20    1.40
  -3   0   2    3.00    0.90
  -3   0   2    1.50    1.00
  -3   0   2    2.10    1.50
  -3   0   2    0.40    0.70
   2   0  -2  238.98   15.80
   2   0  -2  217.78   15.80
   2   0  -2  235.08   16.40
   2   0  -2  240.38   15.90
   2   0  -2  246.78   16.20
   2   0  -2  209.18   16.00
  -2   0   2  227.88   15.90
  -2   0   2  257.27   15.80
  -2   0   2  217.48   15.90
  -2   0   2  246.58   16.10
  -2   0   2  222.38   15.80
  -2   0   2  218.28   15.80
  -1   0  -2   73.29    5.40
  -1   0  -2   77.59    5.30
  -1   0  -2   78.69    5.20
  -1   0  -2   76.59    5.30
  -1   0  -2   63.09    5.40
   1   0   2   79.99    5.30
   1   0   2   72.69    5.50
   1   0   2   82.39    5.70
  -2   0  -2    0.30    0.80
  -2   0  -2    0.10    0.80
  -2   0  -2    0.80    0.80
  -2   0  -2    0.30    0.50
   2   0   2    0.20    1.60
   2   0   2    0.70    1.20
   2   0   2    3.20    1.10
  -3   0  -2 1497.25   91.99
  -3   0  -2 1310.37   92.49
  -3   0  -2 1328.87   91.49
   3   0   2 1410.96   91.99
   3   0   2 1375.36   91.99
   3   0   2 1160.98   91.79
   3   0   2 1374.06   92.29
   3   0   2 1511.15   91.99
   3   0   2 1207.58   91.49
   3   0   2 1372.76   91.89
  -4   0  -2  234.38   16.70
  -4   0  -2  229.08   16.00
   4   0   2  226.88   16.90
   4   0   2  247.88   16.80
   4   0   2  207.28   18.30
   4   0   2  239.38   16.80
  -5   0  -2   41.90    4.80
  -5   0  -2   44.80    4.80
   5   0   2   32.40    6.70
   5   0   2   37.80    6.00
  -6   0  -2  807.42   51.29
  -6   0  -2  854.21   51.39
   6   0   2  753.62   51.59
   6   0   2  711.83   52.09
   6   0   2  647.54   52.29
   6  -1  -2  485.45   33.20
   6  -1  -2  429.56   34.00
   6  -1  -2  479.25   37.50
  -6   1   2  529.15   33.00
   5  -1  -2   49.10    7.30
   5  -1  -2   47.00    6.50
   5  -1  -2   46.10    6.20
  -5   1   2   49.10    4.70
  -5   1   2   42.70    4.40
  -5   1   2   44.70    4.50
   4  -1  -2  106.79    8.30
   4  -1  -2  105.99    8.80
   4  -1  -2  113.09    8.90
  -4   1   2  104.89    7.70
  -4   1   2  103.99    7.50
  -4   1   2   94.59    8.30
  -4   1   2  104.69    9.10
  -4   1   2  102.59    7.60
   3  -1  -2 1348.37   90.09
   3  -1  -2 1262.07   89.99
   3  -1  -2 1393.56   90.29
   3  -1  -2 1474.55   90.49
  -3   1   2 1350.46   89.89
  -3   1   2 1172.48   89.79
  -3   1   2 1319.87   90.19
  -3   1   2 1449.55   89.79
  -3   1   2 1294.07   89.89
  -3   1   2 1275.07   89.99
   2  -1  -2  779.62   52.49
   2  -1  -2  768.52   52.59
   2  -1  -2  786.12   52.29
   2  -1  -2  780.72   52.29
  -2   1   2  854.61   52.19
  -2   1   2  730.43   52.19
  -2   1   2  721.63   52.29
  -2   1   2  772.52   52.39
   1  -1  -2  557.04   35.50
   1  -1  -2  526.85   35.20
   1  -1  -2  533.95   35.30
   1  -1  -2  487.35   35.30
  -1   1   2  507.55   35.20
  -1   1   2  520.25   35.20
  -1   1   2  495.95   35.20
  -2  -1  -2   34.10    2.80
  -2  -1  -2   34.90    2.70
  -2  -1  -2   37.90    2.90
  -2  -1  -2   34.50    2.80
   2   1   2   29.20    3.00
   2   1   2   30.60    3.00
   2   1   2   33.10    2.70
  -3  -1  -2  144.29    9.90
  -3  -1  -2  149.29    9.70
  -3  -1  -2  127.59    9.70
  -3  -1  -2  130.99    9.80
  -3  -1  -2  126.69    9.50
   3   1   2  121.69   10.00
   3   1   2  133.69    9.90
   3   1   2  144.69    9.90
   3   1   2  146.09   10.10
   3   1   2  121.39    9.90
   3   1   2  144.49   10.50
  -4  -1  -2 1800.32  116.09
  -4  -1  -2 1755.22  115.79
  -4  -1  -2 1624.94  115.89
   4   1   2 1869.31  116.39
   4   1   2 1514.65  117.19
   4   1   2 1809.42  116.49
   4   1   2 1896.51  116.49
   4   1   2 1470.15  116.09
  -5  -1  -2  319.37   22.30
   5   1   2  315.47   23.80
   5   1   2  334.07   23.20
  -6  -1  -2    4.60    2.40
  -6  -1  -2    1.90    2.20
   6   1   2    1.90    2.70
   6   1   2   -0.30    4.70
   6   1   2    1.20    3.40
   6  -2  -2   28.90    3.90
  -6   2   2   28.60    3.80
  -6   2   2   21.60    3.30
   5  -2  -2  330.87   24.00
   5  -2  -2  301.17   24.50
   5  -2  -2  329.87   24.60
  -5   2   2  362.06   23.10
  -5   2   2  349.57   23.30
   4  -2  -2  131.69   11.30
   4  -2  -2  141.49   10.80
   4  -2  -2  147.09   11.50
  -4   2   2  137.69   10.10
  -4   2   2  140.99   10.00
  -4   2   2  149.29   10.20
   3  -2  -2  182.68   15.00
   3  -2  -2  221.98   14.40
   3  -2  -2  197.18   13.60
   3  -2  -2  196.58   14.30
   3  -2  -2  181.38   13.60
  -3   2   2  221.88   13.40
  -3   2   2  188.48   13.60
  -3   2   2  193.18   13.40
  -3   2   2  190.88   13.40
  -3   2   2  190.68   13.40
  -3   2   2  185.18   14.00
   2  -2  -2  788.12   51.09
   2  -2  -2  800.22   50.89
   2  -2  -2  749.13   50.59
  -2   2   2  671.23   50.69
  -2   2   2  780.32   50.69
  -2   2   2  634.84   50.49
  -2   2   2  683.93   50.49
  -2   2   2  780.02   50.49
  -2   2   2  774.32   50.79
  -2   2   2  829.62   50.49
   1  -2  -2 5124.89  345.07
   0  -2  -2   56.79    4.10
   0  -2  -2   60.59    4.30
   0  -2  -2   52.19    4.30
   0  -2  -2   51.89    3.90
   0  -2  -2   51.59    4.00
   0   2   2   52.59    4.30
   0   2   2   46.20    3.90
   0   2   2   55.19    3.80
   0   2   2   54.49    4.00
  -1  -2  -2   22.00    1.70
  -1  -2  -2   19.80    1.80
  -1  -2  -2   23.00    2.40
  -1  -2  -2   22.70    1.90
   1   2   2   22.70    1.90
   1   2   2   20.40    2.50
   1   2   2   21.70    2.00
  -2  -2  -2 1267.87   77.39
  -2  -2  -2 1174.18   77.39
  -2  -2  -2 1124.79   77.19
  -2  -2  -2 1077.69   77.19
   2   2   2 1127.49   77.39
   2   2   2 1244.38   77.59
   2   2   2 1002.20   77.39
   2   2   2 1136.99   76.99
  -3  -2  -2   32.70    3.20
  -3  -2  -2   27.50    3.40
  -3  -2  -2   27.20    2.70
  -3  -2  -2   27.20    2.70
   3   2   2   26.10    3.40
   3   2   2   29.10    4.60
   3   2   2   27.00    3.40
   3   2   2   24.50    3.70
   3   2   2   28.00    3.10
  -4  -2  -2    1.30    2.00
  -4  -2  -2    0.30    2.60
  -4  -2  -2    0.30    1.30
   4   2   2    2.90    2.20
   4   2   2    3.50    2.20
   4   2   2    0.90    1.70
  -5  -2  -2 1299.97   88.79
  -5  -2  -2 1271.87   88.69
   5   2   2 1399.96   89.49
   5   2   2 1266.97   89.69
  -6  -2  -2   10.60    2.70
  -6  -2  -2   10.80    2.90
   6   2   2    7.30    5.00
   6   2   2   13.00    4.10
   6  -3  -2  680.73   54.49
   6  -3  -2  736.83   53.79
  -6   3   2  833.92   53.69
  -6   3   2  907.91   53.59
   5  -3  -2   38.40    4.80
   5  -3  -2   35.80    5.10
   5  -3  -2   36.50    5.70
  -5   3   2   32.70    4.50
  -5   3   2   33.20    4.40
  -5   3   2   26.50    3.50
   4  -3  -2  139.49   11.30
   4  -3  -2  145.19   12.10
   4  -3  -2  131.09   12.00
  -4   3   2  149.39   10.50
  -4   3   2  156.18   10.40
  -4   3   2  150.08   10.50
   3  -3  -2   48.10    4.60
   3  -3  -2   48.00    5.30
   3  -3  -2   39.80    4.00
   3  -3  -2   47.20    5.80
  -3   3   2   47.30    3.60
  -3   3   2   44.20    4.40
  -3   3   2   43.50    3.80
  -3   3   2   43.00    3.60
   2  -3  -2 3225.18  214.28
   2  -3  -2 3192.68  214.58
   2  -3  -2 3530.15  214.38
   2  -3  -2 3284.87  214.28
   2  -3  -2 3173.08  214.78
  -2   3   2 3314.97  214.18
  -2   3   2 3228.18  214.68
  -2   3   2 2962.30  214.18
  -2   3   2 3087.19  214.48
  -2   3   2 2845.12  214.18
   1  -3  -2  125.99    8.70
   1  -3  -2  120.09    7.90
   1  -3  -2  109.49    8.50
   1  -3  -2  115.99    8.00
  -1   3   2  122.39    8.30
  -1   3   2  103.39    8.10
  -1   3   2  107.89    7.90
  -1   3   2  117.39    8.20
   0  -3  -2  347.57   24.60
   0  -3  -2  389.76   24.70
   0  -3  -2  355.86   24.40
   0  -3  -2  358.76   24.20
   0   3   2  360.16   24.20
   0   3   2  356.76   24.50
   0   3   2  344.77   24.40
  -1  -3  -2 2153.58  126.19
  -1  -3  -2 2084.09  126.59
  -1  -3  -2 1996.60  126.29
   1   3   2 1692.83  126.59
   1   3   2 1593.04  126.29
   1   3   2 1663.93  126.39
   1   3   2 1943.71  126.49
  -2  -3  -2  209.18   14.10
  -2  -3  -2  202.18   14.50
  -2  -3  -2  223.98   14.60
  -2  -3  -2  220.68   14.00
  -2  -3  -2  195.58   14.30
   2   3   2  176.88   14.50
   2   3   2  218.48   14.40
   2   3   2  196.18   14.20
   2   3   2  196.38   14.30
  -3  -3  -2  207.38   15.10
  -3  -3  -2  222.78   15.40
  -3  -3  -2  212.68   15.00
  -3  -3  -2  235.18   14.90
  -3  -3  -2  206.38   14.90
  -3  -3  -2  208.18   15.20
   3   3   2  212.58   15.20
   3   3   2  221.18   15.30
   3   3   2  219.98   15.80
   3   3   2  218.98   15.50
  -4  -3  -2  215.38   15.20
  -4  -3  -2  218.28   15.60
  -4  -3  -2  213.88   15.40
   4   3   2  211.38   15.70
   4   3   2  220.08   15.80
   4   3   2  228.78   15.70
  -5  -3  -2  336.27   22.60
  -5  -3  -2  320.17   21.80
   5   3   2  330.37   22.40
   5   3   2  317.27   22.90
   5   3   2  300.97   22.90
   5   3   2  255.97   24.00
  -6  -3  -2    8.20    5.00
  -6  -3  -2    3.40    2.40
   6   3   2    8.70    8.50
   6   3   2    9.30    3.70
   6   3   2    4.80    5.30
   5  -4  -2  506.35   36.80
   5  -4  -2  485.15   37.90
  -5   4   2  571.54   36.50
  -5   4   2  538.75   36.50
  -5   4   2  562.24   36.40
   4  -4  -2  341.77   26.00
   4  -4  -2  328.57   25.30
   4  -4  -2  355.46   24.80
  -4   4   2  372.36   24.40
  -4   4   2  351.66   24.50
  -4   4   2  383.36   24.60
   3  -4  -2   22.70    3.50
   3  -4  -2   17.80    3.00
   3  -4  -2   21.20    3.70
   3  -4  -2   27.40    4.00
  -3   4   2   19.90    4.10
  -3   4   2   21.00    2.40
  -3   4   2   22.80    2.90
  -3   4   2   23.00    2.50
   2  -4  -2   60.69    5.40
   2  -4  -2   59.59    5.00
   2  -4  -2   59.59    6.30
   2  -4  -2   67.09    4.90
   2  -4  -2   65.29    5.40
   2  -4  -2   62.49    4.70
  -2   4   2   61.99    4.60
  -2   4   2   57.39    4.90
  -2   4   2   62.99    5.10
  -2   4   2   63.59    5.50
   1  -4  -2 1848.02  130.39
   1  -4  -2 2213.28  129.99
   1  -4  -2 1704.23  130.59
   1  -4  -2 1902.31  130.29
   1  -4  -2 1895.71  130.09
   1  -4  -2 2042.30  130.09
  -1   4   2 1980.20  130.39
  -1   4   2 1853.31  129.89
  -1   4   2 1850.91  129.89
  -1   4   2 1915.31  129.99
  -1   4   2 2020.60  130.49
   0  -4  -2  303.87   19.20
   0  -4  -2  259.07   19.50
   0  -4  -2  306.57   19.40
   0  -4  -2  272.97   19.80
   0  -4  -2  312.17   19.50
   0  -4  -2  289.87   20.00
   0   4   2  255.27   19.30
   0   4   2  285.57   19.40
   0   4   2  273.27   19.70
   0   4   2  280.27   19.20
  -1  -4  -2  121.89    9.10
  -1  -4  -2  134.29    8.90
  -1  -4  -2  120.79    9.20
   1   4   2  126.79    9.40
   1   4   2  119.09    8.90
   1   4   2  134.69    9.20
  -2  -4  -2 3348.66  200.78
  -2  -4  -2 2844.12  200.98
  -2  -4  -2 3137.79  200.98
  -2  -4  -2 2921.31  200.98
   2   4   2 2901.21  201.18
   2   4   2 3010.70  200.98
   2   4   2 2961.70  200.98
   2   4   2 2747.93  200.98
  -3  -4  -2  991.90   66.19
  -3  -4  -2 1026.10   65.89
  -3  -4  -2 1010.00   66.09
  -3  -4  -2 1002.20   66.09
  -3  -4  -2  932.61   65.89
   3   4   2  882.71   66.39
   3   4   2  942.31   66.19
   3   4   2 1013.20   66.19
   3   4   2  987.30   66.19
  -4  -4  -2  140.19   10.50
  -4  -4  -2  132.39    9.90
  -4  -4  -2  139.69   10.30
   4   4   2  144.29   10.40
   4   4   2  129.09   10.50
   4   4   2  135.19   10.50
  -5  -4  -2  344.97   23.50
  -5  -4  -2  350.96   22.90
   5   4   2  318.37   23.60
   5   4   2  285.47   23.50
   5   4   2  341.97   23.40
  -6  -4  -2  626.64   38.20
   6   4   2  563.34   38.70
   6   4   2  534.05   39.00
   6   4   2  505.05   39.10
   5  -5  -2   58.49    8.70
   5  -5  -2   70.09    9.50
   5  -5  -2   65.59    8.90
  -5   5   2   75.79    5.80
  -5   5   2   77.79    6.20
   4  -5  -2   41.40    6.70
   4  -5  -2   41.40    7.60
   4  -5  -2   50.29    5.80
  -4   5   2   51.19    4.60
  -4   5   2   51.29    4.40
   3  -5  -2 1820.72  129.79
   3  -5  -2 1833.82  129.29
   3  -5  -2 1795.32  130.29
  -3   5   2 1972.30  129.09
  -3   5   2 2150.98  129.29
   2  -5  -2   43.30    4.70
   2  -5  -2   42.10    3.60
   2  -5  -2   34.70    4.00
   2  -5  -2   35.50    4.30
   2  -5  -2   36.10    4.40
   2  -5  -2   34.10    5.70
  -2   5   2   36.60    3.10
  -2   5   2   39.50    3.30
  -2   5   2   37.50    4.80
  -2   5   2   33.70    4.20
   1  -5  -2  134.59   10.40
   1  -5  -2  144.29    9.80
   1  -5  -2  158.58    9.60
   1  -5  -2  121.89   10.30
   1  -5  -2  122.49   11.00
   1  -5  -2  120.89   11.70
   1  -5  -2  134.49   10.10
  -1   5   2  141.19   10.40
  -1   5   2  135.69   10.30
  -1   5   2  148.39    9.70
  -1   5   2  143.59    9.60
   0  -5  -2 1871.81  123.39
   0  -5  -2 1546.45  123.99
   0  -5  -2 2093.59  123.49
   0  -5  -2 1816.62  123.29
   0  -5  -2 1744.53  123.69
   0  -5  -2 1804.22  123.49
   0  -5  -2 2034.80  123.09
   0  -5  -2 1607.24  123.89
   0   5   2 1940.21  123.79
   0   5   2 1897.31  123.29
   0   5   2 1762.82  123.09
  -1  -5  -2  193.88   13.20
  -1  -5  -2  173.98   13.50
  -1  -5  -2  176.68   12.70
  -1  -5  -2  202.08   13.10
  -1  -5  -2  208.08   13.20
   1   5   2  192.38   13.40
   1   5   2  194.58   13.00
   1   5   2  162.28   13.50
   1   5   2  182.68   13.00
   1   5   2  181.88   13.50
  -2  -5  -2   19.60    2.70
  -2  -5  -2   20.70    2.70
  -2  -5  -2   20.00    2.60
  -2  -5  -2   21.60    3.80
  -2  -5  -2   25.50    3.20
  -2  -5  -2   24.60    2.20
  -2  -5  -2   22.10    2.60
   2   5   2   23.20    3.50
   2   5   2   20.60    2.60
   2   5   2   23.10    2.60
   2   5   2   19.50    2.70
   2   5   2   18.20    3.30
  -3  -5  -2 1647.54  116.19
  -3  -5  -2 1804.12  116.59
  -3  -5  -2 1745.23  116.19
  -3  -5  -2 1770.62  116.39
   3   5   2 1794.42  116.49
   3   5   2 1808.82  116.49
   3   5   2 1498.15  116.69
  -4  -5  -2  776.72   51.49
  -4  -5  -2  741.73   51.19
  -4  -5  -2  735.43   51.09
   4   5   2  745.13   51.49
   4   5   2  734.03   51.59
   4   5   2  783.52   51.49
  -5  -5  -2    6.30    3.50
  -5  -5  -2   -0.30    2.30
   5   5   2    2.50    2.90
   5   5   2   -0.60    4.00
   5   5   2    4.40    3.70
  -6  -5  -2   67.39    6.40
  -6  -5  -2   55.09    8.10
   6   5   2   69.99    8.60
   6   5   2   77.69   10.30
   5  -6  -2    4.40    4.70
   5  -6  -2   12.40    2.30
  -5   6   2   14.40    2.10
  -5   6   2   10.60    2.30
   4  -6  -2   79.59    8.50
   4  -6  -2   77.69    7.30
   4  -6  -2   78.29    9.70
  -4   6   2   75.39    6.20
  -4   6   2   89.19    6.40
   3  -6  -2   41.70    7.80
   3  -6  -2   54.89    6.20
   3  -6  -2   51.59    6.60
  -3   6   2   53.19    4.40
  -3   6   2   60.49    4.80
   2  -6  -2  333.47   24.40
   2  -6  -2  376.86   25.10
   2  -6  -2  344.37   24.60
   2  -6  -2  330.77   25.70
  -2   6   2  400.86   24.20
  -2   6   2  377.26   24.00
  -2   6   2  297.17   25.00
   1  -6  -2   95.89    9.40
   1  -6  -2  100.99    8.00
   1  -6  -2   93.69   10.50
   1  -6  -2  112.49    8.00
   1  -6  -2   97.29    8.40
   1  -6  -2  104.99    7.80
  -1   6   2  106.19    8.70
  -1   6   2  109.39    7.40
  -1   6   2   98.39    8.40
  -1   6   2   98.59    7.30
   0  -6  -2    0.20    1.90
   0  -6  -2    1.80    1.30
   0  -6  -2    5.80    2.90
   0  -6  -2    4.00    1.60
   0  -6  -2   -1.10    3.50
   0  -6  -2    3.60    1.90
   0   6   2    1.60    2.30
  -1  -6  -2 1117.49   77.89
  -1  -6  -2 1174.18   77.79
  -1  -6  -2 1065.79   77.49
  -1  -6  -2 1245.68   77.69
  -1  -6  -2 1173.78   78.09
  -1  -6  -2 1090.49   77.59
  -1  -6  -2 1212.28   77.79
   1   6   2 1129.59   78.09
   1   6   2 1138.69   77.59
   1   6   2 1241.98   77.59
   1   6   2 1043.00   77.89
  -2  -6  -2  155.68   10.10
  -2  -6  -2  133.29    9.70
  -2  -6  -2  133.79   10.30
  -2  -6  -2  126.19   11.30
  -2  -6  -2  146.89   10.20
  -2  -6  -2  135.99   10.10
   2   6   2  145.39    9.90
   2   6   2  118.09   11.60
   2   6   2  133.89   10.30
   2   6   2  129.49   11.10
  -3  -6  -2  243.28   18.50
  -3  -6  -2  265.27   18.80
  -3  -6  -2  281.87   19.10
   3   6   2  275.97   18.90
   3   6   2  274.77   18.90
  -4  -6  -2  130.29   10.90
  -4  -6  -2  139.49   10.50
  -4  -6  -2  145.49   11.20
   4   6   2  149.79   11.10
   4   6   2  130.99   11.10
   4   6   2  151.78   11.30
  -5  -6  -2  168.78   12.40
  -5  -6  -2  160.18   11.60
   5   6   2  140.39   12.70
   5   6   2  130.09   13.00
   5   6   2  169.08   12.10
   4  -7  -2   58.39    9.50
   4  -7  -2   55.79    7.50
   4  -7  -2   63.49    5.80
  -4   7   2   59.59    5.10
  -4   7   2   66.09    5.30
   3  -7  -2  200.68   14.30
   3  -7  -2  190.88   15.30
   3  -7  -2  179.88   16.40
  -3   7   2  193.18   13.70
  -3   7   2  207.18   13.90
   2  -7  -2   20.00    2.90
   2  -7  -2   18.80    4.50
   2  -7  -2   17.90    3.90
   2  -7  -2   13.90    4.60
  -2   7   2   18.00    2.60
  -2   7   2   17.90    2.10
   1  -7  -2    2.40    2.00
   1  -7  -2    2.50    3.70
   1  -7  -2    3.90    5.70
   1  -7  -2    3.30    2.50
   1  -7  -2   -0.60    2.70
  -1   7   2    0.60    1.30
  -1   7   2    4.80    2.90
   0  -7  -2  723.33   49.80
   0  -7  -2  690.63   50.99
   0  -7  -2  735.43   50.09
   0  -7  -2  712.73   49.60
   0  -7  -2  698.33   49.40
   0   7   2  722.63   49.40
   0   7   2  812.22   49.50
  -1  -7  -2  394.46   28.30
  -1  -7  -2  379.36   28.30
  -1  -7  -2  426.16   28.40
  -1  -7  -2  419.66   28.00
  -1  -7  -2  467.25   29.00
   1   7   2  434.66   28.20
   1   7   2  412.26   28.20
   1   7   2  355.66   28.90
  -2  -7  -2  261.17   18.80
  -2  -7  -2  300.67   19.20
  -2  -7  -2  260.77   20.20
  -2  -7  -2  263.57   19.20
   2   7   2  286.27   19.10
   2   7   2  259.77   19.60
   3   7   2   10.70    2.50
   3   7   2    9.00    2.50
  -4  -7  -2  550.54   36.90
  -4  -7  -2  525.35   36.60
   4   7   2  520.95   36.80
   4   7   2  542.95   36.80
   4   7   2  516.05   36.90
  -5  -7  -2   64.99    7.10
   5   7   2   64.09    6.70
   4  -8  -2    4.30    2.20
   4  -8  -2   -0.50    3.80
   4  -8  -2   -2.10    4.30
  -4   8   2    4.80    1.80
  -4   8   2    6.10    2.30
   3  -8  -2   15.90    4.00
   3  -8  -2    7.90    2.30
   3  -8  -2    7.80    5.00
   3  -8  -2   14.60    2.90
  -3   8   2   11.30    2.20
  -3   8   2   12.80    2.40
   2  -8  -2  884.01   60.79
   2  -8  -2  869.91   61.59
  -2   8   2  930.41   60.79
   1  -8  -2  272.27   24.50
   1  -8  -2  280.47   21.20
   1  -8  -2  335.97   22.40
   1  -8  -2  280.87   21.30
  -1   8   2  335.47   21.20
  -1   8   2  316.37   21.10
   0  -8  -2    1.10    3.10
   0  -8  -2    1.50    2.20
   0  -8  -2    1.40    2.40
   0   8   2    0.70    1.60
   0   8   2   -0.50    1.50
  -1  -8  -2  458.75   31.90
  -1  -8  -2  449.36   31.60
  -1  -8  -2  482.75   32.50
   1   8   2  438.96   31.80
   1   8   2  486.35   31.80
  -2  -8  -2  905.91   64.79
  -2  -8  -2  955.40   64.79
  -2  -8  -2  920.01   64.49
   2   8   2  977.50   64.79
   2   8   2 1005.50   64.79
  -3  -8  -2   60.39    6.10
  -3  -8  -2   55.59    6.60
  -3  -8  -2   56.79    6.80
   3   8   2   58.99    6.10
  -4  -8  -2  271.47   18.90
  -4  -8  -2  255.07   18.60
   4   8   2  247.78   19.10
   4   8   2  270.67   18.70
   4   8   2  254.57   19.00
  -5  -8  -2  330.67   23.70
  -5  -8  -2  357.06   24.50
   5   8   2  349.57   24.30
   3  -9  -2    6.60    3.70
   3  -9  -2    2.80    3.20
  -3   9   2    2.40    3.40
  -3   9   2    5.20    2.20
   2  -9  -2   40.20    4.30
   2  -9  -2   38.30    6.50
   2  -9  -2   38.40    5.10
  -2   9   2   49.70    4.40
  -2   9   2   43.20    4.30
   1  -9  -2  987.40   66.29
   1  -9  -2 1018.80   67.39
   1  -9  -2  907.31   66.49
   1  -9  -2  930.61   66.49
  -1   9   2  977.10   66.49
  -1   9   2 1057.39   66.49
   0  -9  -2  373.46   26.50
   0  -9  -2  352.46   26.50
   0  -9  -2  412.16   27.50
   0  -9  -2  385.66   26.20
   0   9   2  397.06   26.40
   0   9   2  365.56   26.30
  -1  -9  -2   41.00    4.40
  -1  -9  -2   36.50    5.40
  -1  -9  -2   39.10    6.60
   1   9   2   43.70    5.60
   1   9   2   39.00    4.40
  -2  -9  -2  180.28   13.80
  -2  -9  -2  190.28   13.50
  -2  -9  -2  170.08   14.50
   2   9   2  194.88   13.60
   2   9   2  193.18   13.70
  -3  -9  -2  615.94   44.10
  -3  -9  -2  648.94   44.40
  -3  -9  -2  655.83   44.20
   3   9   2  641.84   44.20
   3   9   2  662.23   44.30
  -4  -9  -2  132.29   10.50
  -4  -9  -2  142.69   11.20
   4   9   2  135.69   10.40
   4   9   2  123.99   11.20
   2 -10  -2    8.50    2.80
   2 -10  -2   -1.20    3.40
   2 -10  -2    4.40    2.10
  -2  10   2    3.50    1.90
  -2  10   2    3.60    2.00
   1 -10  -2   54.99    7.00
   1 -10  -2   51.99    6.70
   1 -10  -2   49.10    4.90
  -1  10   2   57.29    5.00
  -1  10   2   53.79    5.30
   0 -10  -2  164.08   13.10
   0 -10  -2  157.68   12.30
   0 -10  -2  160.28   11.70
   0  10   2  168.28   11.80
   0  10   2  158.08   12.10
  -1 -10  -2   70.79    6.50
  -1 -10  -2   68.99    6.00
   1  10   2   64.19    6.00
  -2 -10  -2   68.69    6.50
  -2 -10  -2   66.89    6.30
   2  10   2   69.19    6.30
   2  10   2   68.49    6.30
  -3 -10  -2  117.99    8.90
   3  10   2  107.89   10.50
   3  10   2  103.99    8.70
   0 -11  -2  305.87   20.50
   0 -11  -2  277.37   20.90
   0  11   2  299.07   20.50
  -1 -11  -2    1.90    2.90
  -1 -11  -2    7.00    2.30
   1  11   2    8.20    2.90
   1  11   2    8.00    2.50
  -2 -11  -2    6.00    3.00
  -2 -11  -2    5.00    2.90
   2  11   2    6.60    2.80
   2  11   2    7.20    3.00
   1  10  -3  316.97   20.00
  -1 -10   3  298.07   19.80
  -1 -10   3  254.27   20.30
  -1 -10   3  255.37   21.50
   0  10  -3  113.69    8.80
   0 -10   3  120.99    8.80
   0 -10   3  102.19   12.40
   0 -10   3  110.99    9.40
   3   9  -3  712.13   48.10
  -3  -9   3  695.83   48.00
   2   9  -3  402.16   26.10
  -2  -9   3  377.46   27.10
  -2  -9   3  377.46   25.90
  -2  -9   3  336.47   26.40
   1   9  -3   11.00    2.90
  -1  -9   3   14.30    3.40
  -1  -9   3    9.40    2.40
  -1  -9   3    8.00    5.40
   0   9  -3  195.88   13.50
   0  -9   3  181.58   13.90
   0  -9   3  161.98   17.20
   0  -9   3  202.28   13.50
   0  -9   3  186.98   15.30
  -1   9  -3   28.40    3.90
   1  -9   3   36.30    5.00
   1  -9   3   20.80    7.50
   1  -9   3   35.90    4.50
   1  -9   3   37.40    5.70
  -2   9  -3   93.39    6.40
   2  -9   3   61.39    9.00
   2  -9   3   70.99   11.90
   2  -9   3   75.29    6.90
   4   8  -3    2.00    3.60
   4   8  -3    4.00    2.60
  -4  -8   3   -3.60    4.60
   3   8  -3    2.20    2.90
  -3  -8   3   -2.50    4.50
  -3  -8   3    2.30    2.90
   2   8  -3  589.34   36.80
  -2  -8   3  525.15   36.50
  -2  -8   3  490.35   36.70
  -2  -8   3  535.65   37.60
  -2  -8   3  521.55   36.60
   1   8  -3   91.39    7.60
  -1  -8   3   88.79    8.00
  -1  -8   3   87.79    8.10
  -1  -8   3   87.69   12.10
  -1  -8   3   92.69    7.50
  -1  -8   3   99.29   10.00
   0   8  -3   71.79    5.80
   0  -8   3   60.59   11.10
   0  -8   3   68.39    5.70
   0  -8   3   57.09    6.50
   0  -8   3   54.79    8.20
   1  -8   3  227.68   20.60
   1  -8   3  239.98   17.50
   1  -8   3  259.47   17.20
   1  -8   3  249.48   18.40
  -2   8  -3  506.85   33.60
   2  -8   3  513.75   33.80
   2  -8   3  484.25   34.40
   2  -8   3  494.65   33.70
   2  -8   3  453.15   35.90
  -3   8  -3    4.60    2.00
   3  -8   3    2.60    8.40
   3  -8   3    1.30    2.80
   3  -8   3   10.00    4.30
   4   7  -3   70.69    7.10
  -4  -7   3   68.79    6.10
  -4  -7   3   68.09    7.90
   3   7  -3   28.10    3.70
  -3  -7   3   16.80    4.50
  -3  -7   3   20.00    4.10
  -3  -7   3   17.50    3.10
  -3  -7   3   19.60    5.40
  -3  -7   3   15.90    3.10
   2   7  -3   66.19    6.60
  -2  -7   3   64.19    7.00
   1   7  -3   83.09    7.00
  -1  -7   3   92.49    8.90
  -1  -7   3   87.99    7.50
  -1  -7   3   89.89    6.90
  -1  -7   3   76.39   11.20
  -1  -7   3   88.59    7.20
   0  -7   3  199.98   17.60
   0  -7   3  200.08   14.70
   0  -7   3  194.28   14.60
   0  -7   3  211.18   14.40
   0  -7   3  211.98   15.50
  -1   7  -3   71.39    5.90
   1  -7   3   72.69    5.90
   1  -7   3   66.99   10.00
   1  -7   3   78.79    6.40
   1  -7   3   75.89    7.60
   1  -7   3   54.29    9.70
   1  -7   3   63.69    7.30
  -2   7  -3  107.19    8.40
   2  -7   3  108.39    8.70
   2  -7   3  130.29   10.10
   2  -7   3   99.29   12.10
   2  -7   3  121.89   10.30
   2  -7   3  111.69    8.80
  -3   7  -3  606.84   38.60
   3  -7   3  493.45   40.50
   3  -7   3  572.04   38.70
   3  -7   3  586.24   39.30
  -4   7  -3  171.48   11.40
   4  -7   3  155.18   12.40
   4  -7   3  149.69   11.60
   5   6  -3  641.74   49.30
  -5  -6   3  798.12   49.10
   4   6  -3  445.36   30.40
  -4  -6   3  452.75   30.50
  -4  -6   3  449.95   29.80
  -4  -6   3  388.36   30.50
  -4  -6   3  434.86   30.60
   3   6  -3    3.50    2.60
  -3  -6   3    3.60    2.00
  -3  -6   3   -2.30    3.30
  -3  -6   3    2.40    3.00
  -3  -6   3    2.30    2.20
  -3  -6   3    0.40    4.60
   2   6  -3  392.86   27.60
  -2  -6   3  394.96   27.20
  -2  -6   3  397.86   27.70
  -2  -6   3  414.56   28.40
  -2  -6   3  409.66   27.60
  -2  -6   3  382.46   27.40
  -2  -6   3  400.26   27.80
   1   6  -3  921.91   59.09
  -1  -6   3  865.91   59.09
  -1  -6   3  788.62   60.89
  -1  -6   3  878.31   59.69
  -1  -6   3  910.01   59.19
  -1  -6   3  863.21   59.19
   0  -6   3    1.70    2.40
   0  -6   3   -2.10    3.80
   0  -6   3    0.30    1.30
   0  -6   3    4.70    2.70
   0  -6   3    0.40    3.90
   0  -6   3    1.80    2.20
   0  -6   3    1.30    1.80
  -1   6  -3    7.30    1.60
   1  -6   3    6.20    2.90
   1  -6   3    4.90    3.90
   1  -6   3    6.50    2.70
   1  -6   3    7.40    1.80
   1  -6   3    7.10    4.40
   1  -6   3    7.30    1.50
  -2   6  -3  481.15   32.40
   2  -6   3  477.95   33.10
   2  -6   3  440.96   34.30
   2  -6   3  452.85   32.40
   2  -6   3  491.05   32.60
   2  -6   3  504.15   33.20
  -3   6  -3  119.49    8.30
   3  -6   3   84.69   11.70
   3  -6   3  105.59   11.60
   3  -6   3   96.39   11.80
   3  -6   3  116.89    9.50
   3  -6   3  118.89    8.60
  -4   6  -3   11.40    2.00
  -4   6  -3   16.70    3.00
   4  -6   3   15.90    5.20
   4  -6   3   14.30   11.10
   4  -6   3   13.60    2.50
   4  -6   3   17.50    3.80
   4  -6   3   12.70    6.40
   5   5  -3   52.19    7.20
   5   5  -3   56.09    6.80
  -5  -5   3   39.60    6.70
  -5  -5   3   57.79    4.90
   4   5  -3  780.22   50.79
  -4  -5   3  724.63   50.59
  -4  -5   3  682.33   50.49
  -4  -5   3  765.12   50.79
  -4  -5   3  743.73   50.19
   3   5  -3  398.06   26.80
  -3  -5   3  389.16   27.50
  -3  -5   3  382.36   26.20
  -3  -5   3  396.46   26.90
  -3  -5   3  350.16   26.40
  -3  -5   3  390.06   26.80
   2   5  -3   11.00    3.80
  -2  -5   3   13.60    2.40
  -2  -5   3   10.30    2.00
  -2  -5   3    9.40    4.90
  -2  -5   3   10.20    2.10
  -2  -5   3    8.20    1.60
  -2  -5   3   15.80    2.80
  -2  -5   3   16.20    1.90
  -2  -5   3   15.70    3.00
  -2  -5   3   12.90    3.60
   1   5  -3 1228.08   91.39
   1   5  -3 1149.48   90.99
  -1  -5   3 1401.66   90.89
  -1  -5   3 1445.26   90.79
  -1  -5   3 1387.16   91.09
  -1  -5   3 1437.26   90.79
  -1  -5   3 1235.68   91.99
  -1  -5   3 1396.46   90.69
  -1  -5   3 1328.87   90.69
  -1  -5   3 1427.26   91.29
   0   5  -3 1185.28   84.09
   0  -5   3 1217.78   83.79
   0  -5   3 1344.37   83.49
   0  -5   3 1223.48   83.39
   0  -5   3 1151.38   84.69
   0  -5   3 1230.48   83.89
   0  -5   3 1295.37   83.39
  -1   5  -3   -0.50    2.80
  -1   5  -3    0.10    2.50
   1  -5   3    0.70    1.10
   1  -5   3    1.40    1.50
   1  -5   3    0.90    2.70
   1  -5   3    0.80    2.30
   1  -5   3   -0.40    3.00
   1  -5   3    1.40    2.00
   1  -5   3    1.50    3.00
   1  -5   3    2.80    2.40
  -2   5  -3  110.39    9.00
   2  -5   3  131.09   10.10
   2  -5   3  132.29    9.10
   2  -5   3  125.99   11.10
   2  -5   3  127.29    9.70
   2  -5   3  121.39   11.10
   2  -5   3  108.79   11.10
   2  -5   3  121.69    8.90
  -3   5  -3 1727.33  118.69
   3  -5   3 1802.52  120.39
   3  -5   3 1507.85  120.19
   3  -5   3 1727.23  120.29
   3  -5   3 1902.91  118.99
   3  -5   3 1899.31  119.39
  -4   5  -3  347.07   23.60
   4  -5   3  364.56   24.40
   4  -5   3  325.77   25.70
   4  -5   3  350.56   23.90
   4  -5   3  330.77   26.00
  -5   5  -3    3.90    1.90
  -5   5  -3    0.10    1.60
   5  -5   3    2.30    3.20
   5  -5   3   -4.90    5.70
   5  -5   3   -4.20    2.80
   5   4  -3   95.89    9.00
   5   4  -3  100.89    8.90
  -5  -4   3   94.19    7.20
  -5  -4   3   91.69    8.10
  -5  -4   3   82.89    8.70
   4   4  -3    1.30    2.50
   4   4  -3    2.10    2.60
  -4  -4   3    1.60    1.50
  -4  -4   3    2.80    3.10
  -4  -4   3   -0.10    2.30
  -4  -4   3   -1.40    2.60
  -4  -4   3    3.20    4.00
   3   4  -3  518.55   33.60
  -3  -4   3  512.85   33.20
  -3  -4   3  499.05   33.60
  -3  -4   3  435.96   33.20
  -3  -4   3  502.05   34.10
  -3  -4   3  499.45   33.70
  -3  -4   3  449.26   33.30
   2   4  -3  232.08   18.10
   2   4  -3  235.18   18.50
  -2  -4   3  249.08   17.70
  -2  -4   3  243.78   17.50
  -2  -4   3  252.77   17.50
  -2  -4   3  271.37   17.90
  -2  -4   3  254.67   18.30
  -2  -4   3  258.77   17.60
  -2  -4   3  260.67   17.70
  -2  -4   3  281.17   17.50
   1   4  -3  114.29    8.80
   1   4  -3  119.39    8.50
  -1  -4   3  112.79    7.80
  -1  -4   3  109.69    7.80
  -1  -4   3  115.89    8.10
  -1  -4   3   93.99    9.70
  -1  -4   3  110.29    7.90
  -1  -4   3  111.69    8.70
  -1  -4   3  110.29    8.10
  -1  -4   3  110.09    8.50
   0   4  -3   34.50    4.10
   0   4  -3   29.40    3.50
   0  -4   3   33.80    2.90
   0  -4   3   35.80    3.20
   0  -4   3   23.60    5.10
   0  -4   3   35.50    4.00
   0  -4   3   29.00    5.20
   0  -4   3   34.70    3.20
   0  -4   3   25.80    4.40
   0  -4   3   30.40    3.80
   0  -4   3   35.40    3.40
  -1   4  -3 1414.16   97.79
  -1   4  -3 1510.65   97.69
   1  -4   3 1409.26   97.09
   1  -4   3 1452.25   97.49
   1  -4   3 1273.27   97.89
   1  -4   3 1581.24   97.79
   1  -4   3 1446.46   97.49
  -2   4  -3   89.19    8.00
  -2   4  -3  100.49    8.20
   2  -4   3   90.79    7.00
   2  -4   3   96.29    7.60
   2  -4   3  106.69    7.30
   2  -4   3   87.19    8.90
   2  -4   3   92.49    8.10
   2  -4   3   95.89    8.60
   2  -4   3   97.99    9.00
  -3   4  -3   26.30    2.70
   3  -4   3   31.70    5.00
   3  -4   3   29.50    3.70
   3  -4   3   26.80    5.10
   3  -4   3   27.30    4.90
   3  -4   3   22.00    4.30
   3  -4   3   32.60    4.00
  -4   4  -3  762.32   49.50
   4  -4   3  787.22   50.09
   4  -4   3  718.33   51.09
   4  -4   3  716.23   49.70
   4  -4   3  663.83   51.09
  -5   4  -3  325.57   21.30
   5  -4   3  318.57   22.00
   5  -4   3  302.77   23.10
   5  -4   3  288.27   23.40
   6   3  -3   64.59    7.80
  -6  -3   3   78.89    6.90
  -6  -3   3   64.69    5.80
   5   3  -3   70.89    7.70
   5   3  -3   75.29    7.50
  -5  -3   3   66.29    7.30
  -5  -3   3   70.49    5.80
  -5  -3   3   66.49    6.50
   4   3  -3   95.49    7.70
   4   3  -3  102.99    8.20
  -4  -3   3   88.79    6.90
  -4  -3   3   86.09    7.30
  -4  -3   3   88.19    7.90
  -4  -3   3   86.99    8.00
   3   3  -3 1310.57   85.29
  -3  -3   3 1295.57   85.39
  -3  -3   3 1357.26   85.29
  -3  -3   3 1160.98   85.09
  -3  -3   3 1195.38   85.09
  -3  -3   3 1297.27   84.99
  -3  -3   3 1208.08   85.09
   2   3  -3  113.89    8.80
   2   3  -3  124.89    9.30
  -2  -3   3  122.59    9.20
  -2  -3   3  130.19    9.40
  -2  -3   3  131.09    8.90
  -2  -3   3  131.49    8.90
  -2  -3   3  135.29    9.90
  -2  -3   3  114.29    9.10
  -2  -3   3  135.29    9.10
  -2  -3   3  124.79    9.00
  -2  -3   3  121.39    9.00
   1   3  -3  269.37   18.40
   1   3  -3  295.67   18.10
  -1  -3   3  251.07   18.10
  -1  -3   3  247.78   17.80
  -1  -3   3  249.28   17.90
  -1  -3   3  271.77   18.00
  -1  -3   3  256.67   18.00
  -1  -3   3  243.98   18.30
  -1  -3   3  254.17   17.90
  -1  -3   3  269.27   17.80
   0   3  -3  616.14   39.30
   0   3  -3  573.84   38.80
   0   3  -3  564.84   39.10
   0  -3   3  515.35   39.40
   0  -3   3  553.74   38.80
   0  -3   3  622.64   39.00
   0  -3   3  564.64   38.80
   0  -3   3  657.43   39.20
   0  -3   3  494.05   39.50
   0  -3   3  566.94   39.10
  -1   3  -3  906.41   57.29
  -1   3  -3  912.81   57.19
   1  -3   3  834.02   57.49
   1  -3   3  811.42   56.99
   1  -3   3  761.42   57.09
   1  -3   3  906.91   56.99
   1  -3   3  858.31   57.49
   1  -3   3  835.52   56.69
   1  -3   3  802.62   56.89
   1  -3   3  762.62   56.59
  -2   3  -3 2106.69  130.89
  -2   3  -3 2135.39  131.09
   2  -3   3 1943.91  130.49
   2  -3   3 2027.70  131.39
   2  -3   3 1692.03  131.09
   2  -3   3 1960.70  131.29
   2  -3   3 1685.43  130.69
  -3   3  -3    0.60    0.80
   3  -3   3   -1.70    2.40
   3  -3   3   -0.40    2.50
   3  -3   3    3.60    2.70
   3  -3   3    1.10    1.60
   3  -3   3    0.50    3.10
   3  -3   3    1.60    1.60
   3  -3   3   -1.50    3.00
  -4   3  -3  356.06   22.10
   4  -3   3  352.06   22.80
   4  -3   3  328.27   22.50
   4  -3   3  303.57   23.90
   4  -3   3  292.37   23.30
   4  -3   3  351.86   23.90
   4  -3   3  268.37   24.10
  -5   3  -3  231.08   14.50
   5  -3   3  188.48   17.00
   5  -3   3  200.98   17.80
   5  -3   3  233.98   15.30
   5  -3   3  178.78   15.20
   6   2  -3  240.28   19.50
  -6  -2   3  255.47   17.40
   5   2  -3  362.66   25.40
   5   2  -3  346.27   25.20
  -5  -2   3  359.26   25.00
  -5  -2   3  355.56   24.50
  -5  -2   3  339.47   24.20
   4   2  -3    1.80    2.30
   4   2  -3   -1.50    2.40
  -4  -2   3    4.20    2.20
  -4  -2   3   -1.20    1.60
  -4  -2   3    1.90    1.40
   3   2  -3  614.64   47.80
   3   2  -3  776.22   48.50
   3   2  -3  679.83   48.20
  -3  -2   3  673.43   47.80
  -3  -2   3  747.93   47.90
  -3  -2   3  755.32   48.10
  -3  -2   3  701.73   47.80
  -3  -2   3  699.13   47.80
   2   2  -3 3367.46  211.98
   2   2  -3 3204.18  211.88
   2   2  -3 3210.68  211.68
  -2  -2   3 3165.28  211.88
  -2  -2   3 3195.28  212.08
  -2  -2   3 2810.52  211.68
  -2  -2   3 3177.28  211.78
  -2  -2   3 2891.61  211.68
  -2  -2   3 3168.78  211.68
  -2  -2   3 3275.77  211.68
   1   2  -3  183.68   13.30
   1   2  -3  211.68   13.00
  -1  -2   3  211.18   13.10
  -1  -2   3  175.78   13.20
  -1  -2   3  178.38   13.10
  -1  -2   3  184.48   13.20
  -1  -2   3  207.08   13.20
  -1  -2   3  184.78   13.60
  -1  -2   3  180.48   13.00
   0   2  -3  641.04   48.80
   0   2  -3  692.23   49.10
   0   2  -3  765.32   48.80
   0   2  -3  754.62   48.70
   0   2  -3  692.33   48.80
   0   2  -3  728.73   49.10
   0  -2   3  768.82   48.80
   0  -2   3  742.33   48.90
  -1   2  -3 1367.26   85.89
  -1   2  -3 1395.46   85.49
  -1   2  -3 1349.96   85.49
  -1   2  -3 1208.18   85.79
  -1   2  -3 1223.88   85.79
   1  -2   3 1192.88   85.79
   1  -2   3 1312.87   85.69
   1  -2   3 1330.47   85.39
   1  -2   3 1224.48   86.09
   1  -2   3 1331.87   85.49
   1  -2   3 1214.88   85.79
   1  -2   3 1093.09   85.59
   1  -2   3 1252.57   85.99
  -2   2  -3  408.36   28.00
  -2   2  -3  444.06   28.30
  -2   2  -3  440.46   27.60
   2  -2   3  349.57   28.20
   2  -2   3  355.56   28.20
   2  -2   3  434.86   28.80
   2  -2   3  436.26   28.40
   2  -2   3  446.56   28.00
   2  -2   3  372.06   27.80
   2  -2   3  409.16   28.50
   2  -2   3  394.36   27.90
  -3   2  -3   41.90    3.90
  -3   2  -3   47.30    5.10
   3  -2   3   36.60    5.10
   3  -2   3   48.20    4.60
   3  -2   3   47.00    5.90
   3  -2   3   51.19    5.10
   3  -2   3   44.00    5.90
   3  -2   3   49.50    5.00
   3  -2   3   50.59    4.20
  -4   2  -3  215.48   15.00
  -4   2  -3  230.38   14.90
   4  -2   3  213.08   16.20
   4  -2   3  235.98   15.60
   4  -2   3  205.78   15.40
   4  -2   3  193.38   16.90
   4  -2   3  192.48   16.60
   4  -2   3  234.38   16.40
  -5   2  -3  863.41   53.29
  -5   2  -3  844.82   53.39
   5  -2   3  821.82   53.79
   5  -2   3  708.53   54.69
   5  -2   3  771.62   54.59
   5  -2   3  705.43   54.29
  -6   2  -3   83.29    6.40
  -6   2  -3   82.69    6.80
   6  -2   3   84.99    7.30
   6   1  -3    3.50    3.50
  -6  -1   3    0.50    2.50
  -6  -1   3    0.60    2.50
   5   1  -3  431.96   32.20
   5   1  -3  453.25   31.80
   5   1  -3  479.55   32.40
  -5  -1   3  462.55   31.80
  -5  -1   3  460.15   31.50
  -5  -1   3  456.95   31.20
   4   1  -3 1712.33  112.39
   4   1  -3 1800.72  112.69
  -4  -1   3 1707.83  112.29
  -4  -1   3 1611.34  111.99
  -4  -1   3 1653.93  111.89
  -4  -1   3 1472.95  111.79
   3   1  -3   50.99    4.30
   3   1  -3   43.40    4.10
   3   1  -3   41.60    3.60
   3   1  -3   40.90    4.20
  -3  -1   3   42.00    4.00
  -3  -1   3   37.50    4.10
  -3  -1   3   39.10    3.60
  -3  -1   3   41.20    3.50
  -3  -1   3   37.50    3.80
  -3  -1   3   41.70    3.60
   2   1  -3   83.79    5.90
   2   1  -3   76.59    5.60
   2   1  -3   72.89    5.80
  -2  -1   3   74.49    6.00
  -2  -1   3   82.59    5.60
  -2  -1   3   86.99    6.60
  -2  -1   3   86.49    5.50
  -2  -1   3   77.39    5.80
  -2  -1   3   68.39    5.70
  -2  -1   3   78.99    5.90
   1   1  -3 1984.10  144.49
   1   1  -3 2349.76  144.49
   1   1  -3 2142.09  144.39
   1   1  -3 2326.27  144.39
  -1  -1   3 1870.91  144.39
  -1  -1   3 2267.57  144.39
  -1  -1   3 2092.19  144.39
  -1  -1   3 2120.29  144.39
   0   1  -3 2914.61  174.28
   0   1  -3 2505.15  174.58
   0   1  -3 2431.16  174.28
   0   1  -3 2623.34  174.28
   0  -1   3 2478.75  174.38
  -1   1  -3  976.20   60.39
  -1   1  -3  885.21   60.59
  -1   1  -3  782.42   60.49
  -1   1  -3  905.01   60.39
  -1   1  -3  872.21   60.79
  -1   1  -3  908.01   60.69
   1  -1   3  929.71   60.69
  -2   1  -3 2421.16  154.68
  -2   1  -3 2434.66  154.88
   2  -1   3 1969.40  154.78
   2  -1   3 2442.46  154.98
   2  -1   3 2028.50  154.88
   2  -1   3 2470.15  155.08
   2  -1   3 2365.36  154.98
   2  -1   3 2163.08  154.68
   2  -1   3 2368.96  154.78
  -3   1  -3 4147.29  259.17
  -3   1  -3 3475.75  258.47
   3  -1   3 3888.21  259.17
   3  -1   3 3717.03  259.07
   3  -1   3 3392.16  259.07
   3  -1   3 4227.78  259.77
   3  -1   3 4054.59  259.17
  -4   1  -3   -0.10    1.40
   4  -1   3    2.80    2.00
   4  -1   3    1.70    2.70
   4  -1   3    2.20    3.00
   4  -1   3    2.10    3.00
   4  -1   3    2.70    2.30
   4  -1   3    3.00    4.10
  -5   1  -3   93.89    6.90
  -5   1  -3   97.19    7.30
   5  -1   3   78.79    9.70
   5  -1   3   95.19    7.60
   5  -1   3   94.59    9.40
   5  -1   3   79.29    8.60
  -6   1  -3  328.77   20.90
  -6   1  -3  335.37   21.10
   6  -1   3  255.97   21.80
   6  -1   3  268.57   23.10
   6  -1   3  316.57   21.30
   6   0  -3   12.50    4.30
  -6   0   3   10.00    2.70
  -6   0   3    9.80    2.90
   5   0  -3  149.69   12.20
   5   0  -3  156.08   12.70
   5   0  -3  154.78   13.20
  -5   0   3  171.48   11.70
  -5   0   3  151.08   11.50
  -5   0   3  165.68   11.30
   4   0  -3  282.87   19.90
   4   0  -3  299.67   20.10
  -4   0   3  247.18   19.10
  -4   0   3  278.67   19.10
  -4   0   3  277.97   19.30
  -4   0   3  283.37   19.50
   3   0  -3 1391.26  101.69
   3   0  -3 1471.35  101.89
   3   0  -3 1664.23  102.29
   3   0  -3 1613.74  101.99
  -3   0   3 1631.84  101.59
  -3   0   3 1438.76  101.59
  -3   0   3 1436.96  101.59
  -3   0   3 1616.94  101.99
  -3   0   3 1488.85  101.69
  -3   0   3 1317.77  101.59
  -3   0   3 1559.64  101.69
  -3   0   3 1468.65  101.89
   2   0  -3   40.20    3.50
   2   0  -3   49.40    3.60
   2   0  -3   43.90    3.40
   2   0  -3   47.40    4.20
   2   0  -3   43.80    3.60
  -2   0   3   51.39    3.50
  -2   0   3   44.90    4.00
  -2   0   3   42.80    3.40
  -2   0   3   47.50    3.40
  -2   0   3   42.50    3.20
  -2   0   3   48.70    3.30
  -2   0   3   43.10    3.60
  -2   0   3   43.60    3.60
  -2   0   3   46.10    3.80
   1   0  -3 1806.42  120.39
   1   0  -3 1864.81  120.89
   1   0  -3 1680.53  120.39
   1   0  -3 1835.42  120.39
   1   0  -3 1900.21  120.49
  -1   0   3 1598.54  120.39
  -1   0   3 1761.52  120.39
  -1   0   3 1859.61  120.39
  -1   0  -3  438.66   33.10
  -1   0  -3  495.55   33.50
  -1   0  -3  505.15   32.90
  -1   0  -3  504.25   33.10
  -1   0  -3  445.76   33.00
  -1   0  -3  524.85   33.10
  -1   0  -3  501.55   32.90
   1   0   3  519.45   33.30
   1   0   3  456.15   33.20
  -2   0  -3   14.20    1.50
  -2   0  -3   15.10    1.80
  -2   0  -3   16.10    1.90
   2   0   3   16.20    2.50
   2   0   3   15.00    2.70
   2   0   3   16.70    2.30
   2   0   3   17.10    2.60
   2   0   3   14.20    2.10
   2   0   3   15.90    3.00
  -3   0  -3 1919.21  121.19
  -3   0  -3 1895.51  121.39
  -3   0  -3 1600.34  120.79
   3   0   3 1817.72  121.39
   3   0   3 1841.22  121.39
   3   0   3 1777.82  121.69
   3   0   3 1626.34  121.29
   3   0   3 1879.51  121.39
  -4   0  -3 1237.38   84.19
   4   0   3 1386.86   85.09
   4   0   3 1196.88   84.99
   4   0   3 1145.59   85.59
   4   0   3 1223.88   85.09
   4   0   3 1296.57   84.89
  -5   0  -3    3.20    2.10
  -5   0  -3    4.70    1.60
   5   0   3    8.50    3.70
   5   0   3    4.80    2.60
   5   0   3    5.50    4.10
   5   0   3    6.00    3.70
  -6   0  -3    1.20    2.30
  -6   0  -3    3.60    2.00
   6   0   3    1.70    2.50
   6   0   3    7.10    8.40
   6   0   3    1.30    3.60
   6  -1  -3   -4.60    2.70
   6  -1  -3    5.30    5.30
  -6   1   3    0.10    3.60
  -6   1   3    3.10    2.80
   5  -1  -3    1.40    5.30
   5  -1  -3    2.00    2.90
   5  -1  -3    4.40    3.50
  -5   1   3    2.70    1.90
  -5   1   3    2.60    1.90
  -5   1   3    4.70    1.80
   4  -1  -3  543.95   34.50
   4  -1  -3  513.75   34.00
   4  -1  -3  488.25   34.20
  -4   1   3  488.65   33.50
  -4   1   3  472.45   33.50
  -4   1   3  478.35   33.40
  -4   1   3  474.35   33.40
  -4   1   3  477.75   33.90
   3  -1  -3  148.99   10.60
   3  -1  -3  143.99   10.60
   3  -1  -3  135.39   10.10
   3  -1  -3  134.49    9.90
  -3   1   3  142.39   10.10
  -3   1   3  141.99    9.80
  -3   1   3  140.29    9.70
  -3   1   3  129.49   10.20
  -3   1   3  147.29    9.70
  -3   1   3  138.09   10.00
  -3   1   3  134.89   10.00
   2  -1  -3    1.60    0.70
   2  -1  -3    3.20    1.40
   2  -1  -3    1.60    1.10
   2  -1  -3    0.80    0.70
  -2   1   3    0.60    1.20
  -2   1   3    1.80    0.90
  -2   1   3    1.80    0.50
  -2   1   3    2.20    0.90
  -2   1   3    1.70    0.80
  -2   1   3    1.10    1.00
   1  -1  -3  295.57   18.30
   1  -1  -3  260.37   18.30
   1  -1  -3  249.28   18.50
   1  -1  -3  280.47   18.30
   1  -1  -3  298.37   18.70
  -1   1   3  243.48   18.30
  -1   1   3  246.58   18.20
  -1   1   3  254.77   18.20
  -1   1   3  280.87   18.30
   0  -1  -3 2963.10  199.58
  -1  -1  -3 2264.87  159.58
  -1  -1  -3 2415.56  159.48
   1   1   3 2189.88  159.48
   1   1   3 2608.34  159.78
  -2  -1  -3 2889.41  193.58
  -2  -1  -3 3219.18  193.48
  -2  -1  -3 2960.50  193.48
   2   1   3 2640.74  193.48
   2   1   3 2802.42  193.28
   2   1   3 3121.49  194.08
   2   1   3 2476.75  193.38
   2   1   3 2822.82  193.58
   2   1   3 2918.71  194.18
  -3  -1  -3  528.25   32.20
  -3  -1  -3  459.05   31.90
  -3  -1  -3  512.05   32.50
  -3  -1  -3  411.86   32.00
   3   1   3  406.76   32.30
   3   1   3  447.86   32.30
   3   1   3  499.95   32.30
   3   1   3  484.15   32.40
   3   1   3  528.45   32.50
   3   1   3  395.16   32.20
   3   1   3  508.35   33.10
  -4  -1  -3   90.29    7.30
  -4  -1  -3   75.19    6.70
  -4  -1  -3   75.59    5.90
   4   1   3   73.09    7.20
   4   1   3   81.19    6.70
   4   1   3   66.69    6.80
   4   1   3   84.19    6.80
   4   1   3   67.09   10.20
  -5  -1  -3   33.00    3.70
  -5  -1  -3   30.00    4.40
   5   1   3   34.10    6.10
   5   1   3   31.50    5.40
  -6  -1  -3  187.68   13.20
  -6  -1  -3  208.78   13.50
   6   1   3  180.48   13.70
   6   1   3  166.88   14.40
   6  -2  -3  634.24   45.90
   6  -2  -3  608.84   46.70
  -6   2   3  728.93   45.70
  -6   2   3  711.83   45.60
   5  -2  -3   68.79    7.60
   5  -2  -3   73.59    8.50
   5  -2  -3   70.19    9.60
  -5   2   3   77.29    6.10
  -5   2   3   85.59    6.50
   4  -2  -3   -1.50    2.00
   4  -2  -3   -0.80    2.50
   4  -2  -3    2.20    3.90
  -4   2   3    1.20    1.50
  -4   2   3   -0.90    1.30
  -4   2   3    0.20    1.40
   3  -2  -3 1101.99   79.09
   3  -2  -3 1205.48   79.19
   3  -2  -3 1307.57   79.79
   3  -2  -3 1301.07   79.39
  -3   2   3 1192.48   78.99
  -3   2   3 1116.89   78.89
  -3   2   3 1088.19   79.19
  -3   2   3 1132.69   78.89
  -3   2   3 1136.59   79.19
  -3   2   3 1126.19   78.99
  -3   2   3 1170.98   78.99
  -3   2   3 1172.58   79.19
   2  -2  -3 2645.94  167.18
   2  -2  -3 2853.91  167.58
   2  -2  -3 2492.25  167.28
   2  -2  -3 2381.26  166.88
  -2   2   3 2185.08  166.88
  -2   2   3 2554.84  167.08
  -2   2   3 2213.88  166.98
  -2   2   3 2637.14  166.88
  -2   2   3 2544.45  166.88
  -2   2   3 2403.66  166.88
  -2   2   3 2311.37  166.78
  -2   2   3 2461.65  166.98
  -2   2   3 2557.34  166.88
   1  -2  -3  212.98   15.50
   1  -2  -3  220.28   15.30
   1  -2  -3  225.58   15.40
   1  -2  -3  229.08   15.70
  -1   2   3  219.78   15.40
  -1   2   3  241.58   15.40
  -1   2   3  201.58   15.40
  -1   2   3  221.98   15.60
  -1   2   3  239.48   15.40
  -1   2   3  237.98   15.60
  -1   2   3  212.98   15.40
   0  -2  -3 1487.45   94.89
   0  -2  -3 1467.05   94.49
   0  -2  -3 1328.47   94.59
   0   2   3 1390.36   94.79
   0   2   3 1347.77   94.59
  -1  -2  -3 3092.29  198.48
   1   2   3 2507.75  198.28
   1   2   3 3243.28  198.78
  -2  -2  -3  298.97   18.20
  -2  -2  -3  281.87   18.10
  -2  -2  -3  280.27   17.90
  -2  -2  -3  230.08   18.00
   2   2   3  229.28   18.00
   2   2   3  240.48   17.90
   2   2   3  257.17   18.00
   2   2   3  250.37   17.80
   2   2   3  284.27   17.80
   2   2   3  275.47   18.70
   2   2   3  241.68   18.20
   2   2   3  270.07   18.10
  -3  -2  -3   12.20    2.00
  -3  -2  -3   11.00    2.00
  -3  -2  -3    9.80    1.80
  -3  -2  -3    9.30    1.40
   3   2   3    8.10    2.10
   3   2   3   11.80    2.30
   3   2   3    7.30    2.40
   3   2   3    8.80    3.30
   3   2   3   10.40    2.90
   3   2   3   12.50    2.10
   3   2   3    9.80    1.80
  -4  -2  -3 1365.26   95.99
  -4  -2  -3 1447.76   96.19
  -4  -2  -3 1412.06   95.79
   4   2   3 1429.36   96.39
   4   2   3 1518.95   96.29
   4   2   3 1344.57   96.19
  -5  -2  -3  847.42   65.19
  -5  -2  -3  977.90   64.09
  -5  -2  -3  975.10   64.09
   5   2   3  930.31   64.69
   5   2   3  985.60   66.09
  -6  -2  -3   22.20    3.00
  -6  -2  -3   20.20    3.00
   6   2   3   18.20    3.40
   6   2   3   16.40    5.30
   6   2   3   22.40    4.50
   5  -3  -3  652.73   45.30
   5  -3  -3  608.64   45.70
   5  -3  -3  649.54   46.50
  -5   3   3  685.23   45.10
  -5   3   3  714.13   45.00
   4  -3  -3   95.29    8.10
   4  -3  -3  101.79    9.10
   4  -3  -3   81.79    9.60
  -4   3   3   95.39    7.10
  -4   3   3   93.19    7.20
  -4   3   3   97.99    7.30
   3  -3  -3   78.89    6.90
   3  -3  -3   55.59    7.30
   3  -3  -3   72.79    5.80
   3  -3  -3   78.59    6.20
   3  -3  -3   76.49    5.90
  -3   3   3   75.59    5.40
  -3   3   3   69.69    5.50
  -3   3   3   71.79    5.50
  -3   3   3   69.19    6.00
  -3   3   3   70.79    5.50
   2  -3  -3 1598.54  101.79
   2  -3  -3 1663.23  101.79
   2  -3  -3 1306.37  101.89
   2  -3  -3 1489.75  101.49
   2  -3  -3 1548.84  101.99
  -2   3   3 1582.84  101.39
  -2   3   3 1480.65  101.59
  -2   3   3 1413.86  101.39
  -2   3   3 1454.05  101.49
  -2   3   3 1509.25  101.39
   1  -3  -3 1549.24   97.89
   1  -3  -3 1476.25   97.89
   1  -3  -3 1585.64   98.49
   1  -3  -3 1517.05   98.19
  -1   3   3 1349.96   97.89
  -1   3   3 1324.77   97.79
  -1   3   3 1329.57   97.99
  -1   3   3 1545.15   98.19
  -1   3   3 1524.85   97.99
  -1   3   3 1334.17   97.79
   0  -3  -3  356.26   22.60
   0  -3  -3  351.46   22.40
   0  -3  -3  342.47   22.30
   0  -3  -3  314.57   22.70
   0   3   3  317.87   22.50
   0   3   3  280.67   22.30
   0   3   3  332.07   22.50
  -1  -3  -3    2.00    0.70
  -1  -3  -3    2.90    1.40
   1   3   3    4.20    0.80
   1   3   3    1.60    0.70
   1   3   3    2.80    1.00
  -2  -3  -3 3265.57  205.58
  -2  -3  -3 3356.96  205.38
  -2  -3  -3 2988.60  205.68
  -2  -3  -3 3269.07  205.78
   2   3   3 2828.92  205.58
   2   3   3 2915.71  206.28
   2   3   3 3029.70  205.58
   2   3   3 3078.69  205.58
   2   3   3 3094.09  205.58
   2   3   3 2703.23  205.88
  -3  -3  -3  891.11   57.29
  -3  -3  -3  840.92   57.89
  -3  -3  -3  900.51   57.49
  -3  -3  -3  879.01   57.89
  -3  -3  -3  795.72   57.39
  -3  -3  -3  814.02   57.59
   3   3   3  871.41   57.69
   3   3   3  845.62   57.69
   3   3   3  799.82   57.49
  -4  -3  -3 1532.15  102.69
  -4  -3  -3 1485.05  102.69
  -4  -3  -3 1537.15  102.89
   4   3   3 1452.25  102.99
   4   3   3 1484.65  103.09
   4   3   3 1638.64  103.19
  -5  -3  -3   75.49    5.90
  -5  -3  -3   74.79    7.60
  -5  -3  -3   74.49    6.30
   5   3   3   71.89    8.00
   5   3   3   79.19    7.30
   5   3   3   54.29    7.60
   5   3   3   73.29    6.90
  -6  -3  -3  225.38   15.40
   6   3   3  206.38   16.20
   6   3   3  216.48   16.80
   5  -4  -3   -3.10    4.10
   5  -4  -3    5.90    3.80
   5  -4  -3    5.40    3.80
  -5   4   3    4.20    2.60
  -5   4   3    2.50    1.70
   4  -4  -3  208.98   15.10
   4  -4  -3  194.18   16.40
   4  -4  -3  195.18   15.60
  -4   4   3  212.98   14.70
  -4   4   3  218.08   14.80
  -4   4   3  217.68   14.60
   3  -4  -3   35.90    5.70
   3  -4  -3   31.20    4.40
   3  -4  -3   37.90    4.80
   3  -4  -3   34.70    4.10
   3  -4  -3   36.60    4.50
  -3   4   3   42.60    3.70
  -3   4   3   42.30    3.30
  -3   4   3   41.20    3.50
  -3   4   3   41.20    4.10
   2  -4  -3  393.76   26.30
   2  -4  -3  389.36   27.10
   2  -4  -3  364.86   26.40
   2  -4  -3  391.86   26.20
  -2   4   3  389.16   26.20
  -2   4   3  380.26   26.80
  -2   4   3  402.66   26.30
  -2   4   3  366.46   26.40
  -2   4   3  386.66   26.20
   1  -4  -3  684.73   46.80
   1  -4  -3  746.93   46.60
   1  -4  -3  692.93   46.40
   1  -4  -3  731.33   46.40
   1  -4  -3  607.14   47.00
  -1   4   3  660.73   46.60
  -1   4   3  705.53   46.80
  -1   4   3  670.03   46.30
  -1   4   3  677.33   46.40
   0  -4  -3 1834.22  117.49
   0  -4  -3 1884.51  117.69
   0  -4  -3 1704.43  117.69
   0  -4  -3 1472.25  117.79
   0  -4  -3 1973.40  118.09
   0   4   3 1697.23  117.69
   0   4   3 1699.63  117.39
   0   4   3 1742.83  117.59
   0   4   3 1788.42  117.79
   0   4   3 1656.23  117.59
  -1  -4  -3  130.89   10.30
  -1  -4  -3  157.38   10.10
  -1  -4  -3  139.99   10.30
   1   4   3  145.89   10.10
   1   4   3  151.48   10.70
   1   4   3  135.99   10.10
   1   4   3  148.59   10.30
  -2  -4  -3  209.08   12.30
  -2  -4  -3  177.48   12.80
  -2  -4  -3  184.88   12.80
  -2  -4  -3  191.58   12.60
   2   4   3  156.08   13.10
   2   4   3  173.68   13.50
   2   4   3  175.38   12.70
   2   4   3  176.18   12.80
   2   4   3  172.28   12.80
   2   4   3  182.58   12.70
  -3  -4  -3 1323.27   92.49
  -3  -4  -3 1410.76   92.59
  -3  -4  -3 1393.86   92.69
  -3  -4  -3 1357.86   92.59
  -3  -4  -3 1442.16   92.39
   3   4   3 1323.47   92.79
   3   4   3 1432.66   92.79
   3   4   3 1420.36   92.79
   3   4   3 1239.28   92.79
  -4  -4  -3  934.11   61.99
  -4  -4  -3  942.11   62.39
   4   4   3  930.71   62.49
   4   4   3  862.91   62.39
   4   4   3  912.01   62.39
  -5  -4  -3   93.79    7.30
  -5  -4  -3   88.79    8.40
  -5  -4  -3   78.69    7.20
   5   4   3   91.99    7.90
   5   4   3   85.29    8.50
   5   4   3   88.19    9.20
  -6  -4  -3  143.49   11.80
  -6  -4  -3  133.59   10.00
   6   4   3  124.69   10.80
   6   4   3  123.99   13.80
   5  -5  -3  175.18   17.00
  -5   5   3  242.08   14.90
  -5   5   3  213.88   15.30
   4  -5  -3  183.48   16.40
   4  -5  -3  216.38   15.60
   4  -5  -3  189.68   15.50
  -4   5   3  218.28   14.50
  -4   5   3  205.68   14.30
   3  -5  -3   51.69    7.30
   3  -5  -3   56.59    5.90
   3  -5  -3   59.79    6.20
  -3   5   3   64.49    4.70
  -3   5   3   65.79    5.00
  -3   5   3   56.99    5.40
   2  -5  -3   62.79    7.20
   2  -5  -3   68.99    5.30
   2  -5  -3   71.39    6.20
   2  -5  -3   62.69    5.90
  -2   5   3   61.69    5.50
  -2   5   3   70.49    5.00
  -2   5   3   66.69    6.40
  -2   5   3   61.89    5.30
  -2   5   3   74.79    5.20
  -2   5   3   60.59    5.80
   1  -5  -3 1050.99   69.39
   1  -5  -3 1026.60   69.79
   1  -5  -3  891.71   69.99
   1  -5  -3 1122.29   69.19
   1  -5  -3 1099.69   69.49
  -1   5   3  920.41   69.59
  -1   5   3  992.00   69.79
  -1   5   3 1104.59   69.39
  -1   5   3 1026.50   69.19
   0  -5  -3    0.70    1.70
   0  -5  -3   -0.40    0.90
   0  -5  -3    0.80    1.20
   0  -5  -3   -0.30    0.60
   0  -5  -3   -0.20    2.10
   0  -5  -3   -1.20    1.50
   0   5   3   -1.00    0.90
   0   5   3   -1.00    0.90
   0   5   3   -2.00    1.50
   0   5   3   -0.60    0.70
   0   5   3    0.10    1.30
   0   5   3    0.60    1.20
  -1  -5  -3  391.56   26.40
  -1  -5  -3  359.46   26.60
  -1  -5  -3  390.46   26.40
  -1  -5  -3  395.26   26.40
  -1  -5  -3  386.56   26.10
   1   5   3  376.66   26.70
   1   5   3  384.26   26.60
   1   5   3  396.26   26.30
   1   5   3  381.86   26.30
  -2  -5  -3  186.88   12.70
  -2  -5  -3  199.28   12.20
  -2  -5  -3  188.88   12.50
   2   5   3  170.38   13.60
   2   5   3  180.28   12.70
   2   5   3  163.38   12.80
   2   5   3  178.18   12.50
   2   5   3  146.79   13.20
  -3  -5  -3  312.17   20.10
  -3  -5  -3  294.87   19.90
  -3  -5  -3  280.07   19.60
  -3  -5  -3  288.57   20.00
   3   5   3  255.57   20.10
   3   5   3  294.77   20.00
   3   5   3  250.27   21.80
   3   5   3  309.47   20.10
  -4  -5  -3   11.90    2.90
  -4  -5  -3   10.10    3.20
  -4  -5  -3    9.20    2.00
   4   5   3   18.00    3.00
   4   5   3   12.50    2.80
   4   5   3   13.70    3.10
  -5  -5  -3  162.98   11.10
  -5  -5  -3  156.88   12.00
   5   5   3  157.08   11.80
   5   5   3  138.19   13.10
   5   5   3  125.69   12.10
  -6  -5  -3  498.85   34.00
  -6  -5  -3  508.65   34.70
   6   5   3  463.55   34.70
   6   5   3  516.35   35.00
   5  -6  -3   19.30    5.30
   5  -6  -3   14.80    2.90
   5  -6  -3   12.70    4.60
  -5   6   3   16.80    3.00
  -5   6   3   25.00    2.60
   4  -6  -3  515.75   38.50
   4  -6  -3  504.95   39.30
  -4   6   3  591.04   37.70
  -4   6   3  586.84   37.50
   3  -6  -3  877.41   68.09
   3  -6  -3  954.40   67.69
  -3   6   3 1072.09   66.89
  -3   6   3 1035.50   66.69
   2  -6  -3   -1.60    3.30
   2  -6  -3    3.00    2.50
   2  -6  -3   -0.90    2.50
  -2   6   3    1.70    1.10
  -2   6   3   -0.30    1.10
   1  -6  -3    2.50    3.30
   1  -6  -3    3.10    2.30
   1  -6  -3    5.50    1.60
   1  -6  -3    2.80    2.00
  -1   6   3    0.90    2.20
  -1   6   3    4.40    1.20
  -1   6   3    3.20    1.10
  -1   6   3    0.70    2.70
   0  -6  -3 1049.00   68.69
   0  -6  -3  954.50   68.99
   0  -6  -3 1031.30   69.09
   0  -6  -3  949.71   69.39
   0  -6  -3  964.30   68.89
   0  -6  -3 1065.79   69.09
   0   6   3 1066.09   68.89
   0   6   3 1124.99   68.89
   0   6   3 1001.10   68.79
   0   6   3  985.20   69.39
  -1  -6  -3  135.19   10.00
  -1  -6  -3  154.48   10.60
  -1  -6  -3  143.89   10.60
  -1  -6  -3  154.28   10.70
  -1  -6  -3  152.08   10.60
   1   6   3  136.89   10.90
   1   6   3  134.49   11.00
   1   6   3  151.98   10.30
  -2  -6  -3  173.28   12.90
  -2  -6  -3  200.28   13.60
  -2  -6  -3  191.48   13.00
  -2  -6  -3  190.18   13.40
  -2  -6  -3  180.28   13.30
  -2  -6  -3  187.38   13.90
   2   6   3  167.78   14.70
   2   6   3  176.48   13.80
   2   6   3  189.78   13.20
   2   6   3  197.88   13.20
   2   6   3  191.08   13.40
  -3  -6  -3  107.69    8.60
  -3  -6  -3  111.79    8.50
  -3  -6  -3  102.69    8.10
   3   6   3   95.79    9.00
   3   6   3  114.49    8.40
   3   6   3  115.99    8.50
  -4  -6  -3 1033.20   74.09
  -4  -6  -3 1041.40   73.99
  -4  -6  -3 1222.38   74.69
   4   6   3 1198.68   74.69
   4   6   3 1013.40   74.39
   4   6   3 1056.89   74.39
  -5  -6  -3   18.10    3.90
  -5  -6  -3   17.30    3.10
   5   6   3   17.90    4.30
   5   6   3   28.00    4.10
   4  -7  -3    1.10    3.50
   4  -7  -3    0.80    2.60
   4  -7  -3   -7.70    4.50
  -4   7   3    0.10    1.70
  -4   7   3    1.70    1.80
   3  -7  -3  351.06   26.60
   3  -7  -3  340.67   27.50
   3  -7  -3  380.36   25.80
  -3   7   3  373.36   25.40
  -3   7   3  400.86   25.70
   2  -7  -3  822.42   52.69
   2  -7  -3  716.63   54.09
   2  -7  -3  765.82   53.49
   2  -7  -3  683.03   52.69
  -2   7   3  800.22   52.39
  -2   7   3  852.31   52.69
   1  -7  -3   -4.30    3.70
   1  -7  -3    0.10    2.60
   1  -7  -3    0.10    2.10
   1  -7  -3   -2.60    2.30
  -1   7   3    0.10    6.00
  -1   7   3   -0.40    1.50
  -1   7   3   -0.60    1.20
   0  -7  -3   18.60    2.60
   0  -7  -3   16.10    3.10
   0  -7  -3   14.70    2.70
   0  -7  -3   12.40    2.60
   0   7   3   21.30    2.50
   0   7   3   16.80    2.60
   0   7   3   17.60    4.20
  -1  -7  -3 1745.63  117.49
  -1  -7  -3 1615.44  117.09
  -1  -7  -3 1909.71  117.29
   1   7   3 1471.35  117.49
   1   7   3 1771.72  117.09
   1   7   3 1892.71  117.09
  -2  -7  -3   43.10    4.20
  -2  -7  -3   44.10    5.20
  -2  -7  -3   44.00    6.60
  -2  -7  -3   51.09    5.10
   2   7   3   47.40    4.40
   2   7   3   41.90    5.20
   2   7   3   49.50    4.40
  -3  -7  -3  167.98   12.80
  -3  -7  -3  172.28   12.60
   3   7   3  169.08   12.50
   3   7   3  176.28   12.70
  -4  -7  -3  972.00   66.19
  -4  -7  -3  969.90   65.99
  -4  -7  -3 1001.00   66.49
   4   7   3  902.61   67.19
   4   7   3  989.00   66.39
   4   7   3 1009.50   66.49
  -5  -7  -3 1296.97   81.19
   5   7   3 1255.77   81.19
   5   7   3 1028.90   81.09
   4  -8  -3   90.19    7.80
   4  -8  -3  100.09   11.10
  -4   8   3  105.29    7.60
  -4   8   3   98.39    7.50
   3  -8  -3  100.59   11.60
   3  -8  -3   91.79    8.30
   3  -8  -3   96.69    9.50
  -3   8   3  114.99    8.10
  -3   8   3   99.29    7.80
  -3   8   3  111.89    8.00
   2  -8  -3    9.80    3.90
   2  -8  -3    5.10    2.50
   2  -8  -3    7.00    3.50
   2  -8  -3   10.00    5.60
  -2   8   3   13.10    2.10
  -2   8   3    9.70    2.00
  -2   8   3    8.20    2.10
   1  -8  -3  191.78   15.30
   1  -8  -3  199.18   16.20
   1  -8  -3  204.68   15.20
  -1   8   3  233.98   14.90
  -1   8   3  219.38   14.90
   0  -8  -3    5.70    2.50
   0  -8  -3    8.30    2.70
   0  -8  -3    1.80    3.10
   0   8   3    7.40    1.80
   0   8   3    6.90    1.80
  -1  -8  -3  506.85   33.90
  -1  -8  -3  495.45   33.40
  -1  -8  -3  432.36   33.30
  -1  -8  -3  487.55   33.00
   1   8   3  513.25   33.30
   1   8   3  472.15   33.20
  -2  -8  -3  241.48   17.80
  -2  -8  -3  256.17   17.70
  -2  -8  -3  239.08   17.30
   2   8   3  250.87   17.60
   2   8   3  254.97   17.50
   2   8   3  242.68   17.80
  -3  -8  -3  258.07   18.50
  -3  -8  -3  261.47   18.70
   3   8   3  246.18   18.40
   3   8   3  266.87   18.60
  -4  -8  -3   93.79    8.00
  -4  -8  -3   84.29    8.30
   4   8   3   84.59    8.20
   4   8   3   89.39    7.60
  -5  -8  -3  330.57   20.80
   5   8   3  231.68   20.90
   5   8   3  284.77   20.20
   3  -9  -3   -1.50    2.20
   3  -9  -3    2.70    2.80
   3  -9  -3    4.70    3.90
  -3   9   3    2.40    2.30
  -3   9   3    3.60    2.60
   2  -9  -3  419.26   30.50
   2  -9  -3  430.16   31.40
   2  -9  -3  440.56   30.30
  -2   9   3  470.85   30.50
  -2   9   3  454.75   30.50
   1  -9  -3   91.69    8.90
   1  -9  -3   75.59    8.00
   1  -9  -3   82.49    7.90
  -1   9   3   96.09    7.10
  -1   9   3   90.09    7.10
   0  -9  -3  293.37   21.40
   0  -9  -3  283.07   21.60
   0  -9  -3  304.17   22.30
   0  -9  -3  311.47   21.00
   0   9   3  302.47   21.10
   0   9   3  316.17   21.10
  -1  -9  -3  125.29    9.30
  -1  -9  -3  131.59   11.10
  -1  -9  -3  122.39   10.00
   1   9   3  126.19    9.50
   1   9   3  119.79    9.70
  -2  -9  -3  165.38   12.20
  -2  -9  -3  141.59   12.70
  -2  -9  -3  158.28   11.70
   2   9   3  161.28   11.90
   2   9   3  172.18   12.00
  -3  -9  -3   44.80    5.70
  -3  -9  -3   51.59    6.90
   3   9   3   48.30    5.30
   3   9   3   55.69    5.70
  -4  -9  -3   78.49    7.50
  -4  -9  -3   85.99    8.30
   4   9   3   82.49    7.20
   4   9   3   74.19    7.90
   2 -10  -3   35.20    5.30
   2 -10  -3   37.60    4.20
  -2  10   3   41.10    5.80
  -2  10   3   39.70    4.20
   1 -10  -3  673.83   44.80
   1 -10  -3  591.34   45.10
   1 -10  -3  626.94   45.10
   1 -10  -3  682.73   45.80
  -1  10   3  694.73   45.00
  -1  10   3  689.03   45.00
   0 -10  -3   26.00    4.00
   0 -10  -3   32.80    5.20
   0 -10  -3   30.80    3.90
   0  10   3   32.40    4.60
   0  10   3   30.30    3.70
  -1 -10  -3   -4.50    4.00
  -1 -10  -3    0.00    2.80
  -1 -10  -3   -3.90    1.90
   1  10   3    0.20    1.90
   1  10   3    1.30    2.70
   1  10   3    1.20    3.60
  -2 -10  -3  254.27   18.00
  -2 -10  -3  250.07   17.70
   2  10   3  251.87   17.90
   2  10   3  249.18   17.90
  -3 -10  -3 1254.27   88.19
  -3 -10  -3 1357.66   88.09
   3  10   3 1280.87   88.09
   3  10   3 1309.67   88.09
   0 -11  -3  323.27   20.80
   0 -11  -3  260.57   19.70
   0  11   3  260.17   19.90
   0  11   3  278.57   19.70
   0  11   3  275.47   19.80
  -1 -11  -3  322.57   23.00
   1  11   3  298.97   22.80
   1  11   3  360.26   23.20
  -2 -11  -3   21.30    3.40
  -2 -11  -3   17.70    2.90
   2  11   3   27.80    4.60
   2  11   3   25.40    3.40
   2   9  -4   48.10    5.60
  -2  -9   4   39.60    5.30
  -2  -9   4   43.40    6.70
  -2  -9   4   43.10    6.40
  -1  -9   4  104.89   11.10
  -1  -9   4  122.39    8.90
  -1  -9   4  108.49    9.50
   0  -9   4   89.79    7.10
   0  -9   4   77.69   11.40
   0  -9   4   80.39    9.50
   0  -9   4   83.39    7.60
  -1   9  -4  176.08   11.30
   1  -9   4  165.48   13.00
   1  -9   4  124.39   15.40
   1  -9   4  145.89   11.50
   1  -9   4  148.49   13.60
   3   8  -4 1124.99   72.39
  -3  -8   4  933.51   73.29
  -3  -8   4 1129.49   72.29
   2   8  -4  223.08   15.10
  -2  -8   4  206.68   15.40
  -2  -8   4  192.78   16.50
  -2  -8   4  201.98   14.90
   1   8  -4   74.79    6.90
  -1  -8   4   60.99    7.10
  -1  -8   4   71.59    9.10
  -1  -8   4   70.49   11.30
  -1  -8   4   78.39    6.40
   0   8  -4    6.30    2.30
   0  -8   4    5.50    6.20
   0  -8   4    6.30    4.80
   0  -8   4    4.40    2.80
   0  -8   4    2.80    1.90
   1  -8   4 1557.04  100.39
   1  -8   4 1537.25  100.49
   1  -8   4 1535.45  101.09
   1  -8   4 1308.87  102.19
   2  -8   4  177.58   12.50
   2  -8   4  179.88   13.50
   2  -8   4  146.59   15.40
   4   7  -4   45.70    5.60
   4   7  -4   42.20    6.20
  -4  -7   4   29.90    4.10
  -4  -7   4   37.10    7.20
  -4  -7   4   37.00    7.40
   3   7  -4  275.57   19.40
  -3  -7   4  279.37   20.60
  -3  -7   4  271.47   19.30
  -3  -7   4  259.47   19.90
  -3  -7   4  268.87   19.70
  -2  -7   4 1539.25  101.69
  -2  -7   4 1478.95  100.79
  -2  -7   4 1456.45  100.99
   1   7  -4  454.95   33.50
  -1  -7   4  439.56   36.70
  -1  -7   4  507.75   33.60
  -1  -7   4  521.45   35.30
  -1  -7   4  515.15   34.50
   1  -7   4  212.78   14.70
   1  -7   4  205.48   15.80
   1  -7   4  190.68   17.80
   1  -7   4  214.08   15.00
  -2   7  -4  384.76   25.60
   2  -7   4  371.96   25.80
   2  -7   4  397.26   25.80
   2  -7   4  328.87   27.90
   2  -7   4  370.16   26.50
  -3   7  -4   12.50    2.10
   3  -7   4   11.60    3.70
   3  -7   4    6.40    5.20
   3  -7   4   13.90    2.70
   3  -7   4    1.90    6.00
   5   6  -4   91.09    8.30
  -5  -6   4   82.69    6.90
   4   6  -4 1338.07   87.99
  -4  -6   4 1359.26   87.49
  -4  -6   4 1243.58   87.69
  -4  -6   4 1238.68   87.89
  -4  -6   4 1296.07   87.99
   3   6  -4  252.37   18.00
  -3  -6   4  254.67   18.30
  -3  -6   4  251.17   19.10
  -3  -6   4  252.87   17.40
  -3  -6   4  239.38   17.80
  -3  -6   4  246.48   18.30
  -2  -6   4   25.50    4.00
  -2  -6   4   26.60    2.80
  -2  -6   4   18.90    4.80
  -2  -6   4   18.00    3.30
   1   6  -4   43.60    4.60
  -1  -6   4   41.40    4.70
  -1  -6   4   47.20    5.10
  -1  -6   4   39.40    7.20
  -1  -6   4   42.40    4.30
  -1  -6   4   43.80    6.40
   0  -6   4 1326.07   90.19
   0  -6   4 1225.08   91.39
   0  -6   4 1322.97   89.59
   0  -6   4 1380.56   89.69
   0  -6   4 1371.06   89.59
  -1   6  -4   20.80    3.30
   1  -6   4   29.20    3.30
   1  -6   4   27.40    3.90
   1  -6   4   32.00    6.30
   1  -6   4   27.40    4.30
   1  -6   4   15.60    5.00
   1  -6   4   28.60    4.20
  -2   6  -4  344.87   22.30
   2  -6   4  308.47   23.00
   2  -6   4  302.47   22.10
  -3   6  -4  234.68   15.50
   3  -6   4  204.48   18.10
   3  -6   4  218.08   16.50
   3  -6   4  221.58   15.70
  -4   6  -4  319.07   21.10
   4  -6   4  289.87   21.80
   5   5  -4  208.08   15.40
   5   5  -4  187.18   16.00
  -5  -5   4  201.88   14.10
  -5  -5   4  201.08   15.20
   4   5  -4    1.20    3.00
   4   5  -4    0.90    3.40
  -4  -5   4    2.80    3.70
  -4  -5   4    5.60    3.30
  -4  -5   4   -0.50    3.00
  -4  -5   4    4.70    2.00
   3   5  -4  606.34   39.50
  -3  -5   4  575.54   40.20
  -3  -5   4  542.35   39.10
  -3  -5   4  562.74   39.40
  -3  -5   4  590.44   38.90
  -3  -5   4  557.84   39.50
  -2  -5   4    3.00    1.60
  -2  -5   4   -2.90    4.60
  -2  -5   4    2.90    3.50
  -2  -5   4    2.00    1.70
  -2  -5   4    3.40    2.60
  -2  -5   4   -1.00    2.20
   1   5  -4 1724.43  133.59
   1   5  -4 2141.19  132.79
  -1  -5   4 2105.99  132.89
  -1  -5   4 2065.59  132.99
  -1  -5   4 1998.00  132.89
  -1  -5   4 1771.12  134.19
  -1  -5   4 2082.69  133.39
  -1  -5   4 1867.61  133.29
   0   5  -4  105.59   10.80
   0  -5   4  117.79   11.60
   0  -5   4  135.09   10.30
   0  -5   4  139.29    9.80
   0  -5   4  152.98    9.50
   0  -5   4  147.89    9.80
   0  -5   4  122.69   10.50
  -1   5  -4  250.57   20.70
   1  -5   4  311.77   20.30
   1  -5   4  296.37   19.60
   1  -5   4  276.37   21.40
   1  -5   4  239.88   21.10
   1  -5   4  310.87   19.80
   1  -5   4  298.27   20.30
   2  -5   4   -0.40    1.60
   2  -5   4    0.90    3.60
   2  -5   4    1.70    1.80
   2  -5   4    3.90    3.00
   2  -5   4    1.10    2.30
   2  -5   4    3.60    3.70
   2  -5   4   -1.90    3.50
   3  -5   4   51.29    5.60
   3  -5   4   32.50    6.00
   3  -5   4   40.10    4.60
   3  -5   4   33.40    5.40
   3  -5   4   26.10    6.00
   3  -5   4   44.50    7.90
  -4   5  -4  372.06   25.50
   4  -5   4  350.96   27.80
   4  -5   4  366.86   27.80
   4  -5   4  404.96   26.40
   4  -5   4  374.36   25.90
   5   4  -4   33.60    5.90
   5   4  -4   23.30    4.50
  -5  -4   4   10.30    3.70
  -5  -4   4   19.80    2.70
  -5  -4   4   21.60    4.00
   4   4  -4  377.36   26.90
   4   4  -4  415.26   27.30
  -4  -4   4  389.56   26.80
  -4  -4   4  379.16   26.20
  -4  -4   4  358.46   26.60
  -4  -4   4  374.86   26.90
  -4  -4   4  373.76   27.00
   3   4  -4  765.92   51.39
  -3  -4   4  780.32   50.99
  -3  -4   4  733.13   51.19
  -3  -4   4  755.22   51.29
  -3  -4   4  699.63   51.09
  -3  -4   4  774.42   51.99
  -3  -4   4  758.62   51.49
   2   4  -4 1109.69   86.29
   2   4  -4 1199.68   86.79
  -2  -4   4 1168.88   86.09
  -2  -4   4 1184.48   85.79
  -2  -4   4 1401.26   85.79
  -2  -4   4 1346.87   86.59
  -2  -4   4 1373.66   86.19
  -2  -4   4 1304.77   85.89
  -2  -4   4 1358.76   86.09
   1   4  -4   26.40    4.30
   1   4  -4   32.50    4.70
  -1  -4   4   36.90    3.70
  -1  -4   4   27.40    4.50
  -1  -4   4   29.20    3.00
  -1  -4   4   32.90    4.30
  -1  -4   4   31.40    2.90
  -1  -4   4   26.00    4.90
  -1  -4   4   39.10    3.70
  -1  -4   4   31.60    3.50
  -1  -4   4   22.20    4.40
  -1  -4   4   32.00    3.10
   0   4  -4  522.55   37.30
   0   4  -4  546.35   37.80
   0  -4   4  569.64   37.50
   0  -4   4  588.74   37.20
   0  -4   4  529.75   37.50
   0  -4   4  590.04   37.20
   0  -4   4  492.55   38.20
   0  -4   4  535.05   37.10
  -1   4  -4  438.16   29.70
  -1   4  -4  409.76   29.70
   1  -4   4  436.26   30.30
   1  -4   4  420.66   30.10
   1  -4   4  426.46   29.40
   1  -4   4  409.96   29.50
   1  -4   4  362.86   29.50
   1  -4   4  436.36   29.00
   1  -4   4  488.05   29.50
  -2   4  -4   47.00    6.00
  -2   4  -4   37.00    3.40
   2  -4   4   49.60    4.70
   2  -4   4   44.90    6.80
   2  -4   4   37.50    6.50
   2  -4   4   31.00    5.20
   2  -4   4   43.30    6.00
   2  -4   4   38.40    4.60
   2  -4   4   47.70    4.10
   2  -4   4   46.10    6.10
  -3   4  -4  117.39    8.10
   3  -4   4  117.99    9.20
   3  -4   4  117.99   10.60
   3  -4   4  114.19    8.60
   3  -4   4   99.49   10.70
   3  -4   4  112.49   10.90
  -4   4  -4  120.39    8.30
   4  -4   4  110.19   11.30
   4  -4   4   91.59   11.90
   4  -4   4  122.09    8.90
   4  -4   4  123.19    9.50
   4  -4   4  102.19   11.80
  -5   4  -4  101.19    7.40
   5  -4   4   67.29   12.20
   5  -4   4  104.79    8.40
   5   3  -4  362.96   24.90
   5   3  -4  333.87   25.00
  -5  -3   4  344.77   24.00
  -5  -3   4  331.47   23.70
  -5  -3   4  350.06   24.50
   4   3  -4    7.80    3.10
   4   3  -4    5.00    2.70
  -4  -3   4    7.30    2.40
  -4  -3   4    5.90    3.00
  -4  -3   4    5.50    1.80
  -4  -3   4    9.00    2.70
  -4  -3   4   10.30    3.10
   3   3  -4  481.25   32.30
  -3  -3   4  467.95   32.50
  -3  -3   4  498.25   32.90
  -3  -3   4  447.76   32.10
  -3  -3   4  475.15   32.00
  -3  -3   4  482.45   32.30
  -3  -3   4  441.76   32.10
   2   3  -4 4743.13  318.07
   2   3  -4 4296.67  317.57
  -2  -3   4 4864.71  317.67
  -2  -3   4 4671.63  317.67
  -2  -3   4 4917.21  318.07
  -2  -3   4 4895.31  318.17
  -2  -3   4 4501.75  317.67
  -2  -3   4 4532.25  317.77
  -2  -3   4 4859.41  317.77
  -2  -3   4 4946.71  317.67
   1   3  -4    1.40    0.60
   1   3  -4    0.10    1.30
   1   3  -4    0.50    2.60
  -1  -3   4    5.10    1.90
  -1  -3   4   -0.30    1.00
  -1  -3   4    0.00    3.00
  -1  -3   4    1.40    1.10
  -1  -3   4   -0.20    2.00
  -1  -3   4    0.40    0.80
  -1  -3   4   -2.30    3.50
  -1  -3   4    0.40    0.90
  -1  -3   4    0.10    1.20
  -1  -3   4    1.40    1.30
   0   3  -4    4.80    2.00
   0   3  -4    8.30    1.70
   0   3  -4    7.90    1.40
   0  -3   4   11.40    2.40
   0  -3   4    7.10    1.40
   0  -3   4    8.60    1.40
   0  -3   4    7.10    1.50
   0  -3   4    5.10    2.60
   0  -3   4    6.30    1.10
   0  -3   4    5.40    1.90
   0  -3   4    6.10    1.50
   0  -3   4    6.10    2.60
  -1   3  -4  236.18   16.00
  -1   3  -4  231.78   15.90
   1  -3   4  221.48   16.40
   1  -3   4  226.18   15.90
   1  -3   4  236.68   15.80
   1  -3   4  218.48   16.40
   1  -3   4  229.68   15.50
   1  -3   4  207.48   15.30
   1  -3   4  214.88   15.70
   1  -3   4  199.68   16.40
   1  -3   4  219.18   15.90
  -2   3  -4  265.27   17.90
   2  -3   4  255.87   17.50
   2  -3   4  252.07   18.30
   2  -3   4  219.68   18.30
   2  -3   4  218.68   17.80
   2  -3   4  272.67   18.40
   2  -3   4  257.67   17.30
  -3   3  -4   33.90    2.90
   3  -3   4   33.60    5.10
   3  -3   4   30.50    5.10
   3  -3   4   34.80    3.90
   3  -3   4   23.60    4.00
   3  -3   4   30.50    5.80
   3  -3   4   37.90    4.10
   3  -3   4   32.90    5.00
   4  -3   4  610.94   45.20
   4  -3   4  606.64   44.00
  -5   3  -4  680.43   42.70
   5  -3   4  684.83   43.30
   5  -3   4  558.24   44.30
   5  -3   4  588.34   44.30
   6   2  -4   11.00    4.30
   6   2  -4    5.40    4.30
  -6  -2   4    8.50    2.40
  -6  -2   4    7.20    3.00
   5   2  -4  646.14   45.80
   5   2  -4  667.43   44.00
  -5  -2   4  600.34   43.00
  -5  -2   4  625.94   43.40
  -5  -2   4  615.54   42.90
   4   2  -4  198.88   13.90
   4   2  -4  198.88   14.10
  -4  -2   4  159.58   13.40
  -4  -2   4  186.48   13.00
  -4  -2   4  186.28   13.70
  -4  -2   4  177.98   13.20
   3   2  -4  351.76   27.60
   3   2  -4  424.46   27.80
   3   2  -4  379.86   28.10
  -3  -2   4  429.36   27.90
  -3  -2   4  395.46   27.60
  -3  -2   4  424.56   27.80
  -3  -2   4  410.56   27.60
  -3  -2   4  424.26   27.50
  -3  -2   4  390.76   27.50
   2   2  -4  251.37   17.50
   2   2  -4  266.67   17.90
   2   2  -4  272.37   17.80
  -2  -2   4  255.57   17.80
  -2  -2   4  239.88   17.50
  -2  -2   4  255.07   17.50
  -2  -2   4  253.97   17.50
  -2  -2   4  268.37   18.20
  -2  -2   4  256.67   17.70
  -2  -2   4  252.07   17.60
  -2  -2   4  246.98   17.60
   1   2  -4  251.27   18.30
   1   2  -4  301.67   18.30
   1   2  -4  280.97   18.00
  -1  -2   4  256.27   18.20
  -1  -2   4  252.67   18.10
  -1  -2   4  258.17   18.10
  -1  -2   4  270.97   18.20
  -1  -2   4  248.38   18.60
  -1  -2   4  274.67   18.10
  -1  -2   4  261.47   18.30
   0   2  -4 2627.64  161.88
   0   2  -4 2578.74  162.28
   0   2  -4 2331.97  162.38
   0  -2   4 2132.99  162.18
   0  -2   4 2507.15  162.18
   0  -2   4 2307.97  161.88
   0  -2   4 2481.95  162.68
   0  -2   4 2283.57  161.98
  -1   2  -4  861.51   53.29
  -1   2  -4  760.42   53.09
  -1   2  -4  749.03   53.39
  -1   2  -4  840.82   52.79
  -1   2  -4  759.22   52.79
   1  -2   4  687.13   52.79
   1  -2   4  817.92   52.69
   1  -2   4  835.72   53.19
   1  -2   4  827.02   52.79
   1  -2   4  777.02   53.49
   1  -2   4  686.13   52.99
   1  -2   4  784.02   53.39
  -2   2  -4 2291.47  141.89
  -2   2  -4 2122.69  141.49
   2  -2   4 2248.77  141.69
   2  -2   4 2136.09  141.99
   2  -2   4 1876.61  141.29
   2  -2   4 2036.20  141.49
   2  -2   4 1761.12  141.69
   2  -2   4 2298.87  142.09
   2  -2   4 2110.99  141.79
  -3   2  -4  427.26   28.20
   3  -2   4  429.36   27.60
   3  -2   4  383.46   27.30
   3  -2   4  423.16   28.40
   3  -2   4  460.55   28.30
   3  -2   4  338.87   27.90
   3  -2   4  369.36   28.00
   3  -2   4  360.56   28.30
  -4   2  -4  652.03   40.10
  -4   2  -4  597.54   40.10
   4  -2   4  550.74   41.50
   4  -2   4  644.44   40.70
   4  -2   4  660.73   41.50
   4  -2   4  544.75   41.10
   4  -2   4  535.05   41.40
   4  -2   4  536.55   40.20
  -5   2  -4  191.78   12.40
   5  -2   4  179.68   13.70
   5  -2   4  188.68   14.70
   5  -2   4  155.38   13.80
   5  -2   4  154.48   15.30
   6   1  -4    5.40    4.20
   6   1  -4    3.10    4.00
  -6  -1   4   -0.50    2.60
  -6  -1   4    2.60    2.30
   5   1  -4   58.99    6.20
   5   1  -4   55.29    6.70
  -5  -1   4   53.79    4.90
  -5  -1   4   53.79    5.40
   4   1  -4  100.29    8.40
   4   1  -4   96.49    8.30
  -4  -1   4   98.09    7.80
  -4  -1   4   81.39    7.70
  -4  -1   4   93.59    7.00
  -4  -1   4   92.89    7.30
   3   1  -4  258.87   18.30
   3   1  -4  247.68   17.90
   3   1  -4  290.17   18.30
  -3  -1   4  246.48   17.80
  -3  -1   4  236.28   17.70
  -3  -1   4  274.37   18.10
  -3  -1   4  257.17   17.80
  -3  -1   4  252.17   17.90
  -3  -1   4  263.67   17.70
  -3  -1   4  263.87   18.10
   2   1  -4 1246.98   85.59
   2   1  -4 1121.09   85.69
   2   1  -4 1323.27   85.99
  -2  -1   4 1358.86   85.59
  -2  -1   4 1323.37   85.69
  -2  -1   4 1296.87   85.59
  -2  -1   4 1200.58   85.59
  -2  -1   4 1209.28   85.59
  -2  -1   4 1308.87   85.79
  -2  -1   4 1335.87   85.89
  -2  -1   4 1241.78   85.49
   1   1  -4   23.10    1.80
   1   1  -4   23.90    2.20
   1   1  -4   20.10    2.00
  -1  -1   4   20.90    1.80
  -1  -1   4   19.70    1.80
  -1  -1   4   23.60    2.60
  -1  -1   4   19.80    1.90
  -1  -1   4   19.60    2.20
  -1  -1   4   17.80    2.00
  -1  -1   4   18.90    1.90
  -1  -1   4   22.40    2.70
   0   1  -4  138.89    9.30
   0   1  -4  131.69    9.30
   0   1  -4  128.69    9.40
   0   1  -4  139.19    9.40
   0   1  -4  136.19    9.30
   0   1  -4  132.09   10.00
   0   1  -4  128.89    9.50
   0   1  -4  146.59    9.40
   0   1  -4  144.89    9.60
   0  -1   4  138.59    9.30
   0  -1   4  136.49    9.30
   0  -1   4  126.09    9.40
  -1   1  -4   53.49    4.70
  -1   1  -4   61.19    4.50
  -1   1  -4   64.79    4.90
  -1   1  -4   62.29    4.80
  -1   1  -4   62.59    5.70
  -1   1  -4   67.99    4.50
   1  -1   4   60.89    5.50
   1  -1   4   63.69    5.10
   1  -1   4   65.79    4.60
   1  -1   4   61.09    5.40
   1  -1   4   64.69    4.50
   1  -1   4   63.39    5.10
  -2   1  -4  115.49    8.30
  -2   1  -4  113.39    7.90
  -2   1  -4  118.29    7.60
   2  -1   4  104.09    8.10
   2  -1   4   99.09    8.30
   2  -1   4  115.69    8.60
   2  -1   4  117.49    8.60
   2  -1   4  120.89    8.50
   2  -1   4  110.29    8.00
   2  -1   4   95.29    8.50
  -3   1  -4  722.63   46.00
  -3   1  -4  705.43   45.70
   3  -1   4  696.33   45.50
   3  -1   4  588.44   46.00
   3  -1   4  557.84   45.20
   3  -1   4  652.53   46.70
   3  -1   4  637.64   45.80
   3  -1   4  738.13   46.00
   3  -1   4  709.83   46.10
  -4   1  -4  223.48   15.80
   4  -1   4  194.88   17.30
   4  -1   4  240.98   16.20
   4  -1   4  248.98   17.00
   4  -1   4  230.18   17.30
   4  -1   4  221.48   16.80
  -5   1  -4  258.57   17.60
  -5   1  -4  261.97   17.70
   5  -1   4  256.97   19.20
   5  -1   4  263.27   18.20
   5  -1   4  224.08   18.80
  -6   1  -4   14.90    4.50
  -6   1  -4    9.40    2.10
   6  -1   4    5.80    3.00
   6  -1   4    4.00    5.60
   6   0  -4   19.80    4.90
   6   0  -4   22.00    4.90
  -6   0   4   24.20    3.40
  -6   0   4   29.20    3.80
   5   0  -4  428.46   29.70
   5   0  -4  401.86   29.00
  -5   0   4  392.46   28.50
  -5   0   4  422.76   28.40
  -5   0   4  428.56   28.60
   4   0  -4  673.93   47.20
   4   0  -4  727.13   47.50
  -4   0   4  703.53   47.20
  -4   0   4  694.63   46.90
  -4   0   4  665.03   46.50
  -4   0   4  638.54   46.50
  -4   0   4  701.63   46.70
   3   0  -4  224.78   14.50
   3   0  -4  192.38   14.10
   3   0  -4  205.28   14.40
   3   0  -4  180.18   13.90
  -3   0   4  195.08   13.80
  -3   0   4  188.08   13.90
  -3   0   4  192.98   13.80
  -3   0   4  182.68   13.70
  -3   0   4  196.48   13.70
  -3   0   4  223.28   14.00
  -3   0   4  206.48   14.10
  -3   0   4  199.68   13.70
   2   0  -4  521.85   32.90
   2   0  -4  462.85   32.80
   2   0  -4  491.75   32.70
  -2   0   4  461.35   32.60
  -2   0   4  465.75   32.70
  -2   0   4  449.26   32.70
  -2   0   4  484.15   32.80
  -2   0   4  523.65   32.60
  -2   0   4  508.35   32.70
  -2   0   4  432.56   32.60
  -2   0   4  504.65   32.80
   1   0  -4 9155.08  616.24
   1   0  -4 9178.98  616.84
   0   0  -4  246.68   17.10
   0   0  -4  261.97   17.20
   0   0  -4  256.57   17.70
   0   0  -4  242.48   17.30
   0   0  -4  240.08   17.20
   0   0  -4  271.27   17.20
   0   0  -4  260.87   17.20
   0   0   4  261.07   17.20
   0   0   4  236.78   17.10
   0   0   4  257.17   17.30
   0   0   4  234.38   17.10
   0   0   4  256.07   17.60
  -1   0  -4 1934.11  129.69
  -1   0  -4 1946.41  130.39
  -1   0  -4 1988.70  129.89
  -1   0  -4 1742.93  129.89
  -1   0  -4 2002.80  129.69
  -1   0  -4 1923.81  129.69
  -1   0  -4 1995.90  129.99
   1   0   4 1870.71  129.69
   1   0   4 1945.81  130.19
  -2   0  -4  710.93   43.90
  -2   0  -4  723.33   43.80
   2   0   4  584.64   43.60
   2   0   4  547.85   43.80
   2   0   4  679.43   44.00
   2   0   4  694.73   44.10
   2   0   4  676.73   43.90
   2   0   4  573.74   43.80
   2   0   4  569.64   43.70
   2   0   4  682.13   44.20
  -3   0  -4   17.80    3.10
  -3   0  -4   11.70    2.20
   3   0   4    9.80    2.30
   3   0   4   10.90    3.30
   3   0   4   11.00    2.40
   3   0   4    8.60    3.10
   3   0   4    9.10    2.20
   3   0   4   14.30    2.70
  -4   0  -4   15.00    2.00
   4   0   4   16.40    4.00
   4   0   4   19.10    3.50
   4   0   4   18.50    3.90
   4   0   4   22.00    2.80
   4   0   4   13.70    2.90
   4   0   4   11.90    3.50
  -5   0  -4  121.99    8.30
  -5   0  -4  119.39    8.60
   5   0   4  117.09   10.10
   5   0   4  120.99    9.20
   5   0   4   99.49    9.80
   5   0   4   88.79   11.40
  -6   0  -4 1828.02  108.89
  -6   0  -4 1702.03  109.29
   6   0   4 1514.25  109.79
   6   0   4 1640.94  109.39
   6   0   4 1384.66  109.49
   6  -1  -4   55.89    6.80
   6  -1  -4   73.39    8.40
   6  -1  -4   60.89    9.00
  -6   1   4   75.49    6.30
   5  -1  -4  587.44   41.50
   5  -1  -4  570.34   40.80
  -5   1   4  620.54   40.40
  -5   1   4  590.44   40.10
  -5   1   4  584.64   40.20
   4  -1  -4  586.34   38.10
   4  -1  -4  602.74   37.70
  -4   1   4  508.75   37.50
  -4   1   4  513.65   37.00
  -4   1   4  537.15   37.10
  -4   1   4  545.25   36.90
  -4   1   4  522.75   37.10
   3  -1  -4 2737.63  164.98
   3  -1  -4 2133.59  164.38
   3  -1  -4 2392.26  164.58
  -3   1   4 2415.96  164.38
  -3   1   4 2547.05  164.28
  -3   1   4 2517.65  164.68
  -3   1   4 2545.25  164.38
  -3   1   4 2403.56  164.18
  -3   1   4 2500.55  164.38
  -3   1   4 2224.08  164.48
  -3   1   4 2308.77  164.28
  -3   1   4 2559.24  164.38
   2  -1  -4   40.90    3.70
   2  -1  -4   47.40    4.20
   2  -1  -4   43.20    3.50
   2  -1  -4   41.50    3.30
  -2   1   4   43.40    3.20
  -2   1   4   41.70    3.20
  -2   1   4   41.50    3.20
  -2   1   4   49.30    3.70
  -2   1   4   39.40    3.20
  -2   1   4   45.30    3.40
  -2   1   4   41.20    3.40
  -2   1   4   37.30    3.20
  -2   1   4   38.90    3.30
   1  -1  -4  981.30   61.69
   1  -1  -4  874.61   61.29
   1  -1  -4  954.40   61.09
   1  -1  -4  871.41   61.09
  -1   1   4  965.60   61.29
  -1   1   4  923.61   60.99
  -1   1   4  822.12   60.99
  -1   1   4  787.92   60.99
  -1   1   4  903.51   60.99
  -1   1   4  970.70   61.09
   0  -1  -4  519.45   36.40
   0  -1  -4  558.04   36.90
   0  -1  -4  530.25   36.50
   0  -1  -4  562.84   36.40
   0  -1  -4  505.65   36.30
   0   1   4  475.65   36.30
   0   1   4  569.24   36.60
   0   1   4  568.44   36.40
   0   1   4  524.25   36.40
   0   1   4  558.24   36.80
  -1  -1  -4   17.30    2.50
  -1  -1  -4   17.70    1.70
  -1  -1  -4   16.80    1.60
  -1  -1  -4   17.10    3.20
   1   1   4   19.70    2.30
   1   1   4   16.80    1.30
   1   1   4   17.20    1.80
  -2  -1  -4  473.95   32.00
  -2  -1  -4  503.35   31.90
  -2  -1  -4  503.35   31.90
   2   1   4  419.86   32.00
   2   1   4  473.95   32.20
   2   1   4  425.06   32.00
   2   1   4  487.95   32.40
   2   1   4  479.55   32.00
   2   1   4  468.15   32.10
   2   1   4  442.66   31.80
  -3  -1  -4 1014.80   62.89
  -3  -1  -4  986.30   63.09
   3   1   4  835.62   62.79
   3   1   4  979.20   63.09
   3   1   4  827.72   62.99
   3   1   4 1009.10   63.09
   3   1   4  815.92   62.89
   3   1   4  937.91   63.59
  -4  -1  -4 2308.77  147.09
   4   1   4 2280.07  147.79
   4   1   4 2086.59  147.69
   4   1   4 1896.91  147.49
   4   1   4 2340.17  147.69
  -5  -1  -4   45.10    4.30
  -5  -1  -4   34.90    3.40
   5   1   4   33.70    4.70
   5   1   4   30.90    4.90
   5   1   4   26.60    5.80
   5   1   4   32.20    5.50
  -6  -1  -4  152.48   10.70
  -6  -1  -4  172.08   11.00
   6   1   4  126.09   11.80
   6   1   4  144.69   15.80
   6   1   4  138.69   11.20
   5  -2  -4  369.36   28.10
   5  -2  -4  403.36   28.90
  -5   2   4  413.16   27.60
  -5   2   4  411.26   27.40
   4  -2  -4    9.10    3.30
   4  -2  -4    1.40    2.20
  -4   2   4    4.90    1.70
  -4   2   4    6.40    1.60
  -4   2   4    4.80    1.70
   3  -2  -4   66.79    5.90
   3  -2  -4   84.79    6.90
   3  -2  -4   71.99    6.80
   3  -2  -4   87.09    6.40
  -3   2   4   68.69    5.60
  -3   2   4   72.39    5.80
  -3   2   4   79.89    5.90
  -3   2   4   82.59    5.70
  -3   2   4   75.89    5.80
  -3   2   4   72.49    6.00
  -3   2   4   74.39    5.60
   2  -2  -4 2312.27  146.09
   2  -2  -4 2255.17  145.79
  -2   2   4 2253.67  145.59
  -2   2   4 2067.59  145.59
  -2   2   4 2304.87  145.59
  -2   2   4 2089.09  145.49
  -2   2   4 2218.58  145.59
  -2   2   4 1984.60  145.59
  -2   2   4 2064.09  145.49
  -2   2   4 2285.67  145.89
  -2   2   4 1847.22  145.69
  -2   2   4 2267.47  145.59
   1  -2  -4  732.03   49.99
   1  -2  -4  742.53   49.70
   1  -2  -4  747.03   49.80
   1  -2  -4  840.22   50.29
  -1   2   4  709.73   49.70
  -1   2   4  659.33   49.60
  -1   2   4  781.72   49.70
  -1   2   4  674.53   49.70
  -1   2   4  661.13   49.70
  -1   2   4  793.72   49.70
  -1   2   4  763.32   49.90
  -1   2   4  728.83   49.60
   0  -2  -4 1383.66   90.79
   0  -2  -4 1387.46   91.29
   0  -2  -4 1303.77   90.89
   0  -2  -4 1374.96   90.99
   0   2   4 1311.27   90.79
   0   2   4 1328.67   91.19
  -1  -2  -4 4703.03  316.67
   1   2   4 4238.48  316.47
   1   2   4 5174.78  316.97
  -2  -2  -4  807.82   51.89
  -2  -2  -4  813.52   51.99
  -2  -2  -4  683.43   51.69
  -2  -2  -4  845.42   51.79
   2   2   4  651.63   51.69
   2   2   4  772.12   51.79
   2   2   4  731.23   51.39
   2   2   4  806.02   52.39
   2   2   4  781.82   51.89
   2   2   4  705.13   51.59
   2   2   4  755.82   51.79
   2   2   4  818.02   51.79
  -3  -2  -4   86.69    6.70
  -3  -2  -4   73.49    6.40
  -3  -2  -4   89.69    6.50
   3   2   4   77.59    6.60
   3   2   4   77.69    7.00
   3   2   4   91.79    8.10
   3   2   4   85.89    6.90
  -4  -2  -4  312.97   21.60
  -4  -2  -4  301.97   21.90
   4   2   4  320.37   22.50
   4   2   4  298.87   22.50
   4   2   4  293.87   22.10
   4   2   4  342.97   22.40
   4   2   4  324.97   22.20
  -5  -2  -4 3465.75  232.08
   5   2   4 3264.37  232.68
   5   2   4 3607.14  232.88
  -6  -2  -4  131.09    9.40
  -6  -2  -4  143.99    9.70
   6   2   4  115.39   10.60
   6   2   4  119.29   10.00
   6   2   4  118.69   11.70
   5  -3  -4   61.99    8.60
   5  -3  -4   79.29    7.40
   5  -3  -4   66.89    7.40
  -5   3   4   68.19    5.80
  -5   3   4   75.19    6.30
   4  -3  -4  143.29   11.10
   4  -3  -4  146.39   12.10
  -4   3   4  138.39   10.10
  -4   3   4  147.29   10.30
  -4   3   4  134.59   10.60
   3  -3  -4 2357.96  152.38
   3  -3  -4 1992.40  151.68
   3  -3  -4 2355.66  152.08
   3  -3  -4 2157.38  151.78
  -3   3   4 2236.28  151.48
  -3   3   4 2357.76  151.48
  -3   3   4 2313.27  151.58
  -3   3   4 2229.28  151.58
   2  -3  -4   65.59    5.40
   2  -3  -4   61.59    4.80
   2  -3  -4   66.79    6.10
  -2   3   4   61.39    4.80
  -2   3   4   59.79    4.80
  -2   3   4   69.99    4.90
  -2   3   4   61.59    4.90
  -2   3   4   66.89    4.70
   1  -3  -4    6.80    1.00
   1  -3  -4    7.10    2.20
   1  -3  -4    5.50    1.70
   1  -3  -4    7.80    1.30
   1  -3  -4    8.80    1.10
  -1   3   4    8.40    1.30
  -1   3   4    6.50    1.20
  -1   3   4    9.00    1.60
  -1   3   4    6.50    1.00
  -1   3   4    6.30    1.00
  -1   3   4    4.80    0.80
   0  -3  -4  723.33   56.49
   0  -3  -4  879.61   56.39
   0  -3  -4  865.81   56.59
   0  -3  -4  842.12   56.09
   0  -3  -4  916.71   56.09
   0   3   4  847.92   56.19
   0   3   4  803.92   56.39
   0   3   4  746.93   55.99
  -1  -3  -4  730.33   45.70
   1   3   4  691.53   46.20
   1   3   4  698.03   45.80
   1   3   4  648.74   45.70
   1   3   4  608.34   45.70
  -2  -3  -4 1282.97   93.49
  -2  -3  -4 1491.75   93.69
  -2  -3  -4 1315.07   93.59
  -2  -3  -4 1471.15   93.49
  -2  -3  -4 1492.15   93.19
   2   3   4 1380.36   93.49
   2   3   4 1385.66   94.19
   2   3   4 1394.56   93.49
   2   3   4 1440.76   93.49
   2   3   4 1267.17   93.49
   2   3   4 1314.77   93.19
  -3  -3  -4  908.01   58.59
  -3  -3  -4  861.01   58.29
  -3  -3  -4  913.81   58.89
  -3  -3  -4  807.92   58.49
   3   3   4  807.22   59.59
   3   3   4  871.81   58.69
   3   3   4  838.82   58.59
   3   3   4  893.51   58.59
  -4  -3  -4 1129.49   77.39
  -4  -3  -4 1126.49   77.09
   4   3   4 1115.59   77.99
   4   3   4 1205.18   77.59
   4   3   4 1194.08   77.69
   4   3   4 1075.79   77.49
  -5  -3  -4   62.39    7.10
  -5  -3  -4   72.79    5.70
   5   3   4   71.09    6.90
   5   3   4   48.60    7.00
   5   3   4   57.89    6.60
  -6  -3  -4   50.39    6.00
  -6  -3  -4   60.89    5.60
   6   3   4   46.30    6.60
   6   3   4   67.29    7.80
   5  -4  -4  413.36   32.20
   5  -4  -4  395.46   31.40
  -5   4   4  477.35   30.80
  -5   4   4  497.65   30.60
   4  -4  -4  243.68   20.30
   4  -4  -4  227.88   18.30
   4  -4  -4  207.28   16.30
  -4   4   4  213.38   15.50
   3  -4  -4   30.90    4.20
   3  -4  -4   35.30    5.60
  -3   4   4   36.00    3.90
  -3   4   4   27.60    3.10
  -3   4   4   32.40    3.30
  -3   4   4   26.90    2.80
   2  -4  -4 2183.28  139.69
   2  -4  -4 2105.89  139.99
   2  -4  -4 2126.09  139.29
  -2   4   4 2144.19  139.19
  -2   4   4 1767.42  139.69
  -2   4   4 1916.31  139.29
  -2   4   4 2132.49  139.19
  -2   4   4 2157.18  139.19
   1  -4  -4 1459.75   96.19
   1  -4  -4 1427.76   95.79
   1  -4  -4 1208.78   96.29
   1  -4  -4 1473.85   96.19
   1  -4  -4 1499.95   95.79
  -1   4   4 1459.75   95.89
  -1   4   4 1383.76   95.89
  -1   4   4 1400.86   95.79
  -1   4   4 1483.55   96.19
  -1   4   4 1413.56   95.69
   0  -4  -4 1495.85   98.79
   0  -4  -4 1517.45   99.19
   0  -4  -4 1585.44   98.59
   0  -4  -4 1456.45   98.79
   0   4   4 1441.56   98.59
   0   4   4 1398.76   98.99
   0   4   4 1451.35   98.69
   0   4   4 1360.76   98.69
   0   4   4 1434.46   98.69
   0   4   4 1496.65   98.89
  -1  -4  -4    3.60    1.00
  -1  -4  -4    2.70    1.80
   1   4   4    3.90    1.10
   1   4   4   -0.10    1.20
   1   4   4    3.00    1.20
   1   4   4    2.40    1.20
   1   4   4    3.30    1.10
   1   4   4    3.10    1.30
   1   4   4    2.70    1.20
   1   4   4    6.00    2.10
  -2  -4  -4 1240.58   74.09
  -2  -4  -4 1089.69   74.49
  -2  -4  -4 1112.19   74.39
   2   4   4 1061.49   74.39
   2   4   4 1131.89   74.39
   2   4   4 1032.60   74.29
   2   4   4 1047.10   75.19
   2   4   4 1102.99   74.39
   2   4   4 1087.59   74.39
  -3  -4  -4  497.65   34.00
  -3  -4  -4  524.05   34.10
  -3  -4  -4  510.85   34.10
   3   4   4  457.25   35.40
   3   4   4  508.85   34.20
   3   4   4  440.56   34.10
   3   4   4  518.95   34.30
   3   4   4  524.95   34.20
  -4  -4  -4  600.34   40.70
  -4  -4  -4  632.04   40.40
   4   4   4  577.84   40.90
   4   4   4  550.04   40.70
   4   4   4  598.74   40.70
  -5  -4  -4 1111.39   76.39
  -5  -4  -4 1162.68   76.89
  -5  -4  -4 1199.08   76.59
   5   4   4 1190.58   77.39
   5   4   4 1121.79   77.09
   5   4   4  996.70   76.99
  -6  -4  -4  474.15   33.00
  -6  -4  -4  527.05   32.00
   6   4   4  480.65   33.10
   6   4   4  409.56   32.10
   6   4   4  439.86   32.50
   5  -5  -4    2.30    4.30
   5  -5  -4    4.70    6.20
   4  -5  -4 2167.98  158.28
   4  -5  -4 2141.09  158.88
  -4   5   4 2337.37  157.58
  -4   5   4 2481.25  157.58
  -4   5   4 2556.34  157.68
   3  -5  -4  181.58   13.40
   3  -5  -4  168.78   14.30
   3  -5  -4  159.58   12.90
  -3   5   4  184.28   12.20
  -3   5   4  166.48   12.40
  -3   5   4  184.18   12.50
   2  -5  -4    7.50    2.20
   2  -5  -4    4.40    1.50
   2  -5  -4    7.00    1.90
   2  -5  -4    5.00    3.20
  -2   5   4    7.90    1.20
  -2   5   4    7.90    1.60
  -2   5   4    4.60    1.20
  -2   5   4    5.30    1.60
  -2   5   4    5.30    3.00
   1  -5  -4 1887.11  121.79
   1  -5  -4 1823.02  121.89
   1  -5  -4 1851.31  121.99
  -1   5   4 1844.22  122.19
  -1   5   4 1742.23  122.29
  -1   5   4 1885.61  121.79
  -1   5   4 1623.14  121.99
   0  -5  -4    5.60    1.80
   0  -5  -4    5.40    1.50
   0  -5  -4    3.00    2.00
   0  -5  -4    5.10    0.90
   0   5   4    4.10    1.10
   0   5   4    3.40    1.80
   0   5   4    5.50    1.20
   0   5   4    5.10    1.80
   0   5   4    4.40    1.20
  -1  -5  -4  262.47   16.60
  -1  -5  -4  240.78   16.70
  -1  -5  -4  205.78   16.90
  -1  -5  -4  250.77   16.30
  -1  -5  -4  244.88   16.70
   1   5   4  218.88   16.60
   1   5   4  236.58   16.50
   1   5   4  241.48   17.00
   1   5   4  247.18   16.40
   1   5   4  237.88   16.50
   1   5   4  225.68   16.40
  -2  -5  -4  101.79    7.30
  -2  -5  -4  103.99    7.60
  -2  -5  -4   96.89    7.60
   2   5   4   98.59    7.40
   2   5   4   96.09    7.20
   2   5   4   89.39    7.40
   2   5   4   95.19    8.70
   2   5   4   91.09    7.20
  -3  -5  -4 8354.46  520.25
  -3  -5  -4 7961.90  519.95
  -3  -5  -4 7482.05  520.15
  -3  -5  -4 7918.51  520.05
   3   5   4 6758.62  521.15
   3   5   4 7697.03  520.35
   3   5   4 6955.10  520.15
   3   5   4 8326.67  520.35
   3   5   4 8131.29  520.25
  -4  -5  -4   82.89    6.30
  -4  -5  -4   66.89    8.80
  -4  -5  -4   81.09    7.20
   4   5   4   77.39    7.20
   4   5   4   78.49    6.80
  -5  -5  -4    4.90    2.30
  -5  -5  -4    7.40    3.60
   5   5   4    2.60    3.50
   5   5   4   12.40    3.30
  -6  -5  -4  272.07   17.80
  -6  -5  -4  248.08   18.80
   6   5   4  224.88   18.30
   6   5   4  260.57   18.70
   4  -6  -4    5.10    3.50
   4  -6  -4    5.00    4.90
  -4   6   4    5.30    2.00
  -4   6   4    2.40    1.60
   3  -6  -4  442.96   34.60
   3  -6  -4  434.06   33.30
   3  -6  -4  490.45   34.00
  -3   6   4  534.55   33.10
  -3   6   4  503.05   32.90
   2  -6  -4   62.19    5.90
   2  -6  -4   58.69    6.50
   2  -6  -4   57.49    8.10
  -2   6   4   70.49    5.20
  -2   6   4   62.39    4.90
   1  -6  -4  571.34   36.90
   1  -6  -4  560.74   37.20
   1  -6  -4  482.65   38.10
   1  -6  -4  547.95   37.10
   1  -6  -4  527.65   37.70
  -1   6   4  479.15   37.30
  -1   6   4  610.44   37.00
  -1   6   4  492.55   37.60
  -1   6   4  583.84   37.00
  -1   6   4  568.74   36.80
   0  -6  -4  122.99    9.90
   0  -6  -4  119.19    9.60
   0  -6  -4  127.39    9.40
   0  -6  -4  117.19    9.40
   0  -6  -4  125.39    8.80
   0  -6  -4  130.79    9.20
   0   6   4  132.09    9.00
   0   6   4  132.89    9.00
   0   6   4  115.39    9.60
   0   6   4  128.59    9.00
  -1  -6  -4 1346.57   84.59
  -1  -6  -4 1266.57   84.39
  -1  -6  -4 1199.38   84.69
  -1  -6  -4 1288.27   84.49
  -1  -6  -4 1185.68   84.09
   1   6   4 1198.88   84.29
   1   6   4 1271.97   84.39
   1   6   4 1378.06   84.39
   1   6   4 1171.38   84.59
   1   6   4 1175.88   84.79
  -2  -6  -4  769.72   53.29
  -2  -6  -4  784.12   53.29
  -2  -6  -4  755.72   52.99
  -2  -6  -4  793.42   53.19
  -2  -6  -4  836.12   54.29
   2   6   4  810.72   53.29
   2   6   4  792.02   53.19
   2   6   4  792.62   53.19
   2   6   4  714.73   53.99
  -3  -6  -4   10.80    2.70
  -3  -6  -4   10.40    1.90
  -3  -6  -4    9.30    2.40
   3   6   4   10.40    2.70
   3   6   4   10.10    2.40
   3   6   4   12.60    2.50
  -4  -6  -4  986.00   69.69
  -4  -6  -4  971.60   69.59
   4   6   4 1131.59   71.39
  -5  -6  -4  188.88   13.60
  -5  -6  -4  184.58   12.70
   5   6   4  169.68   13.30
   5   6   4  152.38   13.60
   4  -7  -4  165.78   12.70
   4  -7  -4  166.98   15.20
   4  -7  -4  152.68   13.50
  -4   7   4  190.08   12.50
  -4   7   4  178.08   12.20
   3  -7  -4  356.16   28.70
   3  -7  -4  358.56   27.80
  -3   7   4  400.26   26.60
  -3   7   4  429.86   26.90
   2  -7  -4  248.68   21.70
   2  -7  -4  262.47   20.10
   2  -7  -4  265.07   20.80
  -2   7   4  311.67   19.80
  -2   7   4  313.97   19.70
  -2   7   4  290.97   19.60
   1  -7  -4   89.99   10.30
   1  -7  -4  101.99    8.10
   1  -7  -4   98.99    8.30
   1  -7  -4   97.19    8.90
  -1   7   4   97.19    7.40
  -1   7   4  104.09    7.50
  -1   7   4  104.19    7.50
   0  -7  -4  662.93   47.80
   0  -7  -4  675.13   48.00
   0  -7  -4  715.73   48.60
   0  -7  -4  756.02   48.20
   0  -7  -4  675.93   48.10
   0   7   4  729.83   47.80
   0   7   4  761.42   47.90
   0   7   4  620.14   48.60
   0   7   4  746.13   47.90
  -1  -7  -4   57.19    6.60
  -1  -7  -4   55.79    5.60
  -1  -7  -4   50.29    6.10
  -1  -7  -4   53.99    5.40
   1   7   4   51.19    4.80
   1   7   4   53.69    4.60
   1   7   4   51.59    6.50
  -2  -7  -4 5119.79  337.67
  -2  -7  -4 4700.43  337.27
  -2  -7  -4 5148.49  337.87
  -2  -7  -4 4886.21  337.67
   2   7   4 5091.59  337.67
   2   7   4 5018.50  337.57
   2   7   4 5139.39  337.67
  -3  -7  -4  181.28   12.90
  -3  -7  -4  174.18   13.00
  -3  -7  -4  167.38   12.50
   3   7   4  149.29   13.10
   3   7   4  181.28   12.80
   3   7   4  189.08   13.00
  -4  -7  -4  341.37   24.40
  -4  -7  -4  359.56   25.00
  -4  -7  -4  347.07   24.80
   4   7   4  363.16   24.80
   4   7   4  350.56   25.00
  -5  -7  -4    3.40    3.50
  -5  -7  -4   -5.40    3.40
   5   7   4    5.60    3.30
   5   7   4    4.90    4.00
   4  -8  -4    8.30    6.00
   4  -8  -4    4.30    2.30
   4  -8  -4    3.20    3.20
  -4   8   4    9.00    2.20
  -4   8   4    6.90    1.90
   3  -8  -4  389.66   29.40
   3  -8  -4  369.96   28.00
   3  -8  -4  384.06   27.20
  -3   8   4  395.26   26.90
  -3   8   4  422.76   27.10
   2  -8  -4  685.93   53.09
   2  -8  -4  775.82   54.89
   2  -8  -4  783.62   53.09
   2  -8  -4  761.02   53.89
  -2   8   4  763.92   52.79
  -2   8   4  843.22   53.09
  -2   8   4  836.52   52.99
   1  -8  -4    1.50    2.80
   1  -8  -4   -0.30    3.10
   1  -8  -4    4.50    2.70
  -1   8   4   -0.30    2.00
  -1   8   4    1.80    1.60
  -1   8   4    1.10    1.60
   0  -8  -4    5.80    2.50
   0  -8  -4    3.70    3.10
   0   8   4    7.30    1.80
   0   8   4    5.00    1.80
  -1  -8  -4  163.18   11.70
  -1  -8  -4  156.08   12.40
  -1  -8  -4  140.49   11.70
   1   8   4  153.78   11.30
   1   8   4  156.78   11.20
  -2  -8  -4  317.37   21.40
  -2  -8  -4  297.87   21.40
  -2  -8  -4  295.67   20.80
   2   8   4  300.07   21.10
   2   8   4  310.37   21.20
   2   8   4  289.57   21.20
  -3  -8  -4   -1.20    2.90
  -3  -8  -4    0.00    2.80
   3   8   4   -0.30    2.40
   3   8   4    1.60    2.50
  -4  -8  -4  572.64   39.90
  -4  -8  -4  557.94   39.70
   4   8   4  586.44   39.90
   4   8   4  591.54   39.80
  -5  -8  -4  257.17   17.80
   5   8   4  203.88   17.80
   5   8   4  262.47   17.50
   3  -9  -4   49.99    5.00
   3  -9  -4   41.20    4.70
   3  -9  -4   31.90    5.30
  -3   9   4   53.29    6.20
   2  -9  -4  138.59   11.60
   2  -9  -4  143.39   12.50
  -2   9   4  165.28   11.30
  -2   9   4  162.68   11.30
   1  -9  -4  655.43   46.60
   1  -9  -4  697.83   47.50
   1  -9  -4  637.74   46.70
  -1   9   4  720.53   46.60
  -1   9   4  700.93   46.50
   0  -9  -4  591.94   41.90
   0  -9  -4  631.64   42.70
   0   9   4  603.24   41.70
   0   9   4  614.14   41.70
  -1  -9  -4 1036.30   68.59
  -1  -9  -4 1054.19   68.09
  -1  -9  -4 1040.40   67.79
  -1  -9  -4  885.41   68.69
   1   9   4 1008.80   67.99
   1   9   4  976.10   67.99
  -2  -9  -4  980.10   66.79
  -2  -9  -4  991.40   67.19
  -2  -9  -4 1008.70   67.09
   2   9   4  942.51   67.09
   2   9   4 1025.80   67.09
   2   9   4  969.50   66.99
  -3  -9  -4  915.21   61.79
  -3  -9  -4  932.11   61.59
   3   9   4  905.71   61.69
   3   9   4  866.81   61.59
  -4  -9  -4  400.86   27.10
  -4  -9  -4  406.46   27.30
   4   9   4  374.46   27.20
   4   9   4  372.26   27.10
   2 -10  -4  145.69    9.70
   2 -10  -4  114.69   10.50
  -2  10   4  114.29   10.60
  -2  10   4  147.69   10.00
   1 -10  -4    2.80    3.90
   1 -10  -4   -0.60    1.80
   1 -10  -4    2.60    3.50
  -1  10   4    2.90    2.10
  -1  10   4    2.60    2.00
   0 -10  -4  476.65   31.70
   0 -10  -4  471.65   32.80
   0 -10  -4  444.46   32.00
   0  10   4  465.85   31.80
   0  10   4  456.55   31.90
  -1 -10  -4   63.19    5.50
  -1 -10  -4   71.29    7.80
  -1 -10  -4   59.09    6.20
   1  10   4   50.59    6.30
   1  10   4   54.49    5.30
   1  10   4   61.39    6.10
  -2 -10  -4    9.60    3.20
  -2 -10  -4    9.10    2.70
   2  10   4   10.20    3.10
   2  10   4   10.40    2.70
  -3 -10  -4  677.03   45.60
  -3 -10  -4  607.64   46.60
   3  10   4  654.53   46.00
   3  10   4  706.73   45.80
   3  10   4  685.53   45.70
   0 -11  -4  581.44   36.90
   0 -11  -4  467.65   35.60
   0  11   4  461.45   35.60
   0  11   4  576.84   36.00
   1  11   4  157.48   11.70
  -2 -11  -4    0.60    2.40
  -2 -11  -4    3.30    2.90
   2  11   4   -2.90    2.40
   2  11   4    4.80    3.40
   1   9  -5  113.99    8.60
  -1  -9   5   92.79    9.00
  -1  -9   5  104.59    8.40
  -1  -9   5  102.09   10.40
   0  -9   5  359.26   26.90
   0  -9   5  409.06   27.80
   0  -9   5  398.26   26.80
   3   8  -5  100.29    8.60
  -3  -8   5   85.29    9.30
  -3  -8   5   97.19    8.30
   2   8  -5  849.72   55.49
  -2  -8   5  777.82   55.39
  -2  -8   5  825.72   55.29
  -2  -8   5  798.52   56.09
  -1  -8   5   13.50    7.30
  -1  -8   5   13.50    5.10
  -1  -8   5    8.90    2.50
  -1  -8   5   16.20    3.10
   0   8  -5   13.00    2.80
   0  -8   5   14.10    3.30
   0  -8   5   15.40    4.80
   0  -8   5   13.10    6.70
   0  -8   5   16.00    2.70
  -1   8  -5  125.39    8.50
   1  -8   5  106.69   10.20
   1  -8   5   99.89   12.30
   1  -8   5  100.29    8.80
   1  -8   5  101.79    8.70
   2  -8   5  180.88   15.90
   2  -8   5  213.38   18.10
   2  -8   5  237.58   16.20
   4   7  -5   32.80    5.40
  -4  -7   5   47.00    7.20
  -4  -7   5   15.80    5.60
   3   7  -5   -2.60    3.50
  -3  -7   5    0.40    2.80
  -3  -7   5    0.30    3.90
   2   7  -5   50.19    5.10
  -2  -7   5   38.60    6.00
  -2  -7   5   37.90    5.10
  -2  -7   5   31.70    5.90
  -1  -7   5  408.36   26.50
  -1  -7   5  376.66   26.60
  -1  -7   5  415.96   27.70
  -1  -7   5  322.17   29.00
   0   7  -5 1581.74   98.09
   0  -7   5 1488.65   98.79
   0  -7   5 1251.97   99.99
   0  -7   5 1498.35   98.09
   0  -7   5 1424.96   98.19
   1  -7   5   26.10    3.20
   1  -7   5   19.50    6.40
   1  -7   5   31.40    4.70
   1  -7   5   28.90    4.50
  -2   7  -5  632.54   41.80
   2  -7   5  637.54   42.70
   2  -7   5  542.25   43.70
   2  -7   5  640.54   42.00
  -3   7  -5  410.06   25.30
   3  -7   5  367.56   27.80
   3  -7   5  316.87   28.00
   4   6  -5  128.19   10.50
  -4  -6   5  124.99   10.90
  -4  -6   5  118.99   11.60
  -4  -6   5  122.89    9.30
   3   6  -5   22.60    4.10
  -3  -6   5   25.60    4.40
  -3  -6   5   26.50    3.20
  -3  -6   5   29.40    5.70
  -3  -6   5   33.80    4.70
  -3  -6   5   21.90    3.30
  -2  -6   5  892.01   64.09
  -2  -6   5  926.61   63.29
  -2  -6   5  976.40   63.59
  -1  -6   5    6.30    5.50
  -1  -6   5    2.30    1.60
  -1  -6   5    1.10    3.70
  -1  -6   5    1.00    2.30
   0  -6   5   55.09    4.80
   0  -6   5   50.99    6.60
   0  -6   5   54.59    5.30
   0  -6   5   35.30    6.80
   0  -6   5   42.50    8.60
   1  -6   5   12.30    2.60
   1  -6   5    8.50    3.30
   1  -6   5    8.40    5.20
   1  -6   5    8.90    2.00
   1  -6   5    1.50    4.20
  -2   6  -5  129.59    9.60
   2  -6   5  142.89   11.00
   2  -6   5  115.09   12.70
   2  -6   5  137.09   10.10
  -3   6  -5  106.89    7.70
   3  -6   5   99.59    9.10
   3  -6   5   85.49   11.00
   3  -6   5  101.99    8.20
   4  -6   5    3.10    3.50
   4  -6   5    2.00    3.20
   4  -6   5   -0.80    6.10
   4  -6   5    1.20    5.80
   5   5  -5  279.17   19.70
  -5  -5   5  254.97   18.50
   4   5  -5 1126.09   69.79
   4   5  -5 1012.40   69.29
  -4  -5   5 1011.30   68.69
  -4  -5   5  953.70   68.89
  -4  -5   5  981.80   69.09
  -4  -5   5 1006.50   69.19
   3   5  -5  298.27   23.10
  -3  -5   5  314.37   22.20
  -3  -5   5  315.87   21.40
  -3  -5   5  293.67   21.80
  -3  -5   5  299.07   23.00
  -3  -5   5  338.57   22.50
  -2  -5   5   14.00    2.30
  -2  -5   5   19.40    3.30
  -2  -5   5   18.40    2.30
  -2  -5   5   13.40    4.30
  -2  -5   5   20.60    3.40
  -2  -5   5   15.70    6.00
  -1  -5   5 4417.36  280.27
  -1  -5   5 4392.06  280.97
  -1  -5   5 3505.65  281.57
  -1  -5   5 4298.97  280.37
  -1  -5   5 4203.78  280.37
   0  -5   5  203.78   18.10
   0  -5   5  253.77   16.30
   0  -5   5  229.68   16.80
   0  -5   5  231.28   16.10
   1  -5   5  244.08   16.00
   1  -5   5  247.38   16.20
   1  -5   5  186.68   17.60
   1  -5   5  239.58   16.70
   1  -5   5  218.18   18.10
   2  -5   5   27.60    5.80
   2  -5   5   12.00    3.70
   2  -5   5   24.50    4.00
   2  -5   5   15.40    4.80
   2  -5   5   18.80    2.50
   3  -5   5 1022.10   84.79
   3  -5   5 1339.27   83.49
   3  -5   5 1339.47   84.09
   3  -5   5 1231.48   85.09
  -4   5  -5  113.39    9.00
   4  -5   5  120.39    9.20
   4  -5   5   96.99   11.60
   4  -5   5  122.89    9.70
   5   4  -5  221.38   16.50
  -5  -4   5  210.48   15.10
   4   4  -5  664.03   45.10
   4   4  -5  737.83   45.60
  -4  -4   5  588.14   45.60
  -4  -4   5  614.74   45.00
  -4  -4   5  633.04   44.70
  -4  -4   5  648.14   45.00
  -4  -4   5  687.23   44.50
   3   4  -5 2537.95  166.38
  -3  -4   5 2399.16  166.38
  -3  -4   5 2509.65  165.98
  -3  -4   5 2452.75  166.88
  -3  -4   5 2361.66  166.08
  -3  -4   5 2523.75  166.38
  -2  -4   5  343.17   24.10
  -2  -4   5  350.86   23.90
  -2  -4   5  357.66   25.00
  -2  -4   5  351.26   24.40
  -2  -4   5  345.67   24.30
   1   4  -5   32.50    5.90
   1   4  -5   29.00    5.40
  -1  -4   5   35.80    5.10
  -1  -4   5   35.50    3.80
  -1  -4   5   36.60    3.90
  -1  -4   5   30.30    3.30
  -1  -4   5   30.20    4.60
  -1  -4   5   35.50    3.40
  -1  -4   5   25.50    5.30
  -1  -4   5   38.30    3.20
   0   4  -5  334.37   25.60
   0   4  -5  361.56   25.70
   0  -4   5  328.67   26.20
   0  -4   5  384.66   25.40
   0  -4   5  388.56   25.00
   0  -4   5  386.66   25.40
   0  -4   5  311.97   25.90
   0  -4   5  402.56   24.90
  -1   4  -5  714.03   51.39
  -1   4  -5  739.93   51.29
   1  -4   5  819.12   50.69
   1  -4   5  667.83   51.59
   1  -4   5  773.02   50.49
   1  -4   5  747.43   50.99
   1  -4   5  760.32   51.99
  -2   4  -5   41.30    4.20
   2  -4   5   47.60    5.00
   2  -4   5   47.90    6.50
   2  -4   5   44.70    4.20
   2  -4   5   31.30    5.40
   2  -4   5   40.80    6.50
  -3   4  -5  311.47   21.50
   3  -4   5  277.67   23.50
   3  -4   5  348.87   22.50
   3  -4   5  292.37   23.70
   3  -4   5  327.97   21.90
   3  -4   5  326.47   23.60
  -4   4  -5 1052.49   66.59
   4  -4   5  993.80   68.29
   4  -4   5  958.90   68.29
   4  -4   5 1109.09   67.49
   4  -4   5  829.62   68.19
   4  -4   5  973.80   66.89
  -5   4  -5   63.69    5.50
   5  -4   5   80.79    7.00
   5  -4   5   65.39   10.70
   5   3  -5  452.15   30.60
  -5  -3   5  400.96   29.70
  -5  -3   5  434.96   29.40
   4   3  -5    2.90    3.10
  -4  -3   5    0.90    1.90
  -4  -3   5   -0.70    2.70
  -4  -3   5    3.60    2.50
  -4  -3   5    1.50    2.90
  -4  -3   5    4.40    3.20
   3   3  -5  558.74   39.30
  -3  -3   5  604.64   39.30
  -3  -3   5  574.24   39.90
  -3  -3   5  544.65   39.10
  -3  -3   5  536.05   39.00
  -3  -3   5  591.54   39.00
  -3  -3   5  604.84   39.50
   2   3  -5 1063.39   77.29
  -2  -3   5 1096.09   76.79
  -2  -3   5 1186.28   77.49
  -2  -3   5 1180.78   76.99
  -2  -3   5 1044.70   76.79
  -2  -3   5 1191.98   76.79
  -2  -3   5 1185.48   77.09
  -2  -3   5 1156.58   76.89
   1   3  -5   37.50    3.90
   1   3  -5   33.90    4.70
  -1  -3   5   35.50    3.10
  -1  -3   5   35.10    4.70
  -1  -3   5   34.70    3.60
  -1  -3   5   36.20    3.00
  -1  -3   5   32.30    2.90
  -1  -3   5   35.00    3.60
  -1  -3   5   29.90    4.00
  -1  -3   5   29.70    5.90
   0   3  -5  770.22   45.90
   0   3  -5  668.33   46.50
   0   3  -5  693.93   45.70
   0  -3   5  680.43   46.00
   0  -3   5  669.83   46.00
   0  -3   5  663.73   46.30
   0  -3   5  598.14   46.40
   0  -3   5  708.33   45.60
   0  -3   5  598.04   46.60
   0  -3   5  694.73   45.70
  -1   3  -5   30.40    3.90
  -1   3  -5   27.20    4.00
   1  -3   5   25.60    4.40
   1  -3   5   31.60    4.80
   1  -3   5   27.50    3.00
   1  -3   5   32.30    3.70
   1  -3   5   31.60    3.20
  -2   3  -5 1631.04  107.69
   2  -3   5 1609.94  106.99
   2  -3   5 1412.56  107.89
   2  -3   5 1834.62  109.09
   2  -3   5 1637.14  107.39
   2  -3   5 1577.04  107.99
   2  -3   5 1408.46  107.49
   3  -3   5   47.70    7.00
   3  -3   5   58.39    5.10
   3  -3   5   57.79    6.50
   3  -3   5   56.89    5.50
   3  -3   5   42.90    7.80
  -4   3  -5   35.90    3.10
   4  -3   5   32.80    6.50
   4  -3   5   34.40    4.80
   4  -3   5   17.50    4.40
   4  -3   5   25.70    6.40
   4  -3   5   21.10    5.40
   4  -3   5   26.90    3.60
  -5   3  -5  680.93   44.80
   5  -3   5  607.34   46.30
   5  -3   5  695.03   45.50
   5   2  -5   28.00    4.80
  -5  -2   5   13.00    6.00
  -5  -2   5   23.10    3.50
  -5  -2   5   21.50    5.20
  -5  -2   5   26.50    2.90
   4   2  -5  617.64   38.90
  -4  -2   5  512.15   38.00
  -4  -2   5  556.84   37.80
  -4  -2   5  539.35   38.00
  -4  -2   5  553.64   38.40
   3   2  -5 5587.64  372.46
  -3  -2   5 5440.56  372.36
  -3  -2   5 5271.47  372.26
  -3  -2   5 5717.53  372.66
  -3  -2   5 5462.65  372.26
  -3  -2   5 5724.93  372.46
   2   2  -5 1617.04  107.59
   2   2  -5 1505.75  107.19
   2   2  -5 1617.64  107.29
  -2  -2   5 1498.45  107.19
  -2  -2   5 1571.54  107.19
  -2  -2   5 1579.54  107.19
  -2  -2   5 1640.74  107.39
  -2  -2   5 1651.83  107.29
  -2  -2   5 1608.34  107.69
  -2  -2   5 1613.14  107.19
   1   2  -5    0.70    1.10
   1   2  -5    0.30    0.70
  -1  -2   5    1.70    1.10
  -1  -2   5    0.50    0.80
  -1  -2   5    1.80    0.80
  -1  -2   5   -0.70    1.50
  -1  -2   5   -1.10    2.00
  -1  -2   5    0.70    1.60
  -1  -2   5   -0.30    3.10
  -1  -2   5    1.60    0.90
   0   2  -5  416.96   29.00
   0   2  -5  431.26   29.10
   0   2  -5  432.66   28.60
   0   2  -5  455.25   28.50
   0   2  -5  479.75   28.70
   0  -2   5  420.86   28.50
   0  -2   5  365.26   28.90
   0  -2   5  359.76   29.30
   0  -2   5  458.75   28.90
   0  -2   5  400.16   29.30
   0  -2   5  415.66   28.80
   0  -2   5  419.06   28.70
   0  -2   5  409.66   28.60
  -1   2  -5 1252.67   90.09
  -1   2  -5 1409.16   90.19
   1  -2   5 1360.66   89.69
   1  -2   5 1335.57   90.39
   1  -2   5 1529.65   89.89
   1  -2   5 1139.59   89.99
   1  -2   5 1332.77   90.59
   1  -2   5 1160.28   89.69
   1  -2   5 1192.68   89.79
   1  -2   5 1442.96   90.09
   1  -2   5 1490.25   89.69
  -2   2  -5   63.99    5.30
  -2   2  -5   65.89    5.60
   2  -2   5   59.89    5.70
   2  -2   5   59.39    6.00
   2  -2   5   53.99    7.20
   2  -2   5   69.79    6.00
   2  -2   5   63.59    5.20
   2  -2   5   50.59    5.00
   2  -2   5   65.59    6.10
   2  -2   5   65.49    6.10
   2  -2   5   59.29    5.30
   3  -2   5  434.36   27.60
   3  -2   5  350.56   28.40
   3  -2   5  453.85   28.40
   3  -2   5  341.57   27.80
   3  -2   5  445.06   28.50
   3  -2   5  374.76   28.00
   3  -2   5  379.46   27.20
  -4   2  -5  534.75   33.40
   4  -2   5  544.75   35.00
   4  -2   5  423.16   35.00
   4  -2   5  468.05   35.00
   4  -2   5  477.25   34.90
  -5   2  -5  188.18   12.60
   5  -2   5  172.78   14.60
   5  -2   5  168.38   13.20
   5   1  -5  610.44   41.40
   5   1  -5  627.74   42.00
  -5  -1   5  569.44   40.90
  -5  -1   5  589.94   40.70
   4   1  -5 1706.93  103.69
  -4  -1   5 1510.65  102.79
  -4  -1   5 1541.25  103.09
  -4  -1   5 1368.66  102.69
  -4  -1   5 1484.85  102.69
   3   1  -5   62.39    6.00
   3   1  -5   88.79    6.70
   3   1  -5   77.09    7.10
  -3  -1   5   71.29    5.90
  -3  -1   5   70.69    6.00
  -3  -1   5   77.99    6.20
  -3  -1   5   70.49    6.30
  -3  -1   5   74.29    5.80
  -3  -1   5   75.79    5.50
   2   1  -5 1641.44  113.69
   2   1  -5 1737.63  113.79
  -2  -1   5 1629.54  113.49
  -2  -1   5 1644.74  113.59
  -2  -1   5 1751.12  113.79
  -2  -1   5 1597.44  113.49
  -2  -1   5 1795.22  113.79
  -2  -1   5 1719.93  113.49
  -2  -1   5 1641.14  113.39
   1   1  -5 1308.97   93.69
   1   1  -5 1472.55   93.59
   1   1  -5 1564.14   93.79
  -1  -1   5 1493.65   93.59
  -1  -1   5 1370.56   93.59
  -1  -1   5 1286.17   93.79
  -1  -1   5 1340.57   93.59
  -1  -1   5 1295.77   93.59
  -1  -1   5 1386.66   93.59
  -1  -1   5 1371.76   93.59
   0   1  -5  119.79    8.30
   0   1  -5  112.59    8.50
   0   1  -5  126.39    8.20
   0   1  -5  129.99    8.50
   0   1  -5  126.59    8.70
   0   1  -5  134.69    8.40
   0  -1   5  108.89    8.40
   0  -1   5  116.69    8.30
   0  -1   5   95.99    9.20
   0  -1   5  113.89    8.20
   0  -1   5  108.59    8.30
   0  -1   5  115.89    9.10
   0  -1   5  129.99    8.60
  -1   1  -5  208.98   14.70
  -1   1  -5  216.08   14.80
  -1   1  -5  199.78   14.90
  -1   1  -5  223.88   15.00
  -1   1  -5  217.78   15.10
   1  -1   5  217.88   15.40
   1  -1   5  221.08   15.40
   1  -1   5  216.58   15.50
   1  -1   5  222.28   15.10
   1  -1   5  217.28   14.80
  -2   1  -5  918.61   60.79
  -2   1  -5  947.11   60.99
  -2   1  -5  898.01   60.49
   2  -1   5  861.51   60.89
   2  -1   5  917.61   61.19
   2  -1   5  931.91   61.19
   2  -1   5  767.82   60.69
   2  -1   5  909.01   61.19
   2  -1   5  912.51   60.59
  -3   1  -5 1391.56   99.29
  -3   1  -5 1608.04  100.29
  -3   1  -5 1495.45   99.89
   3  -1   5 1394.16  100.09
   3  -1   5 1505.75   99.69
   3  -1   5 1561.84  100.29
   3  -1   5 1312.57   99.99
   3  -1   5 1526.25  100.29
  -4   1  -5   30.70    3.50
   4  -1   5   40.40    5.60
   4  -1   5   35.90    5.10
   4  -1   5   24.80    5.80
   4  -1   5   27.00    4.10
   4  -1   5   32.50    6.10
  -5   1  -5  371.96   25.40
  -5   1  -5  393.06   25.30
   5  -1   5  375.56   25.90
   5  -1   5  381.76   26.80
   5  -1   5  322.47   26.40
  -6   1  -5  282.97   18.60
   6  -1   5  256.17   19.20
   5   0  -5  366.36   26.30
   5   0  -5  376.46   26.90
  -5   0   5  376.16   25.60
  -5   0   5  371.66   25.80
   4   0  -5 5663.03  342.37
  -4   0   5 4891.71  341.37
  -4   0   5 4648.73  341.27
  -4   0   5 5082.49  341.57
  -4   0   5 5130.39  341.57
  -4   0   5 5088.49  341.37
  -4   0   5 5017.80  341.97
   3   0  -5 1216.18   88.69
   3   0  -5 1271.97   88.99
  -3   0   5 1375.46   88.49
  -3   0   5 1320.57   88.59
  -3   0   5 1414.76   88.89
  -3   0   5 1239.48   89.19
  -3   0   5 1357.76   88.59
  -3   0   5 1262.77   88.59
  -3   0   5 1280.97   88.49
  -3   0   5 1385.36   88.69
   2   0  -5   48.80    4.00
   2   0  -5   52.69    4.60
   2   0  -5   43.40    3.70
  -2   0   5   40.10    3.60
  -2   0   5   46.50    4.00
  -2   0   5   49.60    4.00
  -2   0   5   45.50    3.50
  -2   0   5   42.40    3.80
  -2   0   5   42.60    4.10
  -2   0   5   43.00    3.70
  -2   0   5   48.60    3.50
  -2   0   5   41.90    4.00
   1   0  -5 1450.25   88.59
   1   0  -5 1398.26   88.39
  -1   0   5 1277.37   88.39
  -1   0   5 1225.98   88.29
  -1   0   5 1274.67   88.29
  -1   0   5 1269.57   88.29
  -1   0   5 1339.87   88.29
  -1   0   5 1251.87   88.39
   0   0  -5 2221.88  151.48
   0   0  -5 2227.48  151.48
   0   0  -5 2360.36  151.48
   0   0  -5 2317.67  151.58
   0   0  -5 2218.48  151.48
   0   0  -5 2140.69  151.58
   0   0   5 2219.18  151.48
   0   0   5 2153.48  151.38
   0   0   5 2350.86  151.48
   0   0   5 2260.87  152.08
   0   0   5 2159.48  151.38
   0   0   5 2366.86  151.68
  -1   0  -5    9.10    1.20
  -1   0  -5    7.60    1.40
  -1   0  -5    8.10    1.40
  -1   0  -5    7.80    1.00
   1   0   5   10.20    2.10
   1   0   5    8.50    1.80
   1   0   5    7.50    1.10
   1   0   5   11.60    2.10
   1   0   5    7.70    0.90
  -2   0  -5   23.20    2.70
  -2   0  -5   22.50    2.80
   2   0   5   26.90    3.40
   2   0   5   23.70    3.30
   2   0   5   28.40    3.50
   2   0   5   18.90    2.80
   2   0   5   24.40    3.00
   2   0   5   22.00    3.70
   2   0   5   19.70    3.10
   2   0   5   22.40    2.60
  -3   0  -5 5067.79  312.17
  -3   0  -5 4240.98  311.37
  -3   0  -5 4787.92  311.87
   3   0   5 4236.38  311.87
   3   0   5 5072.59  312.27
   3   0   5 4947.41  312.17
   3   0   5 4653.53  312.37
   3   0   5 4368.86  311.67
   3   0   5 4290.87  311.87
  -4   0  -5  676.53   44.50
   4   0   5  660.93   45.50
   4   0   5  707.43   44.90
   4   0   5  563.04   45.70
   4   0   5  671.33   45.40
  -5   0  -5    1.60    1.50
  -5   0  -5    2.00    2.10
   5   0   5    3.00    2.60
   5   0   5    4.20    4.50
   5   0   5    2.40    3.40
   5   0   5    1.50    3.30
  -6   0  -5   51.69    5.70
  -6   0  -5   58.49    4.70
   6   0   5   50.39    7.00
   6   0   5   44.80    5.60
   6   0   5   45.90    8.40
   5  -1  -5   16.30    4.60
   5  -1  -5   15.40    3.30
  -5   1   5   14.30    2.50
  -5   1   5   11.70    2.30
  -5   1   5   15.20    2.60
   4  -1  -5   98.39    7.60
   4  -1  -5   81.99    8.10
  -4   1   5   81.89    6.40
  -4   1   5   83.19    6.60
  -4   1   5   78.49    6.90
  -4   1   5   83.89    7.60
  -4   1   5   87.09    6.80
   3  -1  -5  153.28   12.40
   3  -1  -5  199.68   13.10
   3  -1  -5  169.98   12.80
  -3   1   5  177.48   12.30
  -3   1   5  171.88   12.20
  -3   1   5  179.28   12.30
  -3   1   5  175.38   12.10
  -3   1   5  178.68   12.30
  -3   1   5  168.28   12.30
  -3   1   5  171.98   12.20
  -3   1   5  174.58   12.70
   2  -1  -5   59.49    5.10
   2  -1  -5   54.49    4.40
   2  -1  -5   50.79    4.00
  -2   1   5   49.40    3.90
  -2   1   5   55.39    4.20
  -2   1   5   51.19    3.90
  -2   1   5   51.79    3.90
  -2   1   5   53.09    4.40
  -2   1   5   50.79    4.10
  -2   1   5   53.99    4.40
  -2   1   5   53.39    4.00
  -2   1   5   49.70    4.00
   1  -1  -5 1272.77   84.69
   1  -1  -5 1380.26   84.69
   1  -1  -5 1214.88   84.99
  -1   1   5 1232.98   84.69
  -1   1   5 1215.08   84.69
  -1   1   5 1251.97   84.69
  -1   1   5 1231.78   84.59
  -1   1   5 1346.07   84.89
  -1   1   5 1359.76   84.69
  -1   1   5 1075.49   84.59
  -1   1   5 1130.59   84.59
  -1   1   5 1375.16   84.69
  -1   1   5 1259.17   84.69
  -1   1   5 1245.38   84.59
   0  -1  -5  139.69    9.50
   0  -1  -5  152.48   12.00
   0  -1  -5  130.19    9.50
   0  -1  -5  134.09    9.60
   0  -1  -5  130.99    9.60
   0   1   5  126.19    9.50
   0   1   5  131.39    9.40
   0   1   5  157.78    9.90
   0   1   5  132.89   10.10
   0   1   5  126.09    9.40
   0   1   5  144.19    9.50
   0   1   5  145.49    9.70
  -1  -1  -5 1641.94  100.39
  -1  -1  -5 1612.44  100.59
  -1  -1  -5 1335.27  100.69
  -1  -1  -5 1552.74  100.49
   1   1   5 1498.65  100.69
   1   1   5 1381.56  100.59
   1   1   5 1447.76  100.29
   1   1   5 1483.35  100.39
   1   1   5 1582.44  100.99
   1   1   5 1300.07  100.59
   1   1   5 1568.54  100.59
  -2  -1  -5 1899.01  118.19
  -2  -1  -5 1831.52  118.29
  -2  -1  -5 1720.43  118.19
   2   1   5 1503.45  117.99
   2   1   5 1827.22  118.69
   2   1   5 1570.34  118.19
   2   1   5 1882.11  118.49
   2   1   5 1855.01  118.39
   2   1   5 1820.72  118.19
   2   1   5 1589.74  118.19
   2   1   5 1762.72  117.99
  -3  -1  -5   63.49    5.60
  -3  -1  -5   59.79    5.20
  -3  -1  -5   46.50    5.20
   3   1   5   68.49    5.70
   3   1   5   56.29    5.40
   3   1   5   57.89    5.40
   3   1   5   52.49    5.30
   3   1   5   65.69    5.60
   3   1   5   59.99    6.60
  -4  -1  -5  282.37   19.30
   4   1   5  271.17   20.00
   4   1   5  308.07   20.30
   4   1   5  277.97   19.60
   4   1   5  242.88   19.90
   4   1   5  290.07   20.30
  -5  -1  -5    1.90    2.00
   5   1   5    2.20    2.80
   5   1   5   -2.00    7.60
   5   1   5   -0.80    3.30
   5   1   5    1.60    3.00
  -6  -1  -5   51.09    6.60
  -6  -1  -5   46.70    5.50
   6   1   5   38.70    6.30
   6   1   5   47.40    7.50
   6   1   5   44.60    7.10
   5  -2  -5  511.55   36.80
   5  -2  -5  487.05   36.00
  -5   2   5  527.25   35.40
  -5   2   5  544.35   35.50
   4  -2  -5   79.29    7.80
   4  -2  -5   81.39    6.90
  -4   2   5   68.09    7.40
  -4   2   5   75.49    5.70
  -4   2   5   66.49    5.90
  -4   2   5   68.69    8.70
  -4   2   5   71.79    5.80
   3  -2  -5 1102.69   85.39
   3  -2  -5 1174.38   85.69
   3  -2  -5 1461.25   85.89
   3  -2  -5 1394.26   86.19
  -3   2   5 1254.57   85.29
  -3   2   5 1349.77   85.39
  -3   2   5 1253.87   85.69
  -3   2   5 1295.47   85.39
  -3   2   5 1238.78   85.19
  -3   2   5 1254.97   85.29
  -3   2   5 1162.88   85.29
  -3   2   5 1230.68   85.29
   2  -2  -5 3332.27  228.18
   2  -2  -5 3669.93  228.58
  -2   2   5 3066.79  228.08
  -2   2   5 3546.55  228.18
  -2   2   5 3508.55  228.08
  -2   2   5 3395.56  227.98
  -2   2   5 3283.77  228.08
  -2   2   5 3226.48  228.08
  -2   2   5 3457.85  228.18
  -2   2   5 3383.06  228.38
  -2   2   5 3421.66  228.18
   1  -2  -5    7.60    1.00
  -1   2   5    6.00    1.10
  -1   2   5    4.60    1.10
  -1   2   5    7.30    1.50
  -1   2   5    6.90    1.10
  -1   2   5    5.80    1.00
  -1   2   5    5.70    1.00
  -1   2   5    5.80    0.70
  -1   2   5    5.40    1.30
  -1   2   5    7.00    1.00
  -1   2   5    6.90    0.90
   0  -2  -5  561.04   35.80
   0  -2  -5  563.94   35.70
   0  -2  -5  522.05   36.70
   0  -2  -5  536.15   35.70
   0   2   5  487.85   35.60
   0   2   5  484.75   35.70
   0   2   5  547.15   36.20
   0   2   5  528.05   35.60
   0   2   5  502.55   35.60
  -1  -2  -5 1066.99   80.29
  -1  -2  -5 1308.07   80.09
  -1  -2  -5 1276.47   79.99
   1   2   5 1222.58   80.19
   1   2   5 1120.59   79.99
   1   2   5 1088.49   80.09
   1   2   5 1203.28   80.09
   1   2   5 1218.78   80.59
   1   2   5 1196.68   79.89
   1   2   5 1159.08   79.89
  -2  -2  -5 3864.31  240.08
  -2  -2  -5 3150.78  239.88
  -2  -2  -5 4093.29  240.08
   2   2   5 3414.56  239.98
   2   2   5 3744.93  240.18
   2   2   5 3236.08  239.68
   2   2   5 3532.05  240.08
   2   2   5 3477.05  239.88
   2   2   5 3791.22  240.68
   2   2   5 3852.61  239.98
   2   2   5 3057.79  239.98
  -3  -2  -5   28.10    3.80
  -3  -2  -5   34.50    3.80
  -3  -2  -5   39.10    4.20
   3   2   5   45.60    6.00
   3   2   5   33.20    3.90
   3   2   5   31.10    3.90
   3   2   5   36.70    4.60
   3   2   5   35.10    4.20
   3   2   5   38.40    4.00
  -4  -2  -5  663.13   45.40
  -4  -2  -5  625.94   45.60
   4   2   5  596.44   45.90
   4   2   5  692.03   46.10
   4   2   5  682.93   46.00
   4   2   5  751.12   46.30
  -5  -2  -5  325.17   21.60
   5   2   5  320.67   22.60
   5   2   5  301.97   22.00
   5   2   5  294.47   22.40
  -6  -2  -5   43.30    5.10
   6   2   5   37.00    6.40
   6   2   5   53.19    6.90
   6   2   5   61.19    9.00
   5  -3  -5  601.14   44.40
   5  -3  -5  627.64   45.20
  -5   3   5  678.53   43.80
  -5   3   5  665.23   43.90
   4  -3  -5   93.59    8.30
   4  -3  -5   78.19    8.70
  -4   3   5   78.69    6.40
  -4   3   5   80.89    6.60
   3  -3  -5  831.62   52.79
   3  -3  -5  706.53   52.19
   3  -3  -5  840.92   52.49
  -3   3   5  732.53   51.79
  -3   3   5  812.92   51.79
  -3   3   5  783.32   51.79
  -3   3   5  728.03   51.59
  -3   3   5  745.93   51.89
  -3   3   5  706.33   51.89
   2  -3  -5 2586.44  181.08
   2  -3  -5 2797.82  181.68
   2  -3  -5 2819.72  181.48
  -2   3   5 2869.81  181.08
  -2   3   5 2621.64  181.08
  -2   3   5 2319.57  181.38
  -2   3   5 2758.32  181.08
  -2   3   5 2624.34  180.88
  -2   3   5 2692.63  180.98
  -2   3   5 2854.71  181.38
  -2   3   5 2636.14  180.98
   1  -3  -5   89.39    6.70
   1  -3  -5   86.09    6.40
   1  -3  -5   93.59    6.50
   1  -3  -5   92.29    7.10
  -1   3   5   97.69    6.60
  -1   3   5   86.79    6.50
  -1   3   5   87.19    6.40
  -1   3   5   89.29    6.30
  -1   3   5   93.59    6.50
  -1   3   5   93.09    6.60
  -1   3   5   85.39    6.60
   0  -3  -5  198.48   13.80
   0  -3  -5  204.78   14.00
   0  -3  -5  211.78   13.70
   0   3   5  206.48   13.70
   0   3   5  188.78   13.70
   0   3   5  184.88   13.80
   0   3   5  194.98   13.60
   0   3   5  209.78   13.70
   0   3   5  189.98   14.20
  -1  -3  -5   35.20    4.20
  -1  -3  -5   44.70    3.30
   1   3   5   36.20    3.30
   1   3   5   38.50    3.50
   1   3   5   40.40    3.40
   1   3   5   42.60    4.10
   1   3   5   41.00    3.60
   1   3   5   40.80    3.10
   1   3   5   38.90    3.20
  -2  -3  -5 1134.59   86.49
  -2  -3  -5 1363.86   86.29
  -2  -3  -5 1403.36   86.69
  -2  -3  -5 1237.98   86.59
  -2  -3  -5 1358.66   86.69
   2   3   5 1222.38   87.29
   2   3   5 1278.57   86.49
   2   3   5 1360.76   86.59
   2   3   5 1315.77   86.69
   2   3   5 1179.38   86.29
   2   3   5 1327.17   86.79
   2   3   5 1259.57   86.59
   2   3   5 1224.48   86.59
  -3  -3  -5  141.09    9.70
  -3  -3  -5  136.89   10.00
  -3  -3  -5  122.09    9.50
   3   3   5  129.79    9.70
   3   3   5  129.49    9.70
   3   3   5  132.39    9.80
   3   3   5  109.59   11.30
   3   3   5  128.49    9.90
  -4  -3  -5 1667.13  110.29
  -4  -3  -5 1583.64  110.49
   4   3   5 1490.85  110.69
   4   3   5 1717.33  110.79
   4   3   5 1679.33  111.09
   4   3   5 1664.43  110.69
  -5  -3  -5  344.67   23.00
  -5  -3  -5  314.17   23.50
   5   3   5  341.47   23.90
   5   3   5  325.67   23.70
  -6  -3  -5    0.70    2.30
  -6  -3  -5    5.00    2.60
   6   3   5    8.20    5.00
   6   3   5    1.30    3.70
   6   3   5    8.30    3.60
   5  -4  -5  228.18   20.30
   5  -4  -5  249.28   19.30
  -5   4   5  297.57   18.40
  -5   4   5  272.67   18.50
   4  -4  -5  325.87   24.20
   4  -4  -5  295.67   22.80
  -4   4   5  333.27   22.80
  -4   4   5  332.87   22.30
  -4   4   5  327.17   22.40
   3  -4  -5  567.74   40.60
   3  -4  -5  588.04   40.10
  -3   4   5  561.04   39.50
  -3   4   5  587.74   39.40
  -3   4   5  592.94   39.40
   2  -4  -5    6.50    1.90
   2  -4  -5    6.60    1.50
  -2   4   5    9.70    1.50
  -2   4   5    6.30    1.30
  -2   4   5    5.60    1.10
   1  -4  -5  150.48   10.70
   1  -4  -5  150.78   10.70
   1  -4  -5  130.19   10.20
   1  -4  -5  123.99   11.80
   1  -4  -5  143.79   10.00
  -1   4   5  134.99   10.20
  -1   4   5  151.78   10.50
  -1   4   5  139.99   10.00
  -1   4   5  147.49   10.20
  -1   4   5  152.88   10.10
  -1   4   5  133.79    9.90
  -1   4   5  148.99   10.00
  -1   4   5  154.88   10.10
   0  -4  -5 1471.65   93.59
   0  -4  -5 1524.05   93.59
   0  -4  -5 1209.68   93.69
   0  -4  -5 1503.25   93.39
   0  -4  -5 1389.66   93.89
   0   4   5 1416.76   93.39
   0   4   5 1377.36   93.59
   0   4   5 1326.27   93.79
   0   4   5 1369.86   93.39
   0   4   5 1383.96   93.49
   0   4   5 1462.05   93.39
   0   4   5 1354.76   93.29
   0   4   5 1219.18   93.29
  -1  -4  -5  976.20   58.79
  -1  -4  -5  990.20   58.59
  -1  -4  -5  848.52   58.69
   1   4   5  739.13   58.59
   1   4   5  881.11   58.69
   1   4   5  829.62   58.59
   1   4   5  859.11   58.69
   1   4   5  913.91   58.59
   1   4   5  794.32   59.09
   1   4   5  841.02   58.59
   1   4   5  860.21   58.49
  -2  -4  -5 1126.09   76.19
  -2  -4  -5 1218.78   76.09
  -2  -4  -5 1089.09   75.99
   2   4   5 1207.38   76.29
   2   4   5 1218.98   75.99
   2   4   5 1159.48   76.09
   2   4   5 1039.10   76.69
   2   4   5 1085.89   76.09
   2   4   5 1065.39   75.69
   2   4   5 1030.70   75.89
  -3  -4  -5 1028.40   66.29
  -3  -4  -5  946.91   66.19
  -3  -4  -5  989.60   66.19
   3   4   5 1041.90   66.29
   3   4   5 1059.89   66.29
   3   4   5  851.61   67.29
   3   4   5 1007.30   66.39
   3   4   5  879.21   66.19
  -4  -4  -5 1170.28   78.39
  -4  -4  -5 1159.08   78.09
   4   4   5 1186.68   78.49
   4   4   5 1092.89   78.49
   4   4   5 1161.68   78.59
  -5  -4  -5   41.10    4.60
  -5  -4  -5   46.50    6.40
   5   4   5   37.20    5.60
   5   4   5   44.10    6.20
   5   4   5   40.30    5.70
   6   4   5  237.98   18.00
   6   4   5  230.38   17.40
   5  -5  -5   45.90    7.00
   5  -5  -5   37.50    6.30
  -5   5   5   38.90    4.80
   4  -5  -5    4.70    3.00
   4  -5  -5   -0.40    4.70
  -4   5   5    1.40    2.10
  -4   5   5    3.60    2.20
  -4   5   5    1.50    1.60
   3  -5  -5  141.49   11.30
   3  -5  -5  154.28   11.90
   3  -5  -5  156.18   13.00
  -3   5   5  151.48   10.60
  -3   5   5  142.29   10.80
  -3   5   5  152.88   10.90
   2  -5  -5  496.65   37.80
   2  -5  -5  569.84   36.90
   2  -5  -5  557.74   37.30
   2  -5  -5  515.25   36.70
  -2   5   5  549.54   36.50
  -2   5   5  497.25   36.70
  -2   5   5  545.95   36.60
  -2   5   5  572.94   36.70
   1  -5  -5  478.95   39.70
   1  -5  -5  603.84   39.00
   1  -5  -5  574.24   38.80
   1  -5  -5  567.94   38.80
   1  -5  -5  577.34   39.40
  -1   5   5  554.54   39.30
  -1   5   5  611.54   38.90
  -1   5   5  598.14   38.80
  -1   5   5  548.05   38.80
  -1   5   5  598.34   38.70
   0  -5  -5  233.38   16.40
   0  -5  -5  248.88   16.30
   0  -5  -5  208.28   16.60
   0  -5  -5  239.38   16.00
   0   5   5  223.98   16.40
   0   5   5  247.48   16.00
   0   5   5  225.38   16.60
   0   5   5  235.78   16.20
   0   5   5  230.78   16.10
  -1  -5  -5  235.28   19.40
  -1  -5  -5  296.67   19.10
  -1  -5  -5  290.47   19.10
  -1  -5  -5  275.27   19.10
   1   5   5  259.97   19.50
   1   5   5  263.27   19.00
   1   5   5  278.37   18.80
   1   5   5  273.67   18.90
   1   5   5  258.37   18.90
   1   5   5  282.87   19.00
   1   5   5  270.77   19.00
   1   5   5  306.37   18.90
  -2  -5  -5   17.00    2.50
  -2  -5  -5   15.80    2.60
  -2  -5  -5   17.70    2.90
   2   5   5   19.80    3.00
   2   5   5   18.90    2.60
   2   5   5   16.40    4.20
   2   5   5   22.70    2.80
   2   5   5   14.90    2.30
  -3  -5  -5 1239.18   82.69
  -3  -5  -5 1273.17   82.99
  -3  -5  -5 1228.28   82.49
   3   5   5 1309.87   82.69
   3   5   5 1237.28   82.59
   3   5   5 1193.38   82.79
   3   5   5 1055.69   82.59
  -4  -5  -5  148.89   11.10
  -4  -5  -5  140.69   10.20
   4   5   5  129.69   10.90
   4   5   5  140.49   10.90
   4   5   5  142.19   11.40
  -5  -5  -5  235.68   16.40
  -5  -5  -5  236.58   17.20
   5   5   5  213.48   17.20
   5   5   5  234.38   17.10
   5   5   5  237.18   17.30
  -6  -5  -5   24.10    3.20
  -6  -5  -5   29.60    5.60
   6   5   5   17.40    4.00
   6   5   5   32.40    5.70
   4  -6  -5  196.38   18.10
   4  -6  -5  201.88   16.60
  -4   6   5  234.58   15.70
  -4   6   5  236.98   15.40
   3  -6  -5  418.66   30.20
   3  -6  -5  354.16   30.10
  -3   6   5  464.75   30.00
  -3   6   5  451.95   29.20
   2  -6  -5  261.37   19.30
   2  -6  -5  236.68   20.70
   2  -6  -5  264.07   19.90
  -2   6   5  303.07   19.00
  -2   6   5  281.17   18.90
  -2   6   5  282.07   18.80
   1  -6  -5    2.90    2.40
   1  -6  -5    2.80    1.50
   1  -6  -5    6.30    4.30
   1  -6  -5    2.70    2.20
  -1   6   5    8.80    3.60
  -1   6   5    4.80    1.30
  -1   6   5    3.40    1.40
  -1   6   5   -0.10    1.80
   0  -6  -5  731.73   48.90
   0  -6  -5  711.13   48.40
   0  -6  -5  654.93   49.00
   0  -6  -5  742.63   48.80
   0  -6  -5  728.23   48.70
   0   6   5  638.64   48.90
   0   6   5  737.93   48.60
   0   6   5  749.53   48.40
   0   6   5  741.03   48.50
  -1  -6  -5  185.38   13.50
  -1  -6  -5  193.88   13.50
  -1  -6  -5  168.38   13.90
  -1  -6  -5  186.78   13.00
  -1  -6  -5  188.68   13.50
   1   6   5  167.18   13.80
   1   6   5  184.98   13.30
   1   6   5  200.88   13.20
   1   6   5  190.48   14.10
   1   6   5  193.48   13.30
   1   6   5  190.08   13.20
  -2  -6  -5  452.95   30.90
  -2  -6  -5  471.45   31.00
  -2  -6  -5  439.96   30.70
  -2  -6  -5  456.55   31.10
   2   6   5  455.65   30.90
   2   6   5  447.86   30.80
   2   6   5  402.86   31.90
   2   6   5  464.15   30.90
  -3  -6  -5    4.20    2.80
  -3  -6  -5    0.60    2.20
  -3  -6  -5    3.60    1.60
   3   6   5    1.80    2.20
   3   6   5    0.40    2.00
   3   6   5   -1.30    1.90
   3   6   5    4.70    2.40
  -4  -6  -5   61.69    7.70
  -4  -6  -5   65.79    6.90
  -4  -6  -5   69.09    5.80
   4   6   5   68.39    6.60
   4   6   5   60.09    6.70
  -5  -6  -5   11.70    3.70
  -5  -6  -5    4.20    2.60
   5   6   5   13.70    3.40
   5   6   5   11.30    3.60
   5   6   5   13.60    3.60
   4  -7  -5   51.89   10.60
   4  -7  -5   62.79    6.40
   4  -7  -5   59.89    7.20
  -4   7   5   66.99    5.20
  -4   7   5   64.79    6.60
   3  -7  -5  949.80   67.69
   3  -7  -5  896.71   66.99
   3  -7  -5  917.51   68.29
  -3   7   5 1060.19   66.69
  -3   7   5 1094.49   66.89
   2  -7  -5  590.34   45.20
   2  -7  -5  594.54   46.50
   2  -7  -5  649.93   46.00
  -2   7   5  680.13   44.80
  -2   7   5  701.43   45.00
  -2   7   5  738.03   45.10
   1  -7  -5   56.59    6.30
   1  -7  -5   55.89    6.70
   1  -7  -5   48.10    5.60
  -1   7   5   58.29    4.90
  -1   7   5   53.99    4.80
  -1   7   5   58.39    4.60
   0  -7  -5   94.19    9.00
   0  -7  -5  108.19   10.10
   0  -7  -5  100.99    8.60
   0  -7  -5  105.69    8.40
   0   7   5  108.99    7.70
   0   7   5  110.09    7.70
   0   7   5   93.19    9.60
   0   7   5  101.89    7.80
  -1  -7  -5  839.02   60.89
  -1  -7  -5  889.81   60.59
  -1  -7  -5  913.11   60.69
   1   7   5  921.01   60.49
   1   7   5  897.51   60.39
   1   7   5  856.51   60.29
   1   7   5  917.71   60.49
  -2  -7  -5    7.20    2.50
  -2  -7  -5    3.40    2.30
   2   7   5    3.30    2.10
   2   7   5    2.50    1.80
   2   7   5    2.40    2.10
  -3  -7  -5  206.18   14.90
  -3  -7  -5  223.58   15.50
  -3  -7  -5  213.68   15.40
   3   7   5  187.78   15.40
   3   7   5  223.18   15.50
   3   7   5  216.98   15.40
  -4  -7  -5 1534.85  105.09
  -4  -7  -5 1487.15  105.29
  -4  -7  -5 1634.54  105.59
   4   7   5 1562.94  105.69
   4   7   5 1531.75  105.79
   4   7   5 1595.74  105.59
  -5  -7  -5  484.25   31.10
  -5  -7  -5  463.05   30.70
   5   7   5  399.06   31.00
   5   7   5  431.76   31.00
   3  -8  -5  105.19   12.80
   3  -8  -5   89.49    9.20
   3  -8  -5   90.89    8.30
  -3   8   5  104.29    7.50
  -3   8   5  106.09    7.80
   2  -8  -5   13.50    3.10
   2  -8  -5    8.00    3.30
   2  -8  -5   11.00    3.90
  -2   8   5   11.90    2.50
  -2   8   5   12.00    2.20
  -2   8   5    7.90    2.00
   1  -8  -5   72.19    7.50
   1  -8  -5   79.49    8.30
   1  -8  -5   83.79    7.30
  -1   8   5   79.69    6.30
  -1   8   5   79.09    6.50
  -1   8   5   76.09    6.30
   0  -8  -5  237.68   16.90
   0  -8  -5  222.98   17.00
   0  -8  -5  233.48   17.50
   0   8   5  228.08   16.40
   0   8   5  237.88   16.50
   0   8   5  235.88   16.40
  -1  -8  -5 2350.76  151.98
  -1  -8  -5 2133.89  151.88
  -1  -8  -5 2194.28  152.28
   1   8   5 2181.58  151.78
   1   8   5 2334.57  151.88
   1   8   5 2304.77  151.88
  -2  -8  -5  272.27   19.00
  -2  -8  -5  256.77   18.50
  -2  -8  -5  271.17   19.00
   2   8   5  266.87   18.80
   2   8   5  266.17   18.70
   2   8   5  259.47   18.90
  -3  -8  -5    9.60    3.30
  -3  -8  -5   14.20    3.40
   3   8   5    7.10    3.00
   3   8   5   11.40    3.80
   3   8   5   12.70    2.90
  -4  -8  -5   35.00    4.60
  -4  -8  -5   32.90    4.40
   4   8   5   23.60    4.10
   4   8   5   36.40    5.20
  -5  -8  -5  867.21   53.09
   5   8   5  699.73   52.99
   5   8   5  759.62   52.99
   3  -9  -5   -1.90    1.90
   3  -9  -5    2.30    3.00
   3  -9  -5   -5.30    2.50
  -3   9   5    2.60    2.50
  -3   9   5   -0.70    1.80
   2  -9  -5  352.46   26.20
   2  -9  -5  340.27   25.40
   2  -9  -5  332.27   25.60
  -2   9   5  382.46   25.20
  -2   9   5  382.46   25.30
  -2   9   5  396.36   25.40
   1  -9  -5    4.90    5.10
   1  -9  -5    1.30    3.60
   1  -9  -5    1.90    2.80
  -1   9   5    1.00    1.90
  -1   9   5    0.60    1.90
   0  -9  -5   55.99    7.80
   0  -9  -5   48.70    6.50
   0   9   5   63.29    6.00
   0   9   5   65.89    5.50
   0   9   5   62.89    5.60
  -1  -9  -5   26.10    5.00
  -1  -9  -5   22.40    4.20
  -1  -9  -5   21.90    3.70
   1   9   5   27.00    3.80
   1   9   5   25.80    3.80
   1   9   5   27.00    4.40
  -2  -9  -5   27.90    4.30
  -2  -9  -5   36.00    4.80
  -2  -9  -5   33.50    4.60
   2   9   5   40.30    5.10
   2   9   5   40.50    4.70
   2   9   5   34.40    5.40
  -3  -9  -5  434.26   29.60
  -3  -9  -5  442.56   29.90
   3   9   5  405.96   29.60
   3   9   5  412.46   29.90
   3   9   5  438.36   29.70
  -4  -9  -5    8.80    3.50
   4   9   5    3.20    3.00
   4   9   5    4.50    6.60
   2 -10  -5  187.08   14.50
   2 -10  -5  171.78   12.90
  -2  10   5  188.98   13.10
   1 -10  -5 1094.79   73.99
   1 -10  -5 1006.90   73.29
   1 -10  -5 1112.59   73.19
  -1  10   5 1092.69   73.29
  -1  10   5 1057.89   73.29
  -1  10   5 1126.29   73.39
   0 -10  -5  808.82   58.09
   0 -10  -5  881.61   58.79
   0 -10  -5  868.61   57.79
   0  10   5  848.92   57.99
   0  10   5  856.71   57.99
  -1 -10  -5   -6.40    4.30
  -1 -10  -5    2.60    3.10
  -1 -10  -5    0.40    2.00
   1  10   5   -1.40    1.90
   1  10   5   -0.50    2.70
  -2 -10  -5  588.34   40.60
  -2 -10  -5  606.74   40.10
  -2 -10  -5  621.64   40.40
   2  10   5  571.14   40.30
   2  10   5  522.85   40.50
   2  10   5  615.24   40.40
  -3 -10  -5  418.66   28.10
   3  10   5  396.76   28.10
   3  10   5  392.16   28.20
   3  10   5  411.86   28.60
   0 -11  -5  196.88   14.70
   0 -11  -5  207.38   13.40
   0 -11  -5  163.98   13.60
   0  11   5  177.18   13.60
   0  11   5  187.28   13.40
  -1 -11  -5   12.40    2.80
   1  11   5   11.60    4.20
   1  11   5   22.80    4.00
  -2 -11  -5    2.70    3.40
  -2 -11  -5    2.90    2.30
   2  11   5    3.80    2.50
   2   8  -6   23.50    4.20
  -2  -8   6   18.30    3.20
  -2  -8   6   16.10    3.90
  -2  -8   6   25.90    5.60
  -1  -8   6    2.60    2.50
  -1  -8   6    8.20    2.90
  -1  -8   6    5.10    4.40
   0  -8   6   18.40    7.10
   0  -8   6   27.70    3.60
   0  -8   6   21.20    3.10
   0  -8   6   24.40    5.30
  -1   8  -6  295.47   18.60
   1  -8   6  256.97   19.40
   1  -8   6  268.67   18.80
   1  -8   6  219.18   23.20
  -3  -7   6  856.81   56.39
  -3  -7   6  792.82   57.69
   2   7  -6 1064.89   72.79
  -2  -7   6 1101.19   72.69
  -2  -7   6 1072.49   73.39
  -2  -7   6 1046.70   72.79
  -1  -7   6  168.18   11.50
  -1  -7   6  121.79   14.90
  -1  -7   6  159.28   13.10
  -1  -7   6  157.68   11.80
   0   7  -6  177.08   13.70
   0  -7   6  179.28   13.20
   0  -7   6  178.98   14.40
   0  -7   6  159.78   16.30
   0  -7   6  185.58   12.90
   1  -7   6  587.04   39.50
   1  -7   6  599.14   38.70
   1  -7   6  508.45   40.70
   1  -7   6  562.54   38.70
   2  -7   6  125.89   13.60
   2  -7   6  147.49   11.90
   2  -7   6  155.98   11.00
   4   6  -6 1073.79   64.09
  -4  -6   6  884.71   63.49
  -4  -6   6  911.81   62.99
  -4  -6   6  858.91   63.29
   3   6  -6   61.59    7.50
  -3  -6   6   59.69    6.50
  -3  -6   6   67.59    5.70
  -3  -6   6   56.99    8.30
  -3  -6   6   55.99    7.40
   2   6  -6  267.77   19.00
  -2  -6   6  269.17   20.10
  -2  -6   6  253.97   19.20
  -2  -6   6  271.27   18.90
  -1  -6   6  129.39    9.60
  -1  -6   6  137.29   11.40
  -1  -6   6  123.99   10.00
  -1  -6   6  109.79   13.10
   0  -6   6  375.16   25.20
   0  -6   6  363.56   26.20
   0  -6   6  380.26   25.40
   0  -6   6  331.97   27.60
   1  -6   6   10.30    2.50
   1  -6   6   14.30    2.60
   1  -6   6   18.70    6.10
   1  -6   6   11.10    4.90
   1  -6   6   14.30    3.70
  -2   6  -6  511.95   33.80
   2  -6   6  515.95   34.60
   2  -6   6  427.86   35.70
   2  -6   6  514.95   34.00
  -3   6  -6  162.58   11.60
   3  -6   6  174.28   12.10
   3  -6   6  138.99   14.20
   3  -6   6  163.38   12.80
   4   5  -6  643.74   40.90
  -4  -5   6  549.74   40.30
  -4  -5   6  591.44   39.80
  -4  -5   6  555.84   40.50
   3   5  -6  664.43   46.00
  -3  -5   6  644.14   45.80
  -3  -5   6  667.63   46.70
  -3  -5   6  689.43   45.50
  -3  -5   6  681.83   46.10
   2   5  -6   79.39    7.00
  -2  -5   6   82.79    6.10
  -2  -5   6   78.09    7.40
  -2  -5   6   55.39   11.10
  -2  -5   6   75.59    6.70
  -2  -5   6   72.69    8.80
  -1  -5   6  852.41   53.79
  -1  -5   6  806.42   53.59
  -1  -5   6  830.02   54.39
  -1  -5   6  662.13   55.09
   0  -5   6  449.36   31.00
   0  -5   6  477.75   30.40
   0  -5   6  453.25   30.20
   0  -5   6  379.56   32.00
   1  -5   6   90.59    6.90
   1  -5   6   93.89    8.20
   1  -5   6   80.09   10.00
   1  -5   6   93.29    7.20
   1  -5   6   69.19    9.30
   2  -5   6    3.50    4.00
   2  -5   6    3.90    3.50
   2  -5   6    3.10    2.50
   2  -5   6    1.10    3.50
   2  -5   6    1.40    4.50
   3  -5   6  189.68   18.40
   3  -5   6  260.47   17.50
   3  -5   6  256.87   16.80
   3  -5   6  228.38   18.70
   4  -5   6  173.28   20.60
   4  -5   6  226.78   18.10
   4  -5   6  238.08   16.10
   5   4  -6   21.10    4.70
  -5  -4   6   16.20    2.70
   4   4  -6  282.27   19.10
  -4  -4   6  254.37   17.80
  -4  -4   6  224.68   18.30
  -4  -4   6  260.07   18.70
  -3  -4   6    5.50    7.50
  -3  -4   6    6.20    3.60
   2   4  -6  256.97   17.80
  -2  -4   6  249.68   17.50
  -2  -4   6  245.78   17.80
  -2  -4   6  237.18   18.60
  -2  -4   6  253.47   17.20
   1   4  -6  288.87   23.70
  -1  -4   6  352.86   22.70
  -1  -4   6  349.67   22.30
  -1  -4   6  280.77   23.90
  -1  -4   6  353.76   23.40
  -1  -4   6  365.56   22.50
  -1  -4   6  279.77   24.20
   0   4  -6  105.49   10.00
   0   4  -6  106.89   10.30
   0  -4   6   89.39    9.30
   0  -4   6   92.09   10.00
   0  -4   6  112.49   10.40
   0  -4   6  118.89    9.00
   0  -4   6  127.69    8.10
   1  -4   6  404.26   27.60
   1  -4   6  409.86   26.90
   1  -4   6  420.26   27.10
   1  -4   6  351.26   28.20
   1  -4   6  380.06   28.70
   2  -4   6   10.70    4.20
   2  -4   6   13.70    3.90
   2  -4   6   13.80    3.40
   2  -4   6   14.80    2.60
   2  -4   6    8.90    3.20
  -3   4  -6  315.87   21.40
   3  -4   6  310.87   23.60
   3  -4   6  336.47   22.50
   3  -4   6  333.67   21.90
   3  -4   6  262.67   23.40
  -4   4  -6    4.90    2.00
   4  -4   6   13.70    3.50
   4  -4   6    8.90    5.20
   4  -4   6    6.90    3.90
   4  -4   6   11.00    5.00
   5   3  -6    3.00    3.80
  -5  -3   6    5.00    2.20
  -5  -3   6    2.80    3.50
   4   3  -6  124.39   10.20
  -4  -3   6  115.09    8.60
  -4  -3   6  115.29    9.90
  -4  -3   6  112.19    9.60
  -4  -3   6  111.89    9.50
  -3  -3   6  145.79   10.40
  -3  -3   6  144.49   11.10
  -3  -3   6  149.19   11.20
  -3  -3   6  145.19   10.80
  -3  -3   6  137.39   10.60
   2   3  -6 3128.09  206.18
  -2  -3   6 2927.71  206.48
  -2  -3   6 3128.09  205.88
  -2  -3   6 3053.59  206.08
  -2  -3   6 3084.09  206.18
  -2  -3   6 3029.60  206.18
   1   3  -6   78.09    6.70
   1   3  -6   68.29    7.60
  -1  -3   6   80.69    5.80
  -1  -3   6   63.89    8.40
  -1  -3   6   69.49    7.00
  -1  -3   6   77.29    5.50
  -1  -3   6   67.79    5.60
  -1  -3   6   77.59    6.10
   0   3  -6  517.05   35.10
   0   3  -6  491.95   35.20
   0   3  -6  564.34   34.70
   0  -3   6  506.05   34.90
   0  -3   6  531.35   34.30
   0  -3   6  425.26   35.50
   0  -3   6  511.75   34.80
   0  -3   6  529.25   34.40
   0  -3   6  531.75   34.50
   0  -3   6  450.05   35.30
  -1   3  -6  129.19   10.50
  -1   3  -6  135.49   10.40
  -1   3  -6  133.49    9.90
   1  -3   6  133.69    9.40
   1  -3   6  133.79   10.20
   1  -3   6  130.49    9.60
   1  -3   6  130.49   10.10
   1  -3   6  128.39   10.80
   1  -3   6  133.19   11.10
   2  -3   6    7.20    2.00
   2  -3   6    8.40    2.70
   2  -3   6    8.00    3.30
   2  -3   6    5.80    2.60
   2  -3   6    9.30    3.20
   3  -3   6   96.79    8.00
   3  -3   6   82.69    9.20
   3  -3   6   72.99    8.30
   3  -3   6  102.79    7.40
   3  -3   6   93.09    9.00
   3  -3   6  103.99   11.10
  -4   3  -6  629.94   41.50
   4  -3   6  665.63   42.40
   4  -3   6  631.54   43.30
   4  -3   6  637.34   46.90
   4  -3   6  503.95   43.10
  -5   3  -6   84.29    6.30
   5  -3   6   65.29   12.60
   5  -3   6   99.69    9.90
   5  -3   6   81.09    9.70
   5   2  -6  814.62   54.29
  -5  -2   6  771.82   53.19
  -5  -2   6  768.72   53.39
   4   2  -6  136.89   10.50
  -4  -2   6  107.79    9.50
  -4  -2   6  120.09    9.40
  -4  -2   6  115.89    8.90
   3   2  -6  653.93   40.20
  -3  -2   6  574.54   39.20
  -3  -2   6  539.55   39.30
  -3  -2   6  560.64   39.70
  -3  -2   6  588.34   39.60
  -3  -2   6  548.15   39.30
   2   2  -6 1485.75  105.89
   2   2  -6 1530.05  106.29
  -2  -2   6 1647.44  105.89
  -2  -2   6 1588.44  106.39
  -2  -2   6 1599.84  105.99
  -2  -2   6 1393.06  105.89
  -2  -2   6 1582.74  105.89
  -2  -2   6 1652.43  106.19
  -2  -2   6 1655.53  106.09
   1   2  -6  273.67   19.10
   1   2  -6  295.97   19.50
  -1  -2   6  285.47   19.40
  -1  -2   6  255.47   19.10
  -1  -2   6  287.47   19.20
  -1  -2   6  284.07   19.30
   0   2  -6  400.86   25.70
   0   2  -6  417.76   26.00
   0   2  -6  369.16   25.80
   0   2  -6  372.26   26.40
   0   2  -6  391.46   26.30
   0  -2   6  401.96   25.80
   0  -2   6  411.06   26.20
   0  -2   6  376.36   26.60
   0  -2   6  378.96   25.90
   0  -2   6  337.97   26.20
   0  -2   6  363.16   25.90
   0  -2   6  330.87   26.80
  -1   2  -6  646.74   43.50
  -1   2  -6  679.13   43.80
  -1   2  -6  602.24   43.90
  -1   2  -6  672.53   44.10
   1  -2   6  710.63   43.60
   1  -2   6  597.34   43.60
   1  -2   6  597.04   44.00
   1  -2   6  630.54   44.50
   1  -2   6  703.03   44.10
   1  -2   6  604.04   43.50
   1  -2   6  634.14   44.30
  -2   2  -6 1766.62  116.09
  -2   2  -6 1744.73  115.79
   2  -2   6 1697.13  115.49
   2  -2   6 1786.92  116.49
   2  -2   6 1758.32  115.99
   2  -2   6 1765.92  116.29
   2  -2   6 1561.74  115.39
   2  -2   6 1614.44  115.69
   3  -2   6   74.79    7.40
   3  -2   6   62.19    6.10
   3  -2   6   64.39    6.20
   3  -2   6   62.29    6.90
   3  -2   6   65.79    9.50
   3  -2   6   78.59    7.20
  -4   2  -6  157.58   11.00
   4  -2   6  135.59   13.30
   4  -2   6  158.88   13.00
   4  -2   6  168.08   12.00
  -5   2  -6  374.56   25.00
   5  -2   6  356.26   26.70
   5  -2   6  366.76   25.80
   5   1  -6  267.87   19.20
   5   1  -6  271.67   19.90
  -5  -1   6  256.97   18.40
  -5  -1   6  265.47   18.80
   4   1  -6   61.49    9.30
  -4  -1   6   62.09    6.40
  -4  -1   6   57.29    5.10
  -4  -1   6   53.59    7.00
  -4  -1   6   55.49    5.90
   3   1  -6  446.06   27.80
  -3  -1   6  366.56   27.00
  -3  -1   6  360.26   26.90
  -3  -1   6  406.56   27.20
  -3  -1   6  388.76   26.80
   2   1  -6   18.50    2.70
   2   1  -6   14.80    2.40
  -2  -1   6   18.40    2.30
  -2  -1   6   17.60    3.20
  -2  -1   6   15.60    2.00
  -2  -1   6   16.40    2.10
  -2  -1   6   13.20    1.90
  -2  -1   6   18.40    2.10
   1   1  -6  692.53   47.50
   1   1  -6  753.72   47.80
  -1  -1   6  689.53   47.90
  -1  -1   6  671.83   47.60
  -1  -1   6  676.83   47.50
  -1  -1   6  690.83   47.50
  -1  -1   6  694.13   47.60
  -1  -1   6  725.43   47.70
  -1  -1   6  729.23   47.50
   0   1  -6   91.59    6.60
   0   1  -6   94.39    6.80
   0   1  -6  101.69    6.90
   0   1  -6   83.99    7.10
   0   1  -6   95.89    6.60
   0  -1   6   79.09    6.80
   0  -1   6   98.89    6.90
   0  -1   6   96.39    6.60
   0  -1   6   94.69    7.60
   0  -1   6   85.99    6.70
   0  -1   6   96.29    6.90
   0  -1   6   79.29    7.80
   0  -1   6   99.59    6.60
  -1   1  -6  292.27   19.40
  -1   1  -6  283.37   19.10
  -1   1  -6  296.47   19.50
  -1   1  -6  285.07   19.10
  -1   1  -6  257.87   19.30
   1  -1   6  233.48   19.20
   1  -1   6  299.27   19.20
   1  -1   6  242.68   19.10
   1  -1   6  290.57   19.80
   1  -1   6  267.17   20.00
   1  -1   6  314.67   20.10
   1  -1   6  302.17   19.50
  -2   1  -6  427.36   29.30
  -2   1  -6  441.36   29.50
   2  -1   6  439.36   29.80
   2  -1   6  451.95   29.70
   2  -1   6  363.56   30.70
   2  -1   6  439.06   29.80
   2  -1   6  434.76   29.40
   2  -1   6  448.66   29.00
   2  -1   6  370.76   29.20
  -3   1  -6  716.43   51.99
   3  -1   6  699.73   52.79
   3  -1   6  884.01   53.29
   3  -1   6  814.32   52.49
   3  -1   6  734.73   52.69
  -4   1  -6   55.99    5.30
   4  -1   6   61.69    7.40
   4  -1   6   58.59    6.20
   4  -1   6   70.49    7.50
   4  -1   6   54.19    7.00
  -5   1  -6    1.50    1.40
  -5   1  -6   -2.10    3.30
   5  -1   6    1.70    3.80
   5  -1   6    0.80    6.30
   5  -1   6    1.10    3.90
   5  -1   6   -2.70    2.90
   5  -1   6   -1.00    3.70
   5   0  -6   93.19    9.90
   5   0  -6   96.79    8.70
  -5   0   6  100.09    7.70
  -5   0   6  110.79    8.20
   4   0  -6  155.78   12.50
  -4   0   6  137.89   11.50
  -4   0   6  161.68   11.90
  -4   0   6  146.09   11.80
  -4   0   6  149.49   10.50
  -4   0   6  145.79   11.00
  -4   0   6  133.59   11.00
   3   0  -6    7.70    2.50
  -3   0   6    4.50    1.70
  -3   0   6    4.40    2.00
  -3   0   6    2.70    1.50
  -3   0   6    6.40    1.40
  -3   0   6    1.50    1.60
   2   0  -6  682.23   47.00
   2   0  -6  719.83   47.30
  -2   0   6  712.93   46.90
  -2   0   6  694.83   47.00
  -2   0   6  644.64   46.90
  -2   0   6  704.63   46.90
  -2   0   6  715.63   47.00
  -2   0   6  726.03   47.10
  -2   0   6  695.23   47.00
  -2   0   6  640.34   46.90
   1   0  -6 2390.76  165.28
   1   0  -6 2357.86  165.38
   1   0  -6 2639.94  165.48
  -1   0   6 2518.35  165.38
  -1   0   6 2555.14  165.48
  -1   0   6 2553.64  165.38
  -1   0   6 2464.65  165.38
  -1   0   6 2371.26  165.58
  -1   0   6 2306.97  165.28
  -1   0   6 2240.18  165.38
  -1   0   6 2461.55  165.48
  -1   0   6 2629.34  165.48
   0   0  -6   75.39    5.20
   0   0  -6   73.59    5.30
   0   0  -6   71.59    5.30
   0   0  -6   75.79    5.30
   0   0   6   73.49    5.60
   0   0   6   66.39    5.60
   0   0   6   72.19    5.50
   0   0   6   74.09    5.30
   0   0   6   72.99    5.20
   0   0   6   69.39    5.40
   0   0   6   74.39    6.10
   0   0   6   76.19    5.30
  -1   0  -6  421.66   28.00
  -1   0  -6  405.16   28.00
   1   0   6  416.86   28.60
   1   0   6  365.96   27.80
   1   0   6  424.16   28.30
   1   0   6  386.36   28.40
   1   0   6  428.96   28.00
   1   0   6  424.16   27.80
  -2   0  -6  437.16   28.20
  -2   0  -6  395.36   28.60
   2   0   6  446.76   29.30
   2   0   6  427.66   28.00
   2   0   6  355.46   28.10
   2   0   6  338.47   28.30
   2   0   6  416.96   28.30
   2   0   6  430.46   28.80
   2   0   6  444.96   28.60
  -3   0  -6    7.90    3.10
  -3   0  -6    1.90    3.20
   3   0   6    7.40    2.30
   3   0   6    6.50    2.00
   3   0   6    7.10    2.90
   3   0   6    9.30    2.60
   3   0   6   10.70    2.60
   3   0   6   11.10    2.10
   3   0   6   12.80    5.00
  -4   0  -6  117.19    8.30
   4   0   6  110.49    8.90
   4   0   6  106.39    9.80
   4   0   6  118.99    9.80
   4   0   6  109.69    9.80
  -5   0  -6  128.29    9.00
  -5   0  -6  127.09    9.40
   5   0   6  116.69   10.80
   5   0   6  127.29   10.00
   5   0   6  131.29   11.10
   5   0   6  113.79   13.10
   5  -1  -6  952.50   62.99
   5  -1  -6  898.91   62.29
  -5   1   6  942.11   61.89
  -5   1   6  872.21   61.69
  -5   1   6  888.11   61.59
   4  -1  -6  811.62   50.59
   4  -1  -6  738.73   50.79
  -4   1   6  679.33   49.20
  -4   1   6  693.63   49.30
  -4   1   6  680.83   49.40
  -4   1   6  729.73   49.20
  -4   1   6  683.93   49.90
  -4   1   6  797.72   50.09
   3  -1  -6 1104.49   67.39
  -3   1   6  991.70   66.59
  -3   1   6  998.80   66.59
  -3   1   6 1008.90   66.59
  -3   1   6  982.80   66.39
  -3   1   6  892.61   66.49
  -3   1   6  993.40   66.99
  -3   1   6  990.40   66.59
  -3   1   6  933.91   66.99
  -3   1   6  937.71   66.39
   2  -1  -6   83.59    6.60
   2  -1  -6   71.69    5.50
   2  -1  -6   73.59    6.00
  -2   1   6   84.39    5.80
  -2   1   6   77.89    5.70
  -2   1   6   62.99    5.90
  -2   1   6   73.89    5.40
  -2   1   6   73.99    5.40
  -2   1   6   69.79    5.30
  -2   1   6   65.29    5.40
  -2   1   6   75.09    5.60
  -2   1   6   71.89    5.60
   1  -1  -6 1963.70  122.89
   1  -1  -6 1543.05  122.79
   1  -1  -6 1809.42  122.89
  -1   1   6 1540.55  122.89
  -1   1   6 1859.51  122.89
  -1   1   6 1886.41  122.89
  -1   1   6 1985.20  123.19
  -1   1   6 1861.91  122.89
  -1   1   6 1993.70  122.89
  -1   1   6 1912.91  122.79
  -1   1   6 1897.61  122.99
  -1   1   6 1689.63  122.69
  -1   1   6 1767.92  122.79
   0  -1  -6 2948.30  192.08
   0  -1  -6 2890.71  192.18
   0  -1  -6 2781.32  192.18
   0  -1  -6 2803.72  192.08
   0   1   6 2923.11  191.98
   0   1   6 2835.12  192.08
   0   1   6 3094.99  192.08
   0   1   6 3097.69  192.28
   0   1   6 2808.52  191.98
   0   1   6 2747.93  191.98
   0   1   6 2860.91  192.28
   0   1   6 2870.91  192.68
   0   1   6 2589.14  191.98
   0   1   6 2678.93  192.18
  -1  -1  -6   13.00    1.40
  -1  -1  -6    8.30    1.50
  -1  -1  -6   10.10    1.60
   1   1   6    9.20    1.40
   1   1   6   10.00    1.10
   1   1   6   11.90    1.30
   1   1   6   10.40    1.90
   1   1   6    5.00    1.90
   1   1   6   14.50    2.70
   1   1   6    7.80    1.60
   1   1   6    9.10    2.10
  -2  -1  -6  125.29    8.90
  -2  -1  -6  126.29    9.00
   2   1   6  132.99    9.40
   2   1   6  120.99    9.20
   2   1   6  103.89    9.30
   2   1   6  127.89    9.80
   2   1   6  122.49    8.70
   2   1   6  122.19    8.90
   2   1   6  110.69    9.10
  -3  -1  -6  784.82   50.49
  -3  -1  -6  787.42   50.79
   3   1   6  801.52   50.69
   3   1   6  746.03   50.49
   3   1   6  631.64   50.39
   3   1   6  734.43   50.19
   3   1   6  687.03   50.49
   3   1   6  683.53   50.19
   3   1   6  709.43   51.29
   3   1   6  822.52   50.89
  -4  -1  -6  338.17   23.50
   4   1   6  366.26   24.60
   4   1   6  323.07   24.40
   4   1   6  351.66   24.50
   4   1   6  331.07   23.90
  -5  -1  -6    1.70    2.00
   5   1   6    2.30    3.20
   5   1   6   -0.60    3.50
   5   1   6    1.40    3.10
   5   1   6   -0.70    4.70
   5   1   6   -2.30    7.60
  -6  -1  -6  137.29    9.00
  -6  -1  -6  135.29    9.50
   6   1   6  108.99    9.90
   6   1   6  119.99   11.20
   6   1   6  111.29   10.60
   5  -2  -6  297.67   22.70
   5  -2  -6  292.67   21.70
  -5   2   6  301.47   21.00
  -5   2   6  316.07   21.20
   4  -2  -6  157.58   11.70
  -4   2   6  140.39   10.40
  -4   2   6  147.89   11.00
  -4   2   6  131.19   11.60
  -4   2   6  132.79   10.80
   3  -2  -6 1487.55   90.09
  -3   2   6 1341.27   89.29
  -3   2   6 1313.87   89.19
  -3   2   6 1205.68   89.19
  -3   2   6 1315.67   89.29
  -3   2   6 1302.17   89.29
  -3   2   6 1303.87   89.09
  -3   2   6 1303.07   89.59
   2  -2  -6 1290.97   81.69
   2  -2  -6 1208.58   81.39
  -2   2   6 1197.88   81.09
  -2   2   6 1233.38   81.09
  -2   2   6 1135.29   80.99
  -2   2   6 1163.48   80.99
  -2   2   6 1181.68   81.09
   1  -2  -6  107.19    7.70
   1  -2  -6  107.89    7.90
   1  -2  -6  105.79    7.40
  -1   2   6   96.79    7.30
  -1   2   6  111.49    7.70
  -1   2   6  112.59    7.60
  -1   2   6  111.59    7.60
  -1   2   6  111.29    7.50
  -1   2   6  112.19    7.90
  -1   2   6  108.19    7.60
  -1   2   6  105.39    7.60
  -1   2   6   93.39    7.80
  -1   2   6  108.39    7.70
   0  -2  -6   16.10    2.40
   0  -2  -6   15.10    1.70
   0  -2  -6   18.30    1.80
   0   2   6   12.60    1.50
   0   2   6   15.20    1.60
   0   2   6   16.10    2.40
   0   2   6   15.00    2.00
   0   2   6   12.40    1.90
   0   2   6   17.00    1.50
   0   2   6   14.10    2.80
   0   2   6   16.10    3.00
  -1  -2  -6 2607.24  163.88
  -1  -2  -6 2644.04  163.78
   1   2   6 2297.27  163.88
   1   2   6 2474.95  163.68
   1   2   6 2436.16  164.38
   1   2   6 2555.84  164.08
   1   2   6 2516.75  164.08
   1   2   6 2366.26  163.58
   1   2   6 2204.68  163.78
   1   2   6 2469.85  163.78
   1   2   6 2167.38  163.88
  -2  -2  -6  139.79    9.60
  -2  -2  -6  147.79    9.70
   2   2   6  133.79    9.80
   2   2   6  112.59    9.00
   2   2   6  124.49    9.90
   2   2   6  130.99    9.70
   2   2   6  111.99    9.50
   2   2   6  134.99    9.40
   2   2   6  133.69   10.50
   2   2   6  143.59   10.00
   2   2   6  141.89    9.60
  -3  -2  -6   16.50    3.10
  -3  -2  -6   17.40    3.00
   3   2   6   20.70    3.50
   3   2   6   14.10    2.60
   3   2   6   16.10    3.10
   3   2   6   17.10    2.30
   3   2   6   19.70    5.20
   3   2   6   13.40    2.60
   3   2   6   17.30    2.70
   3   2   6   14.60    2.60
  -4  -2  -6 1083.89   69.49
  -4  -2  -6  982.90   69.59
   4   2   6 1045.50   70.09
   4   2   6 1113.19   70.19
   4   2   6  916.91   69.89
   4   2   6 1016.60   69.69
  -5  -2  -6  791.72   51.79
   5   2   6  730.43   51.99
   5   2   6  700.83   52.49
   5   2   6  822.72   52.79
  -6  -2  -6    1.20    2.40
  -6  -2  -6   -2.20    2.10
   6   2   6    1.30    3.70
   6   2   6    1.30    4.00
   6   2   6   -1.80    4.00
   5  -3  -6  356.46   26.50
   5  -3  -6  356.96   27.40
  -5   3   6  382.76   25.70
  -5   3   6  396.86   25.90
   4  -3  -6   82.89    9.70
   4  -3  -6   89.39    8.10
  -4   3   6   87.99    6.90
  -4   3   6   97.29    7.30
   3  -3  -6  924.21   62.39
   3  -3  -6  962.10   61.99
  -3   3   6  851.31   61.19
  -3   3   6  874.91   61.29
  -3   3   6  922.41   61.39
   2  -3  -6  157.18   12.20
   2  -3  -6  189.18   12.70
   2  -3  -6  184.58   13.40
  -2   3   6  173.58   12.10
  -2   3   6  179.48   12.20
  -2   3   6  185.78   12.20
  -2   3   6  179.88   12.60
  -2   3   6  168.78   12.20
  -2   3   6  161.18   12.00
  -2   3   6  169.28   12.00
  -2   3   6  169.18   12.10
  -2   3   6  167.28   12.10
   1  -3  -6  518.95   34.10
   1  -3  -6  489.45   34.20
   1  -3  -6  539.85   34.40
  -1   3   6  483.05   34.10
  -1   3   6  476.55   34.00
  -1   3   6  508.45   33.90
  -1   3   6  437.36   33.80
  -1   3   6  517.25   34.00
  -1   3   6  517.55   34.00
  -1   3   6  524.75   34.00
   0  -3  -6  747.03   48.20
   0  -3  -6  712.53   48.70
   0  -3  -6  719.73   48.30
   0  -3  -6  742.03   48.60
   0   3   6  642.74   48.30
   0   3   6  707.83   48.20
   0   3   6  699.63   48.30
   0   3   6  696.63   48.90
   0   3   6  713.53   48.10
   0   3   6  720.63   48.20
   0   3   6  739.63   48.20
  -1  -3  -6  613.94   38.00
  -1  -3  -6  507.05   37.90
   1   3   6  507.65   37.80
   1   3   6  546.95   38.50
   1   3   6  579.04   37.80
   1   3   6  570.84   37.70
   1   3   6  548.05   38.00
   1   3   6  555.74   37.90
   1   3   6  589.34   37.90
  -2  -3  -6 1405.06   88.39
  -2  -3  -6 1489.55   88.39
  -2  -3  -6 1127.19   88.19
   2   3   6 1426.76   88.29
   2   3   6 1170.48   87.89
   2   3   6 1285.97   88.29
   2   3   6 1315.37   88.39
   2   3   6 1228.88   88.99
  -3  -3  -6   35.10    4.90
  -3  -3  -6   34.00    4.20
  -3  -3  -6   35.60    4.70
   3   3   6   38.90    4.40
   3   3   6   36.70    4.20
   3   3   6   37.70    7.50
   3   3   6   36.10    4.40
   3   3   6   37.60    4.50
  -4  -3  -6  117.19    9.90
  -4  -3  -6  121.69    9.20
   4   3   6  139.39   10.30
   4   3   6  121.39   10.10
   4   3   6  137.59   10.30
   4   3   6  115.19   10.10
   5   3   6  392.46   24.60
   5   3   6  344.97   24.30
   5   3   6  290.37   24.10
   5   3   6  326.47   23.90
  -6  -3  -6  327.97   21.20
   6   3   6  272.17   22.10
   6   3   6  318.67   22.30
   5  -4  -6   54.09    9.60
   5  -4  -6   57.49    7.30
  -5   4   6   49.70    7.70
  -5   4   6   65.19    5.30
   4  -4  -6   56.29    9.10
  -4   4   6   64.39    5.40
  -4   4   6   65.69    5.70
   3  -4  -6  181.88   15.10
   3  -4  -6  195.08   14.00
  -3   4   6  189.98   13.10
  -3   4   6  182.08   13.20
  -3   4   6  185.68   13.30
   2  -4  -6 1601.64  119.39
   2  -4  -6 1951.80  119.99
   2  -4  -6 1721.33  120.19
  -2   4   6 1766.42  119.39
  -2   4   6 1814.62  119.29
  -2   4   6 1863.61  119.39
  -2   4   6 1673.23  119.39
   1  -4  -6  165.18   12.20
   1  -4  -6  182.38   12.60
   1  -4  -6  177.48   11.90
   1  -4  -6  161.78   11.80
  -1   4   6  169.28   11.80
  -1   4   6  169.68   11.80
  -1   4   6  176.88   12.00
  -1   4   6  165.38   11.90
   0  -4  -6  207.98   16.10
   0  -4  -6  244.78   15.60
   0  -4  -6  239.88   15.80
   0   4   6  233.48   15.50
   0   4   6  228.08   15.50
   0   4   6  225.88   15.70
   0   4   6  211.98   15.60
   0   4   6  204.28   16.20
   0   4   6  234.58   15.60
  -1  -4  -6  353.16   22.60
  -1  -4  -6  337.67   22.70
  -1  -4  -6  359.76   22.50
   1   4   6  317.97   22.50
   1   4   6  320.77   22.50
   1   4   6  329.17   22.30
   1   4   6  289.67   23.10
   1   4   6  325.47   22.40
   1   4   6  314.67   22.50
  -2  -4  -6  341.97   22.40
  -2  -4  -6  319.17   22.40
  -2  -4  -6  329.47   22.40
   2   4   6  322.17   22.10
   2   4   6  331.87   22.40
   2   4   6  319.67   22.30
   2   4   6  334.57   22.30
   2   4   6  326.27   22.50
   2   4   6  289.67   21.90
   2   4   6  277.57   23.20
   2   4   6  354.36   22.30
  -3  -4  -6  133.09   10.30
   3   4   6  136.99   10.50
   3   4   6  137.69   10.40
   3   4   6  143.89   10.40
   3   4   6  130.79   10.20
  -4  -4  -6   10.10    2.00
  -4  -4  -6   13.10    3.00
   4   4   6   22.50    3.60
   4   4   6   15.90    3.10
   4   4   6   20.90    3.90
   4   4   6   17.80    3.40
  -5  -4  -6  239.98   15.50
  -5  -4  -6  220.18   16.30
   5   4   6  181.98   16.10
   5   4   6  231.38   16.40
   5   4   6  186.88   16.10
   5   4   6  241.88   16.50
  -6  -4  -6    3.90    2.40
  -6  -4  -6    0.50    3.50
   6   4   6    5.50    4.10
   6   4   6    1.90    3.80
   5  -5  -6   98.49   11.90
   5  -5  -6  101.39    9.20
   4  -5  -6 1554.14  106.99
   4  -5  -6 1428.26  106.39
   4  -5  -6 1498.45  107.49
  -4   5   6 1743.53  106.29
  -4   5   6 1634.44  106.19
   3  -5  -6   96.89    8.70
   3  -5  -6   98.79    8.20
   3  -5  -6   90.69   10.50
  -3   5   6   99.59    7.60
  -3   5   6   98.59    7.30
  -3   5   6   99.79    7.60
   2  -5  -6   75.59    9.50
   2  -5  -6   87.79    7.30
  -2   5   6   83.29    6.40
  -2   5   6   79.89    6.10
   1  -5  -6 3049.40  187.08
   1  -5  -6 2754.32  187.38
   1  -5  -6 2646.04  186.78
  -1   5   6 2600.34  186.78
  -1   5   6 2819.22  186.78
  -1   5   6 2775.92  186.88
   0  -5  -6   28.10    4.40
   0  -5  -6   30.70    3.50
   0  -5  -6   30.90    2.90
   0  -5  -6   32.20    3.80
   0   5   6   32.10    3.20
   0   5   6   29.20    3.40
   0   5   6   32.70    4.60
   0   5   6   29.00    3.10
   0   5   6   27.40    3.10
   0   5   6   31.20    2.90
   0   5   6   29.20    3.00
  -1  -5  -6  148.49   10.30
  -1  -5  -6  141.89   10.50
  -1  -5  -6  151.18   10.00
   1   5   6  125.99   11.00
   1   5   6  133.99   10.00
   1   5   6  139.09   10.50
   1   5   6  147.59   10.20
   1   5   6  154.48   10.10
   1   5   6  124.89   10.20
   1   5   6  142.79   10.00
  -2  -5  -6  941.01   61.29
  -2  -5  -6  930.31   61.19
  -2  -5  -6  975.50   61.39
   2   5   6  939.41   61.29
   2   5   6  881.11   61.29
   2   5   6  852.21   60.89
   2   5   6  948.41   61.19
   2   5   6  871.01   60.99
   2   5   6  779.42   61.99
  -3  -5  -6 2326.67  150.98
  -3  -5  -6 2191.48  150.68
   3   5   6 2331.17  150.98
   3   5   6 2261.97  151.08
   3   5   6 1985.80  150.88
   3   5   6 2313.57  150.98
  -4  -5  -6    2.70    1.80
  -4  -5  -6    0.90    2.70
   4   5   6    1.30    3.00
   4   5   6   -1.50    3.00
   4   5   6   -0.90    2.80
  -5  -5  -6   -1.30    3.80
  -5  -5  -6    4.00    2.00
   5   5   6    0.10    3.10
   5   5   6   -3.50    2.70
   5   5   6   -4.90    3.40
   4  -6  -6  364.86   26.90
   4  -6  -6  345.87   28.20
  -4   6   6  405.96   25.80
  -4   6   6  379.86   26.10
   3  -6  -6  999.00   70.99
   3  -6  -6  937.51   72.29
   3  -6  -6  986.30   71.69
  -3   6   6 1164.18   70.99
  -3   6   6 1133.59   70.79
   2  -6  -6    3.20    2.50
   2  -6  -6    6.20    2.60
   2  -6  -6    6.50    5.50
  -2   6   6    8.70    1.80
  -2   6   6    5.80    1.50
   1  -6  -6    1.80    2.30
   1  -6  -6    2.30    1.90
   1  -6  -6   -0.90    2.40
  -1   6   6    3.40    1.20
  -1   6   6    1.00    1.40
  -1   6   6    4.30    4.10
  -1   6   6   -1.00    1.60
   0  -6  -6  783.62   52.99
   0  -6  -6  790.82   53.49
   0  -6  -6  770.42   53.19
   0  -6  -6  894.11   53.49
   0  -6  -6  715.13   53.59
   0   6   6  723.83   53.49
   0   6   6  846.42   53.19
   0   6   6  826.32   52.99
   0   6   6  788.72   53.09
   0   6   6  687.63   53.09
  -1  -6  -6  468.25   30.60
  -1  -6  -6  435.96   30.20
  -1  -6  -6  444.96   30.60
   1   6   6  460.25   30.40
   1   6   6  390.26   31.00
   1   6   6  453.35   30.30
   1   6   6  446.56   30.20
   1   6   6  438.76   30.30
  -2  -6  -6    7.90    2.60
  -2  -6  -6    8.70    2.60
  -2  -6  -6    6.30    2.50
   2   6   6    4.90    1.80
   2   6   6    5.50    2.40
   2   6   6    9.00    2.10
   2   6   6    8.20    5.40
   2   6   6    7.60    2.50
  -3  -6  -6  426.06   28.80
  -3  -6  -6  423.76   28.90
   3   6   6  421.46   28.90
   3   6   6  436.46   28.90
   3   6   6  375.86   28.80
   3   6   6  411.56   29.00
  -4  -6  -6  776.52   53.29
  -4  -6  -6  826.72   53.79
   4   6   6  746.33   53.79
   4   6   6  781.62   53.79
   4   6   6  795.82   53.99
  -5  -6  -6   35.30    4.50
  -5  -6  -6   50.49    6.50
   5   6   6   33.30    4.70
   5   6   6   33.10    5.50
   5   6   6   35.50    5.10
   4  -7  -6   50.79    8.80
   4  -7  -6   32.60    5.60
  -4   7   6   54.29    4.50
  -4   7   6   42.00    5.30
   3  -7  -6   18.80    4.20
   3  -7  -6   21.30    7.20
   3  -7  -6   24.10    4.10
  -3   7   6   30.40    3.80
  -3   7   6   29.30    3.30
   2  -7  -6  648.94   49.40
   2  -7  -6  748.73   48.70
   1  -7  -6  315.57   22.40
   1  -7  -6  297.67   23.00
  -1   7   6  331.27   22.10
  -1   7   6  325.37   21.90
  -1   7   6  316.37   22.00
   0  -7  -6  349.96   23.90
   0  -7  -6  319.07   24.20
   0   7   6  332.67   23.40
   0   7   6  344.07   23.50
   0   7   6  347.87   23.30
  -1  -7  -6  321.47   22.10
  -1  -7  -6  280.37   22.40
  -1  -7  -6  315.97   22.00
   1   7   6  311.67   21.80
   1   7   6  309.97   21.60
   1   7   6  331.77   21.80
  -2  -7  -6 1494.65   97.49
  -2  -7  -6 1495.25   97.49
   2   7   6 1394.56   97.49
   2   7   6 1343.57   97.29
   2   7   6 1467.65   97.49
  -3  -7  -6   34.50    4.20
  -3  -7  -6   31.40    4.20
  -3  -7  -6   33.60    5.10
   3   7   6   28.20    4.00
   3   7   6   31.20    4.70
   3   7   6   39.80    5.00
   3   7   6   35.30    4.50
  -4  -7  -6    3.80    3.30
  -4  -7  -6    6.90    2.40
   4   7   6   -0.10    2.90
   4   7   6    2.50    3.40
   4   7   6    2.00    3.60
  -5  -7  -6  167.68   12.60
  -5  -7  -6  146.99   13.80
   5   7   6  146.99   12.50
   5   7   6  169.78   12.60
   3  -8  -6  638.04   46.00
   3  -8  -6  630.74   45.30
  -3   8   6  713.63   45.30
  -3   8   6  670.93   45.10
   2  -8  -6  145.09   12.20
   2  -8  -6  143.79   11.50
   2  -8  -6  127.79   11.30
  -2   8   6  155.88   10.80
  -2   8   6  140.89   10.40
   1  -8  -6   33.80    4.90
   1  -8  -6   35.80    7.20
  -1   8   6   46.60    4.50
   0  -8  -6   87.09    7.90
   0  -8  -6   83.99    8.10
   0  -8  -6   75.09    8.60
   0   8   6   84.99    6.90
   0   8   6   84.99    6.90
   0   8   6   87.59    6.90
   0   8   6   89.69    6.90
  -1  -8  -6  544.95   35.00
  -1  -8  -6  498.05   34.80
  -1  -8  -6  482.35   35.20
   1   8   6  470.85   34.50
   1   8   6  514.15   34.70
   1   8   6  515.55   34.70
  -2  -8  -6   29.20    4.60
  -2  -8  -6   17.30    3.60
  -2  -8  -6   29.80    4.20
   2   8   6   35.60    5.00
   2   8   6   28.00    3.90
   2   8   6   26.30    3.50
  -3  -8  -6   12.20    3.50
  -3  -8  -6   14.70    4.00
  -3  -8  -6   24.20    4.00
   3   8   6   16.80    3.10
   3   8   6   16.50    3.30
   3   8   6   17.00    3.70
   3   8   6   16.30    3.70
  -4  -8  -6  313.87   21.40
  -4  -8  -6  288.47   21.10
  -4  -8  -6  320.97   21.60
   4   8   6  302.77   21.90
   4   8   6  274.67   21.30
   4   8   6  290.67   21.30
  -5  -8  -6   31.70    4.20
   5   8   6   28.30    5.00
   5   8   6   15.00    4.70
   5   8   6   22.80    4.20
   3  -9  -6   10.90    3.50
   3  -9  -6   14.50    3.60
  -3   9   6   17.60    2.70
  -3   9   6   20.90    2.70
   2  -9  -6  624.44   45.60
   2  -9  -6  655.43   46.30
   2  -9  -6  622.74   45.50
  -2   9   6  675.63   45.20
  -2   9   6  748.53   45.50
   1  -9  -6  500.95   37.60
   1  -9  -6  547.95   38.40
  -1   9   6  551.34   37.30
  -1   9   6  554.14   37.40
  -1   9   6  571.84   37.50
   0  -9  -6   62.69    6.50
   0  -9  -6   47.30    7.70
   0   9   6   50.89    5.50
   0   9   6   54.49    5.40
   0   9   6   55.59    5.30
  -1  -9  -6   26.90    4.00
  -1  -9  -6   22.00    5.00
  -1  -9  -6   23.20    4.30
   1   9   6   26.00    3.90
   1   9   6   25.80    4.30
  -2  -9  -6  537.55   34.50
  -2  -9  -6  502.75   34.60
  -2  -9  -6  475.95   34.10
   2   9   6  462.95   34.40
   2   9   6  514.05   34.40
  -3  -9  -6  197.08   14.30
  -3  -9  -6  206.28   14.00
   3   9   6  174.18   14.10
   3   9   6  196.58   14.10
   3   9   6  152.88   14.30
   3   9   6  189.18   13.80
  -4  -9  -6   87.19    8.50
  -4  -9  -6   82.89    8.10
   4   9   6   82.09    8.30
   4   9   6   77.69    7.50
   2 -10  -6   41.70    6.00
  -2  10   6   37.80    4.20
  -2  10   6   34.60    4.30
   1 -10  -6  121.79   10.40
   1 -10  -6  132.59   11.40
  -1  10   6  132.79   10.30
  -1  10   6  135.99   10.00
  -1  10   6  132.19    9.90
   0 -10  -6  707.23   47.00
   0 -10  -6  656.33   46.30
   0  10   6  668.93   46.20
   0  10   6  673.83   46.20
  -1 -10  -6   -0.70    2.10
  -1 -10  -6    1.20    3.10
  -1 -10  -6   -8.80    4.90
   1  10   6   -1.60    2.50
   1  10   6   -0.70    2.20
  -2 -10  -6   37.10    5.60
  -2 -10  -6   37.70    5.40
  -2 -10  -6   37.70    5.20
   2  10   6   29.10    4.40
   2  10   6   43.50    4.70
  -3 -10  -6  591.74   40.40
  -3 -10  -6  606.44   41.20
   3  10   6  584.94   40.00
   3  10   6  553.54   40.30
   0 -11  -6    2.20    4.80
   0 -11  -6    4.40    2.70
   0 -11  -6    7.80    2.20
   0  11   6    9.10    2.60
   0  11   6   10.20    2.70
  -1 -11  -6   66.89    6.30
  -1 -11  -6   72.49    6.10
   1  11   6   55.09    6.60
   1  11   6   61.59    5.90
  -2 -11  -6    8.10    3.30
   2  11   6   10.80    2.80
   1   8  -7   14.70    7.80
  -1  -8   7   14.90    3.40
  -1  -8   7   17.90    5.10
  -1  -8   7   16.40    3.10
   0  -8   7  154.28   11.40
   0  -8   7  149.69   11.30
   0  -8   7  140.79   12.30
  -2  -7   7  295.37   20.30
  -2  -7   7  265.17   20.50
  -2  -7   7  303.27   21.30
  -1  -7   7  240.48   15.80
  -1  -7   7  227.88   17.00
  -1  -7   7  215.28   16.00
  -1  -7   7  186.68   18.80
   0  -7   7   37.70    5.00
   0  -7   7   33.90    4.00
   0  -7   7   31.00    5.40
   0  -7   7   26.40    7.30
  -1   7  -7   49.00    6.50
   1  -7   7   46.30    6.00
   1  -7   7   48.90    5.70
   1  -7   7   51.29    6.90
   1  -7   7   43.40    7.90
   2  -7   7  491.75   31.70
   2  -7   7  456.45   31.00
   2  -7   7  403.46   32.70
  -3  -6   7    1.00    2.90
  -3  -6   7    4.80    2.80
  -3  -6   7    3.60    3.60
  -2  -6   7  108.29   10.60
  -2  -6   7  109.59    8.80
  -2  -6   7  107.99    9.50
  -1  -6   7  120.59   10.00
  -1  -6   7  127.19    9.70
  -1  -6   7  123.49   11.40
   0  -6   7   33.00    7.20
   0  -6   7   20.80    3.60
   0  -6   7   23.50    3.00
   0  -6   7   30.80    5.10
   0  -6   7   18.20    6.80
   1  -6   7  175.88   12.20
   1  -6   7  138.89   14.80
   1  -6   7  167.28   12.20
   1  -6   7  162.08   13.30
   2  -6   7   40.10    7.30
   2  -6   7   39.40    5.30
   2  -6   7   30.10    5.10
  -3   6  -7  140.59   10.00
   3  -6   7  102.79   13.60
   3  -6   7  126.89   12.70
   3  -6   7  128.59   10.60
   3  -6   7  166.48   11.90
   4   5  -7  333.57   22.30
  -4  -5   7  326.77   22.20
  -4  -5   7  279.57   20.80
  -4  -5   7  270.17   21.40
  -3  -5   7    1.70    2.70
  -3  -5   7   -0.70    3.40
  -3  -5   7    4.30    2.30
  -2  -5   7   89.79    8.10
  -2  -5   7   81.89    7.30
  -2  -5   7   80.49    9.40
  -2  -5   7   85.79    6.60
  -1  -5   7 1121.99   78.99
  -1  -5   7 1196.68   78.89
  -1  -5   7 1164.88   79.69
   0  -5   7  130.19   10.10
   0  -5   7  133.49   10.40
   0  -5   7  129.59   14.20
   0  -5   7  123.69   12.00
   1  -5   7    3.90    2.40
   1  -5   7   -0.10    4.20
   1  -5   7    1.30    4.60
   1  -5   7    3.50    2.50
   1  -5   7    2.20    3.50
   1  -5   7    8.10    5.20
   2  -5   7  240.08   15.10
   2  -5   7  205.08   17.30
   2  -5   7  174.08   16.70
   3  -5   7  182.58   12.60
   3  -5   7  158.68   14.60
   3  -5   7  135.89   14.20
   3  -5   7  190.08   13.20
  -4   5  -7    3.00    1.90
   4  -5   7   11.60    3.80
   4  -5   7    0.90    5.20
   4   4  -7  508.95   33.60
  -4  -4   7  455.45   32.90
  -4  -4   7  460.55   33.10
  -4  -4   7  477.15   32.50
  -3  -4   7  897.21   59.79
  -3  -4   7  882.51   59.29
  -3  -4   7  846.92   59.59
  -2  -4   7   41.50    5.90
  -2  -4   7   50.29    4.30
  -2  -4   7   40.60    4.80
  -2  -4   7   43.60    5.90
  -1  -4   7  189.88   14.80
  -1  -4   7  183.98   13.30
  -1  -4   7  196.28   14.00
  -1  -4   7  193.68   13.70
   0  -4   7 1575.44  105.09
   0  -4   7 1670.03  104.59
   0  -4   7 1604.64  104.69
   0  -4   7 1339.87  105.89
   1  -4   7  470.35   35.40
   1  -4   7  521.95   33.60
   1  -4   7  419.96   34.80
   1  -4   7  526.95   33.70
   1  -4   7  513.65   34.30
   2  -4   7    0.20    2.40
   3  -4   7  258.57   19.60
   3  -4   7  257.37   17.80
   3  -4   7  206.98   19.20
   3  -4   7  272.27   18.40
   4  -4   7  132.79   13.50
   4  -4   7  165.28   12.10
   4  -4   7  157.38   13.50
   5   3  -7  138.99   11.70
  -5  -3   7  128.29    9.70
   4   3  -7   -0.40    3.30
  -4  -3   7    2.90    3.00
  -4  -3   7    2.90    2.10
  -4  -3   7   -2.70    3.40
  -4  -3   7   -2.80    2.80
  -3  -3   7  196.78   13.70
  -3  -3   7  174.08   13.80
  -3  -3   7  180.58   13.10
  -2  -3   7  813.02   55.49
  -2  -3   7  781.72   56.09
  -2  -3   7  847.42   55.69
  -2  -3   7  822.52   55.29
   1   3  -7    1.70    3.90
  -1  -3   7    6.10    3.50
  -1  -3   7   10.20    2.20
  -1  -3   7   11.10    4.90
  -1  -3   7    9.50    1.90
  -1  -3   7   12.40    1.70
   0   3  -7    9.50    5.20
   0  -3   7    8.20    1.60
   0  -3   7    8.00    1.60
   0  -3   7   10.20    2.90
   0  -3   7    6.30    2.00
   0  -3   7    5.50    3.50
   0  -3   7   10.80    2.20
   0  -3   7   11.10    2.50
   0  -3   7    5.10    2.90
   0  -3   7   10.90    4.10
  -1   3  -7  626.84   46.60
   1  -3   7  628.04   46.80
   1  -3   7  776.52   45.70
   1  -3   7  676.83   46.20
   1  -3   7  679.13   45.80
   1  -3   7  651.43   46.20
   1  -3   7  693.23   45.70
   1  -3   7  650.73   47.10
   2  -3   7   99.49    8.50
   2  -3   7  114.09   10.00
   2  -3   7  101.29    9.50
   2  -3   7   99.69    7.90
   2  -3   7   87.89    8.70
  -3   3  -7   41.40    3.90
   3  -3   7   47.10    7.20
   3  -3   7   43.20    5.90
   3  -3   7   42.50    5.00
  -4   3  -7  408.06   26.50
   4  -3   7  418.56   27.40
   4  -3   7  330.37   28.30
   4  -3   7  392.76   28.50
   5   2  -7  107.59   10.40
   5   2  -7  112.79   10.70
  -5  -2   7   87.49    8.80
  -5  -2   7  107.69    8.40
   4   2  -7  159.28   12.00
  -4  -2   7  147.39   11.00
  -4  -2   7  138.89   10.30
  -4  -2   7  131.39   11.20
  -4  -2   7  138.39   10.90
  -4  -2   7  130.49   12.30
   3   2  -7 1600.74   94.69
  -3  -2   7 1305.17   93.79
  -3  -2   7 1374.86   93.99
  -3  -2   7 1377.06   93.69
  -3  -2   7 1281.67   93.69
  -2  -2   7   79.09    6.40
  -2  -2   7   65.79    5.90
  -2  -2   7   64.89    7.50
  -2  -2   7   70.29    5.70
  -2  -2   7   67.69    5.40
   1   2  -7  432.66   28.70
   1   2  -7  379.56   29.30
  -1  -2   7  445.26   28.30
  -1  -2   7  371.16   28.20
  -1  -2   7  437.76   28.10
  -1  -2   7  425.66   28.40
  -1  -2   7  399.16   28.90
   0   2  -7    0.70    3.10
   0   2  -7    1.50    3.40
   0   2  -7   -2.90    2.00
   0  -2   7    3.80    1.40
   0  -2   7    2.00    1.00
   0  -2   7    4.50    3.30
   0  -2   7    0.00    2.40
   0  -2   7    0.00    1.80
   0  -2   7    2.20    1.60
   0  -2   7    1.00    1.50
   0  -2   7   -0.50    1.10
   0  -2   7    3.70    2.80
  -1   2  -7  207.58   14.80
  -1   2  -7  221.38   15.20
   1  -2   7  223.78   14.40
   1  -2   7  197.28   14.60
   1  -2   7  206.38   14.50
   1  -2   7  204.28   15.50
   1  -2   7  219.18   15.00
   1  -2   7  192.48   15.00
   1  -2   7  201.18   15.80
   2  -2   7   39.90    4.10
   2  -2   7   36.70    4.70
   2  -2   7   38.40    5.60
   2  -2   7   38.30    5.30
   2  -2   7   32.80    4.20
   2  -2   7   35.00    4.70
   3  -2   7   55.99    5.80
   3  -2   7   39.50    6.10
   3  -2   7   57.99    6.80
   3  -2   7   56.69    6.90
  -4   2  -7   37.20    3.40
   4  -2   7   36.20    5.60
   4  -2   7   43.40    7.40
   4  -2   7   27.30    4.80
   4  -2   7   38.30    6.40
  -5   2  -7   16.30    2.70
   5  -2   7   11.20    5.90
   5  -2   7   24.60    6.60
   5  -2   7   10.20    8.30
   5   1  -7  440.86   31.00
   5   1  -7  447.56   30.30
  -5  -1   7  417.86   29.90
  -5  -1   7  427.06   29.60
   4   1  -7   12.30    4.00
  -4  -1   7   13.30    2.80
  -4  -1   7    7.70    3.40
  -4  -1   7    9.70    2.10
  -4  -1   7    6.10    2.70
  -4  -1   7    8.20    4.00
   3   1  -7   57.79    6.10
  -3  -1   7   54.49    4.40
  -3  -1   7   49.40    5.30
  -3  -1   7   45.50    5.00
  -3  -1   7   43.20    4.70
   2   1  -7 1204.18   89.39
  -2  -1   7 1315.67   89.89
  -2  -1   7 1446.66   89.59
  -2  -1   7 1422.96   89.39
  -2  -1   7 1133.39   89.39
  -2  -1   7 1359.06   89.49
  -2  -1   7 1392.66   89.49
   1   1  -7  564.04   39.00
   1   1  -7  617.04   39.40
  -1  -1   7  590.74   39.10
  -1  -1   7  618.24   39.20
  -1  -1   7  508.25   38.90
  -1  -1   7  598.94   39.10
  -1  -1   7  588.54   38.90
  -1  -1   7  512.25   39.50
   0   1  -7   10.30    2.70
   0   1  -7    6.30    1.30
   0   1  -7    7.20    1.40
   0   1  -7    7.70    1.70
   0  -1   7    8.60    1.30
   0  -1   7    6.50    2.30
   0  -1   7    6.00    1.30
   0  -1   7    4.70    1.50
   0  -1   7    4.40    2.50
   0  -1   7    4.70    3.10
   0  -1   7    4.30    1.50
   0  -1   7    7.80    1.70
  -1   1  -7  723.33   49.30
  -1   1  -7  746.13   49.70
  -1   1  -7  711.03   49.50
   1  -1   7  688.83   50.19
   1  -1   7  795.82   49.70
   1  -1   7  800.72   49.30
   1  -1   7  776.02   50.09
   1  -1   7  692.73   49.30
   1  -1   7  629.14   49.30
  -2   1  -7 1535.25  109.39
  -2   1  -7 1700.33  109.69
   2  -1   7 1572.14  110.09
   2  -1   7 1390.46  109.29
   2  -1   7 1669.73  109.59
   2  -1   7 1707.93  109.09
   2  -1   7 1692.93  110.09
   2  -1   7 1673.63  109.89
  -3   1  -7   11.30    1.90
   3  -1   7   12.00    2.70
   3  -1   7    5.20    2.70
   3  -1   7   13.20    3.30
   3  -1   7    6.70    3.60
   3  -1   7    6.60    2.60
  -4   1  -7    0.50    2.40
   4  -1   7   -1.10    3.90
   4  -1   7    4.00    3.00
   4  -1   7    1.30    3.70
   4  -1   7    0.70    3.10
   4  -1   7    2.50    3.10
  -5   1  -7  212.48   13.40
   5  -1   7  193.68   14.50
   5  -1   7  155.68   16.40
   5  -1   7  198.98   15.40
   5   0  -7   -1.80    2.70
   5   0  -7    4.10    4.40
  -5   0   7    0.60    2.60
  -5   0   7    4.60    2.10
   4   0  -7 2325.77  144.39
  -4   0   7 2036.10  144.09
  -4   0   7 2153.48  143.49
  -4   0   7 2053.99  143.39
  -4   0   7 2059.09  143.59
  -4   0   7 2130.49  143.29
   3   0  -7  533.15   34.30
  -3   0   7  521.35   33.70
  -3   0   7  472.05   33.50
  -3   0   7  481.75   33.50
  -3   0   7  490.25   34.20
  -3   0   7  482.55   33.60
  -3   0   7  457.05   33.70
  -3   0   7  478.15   33.30
   2   0  -7   28.10    3.40
   2   0  -7   33.50    4.70
   2   0  -7   39.00    4.80
  -2   0   7   31.70    3.10
  -2   0   7   28.80    3.80
  -2   0   7   31.50    3.20
  -2   0   7   25.10    3.60
  -2   0   7   32.20    3.80
  -2   0   7   32.40    3.40
  -2   0   7   27.10    3.20
  -2   0   7   32.90    3.20
  -2   0   7   30.20    2.90
   1   0  -7  841.12   52.69
   1   0  -7  789.02   52.39
  -1   0   7  707.43   52.79
  -1   0   7  804.12   52.79
  -1   0   7  750.52   52.29
  -1   0   7  806.72   52.29
  -1   0   7  812.02   52.49
  -1   0   7  711.63   52.29
  -1   0   7  733.23   52.69
  -1   0   7  782.32   52.49
   0   0  -7  833.82   59.09
   0   0  -7  950.80   59.19
   0   0  -7  832.92   58.89
   0   0   7  895.41   58.89
   0   0   7  866.31   59.29
   0   0   7  888.61   58.79
   0   0   7  840.62   58.89
   0   0   7  808.72   58.89
   0   0   7  909.11   59.19
   0   0   7  957.60   59.09
   0   0   7  804.82   58.79
  -1   0  -7   40.20    3.50
  -1   0  -7   39.30    3.70
  -1   0  -7   39.90    3.30
   1   0   7   39.70    3.30
   1   0   7   43.70    4.80
   1   0   7   34.10    3.50
   1   0   7   39.10    4.90
   1   0   7   31.50    4.00
   1   0   7   40.70    3.80
   1   0   7   26.50    4.50
  -2   0  -7 1576.34  113.99
  -2   0  -7 1748.63  114.19
   2   0   7 1770.92  114.39
   2   0   7 1617.84  114.59
   2   0   7 1701.93  114.09
   2   0   7 1670.23  114.49
   2   0   7 1718.93  113.69
   3   0   7  802.42   64.59
   3   0   7  987.10   64.19
   3   0   7  873.41   64.49
   3   0   7 1083.79   65.19
   3   0   7  883.21   64.29
   3   0   7 1049.40   64.99
   4   0   7   14.10    4.10
   4   0   7    8.20    5.20
   4   0   7   18.40    5.00
   4   0   7   10.70    5.20
  -5   0  -7   33.70    4.70
  -5   0  -7   36.90    3.50
   5   0   7   39.00    5.70
   5   0   7   31.00    6.30
   5   0   7   33.60    5.50
   5   0   7   36.70    6.30
   5  -1  -7   97.89    8.30
   5  -1  -7   82.49   10.30
  -5   1   7   97.19    7.70
  -5   1   7   87.59    7.50
   4  -1  -7   14.00    4.30
   4  -1  -7   17.60    3.50
  -4   1   7   15.20    2.70
  -4   1   7   12.80    2.60
  -4   1   7   13.10    2.20
  -4   1   7   15.80    2.60
  -4   1   7    9.30    3.20
  -4   1   7   17.30    3.90
   3  -1  -7 1060.49   65.09
  -3   1   7  926.41   64.29
  -3   1   7  927.81   64.69
  -3   1   7  914.81   63.99
  -3   1   7  950.80   64.19
  -3   1   7  899.71   64.09
  -3   1   7  955.10   64.29
   2  -1  -7  127.89   10.00
   2  -1  -7  145.49   10.40
   2  -1  -7  118.29    9.30
  -2   1   7  124.49    9.20
  -2   1   7  127.69    9.00
  -2   1   7  136.69    9.40
  -2   1   7  130.19    9.70
  -2   1   7  133.89    9.30
  -2   1   7  120.99    9.20
  -2   1   7  113.89    9.10
  -2   1   7  136.09    9.30
  -2   1   7  135.29    9.40
  -2   1   7  127.49    9.30
   1  -1  -7   63.89    5.30
   1  -1  -7   71.69    5.30
  -1   1   7   67.39    5.30
  -1   1   7   63.19    5.00
  -1   1   7   73.69    5.60
  -1   1   7   72.99    5.30
  -1   1   7   70.19    5.30
  -1   1   7   77.29    5.50
  -1   1   7   72.89    5.50
  -1   1   7   71.19    5.10
  -1   1   7   71.39    5.20
   0  -1  -7  842.92   58.09
   0  -1  -7  896.61   58.09
   0   1   7  784.62   57.99
   0   1   7  730.03   58.09
   0   1   7  906.11   58.19
   0   1   7  797.12   57.99
   0   1   7  934.91   58.09
   0   1   7  855.61   57.99
   0   1   7  936.61   58.39
   0   1   7  906.41   58.39
   0   1   7  912.31   57.99
   0   1   7  792.62   57.99
  -1  -1  -7 1384.96   88.29
  -1  -1  -7 1320.77   88.19
  -1  -1  -7 1276.87   88.19
   1   1   7 1351.96   88.09
   1   1   7 1276.97   88.99
   1   1   7 1247.78   88.09
   1   1   7 1160.68   87.99
   1   1   7 1286.77   88.59
   1   1   7 1383.86   88.59
   1   1   7 1375.16   88.29
  -2  -1  -7   59.09    5.00
  -2  -1  -7   58.49    5.20
   2   1   7   56.89    6.40
   2   1   7   43.90    5.30
   2   1   7   65.99    5.60
   2   1   7   61.39    4.60
   2   1   7   52.39    6.30
   2   1   7   44.20    5.20
   2   1   7   58.39    5.30
   2   1   7   58.29    4.90
  -3  -1  -7    0.20    3.90
   3   1   7    5.40    2.40
   3   1   7    0.40    3.00
   3   1   7    3.40    1.90
   3   1   7    4.00    2.40
   3   1   7    1.00    2.20
   3   1   7    0.70    2.00
   3   1   7    2.30    2.00
  -4  -1  -7  384.06   24.60
   4   1   7  389.06   25.70
   4   1   7  302.07   25.30
   4   1   7  348.77   25.60
   4   1   7  361.76   25.10
  -5  -1  -7  141.39    9.70
   5   1   7  125.19   12.50
   5   1   7  136.49   11.10
   5   1   7  107.99   11.20
   5   1   7  127.89   10.60
   5  -2  -7  181.38   13.90
   5  -2  -7  171.48   16.20
  -5   2   7  178.08   13.50
  -5   2   7  194.98   13.30
   4  -2  -7   68.59    8.80
   4  -2  -7   67.99    6.70
  -4   2   7   60.89    5.70
  -4   2   7   63.69    5.80
  -4   2   7   63.49    5.40
   3  -2  -7  124.79   10.60
   3  -2  -7  137.59    9.80
  -3   2   7  120.39    8.60
  -3   2   7  124.49    9.10
  -3   2   7  122.19    9.00
  -3   2   7  117.99    8.80
  -3   2   7  109.49    8.70
  -3   2   7  117.19    9.50
  -3   2   7  112.19    8.90
   2  -2  -7   14.90    2.80
   2  -2  -7   22.00    2.80
   2  -2  -7   18.70    3.80
  -2   2   7   16.60    2.10
  -2   2   7   19.90    2.20
  -2   2   7   16.30    2.40
  -2   2   7   16.60    2.90
  -2   2   7   22.70    2.60
  -2   2   7   18.90    2.40
  -2   2   7   21.90    2.70
  -2   2   7   21.90    2.90
  -2   2   7   17.80    2.40
   1  -2  -7  195.68   13.40
   1  -2  -7  191.28   13.40
  -1   2   7  205.38   13.40
  -1   2   7  202.88   13.30
  -1   2   7  168.78   13.00
  -1   2   7  205.18   13.70
  -1   2   7  173.58   13.30
  -1   2   7  173.58   13.50
  -1   2   7  192.38   13.70
  -1   2   7  195.38   13.30
  -1   2   7  196.18   13.40
  -1   2   7  201.38   13.40
   0  -2  -7 1280.27   82.19
   0  -2  -7 1246.28   82.09
   0  -2  -7 1185.48   82.99
   0   2   7 1198.48   82.89
   0   2   7 1256.27   82.19
   0   2   7 1200.18   81.99
   0   2   7 1207.28   81.99
   0   2   7 1054.99   82.29
   0   2   7 1155.78   82.19
   0   2   7 1253.77   82.39
   0   2   7 1256.87   81.99
   0   2   7 1295.07   82.09
  -1  -2  -7  364.96   24.00
  -1  -2  -7  380.26   24.10
   1   2   7  307.27   24.10
   1   2   7  372.66   24.40
   1   2   7  341.97   23.90
   1   2   7  317.97   23.80
   1   2   7  350.76   24.40
   1   2   7  366.66   24.10
   1   2   7  324.37   24.20
   1   2   7  362.86   23.90
   1   2   7  353.56   24.90
  -2  -2  -7  206.28   14.30
  -2  -2  -7  215.08   14.40
   2   2   7  212.18   14.50
   2   2   7  203.48   14.20
   2   2   7  204.78   14.60
   2   2   7  180.88   15.20
   2   2   7  203.78   14.00
   2   2   7  175.78   14.30
  -3  -2  -7  240.88   19.70
  -3  -2  -7  299.07   20.60
   3   2   7  303.17   20.00
   3   2   7  273.87   20.20
   3   2   7  266.87   20.00
   3   2   7  293.57   19.60
   3   2   7  236.68   19.70
   3   2   7  305.97   20.20
   3   2   7  319.57   20.40
  -4  -2  -7  341.47   22.30
   4   2   7  283.67   22.90
   4   2   7  368.56   23.50
   4   2   7  274.97   23.00
   4   2   7  364.86   23.30
   4   2   7  313.97   23.20
   4   2   7  305.37   22.70
  -5  -2  -7  477.45   30.50
   5   2   7  494.45   31.70
   5   2   7  420.66   32.00
   5   2   7  403.16   31.40
   5   2   7  426.26   31.00
   5  -3  -7  161.38   15.70
   5  -3  -7  181.08   13.90
  -5   3   7  175.38   12.90
  -5   3   7  193.58   13.20
   4  -3  -7   -4.40    4.80
   4  -3  -7   -1.80    2.40
  -4   3   7   -2.50    1.60
  -4   3   7    1.90    1.90
  -4   3   7    1.90    3.00
   3  -3  -7  485.85   31.40
   3  -3  -7  437.86   31.90
  -3   3   7  455.95   30.50
  -3   3   7  412.96   30.40
  -3   3   7  444.26   30.60
   2  -3  -7 1151.78   70.89
   2  -3  -7 1116.39   70.49
  -2   3   7 1022.60   69.99
  -2   3   7  945.01   69.99
  -2   3   7 1015.60   69.79
  -2   3   7 1021.20   69.89
  -2   3   7 1047.30   69.99
  -2   3   7  964.60   69.99
   1  -3  -7   20.00    2.70
   1  -3  -7   14.70    2.70
   1  -3  -7   14.00    2.30
  -1   3   7   19.10    3.60
  -1   3   7   19.20    2.30
  -1   3   7   19.40    2.30
  -1   3   7   18.10    2.20
  -1   3   7   18.60    2.20
  -1   3   7   21.60    2.50
   0  -3  -7  267.27   17.40
   0  -3  -7  240.58   17.80
   0  -3  -7  253.07   17.50
   0   3   7  264.27   17.30
   0   3   7  234.18   17.50
   0   3   7  260.27   17.20
   0   3   7  233.98   18.30
   0   3   7  247.88   17.30
   0   3   7  246.48   17.30
   0   3   7  259.87   17.70
   0   3   7  263.47   17.50
  -1  -3  -7 1954.10  138.79
  -1  -3  -7 2297.37  138.79
  -1  -3  -7 2112.09  138.89
   1   3   7 2150.08  139.09
   1   3   7 1931.31  139.49
   1   3   7 2286.67  139.49
   1   3   7 1981.50  138.89
   1   3   7 1937.51  138.59
   1   3   7 1879.21  138.99
  -2  -3  -7  374.76   24.10
   2   3   7  359.96   24.20
   2   3   7  337.77   24.00
   2   3   7  313.47   24.90
   2   3   7  365.76   24.30
   2   3   7  343.27   23.70
   2   3   7  367.66   23.90
   2   3   7  304.07   23.90
  -3  -3  -7    0.00    3.20
  -3  -3  -7   -1.00    1.90
   3   3   7    3.60    3.10
   3   3   7    2.30    2.30
   3   3   7    2.50    2.20
   3   3   7    3.60    2.10
   3   3   7    1.40    1.60
   3   3   7    1.80    2.10
  -4  -3  -7  255.67   18.40
  -4  -3  -7  266.67   18.00
   4   3   7  263.67   18.90
   4   3   7  300.37   19.20
   4   3   7  222.68   18.90
   4   3   7  230.98   18.50
   4   3   7  278.77   18.90
   4   3   7  235.68   18.60
  -5  -3  -7  185.78   12.40
   5   3   7  187.88   13.60
   5   3   7  166.08   15.10
   5   3   7  161.08   13.70
   5   3   7  148.59   13.50
   5  -4  -7  306.07   26.00
   5  -4  -7  328.37   24.20
  -5   4   7  376.06   23.40
   4  -4  -7  162.48   15.20
  -4   4   7  175.38   11.90
  -4   4   7  158.48   12.10
   3  -4  -7   19.50    3.50
   3  -4  -7   17.50    5.30
  -3   4   7   16.60    2.40
  -3   4   7   14.60    2.00
   2  -4  -7 1099.19   68.19
  -2   4   7  979.70   67.59
  -2   4   7  986.20   67.49
  -2   4   7  901.01   67.29
  -2   4   7 1026.30   67.49
   1  -4  -7 2396.46  161.98
   1  -4  -7 2317.47  162.18
   1  -4  -7 2548.95  162.38
  -1   4   7 2404.46  162.08
  -1   4   7 2430.46  161.88
  -1   4   7 2325.87  161.88
   0  -4  -7   19.30    2.80
   0  -4  -7   20.60    3.20
   0  -4  -7   17.50    2.40
   0   4   7   15.50    1.90
   0   4   7   17.00    2.40
   0   4   7   17.80    2.60
   0   4   7   14.30    2.40
   0   4   7   18.30    2.10
   0   4   7   21.60    4.00
   0   4   7   18.80    2.30
  -1  -4  -7   74.29    5.50
  -1  -4  -7   70.49    5.60
  -1  -4  -7   74.49    6.20
   1   4   7   65.99    5.60
   1   4   7   57.19    6.60
   1   4   7   70.89    5.10
   1   4   7   68.39    5.60
   1   4   7   64.69    5.10
   1   4   7   70.99    5.40
  -2  -4  -7 1106.59   71.79
  -2  -4  -7  983.90   71.69
  -2  -4  -7 1111.19   71.89
   2   4   7 1144.09   71.99
   2   4   7 1062.29   71.69
   2   4   7 1070.29   71.49
   2   4   7 1110.79   71.69
   2   4   7 1009.10   71.69
   2   4   7  918.91   72.59
  -3  -4  -7  816.72   54.09
   3   4   7  794.52   54.29
   3   4   7  768.92   54.19
   3   4   7  761.22   54.09
   3   4   7  822.42   54.09
  -4  -4  -7   44.10    5.70
   4   4   7   48.00    7.00
   4   4   7   45.90    6.20
   4   4   7   41.30    5.80
  -5  -4  -7  341.37   21.50
  -5  -4  -7  307.17   22.30
   5   4   7  256.67   22.10
   5   4   7  341.37   22.60
   5   4   7  297.87   22.40
   4  -5  -7  152.28   15.10
   4  -5  -7  148.29   12.10
   4  -5  -7  139.19   12.20
  -4   5   7  157.68   10.80
   3  -5  -7   91.69    8.20
   3  -5  -7   92.09    8.60
  -3   5   7  100.89    7.10
  -3   5   7   81.79    8.70
   2  -5  -7   71.69    7.10
  -2   5   7   80.49    6.30
  -2   5   7   74.29    5.90
   1  -5  -7  201.18   16.00
   1  -5  -7  219.58   16.70
   1  -5  -7  264.67   16.40
  -1   5   7  245.18   16.70
  -1   5   7  215.78   15.80
  -1   5   7  233.48   16.10
   0  -5  -7 1035.30   69.79
   0  -5  -7 1082.99   69.79
   0  -5  -7 1032.90   69.59
   0   5   7  944.91   70.29
   0   5   7 1049.89   69.59
   0   5   7 1026.30   69.59
   0   5   7 1106.89   69.49
   0   5   7 1016.60   69.69
   0   5   7  957.00   69.49
  -1  -5  -7   -1.80    2.20
  -1  -5  -7    3.40    2.10
  -1  -5  -7    0.00    1.60
   1   5   7    0.90    1.40
   1   5   7    1.40    1.50
   1   5   7    1.30    1.40
   1   5   7    0.70    3.60
   1   5   7    0.50    1.50
   1   5   7    1.00    1.40
  -2  -5  -7   13.10    2.90
  -2  -5  -7   21.00    3.20
  -2  -5  -7   28.80    3.90
   2   5   7   21.70    3.20
   2   5   7   19.10    5.70
   2   5   7   16.00    2.30
   2   5   7   22.60    3.40
   2   5   7   21.60    3.20
   2   5   7   20.00    3.30
  -3  -5  -7  523.75   34.70
   3   5   7  513.25   34.80
   3   5   7  444.26   34.60
   3   5   7  520.65   34.90
   3   5   7  507.55   34.70
   3   5   7  502.75   34.70
  -4  -5  -7  133.89   10.30
  -4  -5  -7  146.49   11.20
   4   5   7  143.29   11.40
   4   5   7  134.39   11.40
   4   5   7  145.09   11.40
   4   5   7  131.79   11.10
  -5  -5  -7    8.30    2.20
  -5  -5  -7    8.60    4.20
   5   5   7   13.00    3.50
   5   5   7   12.60    3.70
   5   5   7   13.20    4.50
   4  -6  -7  222.98   17.60
  -4   6   7  243.58   16.40
   3  -6  -7   12.90    3.50
   3  -6  -7   22.70    4.00
  -3   6   7   20.30    2.40
  -3   6   7   17.70    3.00
   2  -6  -7   57.29    6.10
   2  -6  -7   60.49    6.70
  -2   6   7   58.19    4.90
  -2   6   7   62.29    5.40
   1  -6  -7  377.26   25.90
   1  -6  -7  349.87   26.30
  -1   6   7  372.56   25.40
  -1   6   7  379.96   25.60
   0  -6  -7  108.69    9.60
   0  -6  -7  108.09    8.60
   0  -6  -7  126.79    9.20
   0  -6  -7   96.69    8.80
   0   6   7  112.09    8.50
   0   6   7  120.29    8.50
   0   6   7  114.59    8.40
   0   6   7  117.29    8.20
  -1  -6  -7    6.00    2.20
  -1  -6  -7    6.50    2.50
   1   6   7    0.90    1.60
   1   6   7    7.40    5.10
   1   6   7    1.80    1.80
   1   6   7    3.00    2.20
   1   6   7    3.60    1.60
   1   6   7    1.00    1.70
  -2  -6  -7   48.60    5.40
  -2  -6  -7   45.20    5.70
   2   6   7   45.60    4.80
   2   6   7   47.60    5.00
   2   6   7   51.69    4.90
  -3  -6  -7  413.66   28.30
  -3  -6  -7  421.46   28.40
   3   6   7  404.16   28.40
   3   6   7  421.26   28.50
   3   6   7  416.16   28.60
   3   6   7  366.26   28.30
  -4  -6  -7  179.48   12.80
  -4  -6  -7  187.78   13.60
   4   6   7  172.28   13.90
   4   6   7  172.08   13.50
   4   6   7  178.28   13.90
  -5  -6  -7  190.78   14.00
  -5  -6  -7  186.58   12.90
   5   6   7  188.28   13.90
   5   6   7  168.58   14.20
   5   6   7  158.48   13.60
   4  -7  -7  191.98   16.20
  -4   7   7  237.88   15.20
   3  -7  -7  738.83   51.29
   3  -7  -7  674.13   50.59
  -3   7   7  805.92   50.49
   2  -7  -7   40.10    6.00
   2  -7  -7   56.19    7.00
  -2   7   7   50.29    4.50
  -2   7   7   50.79    5.00
   1  -7  -7    2.00    3.30
   1  -7  -7    7.50    2.80
  -1   7   7    1.60    1.40
  -1   7   7   -4.80    3.30
  -1   7   7    0.40    1.70
   0  -7  -7  899.31   60.79
   0  -7  -7  808.52   61.09
   0   7   7  938.81   60.59
   0   7   7  898.81   60.49
   0   7   7  897.71   60.49
   0   7   7  898.11   60.29
  -1  -7  -7  760.92   49.90
  -1  -7  -7  673.23   50.99
  -1  -7  -7  762.02   49.80
   1   7   7  737.43   49.70
   1   7   7  703.33   49.50
   1   7   7  724.63   49.60
  -2  -7  -7    4.90    2.80
  -2  -7  -7    2.70    2.90
   2   7   7   -0.20    2.00
   2   7   7   -0.20    2.00
  -3  -7  -7  258.07   17.60
   3   7   7  205.08   16.80
   3   7   7  228.98   16.80
   3   7   7  236.98   17.00
  -4  -7  -7  472.25   32.10
  -4  -7  -7  498.25   32.70
   4   7   7  447.96   32.70
   4   7   7  476.75   32.80
   4   7   7  444.76   32.60
  -5  -7  -7   -1.60    2.50
  -5  -7  -7    0.90    4.10
   5   7   7   -2.40    4.60
   5   7   7   -0.30    4.90
   3  -8  -7   79.49    8.50
   3  -8  -7   72.09    8.90
   3  -8  -7   62.79   10.10
  -3   8   7   94.99    7.20
  -3   8   7   91.29    6.70
   2  -8  -7  493.65   36.00
   2  -8  -7  483.45   35.20
   2  -8  -7  490.75   35.30
  -2   8   7  512.25   34.80
  -2   8   7  563.74   35.10
   1  -8  -7   91.59    8.60
   1  -8  -7   72.79   11.50
   1  -8  -7   96.99    9.90
  -1   8   7   97.99    7.70
  -1   8   7  102.19    7.50
  -1   8   7   99.59    8.10
   0  -8  -7  116.79   10.20
   0  -8  -7  113.79   10.90
   0  -8  -7  128.89   11.80
   0   8   7  111.09    9.00
   0   8   7  122.49    9.10
   0   8   7  126.89    9.20
  -1  -8  -7  765.22   50.79
  -1  -8  -7  659.73   50.99
  -1  -8  -7  781.12   50.89
   1   8   7  761.32   50.59
   1   8   7  741.83   50.59
   1   8   7  733.03   50.39
  -2  -8  -7  656.33   43.80
  -2  -8  -7  643.94   43.80
   2   8   7  650.03   43.70
   2   8   7  596.64   43.70
  -3  -8  -7   26.60    4.20
  -3  -8  -7   28.50    4.00
  -3  -8  -7   22.80    3.40
   3   8   7   19.80    3.40
   3   8   7   28.30    4.90
   3   8   7   29.70    4.00
  -4  -8  -7    3.50    3.20
  -4  -8  -7    5.40    3.00
   4   8   7   10.00    4.90
   4   8   7    5.90    3.00
   4   8   7    6.60    4.00
   2  -9  -7    6.70    3.50
   2  -9  -7    3.20    3.60
  -2   9   7    6.00    2.20
  -2   9   7    7.60    2.30
   1  -9  -7  234.18   18.10
   1  -9  -7  218.38   17.10
  -1   9   7  245.38   16.70
  -1   9   7  239.38   16.90
  -1   9   7  249.97   16.80
  -1   9   7  220.78   16.60
   0  -9  -7   51.19    8.00
   0  -9  -7   54.69    6.80
   0  -9  -7   68.29    8.30
   0   9   7   56.59    5.60
   0   9   7   51.99    5.60
   0   9   7   65.89    5.70
  -1  -9  -7   64.59    9.10
  -1  -9  -7   59.49    7.00
  -1  -9  -7   60.39    6.70
   1   9   7   47.60    5.70
   1   9   7   57.69    5.60
  -2  -9  -7  215.18   15.80
  -2  -9  -7  210.68   15.50
  -2  -9  -7  224.48   15.80
   2   9   7  199.38   15.50
   2   9   7  212.68   15.40
  -3  -9  -7  235.38   17.10
  -3  -9  -7  258.07   17.40
   3   9   7  233.58   16.90
   3   9   7  208.48   17.10
   3   9   7  236.78   17.20
  -4  -9  -7   26.00    4.50
   4   9   7   31.90    5.00
   1 -10  -7   93.19    9.00
   1 -10  -7   74.99    7.80
  -1  10   7   86.19    7.10
  -1  10   7   87.19    8.90
   0 -10  -7   87.09    8.00
   0 -10  -7   86.79    9.70
   0  10   7   81.99    7.50
   0  10   7   94.89    7.40
  -1 -10  -7    0.30    4.80
  -1 -10  -7   -0.20    2.30
  -1 -10  -7    0.60    3.30
   1  10   7    0.90    2.50
   1  10   7    0.80    2.50
  -2 -10  -7  456.05   29.20
  -2 -10  -7  423.76   29.40
   2  10   7  374.86   29.00
   2  10   7  422.56   29.10
  -3 -10  -7   43.00    5.90
  -3 -10  -7   50.19    6.80
   3  10   7   36.50    5.80
   3  10   7   52.49    6.10
   0 -11  -7  393.06   28.00
   0 -11  -7  373.06   26.90
   0 -11  -7  417.96   26.70
   0  11   7  396.56   27.00
   0  11   7  368.76   27.00
  -1 -11  -7    1.00    2.50
  -1 -11  -7   -5.70    2.20
   1  11   7   -1.60    2.40
   1  11   7    1.00    2.80
  -1  -7   8  282.37   21.10
  -1  -7   8  285.87   22.40
  -1  -7   8  342.07   22.60
   0  -7   8   92.49   13.00
   0  -7   8  121.89    9.10
   1  -7   8  191.58   18.80
   1  -7   8  240.48   17.40
   1  -7   8  256.77   16.70
   3   6  -8    0.60    3.70
  -3  -6   8    0.00    3.30
  -3  -6   8   -1.00    2.90
  -2  -6   8  213.58   16.80
  -2  -6   8  205.28   15.80
  -2  -6   8  221.18   15.50
  -1  -6   8  585.44   42.00
  -1  -6   8  623.14   41.20
  -1  -6   8  595.84   41.40
   0  -6   8   10.50    2.70
   0  -6   8   11.20    8.00
   0  -6   8   10.30    6.60
   0  -6   8   11.50    4.80
   0  -6   8   14.30    3.00
   1  -6   8  207.08   15.40
   1  -6   8  235.38   15.70
   1  -6   8  224.48   16.30
   1  -6   8  178.48   17.70
   2  -6   8  785.62   60.79
   2  -6   8  915.71   59.89
   2  -6   8  919.61   59.59
   3   5  -8  223.08   16.00
  -3  -5   8  200.28   14.70
  -3  -5   8  199.78   15.50
  -3  -5   8  210.78   15.20
  -2  -5   8  134.89    9.70
  -2  -5   8  116.89   11.40
  -2  -5   8  135.09   10.20
  -2  -5   8  132.49   10.80
  -2  -5   8  129.89   12.90
  -2  -5   8  136.79   11.90
  -1  -5   8  631.54   42.50
  -1  -5   8  609.34   42.60
  -1  -5   8  621.34   43.40
   0  -5   8  691.33   45.80
   0  -5   8  662.23   46.60
   0  -5   8  659.63   45.90
   1  -5   8    6.50    2.60
   1  -5   8    5.40    2.90
   1  -5   8    3.40    4.70
   1  -5   8    5.90    4.10
   1  -5   8   -3.10    4.70
   1  -5   8   11.90    5.60
   2  -5   8  127.69   13.30
   2  -5   8  116.79   12.70
   2  -5   8  155.98   11.70
   2  -5   8  161.08   11.00
  -3   5  -8  378.06   25.10
   3  -5   8  318.77   26.90
   3  -5   8  394.16   26.00
   4   4  -8  108.79   11.20
  -4  -4   8   96.09    9.10
  -4  -4   8  104.89    8.00
   3   4  -8  118.89   10.10
  -3  -4   8   98.69   11.20
  -3  -4   8  113.89    8.40
  -3  -4   8  117.59    9.10
  -3  -4   8  109.89    9.80
  -3  -4   8  108.09    9.50
  -2  -4   8  100.99    8.00
  -2  -4   8   95.79    8.80
  -2  -4   8   89.79   10.20
  -2  -4   8  101.59    7.40
  -1  -4   8   57.09    7.60
  -1  -4   8   41.90    9.20
  -1  -4   8   49.20    4.90
  -1  -4   8   60.49    6.30
   0  -4   8   66.49    9.50
   0  -4   8   80.99    6.30
   0  -4   8   58.79    9.60
   0  -4   8   69.59    6.70
   0  -4   8   81.69    8.00
   1  -4   8  308.97   27.70
   1  -4   8  356.26   28.60
   1  -4   8  407.56   26.90
   1  -4   8  418.16   26.70
   2  -4   8   38.80    7.50
   2  -4   8   39.30    6.20
   2  -4   8   48.50    5.70
   2  -4   8   54.09    6.60
   2  -4   8   38.90    7.90
   3  -4   8  116.49   11.80
   3  -4   8  141.69   12.40
   4  -4   8   -0.50    4.00
   4  -4   8    7.60    4.80
   4  -4   8    0.60    5.00
   4   3  -8   40.70    6.90
  -4  -3   8   37.70    4.40
  -4  -3   8   36.40    4.10
   3   3  -8  814.82   50.99
  -3  -3   8  687.83   50.29
  -3  -3   8  735.73   50.19
  -3  -3   8  741.93   49.90
  -3  -3   8  713.53   51.09
  -3  -3   8  719.93   50.29
  -2  -3   8   59.59    6.90
  -2  -3   8   54.59    5.60
  -2  -3   8   50.89    7.90
  -2  -3   8   55.69    4.80
  -1  -3   8    4.70    2.40
  -1  -3   8    2.70    1.70
  -1  -3   8    4.30    5.70
  -1  -3   8    4.70    1.40
  -1  -3   8    3.80    2.80
  -1  -3   8    4.40    2.30
  -1  -3   8    3.00    4.00
   0  -3   8 1091.49   69.69
   0  -3   8 1076.69   69.79
   0  -3   8  950.90   69.99
   0  -3   8  852.71   70.89
   0  -3   8 1082.99   70.29
   0  -3   8 1093.29   69.79
   0  -3   8  998.10   70.19
   0  -3   8 1081.99   69.49
   1  -3   8  144.29   11.50
   1  -3   8  126.29   12.20
   1  -3   8  154.28   10.90
   1  -3   8  156.38   10.70
   1  -3   8  157.88   10.80
   1  -3   8  142.49   11.60
   1  -3   8  144.19   12.90
   2  -3   8   12.40    3.70
   2  -3   8   23.40    4.20
   2  -3   8   16.80    3.20
   2  -3   8   28.00    6.50
  -3   3  -8   65.19    5.10
   3  -3   8   70.09    7.10
   3  -3   8   57.39    8.00
   3  -3   8   45.10    6.90
   3  -3   8   62.59    8.30
  -4   3  -8 1111.99   74.99
   4  -3   8 1061.49   76.29
   4  -3   8 1152.78   75.49
   4   2  -8    2.50    4.10
  -4  -2   8    0.60    1.90
  -4  -2   8    0.40    3.80
  -4  -2   8   -0.50    2.80
  -4  -2   8   -4.30    3.10
   3   2  -8  202.78   14.20
  -3  -2   8  168.18   14.20
  -3  -2   8  171.38   13.30
  -3  -2   8  172.88   13.20
  -3  -2   8  169.88   13.20
  -3  -2   8  181.78   13.00
  -3  -2   8  179.48   12.70
  -2  -2   8  805.92   58.99
  -2  -2   8  858.11   58.19
  -2  -2   8  861.11   58.39
  -2  -2   8  896.11   58.59
  -2  -2   8  866.31   59.09
  -2  -2   8  872.11   58.49
  -1  -2   8  144.79   10.20
  -1  -2   8  148.49   11.10
  -1  -2   8  141.69   10.50
  -1  -2   8  146.99   10.50
  -1  -2   8  128.39   11.70
  -1  -2   8  151.58   10.80
   0  -2   8  192.88   13.80
   0  -2   8  199.18   13.40
   0  -2   8  187.98   13.50
   0  -2   8  203.18   13.90
   0  -2   8  161.28   14.50
   0  -2   8  168.68   14.10
   0  -2   8  195.58   13.30
   0  -2   8  193.68   13.10
   1  -2   8 1433.16  106.19
   1  -2   8 1619.14  105.79
   1  -2   8 1586.54  106.79
   1  -2   8 1753.82  105.79
   1  -2   8 1511.15  105.89
   1  -2   8 1451.55  106.99
   1  -2   8 1622.64  106.29
   2  -2   8  719.33   49.10
   2  -2   8  672.63   47.90
   2  -2   8  716.13   49.30
   2  -2   8  740.73   47.90
   2  -2   8  681.13   48.40
   2  -2   8  702.13   48.50
   3  -2   8  104.99   10.00
   3  -2   8  111.19   10.10
   3  -2   8   88.89    9.10
   3  -2   8  112.09    9.20
  -4   2  -8    6.20    1.60
   4  -2   8   12.90    4.60
   4  -2   8    5.40    4.40
   4  -2   8   10.50    3.90
   4  -2   8    4.10    3.40
   5   1  -8   46.50    5.50
   5   1  -8   24.50    6.20
  -5  -1   8   41.00    5.60
  -5  -1   8   36.70    4.10
   4   1  -8  269.97   19.00
  -4  -1   8  252.47   17.80
  -4  -1   8  252.87   17.40
  -4  -1   8  228.78   18.10
  -4  -1   8  249.28   17.80
  -4  -1   8  240.18   19.00
   3   1  -8   66.89    7.30
  -3  -1   8   65.49    6.00
  -3  -1   8   61.99    6.40
  -3  -1   8   56.69    6.80
   2   1  -8  240.38   16.00
  -2  -1   8  202.78   16.00
  -2  -1   8  211.58   15.10
  -2  -1   8  212.38   14.70
  -2  -1   8  208.38   15.60
  -2  -1   8  205.58   14.90
  -2  -1   8  209.38   15.00
  -2  -1   8  200.88   14.90
   1   1  -8 2228.18  157.38
   1   1  -8 2092.59  156.98
  -1  -1   8 2355.76  157.18
  -1  -1   8 2415.96  156.98
  -1  -1   8 2429.16  157.58
  -1  -1   8 2208.08  157.38
  -1  -1   8 2415.36  157.18
  -1  -1   8 2436.36  157.18
  -1  -1   8 2396.26  157.08
   0   1  -8  459.35   31.40
   0   1  -8  475.65   31.70
   0  -1   8  475.75   31.40
   0  -1   8  479.45   31.80
   0  -1   8  450.25   31.40
   0  -1   8  395.26   31.80
   0  -1   8  446.36   31.50
   0  -1   8  508.05   31.70
   0  -1   8  489.35   31.30
   0  -1   8  424.96   32.10
  -1   1  -8    2.90    1.80
  -1   1  -8   -2.90    2.40
   1  -1   8    2.00    2.90
   1  -1   8    4.30    1.30
   1  -1   8    1.20    2.60
   1  -1   8    2.10    1.90
   1  -1   8   -1.30    1.70
   1  -1   8    2.20    2.40
   1  -1   8    2.60    1.50
   2  -1   8   26.00    4.30
   2  -1   8   29.80    4.80
   2  -1   8   31.30    3.50
   2  -1   8   34.70    4.20
   2  -1   8   29.80    5.20
   3  -1   8 1508.95  108.79
   3  -1   8 1591.34  108.59
   3  -1   8 1706.03  109.29
   4  -1   8   86.29    7.90
   4  -1   8   77.49    8.80
   4  -1   8   86.69    8.40
   4  -1   8   58.99    7.70
   5  -1   8   42.50    8.30
   5  -1   8   37.00    6.80
   5  -1   8   48.40    6.50
   5   0  -8  196.98   17.00
   5   0  -8  211.28   15.40
  -5   0   8  212.48   15.00
  -5   0   8  203.88   14.50
   4   0  -8    6.20    4.50
   4   0  -8    4.60    3.00
  -4   0   8    9.30    2.50
  -4   0   8    1.80    4.00
  -4   0   8    4.00    2.50
  -4   0   8    9.00    2.10
  -4   0   8   11.30    3.60
   3   0  -8   78.99    7.90
  -3   0   8   77.79    6.60
  -3   0   8   65.29    6.20
  -3   0   8   67.89    6.30
  -3   0   8   70.49    5.60
  -3   0   8   65.29    6.00
  -3   0   8   75.49    7.10
   2   0  -8  114.89    9.10
  -2   0   8   91.89    7.30
  -2   0   8   93.99    7.30
  -2   0   8   97.69    7.40
  -2   0   8   92.59    8.00
  -2   0   8   90.89    7.60
  -2   0   8  102.39    8.20
  -2   0   8   96.39    7.10
  -2   0   8   93.39    7.90
   1   0  -8   27.60    4.30
   1   0  -8   19.70    3.00
  -1   0   8   20.20    2.70
  -1   0   8   26.30    2.80
  -1   0   8   29.30    4.70
  -1   0   8   24.30    3.30
  -1   0   8   21.60    2.70
  -1   0   8   25.00    2.80
  -1   0   8   22.70    2.80
  -1   0   8   28.70    3.40
  -1   0   8   28.10    2.50
   0   0  -8  808.92   55.09
   0   0  -8  749.92   55.09
   0   0  -8  865.01   55.39
   0   0   8  696.93   55.39
   0   0   8  810.22   55.09
   0   0   8  871.41   55.69
   0   0   8  883.71   55.29
   0   0   8  862.91   54.99
   0   0   8  852.61   55.19
   0   0   8  737.33   54.99
  -1   0  -8   10.30    1.80
  -1   0  -8   15.30    2.50
   1   0   8   12.40    2.70
   1   0   8    9.10    3.00
   1   0   8    6.10    3.00
   1   0   8   14.00    1.60
   1   0   8   10.20    1.90
   1   0   8   15.70    2.30
   2   0   8  335.07   24.30
   2   0   8  347.87   24.10
   2   0   8  341.07   23.20
   2   0   8  328.57   26.60
   2   0   8  336.17   23.70
   3   0   8    8.10    3.20
   3   0   8    7.00    2.10
   3   0   8    4.90    2.30
   3   0   8    4.90    2.90
   3   0   8    2.20    4.00
   3   0   8    4.50    2.50
  -4   0  -8   52.59    4.70
   4   0   8   37.60    6.20
   4   0   8   51.39    6.50
   4   0   8   39.00    6.10
   4   0   8   41.80    6.70
   4   0   8   39.30    6.30
  -5   0  -8   62.49    4.80
  -5   0  -8   60.39    8.40
   5   0   8   55.29    7.60
   5   0   8   55.79    7.90
   5   0   8   58.49   11.10
   5  -1  -8   96.69    8.20
   5  -1  -8   80.59   11.50
  -5   1   8   82.99    7.00
   4  -1  -8  832.72   50.79
   4  -1  -8  752.72   51.19
  -4   1   8  706.23   49.99
  -4   1   8  747.13   49.80
  -4   1   8  757.22   50.09
  -4   1   8  663.43   50.69
  -4   1   8  683.43   50.09
   3  -1  -8   36.20    5.10
  -3   1   8   33.10    5.10
  -3   1   8   37.80    4.10
  -3   1   8   36.30    4.30
  -3   1   8   33.50    3.90
  -3   1   8   29.70    3.30
  -3   1   8   31.50    4.00
  -2   1   8  199.98   15.10
  -2   1   8  217.38   14.70
  -2   1   8  208.48   14.40
  -2   1   8  209.48   14.70
  -2   1   8  202.48   14.60
  -2   1   8  199.68   14.50
  -2   1   8  209.48   14.70
  -2   1   8  215.78   14.60
   1  -1  -8  310.17   21.00
   1  -1  -8  281.37   20.50
  -1   1   8  295.57   20.50
  -1   1   8  284.47   20.40
  -1   1   8  304.57   20.60
  -1   1   8  293.17   20.90
  -1   1   8  279.47   20.40
  -1   1   8  315.07   20.60
  -1   1   8  306.37   20.50
  -1   1   8  308.07   20.40
   0  -1  -8 1145.59   77.49
   0  -1  -8 1025.80   77.69
   0   1   8 1176.18   77.89
   0   1   8 1251.07   77.69
   0   1   8 1184.28   77.49
   0   1   8 1120.39   77.49
   0   1   8 1222.18   77.39
   0   1   8 1054.59   77.39
  -1  -1  -8 1704.83  111.89
  -1  -1  -8 1617.64  111.69
   1   1   8 1749.82  111.59
   1   1   8 1660.53  111.59
   1   1   8 1781.62  111.89
   1   1   8 1542.85  112.79
   1   1   8 1761.72  112.19
   1   1   8 1428.46  111.49
  -2  -1  -8   20.30    3.40
   2   1   8   17.00    5.40
   2   1   8   15.50    2.00
   2   1   8   14.40    2.80
   2   1   8   16.10    3.10
   2   1   8   16.60    2.80
   2   1   8   15.90    2.40
   3   1   8  823.72   55.59
   3   1   8  871.71   56.19
   3   1   8  674.63   55.29
   3   1   8  889.91   56.09
   3   1   8  806.52   55.29
  -4  -1  -8   10.00    2.20
   4   1   8   12.10    3.60
   4   1   8   12.70    4.80
   4   1   8   11.10    3.50
   4   1   8   10.40    4.00
   4   1   8   12.30    3.80
  -5  -1  -8    9.30    2.60
   5   1   8   19.40    4.80
   5   1   8   16.60    5.50
   5   1   8    6.30    4.70
   5   1   8   19.80    5.40
   5   1   8   14.20    4.00
   5  -2  -8    6.80    3.50
   5  -2  -8    5.10    7.40
  -5   2   8    7.80    2.90
   4  -2  -8   86.99   10.80
   4  -2  -8   95.69    8.40
  -4   2   8   89.19    7.30
  -4   2   8   87.49    6.90
  -4   2   8   90.89    7.40
   3  -2  -8 1260.07   74.89
   3  -2  -8 1089.99   74.99
  -3   2   8 1073.09   74.09
  -3   2   8 1108.39   74.19
  -3   2   8 1065.09   74.59
  -3   2   8 1041.10   73.79
  -3   2   8 1060.99   74.09
  -3   2   8 1077.49   73.99
  -3   2   8 1069.59   73.99
  -2   2   8  231.48   15.80
  -2   2   8  223.58   16.30
  -2   2   8  231.48   16.00
  -2   2   8  229.68   15.80
  -2   2   8  232.48   15.90
  -2   2   8  211.38   15.70
  -2   2   8  221.18   15.60
   1  -2  -8    1.20    2.20
   1  -2  -8    0.00    1.40
  -1   2   8    1.50    1.30
  -1   2   8   -0.20    1.00
  -1   2   8    1.20    1.20
  -1   2   8    1.60    1.40
  -1   2   8    1.40    1.60
  -1   2   8    2.10    1.00
  -1   2   8    2.00    1.20
  -1   2   8    1.90    1.50
   0  -2  -8 1687.43  116.49
   0  -2  -8 1681.63  116.59
   0   2   8 1631.54  116.29
   0   2   8 1838.62  116.39
   0   2   8 1796.52  116.79
   0   2   8 1868.61  116.59
   0   2   8 1599.54  116.39
   0   2   8 1598.54  116.49
   0   2   8 1840.02  116.39
  -1  -2  -8 2970.50  206.38
  -1  -2  -8 3282.17  206.58
   1   2   8 3178.08  206.18
   1   2   8 3389.26  206.48
   1   2   8 2712.73  206.38
   1   2   8 3435.76  206.78
   1   2   8 3050.79  206.78
   1   2   8 2753.32  206.48
   1   2   8 2785.32  206.08
   1   2   8 3305.17  206.28
   1   2   8 2840.52  207.28
  -2  -2  -8   63.19    6.00
   2   2   8   61.19    5.80
   2   2   8   62.79    6.10
   2   2   8   55.49    5.70
   2   2   8   62.69    5.30
   2   2   8   64.09    4.90
   2   2   8   53.09    7.80
  -3  -2  -8   65.89    7.00
   3   2   8   78.19    6.60
   3   2   8   55.29    7.90
   3   2   8   64.69    6.90
   3   2   8   74.09    6.00
   3   2   8   82.49    7.00
   3   2   8   86.29    7.30
  -4  -2  -8  620.74   38.30
   4   2   8  644.94   39.40
   4   2   8  513.75   39.00
   4   2   8  535.75   38.80
   4   2   8  538.25   39.20
   4   2   8  509.35   38.80
  -5  -2  -8   11.30    2.40
   5   2   8   13.00    5.20
   5   2   8    8.90    5.20
   5   2   8   11.20    3.90
   5  -3  -8  226.58   17.00
  -5   3   8  231.68   16.40
   4  -3  -8   10.90    6.50
   4  -3  -8    0.00    2.50
  -4   3   8   -2.90    2.00
  -4   3   8    0.00    2.20
   3  -3  -8   13.10    3.20
  -3   3   8   12.60    2.00
  -3   3   8   16.70    2.10
  -3   3   8   16.60    2.80
  -3   3   8   14.40    2.30
   2  -3  -8  661.03   41.70
  -2   3   8  611.44   41.20
  -2   3   8  578.14   40.90
  -2   3   8  597.24   41.10
  -2   3   8  576.24   41.00
  -2   3   8  598.24   41.10
   1  -3  -8  395.96   29.50
   1  -3  -8  423.46   29.70
   1  -3  -8  467.75   29.90
  -1   3   8  437.66   29.20
  -1   3   8  460.25   29.60
  -1   3   8  462.75   29.40
  -1   3   8  407.86   29.50
  -1   3   8  410.16   29.30
  -1   3   8  405.66   29.30
   0  -3  -8 1734.93  112.99
   0  -3  -8 1612.64  112.89
   0   3   8 1617.74  112.99
   0   3   8 1805.12  112.79
   0   3   8 1621.34  112.79
   0   3   8 1764.62  113.19
   0   3   8 1443.96  113.69
   0   3   8 1728.23  112.99
   0   3   8 1652.43  112.79
   0   3   8 1745.93  112.69
  -1  -3  -8  173.48   11.80
  -1  -3  -8  161.58   12.00
  -1  -3  -8  171.48   11.70
   1   3   8  157.08   11.90
   1   3   8  171.58   11.40
   1   3   8  171.78   12.00
   1   3   8  157.98   12.40
   1   3   8  150.48   11.30
   1   3   8  174.48   11.70
   1   3   8  150.68   13.00
   1   3   8  150.88   11.70
  -2  -3  -8  607.14   40.70
   2   3   8  625.94   43.90
   2   3   8  603.14   40.80
   2   3   8  522.55   40.50
   2   3   8  606.34   40.40
   2   3   8  585.14   40.80
  -3  -3  -8  256.47   19.80
   3   3   8  300.57   20.20
   3   3   8  256.57   20.00
   3   3   8  299.37   20.00
   3   3   8  278.57   19.60
   3   3   8  240.88   20.70
   3   3   8  326.77   20.50
  -4  -3  -8  183.88   14.00
  -4  -3  -8  193.38   12.80
   4   3   8  157.18   14.30
   4   3   8  196.78   14.00
   4   3   8  151.68   13.50
   4   3   8  149.19   14.00
   4   3   8  205.78   14.20
  -5  -3  -8  297.87   19.20
   5   3   8  298.97   20.30
   5   3   8  232.38   20.50
   5   3   8  263.57   20.80
   4  -4  -8  213.88   16.30
  -4   4   8  217.08   15.70
  -4   4   8  220.88   15.20
  -4   4   8  210.08   15.40
   3  -4  -8   16.00    3.50
  -3   4   8   18.40    2.60
  -3   4   8   19.10    2.50
  -3   4   8   21.90    3.10
   2  -4  -8  207.88   14.30
  -2   4   8  198.58   13.60
  -2   4   8  175.78   13.60
  -2   4   8  172.88   13.10
  -2   4   8  193.08   13.30
   1  -4  -8   93.69    8.80
   1  -4  -8  104.69    8.80
  -1   4   8  110.59    8.20
  -1   4   8  112.19    8.10
  -1   4   8  106.49    7.80
  -1   4   8  108.89    7.60
  -1   4   8  106.79    8.60
   0  -4  -8  397.96   28.40
   0  -4  -8  403.96   29.10
   0  -4  -8  408.76   28.60
   0   4   8  436.96   28.80
   0   4   8  425.46   28.20
   0   4   8  427.86   28.50
   0   4   8  407.36   28.50
   0   4   8  424.16   28.30
   0   4   8  391.56   28.20
  -1  -4  -8  624.94   40.80
  -1  -4  -8  566.34   40.60
  -1  -4  -8  614.14   40.60
   1   4   8  600.64   40.70
   1   4   8  620.34   40.60
   1   4   8  606.64   40.60
   1   4   8  507.75   41.60
   1   4   8  602.44   40.40
   1   4   8  655.53   41.00
   1   4   8  548.85   40.30
  -2  -4  -8   66.29    7.30
   2   4   8   70.09    6.60
   2   4   8   75.19    6.30
   2   4   8   62.79    5.90
   2   4   8   64.19    5.50
   2   4   8   68.09    6.20
   2   4   8   76.49    5.80
  -3  -4  -8   66.69    6.50
   3   4   8   69.49    6.40
   3   4   8   74.19    6.90
   3   4   8   72.69    6.60
   3   4   8   56.49    6.30
  -4  -4  -8   27.90    3.80
  -4  -4  -8   25.60    4.30
   4   4   8   28.10    5.50
   4   4   8   23.90    4.10
   4   4   8   32.70    5.80
   4   4   8   39.70    5.60
   4   4   8   33.80    5.30
  -5  -4  -8    2.40    2.10
   5   4   8    4.10    5.40
   5   4   8    3.00    3.00
   5   4   8    2.80    3.10
   5   4   8    8.30    5.30
   4  -5  -8  131.19   12.30
   4  -5  -8  148.69   12.60
  -4   5   8  164.68   11.80
  -4   5   8  171.08   11.30
   3  -5  -8    8.60    3.40
   3  -5  -8    3.60    3.00
  -3   5   8   -0.40    1.50
   2  -5  -8  591.04   40.70
  -2   5   8  579.54   40.10
   1  -5  -8   61.19    5.50
   1  -5  -8   37.20    5.80
  -1   5   8   40.30    4.00
  -1   5   8   44.80    4.50
  -1   5   8   47.70    4.00
  -1   5   8   44.50    4.30
   0  -5  -8   98.69    9.60
   0  -5  -8  112.99    8.80
   0  -5  -8  121.29    9.60
   0   5   8  112.29    8.20
   0   5   8  108.79    8.00
   0   5   8  100.99    7.90
   0   5   8  109.89    8.30
  -1  -5  -8  186.58   13.20
   1   5   8  188.28   12.70
   1   5   8  165.08   12.60
   1   5   8  197.08   13.20
   1   5   8  177.88   12.90
   1   5   8  180.18   12.90
   1   5   8  171.28   12.50
   1   5   8  150.28   14.80
  -2  -5  -8 2730.63  195.08
  -2  -5  -8 2951.20  195.28
   2   5   8 2784.92  194.98
   2   5   8 2760.52  195.18
   2   5   8 2844.12  195.18
   2   5   8 3166.28  195.58
   2   5   8 3018.60  195.08
  -3  -5  -8    3.40    2.60
   3   5   8    5.20    2.60
   3   5   8    8.70    3.20
   3   5   8    5.00    2.80
   3   5   8    6.60    2.40
  -4  -5  -8   45.90    6.50
  -4  -5  -8   52.59    5.00
   4   5   8   49.00    6.10
   4   5   8   50.09    8.00
   4   5   8   54.59    6.50
   4   5   8   59.19    6.50
  -5  -5  -8  112.19   10.70
   5   5   8  116.29    9.60
   5   5   8   92.69    9.20
   4  -6  -8  171.78   16.90
  -4   6   8  175.48   12.80
  -4   6   8  172.18   12.70
   3  -6  -8  285.57   22.10
   3  -6  -8  292.67   21.50
  -3   6   8  305.97   21.30
  -3   6   8  318.27   20.90
   2  -6  -8  290.17   20.60
   2  -6  -8  258.37   22.50
  -2   6   8  294.87   19.80
   1  -6  -8  219.28   17.20
   1  -6  -8  238.28   16.60
  -1   6   8  227.48   16.30
  -1   6   8  237.68   16.20
  -1   6   8  218.08   15.90
   0  -6  -8 1553.74  124.09
   0  -6  -8 2033.30  124.09
   0   6   8 1909.11  123.79
   0   6   8 1906.21  123.69
   0   6   8 1837.62  123.79
   0   6   8 1945.61  123.99
   0   6   8 1645.44  123.49
  -1  -6  -8  245.48   17.10
   1   6   8  248.58   16.80
   1   6   8  241.88   16.80
   1   6   8  234.88   16.60
   1   6   8  210.58   16.40
  -2  -6  -8  165.98   12.20
  -2  -6  -8  164.58   12.30
   2   6   8  149.19   11.90
   2   6   8  163.58   11.80
   2   6   8  159.98   12.20
   2   6   8  159.18   11.90
  -4  -6  -8  136.69   10.80
  -4  -6  -8  129.09    9.70
   4   6   8  130.49   10.90
   4   6   8  132.09   10.90
   4   6   8  122.49   10.50
  -5  -6  -8    2.00    4.30
  -5  -6  -8    2.80    2.30
   5   6   8    3.00    3.50
   5   6   8    0.70    3.00
   3  -7  -8  479.25   38.10
   3  -7  -8  535.65   38.80
  -3   7   8  574.84   37.70
  -3   7   8  614.14   38.00
  -3   7   8  555.74   38.00
   2  -7  -8  147.09   12.70
   2  -7  -8  150.88   11.80
  -2   7   8  148.69   10.80
  -2   7   8  150.08   11.20
   1  -7  -8   -2.60    3.90
  -1   7   8    1.60    2.60
  -1   7   8    3.50    2.00
   0  -7  -8   65.49    8.40
   0  -7  -8   71.29    7.50
   0   7   8   75.89    6.80
   0   7   8   79.89    6.60
   0   7   8   78.89    6.20
   0   7   8   77.49    6.30
  -1  -7  -8 2001.50  131.59
  -1  -7  -8 1948.71  131.59
   1   7   8 1968.70  131.49
   1   7   8 1901.91  131.29
   1   7   8 1904.41  131.49
  -2  -7  -8   32.40    5.60
  -2  -7  -8   40.40    5.60
   2   7   8   38.30    5.10
   2   7   8   28.60    4.60
   2   7   8   36.90    4.60
   2   7   8   35.40    4.90
  -3  -7  -8   74.49    7.00
  -3  -7  -8   77.19    7.80
   3   7   8   61.39    6.80
   3   7   8   71.19    7.00
   3   7   8   69.79    6.80
  -4  -7  -8  500.85   37.10
  -4  -7  -8  553.84   36.40
   4   7   8  560.64   37.30
   4   7   8  544.95   37.10
   4   7   8  498.75   36.80
  -5  -7  -8   21.20    4.10
  -5  -7  -8   17.40    2.80
   5   7   8   23.80    4.00
   5   7   8   18.20    4.00
   3  -8  -8    7.60    4.20
   3  -8  -8   -0.80    6.70
   3  -8  -8    3.70    4.10
  -3   8   8    0.30    2.00
  -3   8   8    1.10    2.60
   2  -8  -8   22.00    4.10
   2  -8  -8   34.30    5.40
  -2   8   8   31.30    3.80
  -2   8   8   37.10    4.10
  -2   8   8   27.90    4.30
   1  -8  -8  146.89   12.80
   1  -8  -8  142.59   11.70
   1  -8  -8  128.69   12.20
  -1   8   8  152.38   11.00
  -1   8   8  145.49   10.70
  -1   8   8  155.28   10.90
   0  -8  -8  417.26   29.30
   0  -8  -8  384.06   29.90
   0  -8  -8  425.86   29.40
   0   8   8  421.16   29.00
   0   8   8  417.16   28.70
   0   8   8  429.96   28.90
   0   8   8  428.86   29.10
  -1  -8  -8   25.60    4.30
  -1  -8  -8   23.80    4.10
   1   8   8   26.10    4.20
   1   8   8   22.30    3.40
   1   8   8   30.40    5.00
  -2  -8  -8   22.10    4.10
  -2  -8  -8   18.10    3.80
   2   8   8   19.40    3.20
   2   8   8   21.60    4.40
   2   8   8   17.60    3.20
  -3  -8  -8   44.10    5.30
  -3  -8  -8   38.60    5.20
  -3  -8  -8   52.89    6.20
   3   8   8   41.20    5.60
   3   8   8   49.80    5.80
   3   8   8   41.20    5.40
  -4  -8  -8   42.60    5.90
   4   8   8   26.30    4.00
   4   8   8   43.80    8.20
   4   8   8   26.40    5.30
   2  -9  -8  364.06   28.70
   2  -9  -8  337.67   28.60
  -2   9   8  453.05   27.90
  -2   9   8  409.06   27.60
  -2   9   8  427.96   27.70
   1  -9  -8  221.48   17.40
   1  -9  -8  223.08   16.40
  -1   9   8  232.88   16.00
  -1   9   8  222.98   15.90
  -1   9   8  214.08   15.70
   0  -9  -8   41.90    5.60
   0  -9  -8   44.30    6.10
   0  -9  -8   54.29    8.20
   0   9   8   42.30    4.70
   0   9   8   40.90    5.00
   0   9   8   45.70    5.60
  -1  -9  -8  870.31   60.69
  -1  -9  -8  921.21   60.79
   1   9   8  903.91   60.59
   1   9   8  863.91   60.59
  -2  -9  -8  585.44   39.30
  -2  -9  -8  598.34   39.30
   2   9   8  567.14   39.50
   2   9   8  564.74   39.20
   2   9   8  530.25   39.10
  -3  -9  -8  147.39   10.90
  -3  -9  -8  141.79   10.80
   3   9   8  127.39   10.30
   3   9   8  115.79   10.50
   3   9   8  126.89   10.60
  -4  -9  -8   98.69    8.10
   4   9   8   79.29    9.00
   4   9   8   79.29    8.10
   4   9   8   82.89    7.70
   1 -10  -8 1158.18   80.29
  -1  10   8 1185.28   79.29
   0 -10  -8  145.99   11.00
   0 -10  -8  166.98   14.30
   0  10   8  136.09   12.10
   0  10   8  131.89   10.40
   0  10   8  127.99   10.70
  -1 -10  -8   17.10    6.90
  -1 -10  -8   19.10    3.50
  -1 -10  -8   20.70    3.00
   1  10   8   19.80    3.10
   1  10   8   16.70    3.20
  -2 -10  -8  474.15   31.10
  -2 -10  -8  461.25   32.10
   2  10   8  399.76   31.00
   2  10   8  443.66   31.00
   2  10   8  462.55   31.30
  -3 -10  -8  111.29    9.70
  -3 -10  -8  104.29    9.30
   3  10   8  109.19    9.20
   3  10   8  106.09    8.80
  -2  -6   9  115.69   11.10
  -2  -6   9  116.99    9.40
  -2  -6   9  119.99    9.90
  -1  -6   9   29.20    4.70
  -1  -6   9   28.10    7.60
  -1  -6   9   28.70    4.30
   0  -6   9  293.57   21.30
   0  -6   9  334.87   21.70
   0  -6   9  276.17   22.10
   1  -6   9   -3.00    4.70
   1  -6   9   -0.10    6.10
   1  -6   9    4.40    6.80
   1  -6   9    1.70    3.60
   3   5  -9   21.00    5.40
  -3  -5   9   15.00    3.70
  -3  -5   9   17.50    3.30
  -3  -5   9   15.70    3.20
  -2  -5   9   26.10    4.30
  -2  -5   9   34.50    4.80
  -2  -5   9   29.20    6.10
  -1  -5   9   62.09    6.90
  -1  -5   9   62.19    8.50
  -1  -5   9   64.49    6.10
  -1  -5   9   47.60    9.90
   0  -5   9   57.89    5.90
   0  -5   9   46.40    6.20
   0  -5   9   62.29    7.80
   0  -5   9   34.90    8.00
   1  -5   9   49.99    7.40
   1  -5   9   46.00    9.20
   1  -5   9   51.79    6.20
   1  -5   9   29.40    7.00
   2  -5   9  260.67   18.90
   2  -5   9  243.28   20.00
   3   4  -9   54.49    9.60
  -3  -4   9   29.30    3.70
  -3  -4   9   32.70    3.90
  -3  -4   9   21.70    4.10
  -2  -4   9   83.49    9.70
  -2  -4   9   83.69    6.50
  -2  -4   9   73.89   10.00
  -2  -4   9   83.09    8.00
  -2  -4   9   84.29    7.20
  -2  -4   9   79.59    8.50
  -1  -4   9  146.79   10.70
  -1  -4   9  138.39   10.20
  -1  -4   9  141.99   12.60
  -1  -4   9  136.99   11.20
   0  -4   9  502.15   32.30
   0  -4   9  501.25   32.10
   0  -4   9  381.56   33.90
   0  -4   9  471.95   32.90
   1  -4   9  667.63   43.20
   1  -4   9  564.84   44.90
   1  -4   9  630.64   43.90
   1  -4   9  662.33   43.30
   2  -4   9   77.39    9.90
   2  -4   9   91.69    8.30
   2  -4   9   63.99    9.10
   2  -4   9   81.39    7.80
   2  -4   9   60.89    7.90
   3  -4   9  294.67   24.20
   3  -4   9  360.86   24.80
   4   3  -9    1.60    5.50
  -4  -3   9    2.90    2.20
  -4  -3   9   -4.70    3.20
   3   3  -9  126.79   11.00
  -3  -3   9  120.59    9.80
  -3  -3   9  106.29   10.00
  -3  -3   9  126.39    8.70
  -3  -3   9  116.49    9.40
  -3  -3   9  101.09   11.20
  -2  -3   9  339.87   23.10
  -2  -3   9  336.87   23.40
  -2  -3   9  323.97   24.10
  -2  -3   9  316.47   24.20
  -2  -3   9  338.47   22.70
  -2  -3   9  321.67   23.30
  -1  -3   9   29.20    4.00
  -1  -3   9   19.70    7.70
  -1  -3   9   25.70    3.80
  -1  -3   9   27.80    3.40
  -1  -3   9   18.90    4.30
  -1  -3   9   18.80    3.60
   0  -3   9  539.55   42.40
   0  -3   9  596.84   42.70
   0  -3   9  656.53   42.20
   0  -3   9  664.43   41.80
   1  -3   9 1110.69   79.99
   1  -3   9 1276.17   79.09
   1  -3   9 1143.69   80.09
   1  -3   9 1096.29   79.59
   2  -3   9   43.10    5.40
   2  -3   9   44.00    6.00
   2  -3   9   33.90    6.20
   2  -3   9   28.90    4.70
   2  -3   9   26.60    5.20
   3  -3   9   12.40    5.00
   3  -3   9   18.90    4.40
   3  -3   9    9.30    4.20
   3  -3   9    9.20    3.80
   4  -3   9  511.15   32.10
   4  -3   9  374.56   31.50
   4   2  -9  405.96   30.90
  -4  -2   9  435.26   29.30
  -4  -2   9  444.56   30.30
   3   2  -9    8.50    4.50
  -3  -2   9    2.30    1.80
  -3  -2   9   -0.60    2.90
  -3  -2   9   -1.70    3.70
  -3  -2   9   -0.50    3.20
  -3  -2   9    0.00    2.20
  -2  -2   9  276.37   20.30
  -2  -2   9  298.67   20.90
  -2  -2   9  279.87   20.00
  -2  -2   9  301.87   23.70
  -2  -2   9  303.47   22.00
  -2  -2   9  279.77   20.60
  -1  -2   9  182.68   12.50
  -1  -2   9  179.08   12.90
  -1  -2   9  173.18   13.60
  -1  -2   9  154.28   14.10
  -1  -2   9  183.98   13.20
  -1  -2   9  187.78   12.80
   0  -2   9  152.48   11.20
   0  -2   9  156.28   11.30
   0  -2   9  152.58   11.60
   0  -2   9  160.68   10.70
   0  -2   9  127.99   12.80
   0  -2   9  137.19   12.30
   0  -2   9  151.68   11.90
   0  -2   9  160.38   11.00
   1  -2   9   93.19    6.20
   1  -2   9   75.69    8.30
   1  -2   9   69.59    8.70
   1  -2   9   71.39    7.10
   1  -2   9   78.69    6.60
   1  -2   9   69.49    7.70
   1  -2   9   80.39    6.90
   2  -2   9  317.97   25.20
   2  -2   9  346.17   25.50
   2  -2   9  329.27   26.30
   2  -2   9  338.37   23.20
   3  -2   9  993.40   73.19
   3  -2   9 1077.19   73.49
   3  -2   9 1117.39   72.59
  -4   2  -9   78.49    6.00
   4  -2   9   83.29    9.20
   4  -2   9   71.39    9.00
   4  -2   9   59.49    7.60
   4  -2   9   90.79    8.50
   4   1  -9   28.10    4.10
  -4  -1   9   32.70    3.70
  -4  -1   9   26.00    3.70
   3   1  -9    4.10    4.60
  -3  -1   9    6.30    2.80
  -3  -1   9    5.50    1.90
  -3  -1   9    5.40    2.70
  -3  -1   9    5.00    2.20
  -3  -1   9    2.60    3.30
  -2  -1   9  182.28   13.00
  -2  -1   9  178.78   13.80
  -2  -1   9  178.88   13.10
  -2  -1   9  179.08   13.30
  -2  -1   9  182.28   12.70
  -1  -1   9   11.10    2.80
  -1  -1   9   10.30    4.50
  -1  -1   9    9.20    2.10
  -1  -1   9   12.50    1.70
  -1  -1   9    5.60    2.50
  -1  -1   9   10.40    1.90
  -1  -1   9   11.00    2.80
   0  -1   9   38.30    5.20
   0  -1   9   37.70    7.90
   0  -1   9   37.80    6.30
   0  -1   9   32.10    4.70
   0  -1   9   40.80    4.20
   0  -1   9   40.20    4.60
   0  -1   9   37.90    4.90
   0  -1   9   39.30    3.90
   0  -1   9   41.40    3.40
   1  -1   9  743.73   53.19
   1  -1   9  878.61   53.69
   1  -1   9  873.31   53.19
   1  -1   9  702.13   54.19
   1  -1   9  672.33   53.49
   1  -1   9  831.32   53.19
   1  -1   9  784.92   54.09
   2  -1   9  522.15   38.70
   2  -1   9  587.14   38.30
   2  -1   9  565.94   39.40
   2  -1   9  551.64   38.80
   2  -1   9  578.44   39.70
   3  -1   9   25.40    5.10
   3  -1   9   29.60    5.80
   3  -1   9   23.50    4.00
   3  -1   9   33.60    4.90
   4  -1   9    3.60    4.00
   4  -1   9   -0.50    3.10
   4  -1   9    7.70    4.50
   4  -1   9    2.00    4.10
   4   0  -9  170.08   12.50
  -4   0   9  157.48   12.00
  -4   0   9  156.68   11.30
  -4   0   9  147.19   11.90
  -3   0   9   33.50    3.50
  -3   0   9   32.70    4.70
  -3   0   9   27.60    5.70
  -3   0   9   36.60    4.20
  -3   0   9   26.00    3.30
  -2   0   9  319.67   22.20
  -2   0   9  336.57   22.40
  -2   0   9  303.17   22.80
  -2   0   9  325.47   22.00
  -2   0   9  314.77   22.30
  -1   0   9  855.31   57.69
  -1   0   9  870.61   57.69
  -1   0   9  815.62   57.69
  -1   0   9  817.42   58.09
  -1   0   9  875.11   57.79
  -1   0   9  868.61   57.49
   0   0  -9  270.07   20.20
   0   0  -9  258.37   19.70
   0   0   9  297.87   19.60
   0   0   9  276.77   20.40
   0   0   9  287.17   19.40
   0   0   9  279.07   19.50
   0   0   9  298.37   19.80
   0   0   9  298.07   20.10
   0   0   9  278.87   19.70
   1   0   9    0.20    1.70
   1   0   9   -1.00    1.70
   1   0   9   -0.20    3.40
   1   0   9    0.00    1.30
   1   0   9    2.00    2.30
   2   0   9 6596.84  440.06
   2   0   9 6622.84  439.66
   2   0   9 6089.19  440.56
   2   0   9 6831.32  440.56
   3   0   9   97.29    9.20
   3   0   9  105.49   11.30
   3   0   9  109.59   10.70
  -4   0  -9  100.99    8.30
   4   0   9  106.79   10.00
   4   0   9  122.09   10.10
   4   0   9   88.09    9.90
  -5   0  -9    1.30    1.40
   5   0   9    2.30    3.60
   5   0   9    2.80    5.30
   5   0   9    2.50    4.20
   4  -1  -9   47.80    6.10
  -4   1   9   39.80    4.20
  -4   1   9   40.60    5.20
  -3   1   9  184.48   12.80
  -3   1   9  177.78   12.40
  -3   1   9  170.48   13.70
  -3   1   9  171.38   12.90
  -3   1   9  176.58   12.90
  -3   1   9  172.78   12.80
  -2   1   9   78.29    6.90
  -2   1   9   71.79    6.20
  -2   1   9   80.79    6.60
  -2   1   9   76.39    6.20
  -2   1   9   75.69    6.20
  -2   1   9   73.19    5.80
  -2   1   9   82.19    6.70
  -1   1   9  419.86   29.30
  -1   1   9  430.56   28.60
  -1   1   9  424.86   28.80
  -1   1   9  427.76   28.90
  -1   1   9  429.26   28.80
  -1   1   9  384.56   28.70
  -1   1   9  425.36   28.90
   0  -1  -9 2361.36  172.38
   0  -1  -9 2603.54  172.68
   0   1   9 2718.93  172.28
   0   1   9 2662.03  172.28
   0   1   9 2856.21  172.58
   0   1   9 2618.04  172.88
   0   1   9 2181.28  172.18
   0   1   9 2463.75  172.28
  -1  -1  -9  317.17   22.60
  -1  -1  -9  292.27   22.60
   1   1   9  333.47   22.90
   1   1   9  336.27   22.20
   1   1   9  350.26   22.50
   1   1   9  281.07   23.10
   1   1   9  342.77   22.10
   2   1   9   37.80    4.20
   2   1   9   31.30    3.40
   2   1   9   35.60    5.30
   2   1   9   28.60    4.90
   3   1   9  172.28   13.40
   3   1   9  172.18   13.00
   3   1   9  181.38   14.20
   3   1   9  193.38   14.10
  -4  -1  -9  236.58   16.80
   4   1   9  251.67   18.40
   4   1   9  232.88   18.20
  -5  -1  -9    4.50    2.70
   5   1   9   -2.50    5.00
   5   1   9   -4.50    3.90
   5   1   9   10.30    4.20
   4  -2  -9  412.06   27.10
  -4   2   9  379.06   26.30
  -4   2   9  362.46   26.30
  -4   2   9  367.56   26.00
   3  -2  -9  197.98   13.40
  -3   2   9  164.68   12.20
  -3   2   9  158.28   11.80
  -3   2   9  164.58   12.20
  -3   2   9  166.88   12.50
  -3   2   9  169.18   12.60
  -3   2   9  165.98   12.30
  -3   2   9  160.08   13.30
  -2   2   9  639.04   43.50
  -2   2   9  605.94   42.80
  -2   2   9  629.24   43.00
  -2   2   9  656.53   42.90
  -2   2   9  622.94   42.90
  -2   2   9  620.74   42.70
   1  -2  -9    1.40    2.60
  -1   2   9    2.70    1.50
  -1   2   9    1.80    1.60
  -1   2   9    0.80    1.20
  -1   2   9    2.50    1.20
   0  -2  -9  600.94   42.00
   0  -2  -9  560.84   42.00
   0   2   9  542.85   42.00
   0   2   9  700.83   42.10
   0   2   9  653.43   41.70
   0   2   9  663.53   41.80
   0   2   9  651.43   42.30
   0   2   9  547.05   41.70
   1   2   9 4369.06  270.87
   1   2   9 4076.69  270.17
   1   2   9 4297.47  270.27
   1   2   9 4342.27  270.57
   1   2   9 3645.44  270.77
   1   2   9 3361.76  270.07
   2   2   9   14.60    1.90
   2   2   9   14.70    3.50
   2   2   9    5.60    2.80
   2   2   9   14.30    2.50
   2   2   9   11.10    2.70
  -3  -2  -9  522.25   40.50
   3   2   9  580.14   40.20
   3   2   9  607.44   40.80
   3   2   9  581.74   39.80
   3   2   9  617.94   40.60
  -4  -2  -9   40.90    4.20
   4   2   9   29.10    4.90
   4   2   9   28.60    7.60
   4   2   9   38.20    6.10
   4   2   9   42.80    6.00
  -5  -2  -9  680.83   44.90
   5   2   9  601.44   46.90
   5   2   9  693.33   46.00
   4  -3  -9  125.19   10.70
  -4   3   9  129.29    9.80
   3  -3  -9  172.28   12.50
  -3   3   9  143.79   10.90
  -3   3   9  155.28   11.20
  -3   3   9  149.19   11.60
   2  -3  -9   29.50    4.90
  -2   3   9   24.40    3.20
  -2   3   9   25.10    2.70
  -2   3   9   23.90    3.60
  -2   3   9   21.40    3.10
   1  -3  -9  424.96   27.60
  -1   3   9  348.17   27.10
  -1   3   9  407.56   27.00
  -1   3   9  407.06   27.20
  -1   3   9  385.56   26.90
  -1   3   9  385.36   26.80
   0  -3  -9 1825.72  126.79
   0   3   9 1757.82  126.69
   0   3   9 1893.81  126.49
   0   3   9 2030.50  126.69
   0   3   9 1896.31  126.39
   0   3   9 1996.70  126.49
   0   3   9 1633.54  126.39
   0   3   9 1969.30  126.99
  -1  -3  -9  712.53   50.39
  -1  -3  -9  792.82   50.69
   1   3   9  688.83   50.39
   1   3   9  635.94   49.99
   1   3   9  651.33   50.59
   1   3   9  822.32   50.49
   1   3   9  787.62   50.19
   1   3   9  827.42   50.79
   2   3   9   33.40    4.40
   2   3   9   23.90    3.70
   2   3   9   33.80    5.20
   2   3   9   29.40    3.20
   2   3   9   33.10    3.80
  -3  -3  -9   24.70    4.00
   3   3   9   32.10    4.60
   3   3   9   30.30    3.60
   3   3   9   29.50    4.80
   3   3   9   22.80    3.80
   3   3   9   31.60    5.30
  -4  -3  -9  317.47   20.90
   4   3   9  345.27   22.20
   4   3   9  334.67   22.10
   4   3   9  250.37   21.50
   4   3   9  253.27   21.80
  -5  -3  -9    5.80    2.20
   5   3   9    9.00    6.50
   5   3   9    6.70    3.90
   4  -4  -9   -1.40    3.70
   4  -4  -9    5.90    3.80
  -4   4   9    3.50    2.30
   3  -4  -9    9.20    3.30
  -3   4   9   12.60    2.90
  -3   4   9   12.00    2.10
   2  -4  -9  557.64   36.70
  -2   4   9  511.05   35.90
  -2   4   9  480.55   35.60
  -2   4   9  553.14   36.20
   1  -4  -9 3132.69  214.48
  -1   4   9 2988.90  214.08
  -1   4   9 3378.26  214.18
  -1   4   9 3411.46  213.98
  -1   4   9 2972.90  213.78
   0  -4  -9  214.28   13.90
   0   4   9  175.78   13.00
   0   4   9  181.68   13.80
   0   4   9  179.28   13.50
   0   4   9  185.28   13.20
   0   4   9  190.48   13.40
  -1  -4  -9  966.20   67.59
   1   4   9  975.60   67.59
   1   4   9  963.10   67.59
   1   4   9 1028.20   67.29
   1   4   9 1068.89   67.59
   1   4   9  863.81   67.29
   1   4   9 1100.79   67.99
   2   4   9 1286.47  101.29
   2   4   9 1399.46  101.39
   2   4   9 1542.65  101.79
   2   4   9 1462.25  101.09
   2   4   9 1634.14  101.79
   2   4   9 1656.93  101.39
  -3  -4  -9  367.36   25.70
   3   4   9  390.86   26.40
   3   4   9  339.27   25.30
   3   4   9  384.46   26.10
   3   4   9  383.16   25.80
   3   4   9  334.87   25.80
  -4  -4  -9   59.39    6.90
  -4  -4  -9   57.69    5.10
   4   4   9   55.29    6.80
   4   4   9   48.80    7.90
   4   4   9   40.00    6.40
   4   4   9   57.59    6.80
  -5  -4  -9  134.39   10.00
   5   4   9  143.09   11.30
   5   4   9  125.89   12.50
   4  -5  -9  173.78   14.80
   4  -5  -9  130.29   12.50
  -4   5   9  186.68   13.00
  -4   5   9  157.58   12.30
   3  -5  -9   19.20    3.60
   3  -5  -9   16.40    4.00
  -3   5   9   20.20    2.60
  -3   5   9   18.20    3.20
   2  -5  -9  180.68   16.40
  -2   5   9  204.78   13.40
  -2   5   9  178.88   13.80
  -2   5   9  170.58   14.80
   1  -5  -9 3976.20  271.27
  -1   5   9 4128.99  270.97
  -1   5   9 4164.78  270.57
  -1   5   9 3970.10  270.77
  -1   5   9 3610.34  270.37
  -1   5   9 4264.77  270.87
   0  -5  -9 1099.59   70.39
   0   5   9  948.81   69.89
   0   5   9 1063.69   70.59
   0   5   9 1017.50   69.99
   0   5   9  995.50   70.29
   0   5   9 1084.89   70.29
  -1  -5  -9    1.10    2.90
   1   5   9    3.60    2.20
   1   5   9    2.50    2.00
   1   5   9    6.60    2.80
   1   5   9    1.30    1.40
   1   5   9    1.80    1.80
  -2  -5  -9   57.29    5.60
  -2  -5  -9   46.60    6.60
   2   5   9   42.30    5.30
   2   5   9   47.20    4.70
   2   5   9   38.30    4.20
   2   5   9   42.60    5.10
   2   5   9   42.70    4.80
   2   5   9   48.70    6.30
  -3  -5  -9  702.23   48.50
   3   5   9  671.93   48.00
   3   5   9  631.24   49.30
   3   5   9  765.72   48.10
  -4  -5  -9    3.70    2.30
  -4  -5  -9    0.80    3.30
   4   5   9    2.20    3.00
   4   5   9    3.00    3.20
   4   5   9    3.80    3.40
  -5  -5  -9   -3.00    2.90
   5   5   9   -2.10    5.70
   5   5   9   -1.90    4.80
   3  -6  -9   52.49    7.60
   3  -6  -9   55.19    6.70
  -3   6   9   57.79    5.60
  -3   6   9   54.49    5.00
   2  -6  -9  615.64   45.70
   2  -6  -9  669.93   45.20
  -2   6   9  696.23   45.10
  -2   6   9  648.54   45.00
  -2   6   9  650.33   44.70
   1  -6  -9  205.78   15.00
   1  -6  -9  188.18   15.60
  -1   6   9  197.18   14.50
  -1   6   9  199.88   14.40
  -1   6   9  201.88   15.00
  -1   6   9  202.58   14.20
   0  -6  -9  176.78   13.00
   0   6   9  179.28   12.30
   0   6   9  178.58   12.10
   0   6   9  141.29   12.00
   0   6   9  171.18   12.50
  -1  -6  -9   12.60    3.50
   1   6   9   14.50    2.70
   1   6   9   15.30    2.40
   1   6   9   18.90    2.60
   1   6   9   14.00    3.10
   1   6   9   15.30    3.10
  -2  -6  -9   27.20    4.30
  -2  -6  -9   29.70    4.20
   2   6   9   28.50    3.90
   2   6   9   21.50    3.40
   2   6   9   31.20    4.60
   2   6   9   31.80    4.20
   2   6   9   27.40    4.90
   2   6   9   24.70    3.00
  -3  -6  -9   84.19    8.10
   3   6   9   81.49    8.00
   3   6   9   86.09    8.00
   3   6   9   92.99    8.80
   3   6   9   92.69    8.70
  -4  -6  -9   72.59    6.10
  -4  -6  -9   70.89    7.60
   4   6   9   74.19    7.80
   4   6   9   74.39    7.50
   4   6   9   64.69    7.10
  -5  -6  -9  275.47   20.50
  -5  -6  -9  294.97   19.40
   5   6   9  267.37   20.30
   3  -7  -9  858.81   63.79
   3  -7  -9  887.01   64.29
  -3   7   9  967.20   63.39
  -3   7   9 1025.20   63.69
   2  -7  -9  871.21   61.49
   2  -7  -9  840.62   60.79
  -2   7   9  883.11   60.39
  -2   7   9  945.61   60.69
  -2   7   9  910.01   60.69
   1  -7  -9    7.00    3.40
   1  -7  -9   12.10    4.50
  -1   7   9    8.40    2.40
  -1   7   9    6.10    2.20
  -1   7   9    5.30    1.90
   0  -7  -9  894.81   60.09
   0  -7  -9  816.62   60.89
   0   7   9  858.61   59.29
   1   7   9  598.44   38.90
   1   7   9  514.15   38.30
  -2  -7  -9    3.50    3.70
  -2  -7  -9   -0.50    3.30
   2   7   9    7.30    3.00
   2   7   9    3.10    2.20
   2   7   9    1.10    2.50
   2   7   9   -1.10    6.80
   2   7   9   -1.30    2.60
  -3  -7  -9  317.37   21.90
   3   7   9  326.27   22.40
   3   7   9  267.97   21.70
   3   7   9  317.87   22.10
   3   7   9  301.47   21.90
  -4  -7  -9  178.18   12.50
  -4  -7  -9  192.28   13.40
   4   7   9  151.88   13.10
   4   7   9  175.38   13.50
   4   7   9  165.38   13.60
   2  -8  -9  452.95   33.10
   2  -8  -9  427.56   32.30
  -2   8   9  497.25   32.10
  -2   8   9  474.45   32.20
  -2   8   9  472.95   31.90
   1  -8  -9   27.70    5.60
   1  -8  -9   32.90    4.30
  -1   8   9   26.40    4.10
  -1   8   9   21.00    3.00
  -1   8   9   32.00    3.90
   0  -8  -9  749.33   53.59
   0  -8  -9  702.43   50.19
   0  -8  -9  750.52   50.29
   0   8   9  728.93   49.99
   0   8   9  728.63   49.90
  -1  -8  -9  810.92   54.29
  -1  -8  -9  819.52   54.29
   1   8   9  772.02   54.09
   1   8   9  773.12   53.89
   1   8   9  780.92   54.09
  -2  -8  -9  231.08   15.90
  -2  -8  -9  212.88   15.70
   2   8   9  213.08   15.70
   2   8   9  192.48   15.30
   2   8   9  203.38   15.50
  -3  -8  -9   29.90    4.20
  -3  -8  -9   25.60    5.20
  -3  -8  -9   31.80    3.70
   3   8   9   36.40    5.20
   3   8   9   34.40    5.20
   3   8   9   39.60    6.90
   3   8   9   22.10    3.80
  -4  -8  -9    6.40    2.80
  -4  -8  -9   -1.50    4.50
   4   8   9    6.80    4.20
   4   8   9   -0.30    5.20
   4   8   9    3.70    3.90
   2  -9  -9   81.19    8.70
   2  -9  -9  101.29    9.80
  -2   9   9  101.89    7.70
  -2   9   9  100.89    8.10
  -2   9   9  106.29    7.80
   1  -9  -9  386.76   27.60
   1  -9  -9  386.76   28.50
  -1   9   9  396.46   27.30
  -1   9   9  405.26   27.20
  -1   9   9  392.76   27.10
   0  -9  -9  374.76   27.60
   0  -9  -9  396.86   27.50
   0   9   9  390.76   27.00
   0   9   9  396.26   27.10
  -1  -9  -9    9.70    3.60
  -1  -9  -9    2.70    3.70
   1   9   9    1.20    2.30
   1   9   9    5.80    3.40
   1   9   9    4.40    3.10
  -2  -9  -9  251.37   17.40
  -2  -9  -9  243.98   17.30
   2   9   9  246.38   17.30
   2   9   9  205.78   16.90
   2   9   9  229.58   17.00
  -3  -9  -9  215.28   15.40
  -3  -9  -9  213.28   15.10
   3   9   9  191.68   15.00
   3   9   9  188.78   14.90
   1 -10  -9  110.69    9.50
   1 -10  -9  118.59   12.20
  -1  10   9  122.99   10.60
  -1  10   9  124.59    9.20
  -1  10   9  120.69    9.20
   0 -10  -9   81.79    7.90
   0  10   9   88.09    7.60
   0  10   9   89.49    7.60
  -1 -10  -9   95.29    9.20
  -1 -10  -9   83.79    7.60
  -1 -10  -9   88.69    8.10
   1  10   9   96.89    8.00
   1  10   9   88.59    8.20
   1  10   9   80.59    7.50
  -2 -10  -9   25.80    4.00
  -2 -10  -9   32.10    4.60
   2  10   9   25.20    3.90
   2  10   9   21.60    3.40
   2  10   9   27.70    5.50
  -2  -5  10  152.18   11.60
  -2  -5  10  153.08   12.00
  -1  -5  10  890.31   61.99
  -1  -5  10  959.00   59.99
  -1  -5  10  785.82   59.89
   0  -5  10  502.05   36.80
   0  -5  10  572.14   37.30
   0  -5  10  529.75   37.70
   1  -5  10   13.10    4.00
   1  -5  10    6.50    7.00
   1  -5  10   20.10    5.70
   1  -5  10   14.10    6.60
  -3  -4  10  255.87   19.00
  -3  -4  10  256.67   18.30
  -3  -4  10  276.87   18.70
  -2  -4  10    3.40    3.30
  -2  -4  10    2.20    3.00
  -2  -4  10   -9.10    6.40
  -2  -4  10    1.70    2.50
  -1  -4  10    7.70    2.60
  -1  -4  10   16.30    3.50
  -1  -4  10   13.80    5.70
  -1  -4  10   16.50    2.90
   0  -4  10  558.54   38.20
   0  -4  10  523.45   38.80
   0  -4  10  577.34   38.00
   1  -4  10  138.09   15.30
   1  -4  10  149.29   15.50
   1  -4  10  200.88   14.40
   1  -4  10  199.48   13.40
   2  -4  10    2.10    6.10
   2  -4  10    4.10    5.60
   2  -4  10    9.60    5.10
   2  -4  10   10.20    5.10
  -3  -3  10  421.56   29.40
  -3  -3  10  414.56   29.60
  -3  -3  10  437.86   29.10
  -2  -3  10  253.57   16.80
  -2  -3  10  217.98   17.60
  -2  -3  10  258.37   17.20
  -2  -3  10  222.78   18.60
  -2  -3  10  229.48   18.80
  -2  -3  10  252.27   17.50
  -1  -3  10   44.80    6.20
  -1  -3  10   30.50    9.30
  -1  -3  10   29.30    8.00
  -1  -3  10   40.90    6.70
  -1  -3  10   42.30    4.90
  -1  -3  10   49.30    4.30
   0  -3  10  631.64   49.20
   0  -3  10  690.23   48.30
   0  -3  10  756.92   48.70
   0  -3  10  765.42   48.60
   1  -3  10  148.49   10.60
   1  -3  10  110.89   10.90
   1  -3  10  113.99   12.80
   1  -3  10  138.59   11.60
   1  -3  10  118.19   12.20
   2  -3  10    9.30    4.50
   2  -3  10    4.80    4.80
   2  -3  10    5.60    3.70
   2  -3  10    0.20    5.00
   3  -3  10   36.30    5.80
   3  -3  10   48.10    8.50
   3  -3  10   25.10    4.50
  -3  -2  10  427.46   31.00
  -3  -2  10  442.26   30.90
  -3  -2  10  471.05   30.60
  -2  -2  10  169.58   13.60
  -2  -2  10  164.98   14.50
  -2  -2  10  197.58   13.70
  -2  -2  10  186.28   13.30
  -2  -2  10  190.88   12.90
  -1  -2  10   43.40    6.90
  -1  -2  10   50.79    4.40
  -1  -2  10   55.79    6.30
  -1  -2  10   36.10    6.80
  -1  -2  10   53.89    5.00
  -1  -2  10   47.60    5.70
   0  -2  10  424.06   32.70
   0  -2  10  469.35   32.00
   0  -2  10  492.65   31.60
   0  -2  10  473.75   31.40
   0  -2  10  432.56   33.50
   1  -2  10 1041.20   63.79
   1  -2  10 1053.09   63.99
   1  -2  10  858.91   64.99
   1  -2  10 1021.10   63.99
   1  -2  10  900.41   64.39
   1  -2  10  900.81   64.49
   1  -2  10  812.72   65.19
   2  -2  10  115.09   11.00
   2  -2  10  117.69   10.00
   2  -2  10  120.09   10.80
   2  -2  10  119.09   11.80
   3  -2  10    7.30    3.40
   3  -2  10   15.00    5.20
   3  -2  10    7.40    5.00
   3  -2  10    7.30    4.20
   4  -2  10  199.78   15.20
   4  -2  10  182.38   15.00
   4  -2  10  160.28   14.70
   4   1 -10  202.78   14.90
  -4  -1  10  207.58   14.10
  -4  -1  10  185.78   14.60
  -3  -1  10   37.10    5.40
  -3  -1  10   38.40    3.70
  -3  -1  10   23.40    4.80
  -3  -1  10   34.60    4.80
  -2  -1  10  104.39    7.80
  -2  -1  10   84.99    7.90
  -2  -1  10  105.59    7.40
  -2  -1  10   91.39    8.90
  -2  -1  10   92.19    8.40
  -1  -1  10 2057.89  136.69
  -1  -1  10 1980.30  136.09
  -1  -1  10 1979.10  136.09
  -1  -1  10 2046.40  136.39
   0  -1  10   55.59    5.30
   0  -1  10   56.79    6.00
   0  -1  10   64.39    6.40
   0  -1  10   51.49    8.00
   0  -1  10   56.99    4.70
   1  -1  10  276.07   20.90
   1  -1  10  307.67   20.20
   1  -1  10  299.67   19.70
   1  -1  10  317.77   19.60
   1  -1  10  243.18   20.60
   1  -1  10  239.58   21.30
   2  -1  10  125.49   12.10
   2  -1  10  124.79   10.40
   2  -1  10  135.99   11.40
   2  -1  10  120.99   11.50
   2  -1  10  141.39    9.80
   3  -1  10  827.82   54.79
   3  -1  10  858.91   55.09
   3  -1  10  681.03   54.09
   3  -1  10  785.92   54.09
   4  -1  10    4.20    4.30
   4  -1  10    1.50    7.90
   4  -1  10    1.40    3.40
   4  -1  10   -0.10    4.60
  -4   0  10  108.39    8.90
  -4   0  10  105.99    8.60
   3   0 -10   28.30    4.20
  -3   0  10   19.70    4.40
  -3   0  10   21.30    3.80
  -3   0  10   24.80    3.20
  -3   0  10   27.70    3.30
  -2   0  10  208.48   14.10
  -2   0  10  168.48   16.10
  -2   0  10  206.08   14.40
  -2   0  10  205.18   13.80
  -2   0  10  188.48   14.40
  -1   0  10  841.32   56.99
  -1   0  10  804.62   56.89
  -1   0  10  842.42   56.89
  -1   0  10  823.42   57.39
  -1   0  10  849.91   56.79
  -1   0  10  857.11   56.69
   0   0  10  911.51   69.09
   0   0  10 1086.99   68.79
   0   0  10  968.50   68.39
   0   0  10 1034.00   68.39
   0   0  10 1050.09   68.29
   1   0  10   13.60    2.70
   1   0  10   11.50    1.80
   1   0  10    9.90    2.40
   1   0  10   15.60    3.50
   1   0  10   11.60    4.70
   2   0  10   86.29   10.00
   2   0  10   81.19    6.70
   2   0  10   68.69    8.70
   2   0  10   84.59    8.70
  -3   0 -10  347.27   24.00
   3   0  10  326.27   24.70
   3   0  10  367.16   25.70
   3   0  10  348.17   24.20
   3   0  10  353.76   25.40
   4   0  10   22.30    4.70
   4   0  10   29.50    5.40
   4   0  10   20.90    4.20
   4  -1 -10  283.27   20.40
  -4   1  10  279.37   20.00
   3  -1 -10    8.40    3.60
  -3   1  10    9.60    2.40
  -3   1  10   10.60    3.60
  -3   1  10   14.00    4.40
  -3   1  10   10.90    2.10
  -2   1  10  288.07   21.30
  -2   1  10  297.87   20.80
  -2   1  10  288.57   20.60
  -2   1  10  295.47   20.30
  -2   1  10  290.47   20.60
   1  -1 -10  179.48   12.80
  -1   1  10  162.28   11.80
  -1   1  10  164.28   12.20
  -1   1  10  166.38   12.10
  -1   1  10  158.78   12.00
  -1   1  10  161.28   12.60
  -1   1  10  160.48   11.60
   0   1  10    4.10    2.00
   0   1  10    1.80    3.10
   0   1  10    7.30    1.40
   0   1  10    1.30    1.60
   1   1  10  658.13   45.10
   1   1  10  662.63   46.00
   1   1  10  633.44   45.20
   1   1  10  705.63   45.60
   2   1  10    2.30    1.70
   2   1  10    3.60    2.80
   2   1  10    3.50    3.90
   2   1  10    1.90    2.40
   3   1  10   49.10    7.00
   3   1  10   44.90    5.10
   3   1  10   46.30    5.70
   3   1  10   57.09    6.50
  -4  -1 -10   57.89    5.90
   4   1  10   57.49    7.10
   4   1  10   66.39    7.70
   4   1  10   81.89    8.10
   4  -2 -10   74.89    7.60
  -4   2  10   66.59    5.80
   3  -2 -10 1089.59   68.79
  -3   2  10  967.80   67.79
  -3   2  10  991.80   67.99
  -3   2  10  963.40   67.89
   2  -2 -10   53.99    8.50
  -2   2  10   36.40    4.60
  -2   2  10   30.50    4.40
  -2   2  10   33.00    5.90
   1  -2 -10   10.60    3.60
  -1   2  10    7.40    2.00
  -1   2  10    8.30    1.80
  -1   2  10   13.50    2.30
  -1   2  10   10.40    1.60
   0   2  10  646.54   44.60
   0   2  10  674.63   44.20
   0   2  10  626.74   43.80
   0   2  10  636.84   43.90
   1   2  10 2120.79  144.19
   1   2  10 2181.28  144.89
   1   2  10 2194.38  144.49
   1   2  10 2058.29  144.09
   2   2  10   30.20    5.90
   2   2  10   27.40    4.10
   2   2  10   30.30    3.40
   2   2  10   32.10    5.10
   3   2  10  266.57   20.10
   3   2  10  276.47   20.80
   3   2  10  293.87   20.60
   3   2  10  282.17   19.70
  -4  -2 -10  276.67   19.50
   4   2  10  273.97   20.70
   4   2  10  294.17   21.00
  -5  -2 -10    3.50    2.60
   5   2  10    6.20    4.90
   5   2  10   -1.40    4.10
   4  -3 -10    3.00    4.80
  -4   3  10    7.90    3.20
   3  -3 -10    9.80    3.70
  -3   3  10    7.00    2.40
  -3   3  10    2.10    1.80
  -3   3  10   10.40    3.20
   2  -3 -10  720.33   46.00
  -2   3  10  627.04   44.80
  -2   3  10  694.23   45.30
  -2   3  10  625.04   44.70
  -2   3  10  620.44   44.60
   1  -3 -10   10.80    4.00
  -1   3  10   13.40    2.40
  -1   3  10   12.70    1.80
  -1   3  10   12.70    2.20
  -1   3  10   13.10    2.10
   0   3  10 1923.31  147.59
   0   3  10 2260.47  147.89
   0   3  10 2185.58  147.29
   0   3  10 2326.67  147.69
   0   3  10 2235.08  147.39
  -1  -3 -10  816.92   60.79
   1   3  10  916.41   60.59
   1   3  10  771.82   60.79
   1   3  10  997.00   61.39
   1   3  10  967.60   60.89
   2   3  10  160.58   11.20
   2   3  10  146.09   12.10
   2   3  10  144.19   10.70
   2   3  10  158.38   11.80
   2   3  10  124.69   11.60
  -3  -3 -10   39.90    5.20
   3   3  10   38.50    6.30
   3   3  10   54.59    6.10
   3   3  10   52.09    5.90
   3   3  10   49.20    7.00
   3   3  10   51.89    4.80
  -4  -3 -10  402.66   26.70
   4   3  10  406.16   28.00
   4   3  10  407.56   27.80
   4   3  10  336.97   27.50
  -5  -3 -10  514.45   34.40
   5   3  10  451.95   35.40
   5   3  10  544.95   35.50
   4  -4 -10  211.38   16.10
   4  -4 -10  211.18   15.50
  -4   4  10  209.88   15.10
   3  -4 -10   80.49    8.30
  -3   4  10   73.89    6.60
  -3   4  10   79.29    7.10
   2  -4 -10   55.29    7.50
  -2   4  10   62.59    5.70
  -2   4  10   58.59    5.00
  -2   4  10   62.79    5.50
   1  -4 -10   27.30    4.70
  -1   4  10   28.50    4.00
  -1   4  10   28.30    3.50
  -1   4  10   28.80    3.00
  -1   4  10   24.10    3.70
   0  -4 -10  861.21   54.39
   0   4  10  777.42   53.89
   0   4  10  804.22   54.59
   0   4  10  815.42   54.29
   0   4  10  724.33   54.29
  -1  -4 -10    2.50    3.20
   1   4  10    0.20    1.40
   1   4  10   -0.30    1.90
   1   4  10   -0.30    2.00
   1   4  10    2.80    2.40
  -2  -4 -10  185.78   13.00
   2   4  10  143.79   12.90
   2   4  10  185.18   13.10
   2   4  10  174.38   12.50
   2   4  10  162.38   13.50
   2   4  10  160.78   12.10
  -3  -4 -10   15.30    3.70
   3   4  10   25.30    4.70
   3   4  10   19.20    3.90
   3   4  10   22.70    3.70
   3   4  10   15.00    2.60
   3   4  10   26.40    4.80
  -4  -4 -10   19.70    4.70
  -4  -4 -10   18.00    2.70
   4   4  10   23.50    4.80
   4   4  10   24.20    4.10
   4   4  10   18.70    3.90
   4   4  10   22.30    4.90
  -5  -4 -10   82.69    6.80
   5   4  10   75.39    9.90
   5   4  10   91.89    8.70
   3  -5 -10   28.60    4.40
   3  -5 -10   37.00    5.50
  -3   5  10   28.70    4.00
  -3   5  10   32.40    4.80
   2  -5 -10  543.45   40.40
   2  -5 -10  620.74   40.00
  -2   5  10  565.14   39.40
  -2   5  10  576.84   39.60
   1  -5 -10  144.49   12.60
   1  -5 -10  161.28   13.20
  -1   5  10  143.19   10.50
  -1   5  10  149.79   11.40
   0  -5 -10   71.69    7.10
   0   5  10   62.99    6.30
   0   5  10   69.29    6.80
   0   5  10   65.99    5.40
   0   5  10   73.09    6.10
  -1  -5 -10  357.26   25.80
   1   5  10  342.57   25.60
   1   5  10  396.06   26.00
   1   5  10  382.26   25.50
   1   5  10  350.16   25.10
   2   5  10 1087.29   77.49
   2   5  10 1206.68   77.39
   2   5  10 1133.59   77.79
   2   5  10 1125.79   77.89
  -3  -5 -10   25.80    4.10
   3   5  10   32.80    4.50
   3   5  10   29.80    5.00
   3   5  10   34.20    4.50
   3   5  10   26.20    5.10
  -4  -5 -10  110.49    8.10
  -4  -5 -10  104.29    9.60
   4   5  10   84.09    9.10
   4   5  10  109.39    9.80
   4   5  10  110.79    9.60
   3  -6 -10   14.50    3.50
   3  -6 -10    7.20    4.20
  -3   6  10   13.30    2.50
  -3   6  10   16.40    3.10
   2  -6 -10  732.93   48.90
   2  -6 -10  663.33   49.40
  -2   6  10  663.73   48.70
  -2   6  10  761.42   48.70
  -2   6  10  731.53   48.40
   1  -6 -10  162.58   14.80
   1  -6 -10  193.58   13.90
  -1   6  10  181.18   13.40
  -1   6  10  181.48   13.20
  -1   6  10  176.38   12.90
  -1   6  10  176.98   15.90
   0   6  10  405.86   29.50
   0   6  10  380.96   26.90
  -1  -6 -10   23.00    4.60
   1   6  10   21.20    2.90
  -2  -6 -10  611.84   41.40
  -2  -6 -10  656.53   41.50
   2   6  10  642.44   41.70
   2   6  10  540.75   40.90
   2   6  10  621.24   41.20
   2   6  10  589.44   41.40
   2   6  10  534.75   41.20
  -3  -6 -10  744.83   47.60
   3   6  10  627.64   47.60
   3   6  10  665.53   47.50
   3   6  10  722.73   47.90
   3   6  10  700.33   48.10
  -4  -6 -10   -0.20    2.20
  -4  -6 -10    2.40    3.50
   4   6  10   -3.20    4.00
   4   6  10   -5.80    3.10
   4   6  10    5.70    3.50
   3  -7 -10  469.25   34.90
   3  -7 -10  453.65   35.40
  -3   7  10  559.24   34.70
  -3   7  10  533.15   34.50
   2  -7 -10   18.20    4.10
   2  -7 -10    3.40    4.50
  -2   7  10   15.00    2.40
  -2   7  10    9.90    3.50
  -2   7  10   18.20    2.90
   1  -7 -10    4.80    5.00
   1  -7 -10   18.20    3.80
  -1   7  10    9.30    2.30
  -1   7  10   21.10    4.50
  -1   7  10   12.40    2.80
  -1   7  10   10.70    2.90
   0  -7 -10  776.32   55.39
   0   7  10  814.92   54.99
   0   7  10  798.62   55.19
   0   7  10  836.12   55.49
  -1  -7 -10 1336.67   89.59
  -1  -7 -10 1402.76   89.69
   1   7  10 1203.88   89.49
   1   7  10 1401.96   89.99
   1   7  10 1315.17   89.39
   1   7  10 1251.67   89.49
  -2  -7 -10   -0.70    4.10
  -2  -7 -10    0.50    3.30
   2   7  10   -1.20    3.20
   2   7  10   -0.10    2.90
   2   7  10    0.20    2.60
   2   7  10   -0.70    2.30
  -3  -7 -10    4.10    3.30
   3   7  10    7.90    3.10
   3   7  10    7.00    4.90
   3   7  10    0.60    3.20
   4   7  10  587.84   40.80
   4   7  10  503.95   41.50
   4   7  10  659.83   41.00
   2  -8 -10  202.38   15.50
   2  -8 -10  184.98   16.20
  -2   8  10  194.98   14.90
  -2   8  10  218.18   14.60
  -2   8  10  207.18   14.30
   1  -8 -10   24.30    6.20
   1  -8 -10   40.90    4.90
  -1   8  10   31.10    5.40
  -1   8  10   28.60    4.30
  -1   8  10   32.80    4.80
  -1   8  10   27.30    3.80
   0  -8 -10  205.78   14.60
   0  -8 -10  177.28   14.60
   0   8  10  184.28   13.70
   0   8  10  198.28   14.60
   0   8  10  181.68   13.90
  -1  -8 -10  245.38   17.30
  -1  -8 -10  242.88   17.40
   1   8  10  219.48   16.70
   1   8  10  247.28   17.30
   1   8  10  226.48   16.60
   1   8  10  210.18   17.30
  -2  -8 -10  288.57   18.90
  -2  -8 -10  262.57   18.90
   2   8  10  264.37   18.90
   2   8  10  238.78   18.50
   2   8  10  239.98   18.80
   2   8  10  253.77   18.80
  -3  -8 -10  110.19    9.20
  -3  -8 -10  106.59    8.40
   3   8  10   97.39    9.10
   3   8  10  104.49    9.10
   1  -9 -10   10.70    3.40
   0  -9 -10    0.20    3.20
   0  -9 -10    9.60    4.30
   0   9  10    2.90    3.30
   0   9  10   -0.70    2.30
   0   9  10    4.90    2.60
  -1  -9 -10  484.85   33.60
  -1  -9 -10  502.65   33.50
   1   9  10  469.55   35.30
   1   9  10  503.75   33.70
   1   9  10  448.06   33.30
  -2  -9 -10  121.29   10.20
  -2  -9 -10  128.39   10.30
   2   9  10  111.29    9.50
   2   9  10  125.99    9.90
   2   9  10  114.59   12.90
  -3  -9 -10  109.79    8.90
   3   9  10   95.49    8.60
   3   9  10   88.89    8.60
   0 -10 -10    9.40    2.80
   0  10  10   17.30    3.40
   0  10  10   10.60    2.70
   0  10  10    8.10    3.60
  -1 -10 -10   11.40    3.50
  -1 -10 -10   14.50    4.40
   1  10  10   12.70    2.90
  -1  -4  11  429.16   26.20
  -1  -4  11  354.26   25.90
  -1  -4  11  320.87   27.10
   0  -4  11  113.09    9.70
   0  -4  11  123.29   10.60
   0  -4  11  100.09   12.10
   1  -4  11   29.70    7.90
   1  -4  11   22.40    7.80
   1  -4  11   41.20    6.90
  -2  -3  11   23.10    4.30
  -2  -3  11   25.70    3.20
  -1  -3  11   28.50    8.10
  -1  -3  11   32.30    4.70
  -1  -3  11   41.10    5.00
  -1  -3  11   32.50    4.30
   0  -3  11  458.65   30.70
   0  -3  11  390.06   32.10
   0  -3  11  486.55   31.00
   0  -3  11  450.45   31.20
   1  -3  11  363.36   26.30
   1  -3  11  340.97   27.30
   1  -3  11  394.26   28.00
   2  -3  11    6.40    7.80
   2  -3  11    0.30    4.90
   2  -3  11    6.60    6.10
   2  -3  11   15.10    6.50
   3   2 -11    3.70    3.30
  -3  -2  11    5.70    2.20
  -3  -2  11   -1.60    2.50
  -2  -2  11  456.15   30.40
  -2  -2  11  425.06   30.80
  -2  -2  11  449.66   30.70
  -1  -2  11   26.30    3.40
  -1  -2  11   25.40    4.10
  -1  -2  11   25.10    3.20
   0  -2  11   92.19    9.40
   0  -2  11  116.09    8.40
   0  -2  11  106.09    7.80
   0  -2  11   83.09    9.90
   1  -2  11  230.28   19.40
   1  -2  11  219.88   20.10
   1  -2  11  271.07   23.90
   1  -2  11  281.17   17.40
   1  -2  11  239.18   18.20
   2  -2  11  111.99   10.40
   2  -2  11  131.39   11.80
   2  -2  11  131.69   12.70
   3  -2  11   30.80    6.60
   3  -2  11   24.40    8.90
   3  -2  11   19.00    4.90
   3   1 -11  182.88   16.40
  -3  -1  11  184.68   13.00
  -3  -1  11  182.78   13.50
  -2  -1  11   15.90    2.70
  -2  -1  11   16.10    3.50
  -2  -1  11   16.30    4.10
  -2  -1  11   13.50    2.20
  -2  -1  11   14.90    4.80
  -1  -1  11   45.00    4.90
  -1  -1  11   43.60    4.20
  -1  -1  11   39.80    6.20
   0  -1  11   26.60    3.40
   0  -1  11   30.40    4.40
   0  -1  11   26.20    3.20
   0  -1  11   26.90    4.20
   1  -1  11  119.69   11.90
   1  -1  11  136.29   10.50
   1  -1  11  111.19   13.50
   1  -1  11  139.39    9.60
   2  -1  11   16.40    3.70
   2  -1  11   26.40    3.20
   2  -1  11   23.80    6.10
   2  -1  11   19.90    4.60
   3  -1  11   48.00    6.30
   3  -1  11   56.49    8.70
   3  -1  11   55.29    7.60
   3   0 -11    4.20    3.40
  -3   0  11    5.60    2.30
  -3   0  11    4.40    2.00
   2   0 -11  559.34   36.10
  -2   0  11  545.65   35.60
  -2   0  11  483.05   35.70
  -2   0  11  481.95   36.40
  -2   0  11  518.05   35.30
  -1   0  11  174.38   13.80
  -1   0  11  189.18   13.20
  -1   0  11  179.88   13.70
  -1   0  11  183.48   12.90
   0   0  11   -1.60    2.60
   0   0  11   -2.40    2.00
   0   0  11    0.70    1.60
   1   0  11   87.99    7.50
   1   0  11   81.89    6.40
   1   0  11   79.19    8.70
   1   0  11   69.29   11.50
   2   0  11 1216.68   78.59
   2   0  11 1171.38   79.09
   2   0  11 1191.78   79.69
   2   0  11 1063.89   79.79
   3   0  11   58.79    7.20
   3   0  11   51.39    6.30
   3   0  11   52.49    8.20
   4   0  11   42.60    7.60
   4   0  11   30.10    4.70
   4   0  11   38.30    7.40
   3  -1 -11   35.50    5.00
  -3   1  11   29.10    3.50
  -3   1  11   30.70    3.60
   2  -1 -11  110.59    9.80
  -2   1  11  108.69    7.90
  -2   1  11  100.19    8.40
  -1   1  11  409.76   28.00
  -1   1  11  415.66   28.20
  -1   1  11  401.36   28.40
   0   1  11  917.51   62.49
   0   1  11  782.72   63.19
   0   1  11  973.50   62.89
   0   1  11 1015.50   62.89
   2   1  11  170.18   13.40
   2   1  11  174.58   12.10
   2   1  11  169.68   12.80
   2   1  11  153.28   14.40
   3   1  11  667.93   49.60
   3   1  11  772.52   50.29
   3   1  11  715.83   50.49
   3   1  11  735.43   49.20
  -4  -1 -11  180.28   14.10
   4   1  11  168.48   14.10
   4   1  11  180.18   14.60
   3  -2 -11  377.46   25.60
  -3   2  11  336.57   24.40
   2  -2 -11   97.89    9.90
  -2   2  11  105.79    7.80
  -2   2  11  105.99    8.70
  -2   2  11  104.09    8.10
  -1   2  11   13.40    2.30
  -1   2  11   23.40    3.90
  -1   2  11   13.40    1.90
   0   2  11   67.29    5.30
   0   2  11   66.99    6.00
   0   2  11   65.79    7.70
   0   2  11   63.99    5.70
   1   2  11 1516.35   99.69
   1   2  11 1476.95  100.19
   1   2  11 1431.26  100.39
  -2  -2 -11   74.79    7.90
   2   2  11   62.29    5.70
   2   2  11   67.99    7.50
   2   2  11   75.59    6.60
   2   2  11   61.79    9.20
   3   2  11    0.20    2.80
   3   2  11   -0.40    2.10
   3   2  11    2.40    4.30
   3   2  11   -1.60    3.00
  -4  -2 -11  199.98   14.60
   4   2  11  210.18   16.40
   4   2  11  207.58   15.90
   3  -3 -11   33.00    5.20
  -3   3  11   27.00    3.80
  -3   3  11   24.70    3.50
   2  -3 -11   90.09    9.40
  -2   3  11   94.39    7.70
  -2   3  11   90.19    6.90
  -2   3  11   86.99    7.40
  -1   3  11  100.19    8.00
  -1   3  11  100.79    7.70
  -1   3  11  110.79    8.50
   0   3  11  950.20   65.69
   0   3  11  939.81   64.99
   0   3  11 1012.40   65.39
   0   3  11  937.11   64.99
   1   3  11   12.20    2.00
   1   3  11   11.90    2.90
   1   3  11   10.00    3.30
  -2  -3 -11  287.77   22.30
   2   3  11  272.07   23.30
   2   3  11  329.27   22.10
   2   3  11  308.77   21.70
   2   3  11  360.06   22.80
  -3  -3 -11    0.20    7.50
   3   3  11    2.90    1.90
   3   3  11    4.00    4.50
   3   3  11    4.50    2.90
   3   3  11    1.70    3.00
  -4  -3 -11   76.89    6.60
   4   3  11   78.39    8.90
   4   3  11   82.59    8.20
   3  -4 -11   97.09    9.80
  -3   4  11  101.99    8.10
   2  -4 -11  513.55   35.20
  -2   4  11  497.55   34.10
  -2   4  11  527.25   34.40
  -2   4  11  452.15   33.80
  -1   4  11  209.68   14.00
  -1   4  11  173.08   13.30
  -1   4  11  183.98   13.60
   0  -4 -11    5.10    4.30
   0   4  11    5.50    3.20
   0   4  11    7.50    2.90
   0   4  11    2.80    1.90
  -1  -4 -11  435.06   29.40
   1   4  11  400.16   30.00
  -2  -4 -11  313.27   21.60
   2   4  11  247.48   21.90
   2   4  11  326.57   22.00
   2   4  11  282.57   20.90
   2   4  11  331.27   21.40
  -3  -4 -11    4.20    3.70
   3   4  11    4.30    4.50
   3   4  11    4.80    3.00
   3   4  11    4.90    3.70
   3   4  11    6.10    3.10
  -4  -4 -11  187.98   13.80
   4   4  11  198.68   15.00
   4   4  11  197.38   15.60
   3  -5 -11   22.00    4.00
   3  -5 -11   15.30    5.40
  -3   5  11   22.50    3.80
  -3   5  11   16.40    4.50
   2  -5 -11   -3.50    3.20
  -2   5  11    1.80    2.00
  -2   5  11   -1.00    2.50
   1  -5 -11 2464.05  149.59
  -1   5  11 2179.68  149.09
  -1   5  11 2419.36  149.49
  -1   5  11 2016.10  148.89
  -1   5  11 1978.30  149.29
   0  -5 -11  357.76   25.00
   0   5  11  325.47   24.20
   0   5  11  338.47   24.80
   0   5  11  376.56   24.70
   0   5  11  363.26   25.20
  -1  -5 -11    0.20    4.20
   1   5  11    2.10    1.80
   1   5  11   -2.50    2.30
   1   5  11    1.20    2.10
   1   5  11    1.30    2.80
  -2  -5 -11  375.76   26.20
   2   5  11  330.67   25.50
   2   5  11  398.36   26.50
   2   5  11  376.06   25.90
  -3  -5 -11  457.85   30.40
   3   5  11  379.96   30.50
   3   5  11  434.86   30.30
   3   5  11  427.96   31.10
   3   5  11  470.05   30.80
  -4  -5 -11   42.00    4.30
  -4  -5 -11   31.20    5.30
   4   5  11   32.10    6.00
   4   5  11   42.00    9.30
   4   5  11   31.60    5.60
   3  -6 -11   79.99    9.70
   3  -6 -11   86.59    8.30
  -3   6  11  100.69    7.30
  -3   6  11   91.19    7.70
   2  -6 -11    3.50    4.90
   2  -6 -11    9.30    3.10
  -2   6  11    0.90    2.00
  -2   6  11   -0.90    2.70
   1  -6 -11    4.70    3.40
  -1   6  11    6.50    2.10
  -1   6  11    5.00    3.10
  -1   6  11    5.10    2.70
   0  -6 -11  460.55   30.00
   0   6  11  377.16   29.00
   0   6  11  451.05   30.10
   0   6  11  394.86   29.60
   0   6  11  442.36   29.50
  -1  -6 -11   43.70    5.70
   1   6  11   41.10    4.60
   1   6  11   47.80    6.10
   1   6  11   45.40    4.90
   1   6  11   38.60    5.20
  -2  -6 -11    5.90    3.40
   2   6  11    4.30    2.10
   2   6  11    1.70    2.50
   2   6  11    4.90    2.70
   2   6  11    5.70    4.30
   2   6  11    3.80    2.90
  -3  -6 -11  371.96   24.20
   3   6  11  331.97   25.20
   3   6  11  333.27   24.10
   3   6  11  307.67   24.30
   3   6  11  358.76   24.50
  -4  -6 -11  428.26   29.10
   4   6  11  388.96   29.60
   4   6  11  429.06   29.30
   2  -7 -11  330.37   28.20
   2  -7 -11  386.56   27.40
  -2   7  11  440.46   27.10
  -2   7  11  392.26   26.80
   1  -7 -11    5.60    3.80
  -1   7  11    4.10    2.20
  -1   7  11    4.70    2.10
  -1   7  11    5.70    3.10
   0  -7 -11  142.19   12.10
   0   7  11  152.28   12.00
   0   7  11  136.99   11.20
   0   7  11  145.49   11.00
  -1  -7 -11    5.00    3.90
  -1  -7 -11    1.50    3.80
   1   7  11    3.70    2.50
   1   7  11    0.90    2.60
   1   7  11    6.60    3.00
   1   7  11   -1.80    2.50
  -2  -7 -11    8.20    5.10
  -2  -7 -11   11.90    3.50
   2   7  11    9.20    3.10
   2   7  11    5.90    2.90
   2   7  11   11.40    2.90
   2   7  11   10.30    4.50
  -3  -7 -11  122.79   10.00
   3   7  11  111.59   10.40
   3   7  11  123.89   10.10
   1  -8 -11    2.70    3.70
  -1   8  11    1.80    2.50
  -1   8  11   -0.10    2.60
   0  -8 -11  355.46   24.80
   0  -8 -11  351.36   24.80
   0   8  11  335.47   24.40
   0   8  11  350.66   24.90
   0   8  11  345.07   24.20
  -1  -8 -11  514.65   33.90
  -1  -8 -11  470.75   33.70
   1   8  11  477.85   33.30
   1   8  11  509.65   34.00
   1   8  11  448.86   33.50
  -2  -8 -11    4.10    5.30
  -2  -8 -11    0.00    3.40
   2   8  11    2.20    5.50
   2   8  11    1.90    2.50
   2   8  11    0.30    2.90
  -3  -8 -11   -0.30    2.70
  -3  -8 -11    4.10    3.80
   3   8  11    6.40    3.40
   3   8  11    8.00    4.00
   0  -9 -11   36.00    6.30
   0  -9 -11   45.40    7.40
   0   9  11   49.70    6.80
   0   9  11   43.70    5.00
   0   9  11   50.99    6.20
  -1  -9 -11  387.16   27.10
  -1  -9 -11  416.16   26.60
   1   9  11  334.97   25.90
   1   9  11  356.76   25.80
  -2  -9 -11  494.75   34.90
  -2  -9 -11  554.64   35.00
   2   9  11  533.85   35.10
   2   9  11  434.56   34.60
  -1  -3  12  197.08   14.80
  -1  -3  12  196.18   15.70
  -1  -3  12  223.98   15.10
   0  -3  12   11.30    3.70
  -2  -2  12   53.99    5.20
  -2  -2  12   58.79    6.00
  -2  -2  12   56.49    7.30
  -1  -2  12   59.29    5.50
  -1  -2  12   50.39    9.00
  -1  -2  12   65.69    6.30
   0  -2  12  282.27   19.60
   0  -2  12  279.77   20.00
   1  -2  12   99.59    8.80
   1  -2  12   92.69   10.10
   2  -2  12   73.49    8.30
   2  -2  12   87.99   11.60
   2  -2  12   82.69   10.10
  -2  -1  12  966.30   64.99
  -2  -1  12  955.20   65.19
  -1  -1  12  221.28   15.70
  -1  -1  12  216.58   15.30
  -1  -1  12  212.68   16.30
   0  -1  12   -0.90    2.50
   0  -1  12    0.90    2.00
   0  -1  12    5.20    4.10
   1  -1  12   90.19    6.80
   1  -1  12   79.39    8.00
   1  -1  12   64.79   10.40
   2  -1  12  520.35   34.60
   2  -1  12  450.15   35.60
   2  -1  12  478.55   33.80
   3  -1  12    0.60    3.90
   3  -1  12    1.40    3.00
   3  -1  12    5.80    5.80
   3   0 -12   -6.40    4.50
  -3   0  12   -3.70    2.20
  -3   0  12    3.00    1.90
  -2   0  12   51.99    4.90
  -2   0  12   55.09    5.50
  -1   0  12  621.44   42.10
  -1   0  12  575.34   42.30
  -1   0  12  648.84   41.90
   0   0  12  168.08   13.10
   0   0  12  173.08   12.70
   0   0  12  171.68   12.20
   1   0  12   94.69    8.60
   1   0  12   90.99   10.30
   1   0  12  103.19    7.60
   2   0  12  307.87   19.50
   2   0  12  281.37   20.90
   2   0  12  246.38   22.00
   2   0  12  273.57   20.10
   3   0  12  363.46   27.50
   3   0  12  390.06   26.00
   3   0  12  317.37   25.10
   3  -1 -12   72.39    8.80
  -3   1  12   77.89    6.80
  -3   1  12   76.49    6.20
  -2   1  12   24.20    3.10
  -2   1  12   14.70    2.60
  -1   1  12  143.89   11.20
  -1   1  12  137.99   10.60
  -1   1  12  140.69   10.20
   0   1  12    2.90    1.70
   0   1  12    7.40    2.30
   0   1  12    4.80    2.90
   1   1  12  110.59    8.50
   1   1  12  105.09   10.60
   1   1  12  120.09    9.30
   2   1  12   51.79    5.00
   2   1  12   51.99    5.90
   2   1  12   54.49    7.20
   2   1  12   42.30    8.30
   3   1  12   90.69    8.70
   3   1  12   75.79    7.80
   3   1  12   83.49   10.40
   3  -2 -12  214.68   17.40
  -3   2  12  237.08   15.80
  -2   2  12    8.10    2.10
  -2   2  12   13.70    2.00
  -2   2  12    7.40    3.90
  -1   2  12   85.39    7.50
  -1   2  12   85.19    6.60
  -1   2  12   85.59    7.00
   0  -2 -12  841.82   60.59
   0   2  12  887.91   60.09
   0   2  12  916.81   60.09
   0   2  12  897.81   60.49
   1   2  12   12.10    4.10
   1   2  12   10.60    2.10
   2   2  12    1.10    3.30
   2   2  12    2.80    2.00
   2   2  12    0.20    2.40
   3   2  12  251.77   17.70
   3   2  12  249.68   19.90
   3   2  12  230.78   18.20
   3   2  12  273.97   19.00
  -4  -2 -12    7.70    3.00
   4   2  12    6.90    5.60
   4   2  12   13.50    3.80
   4   2  12    9.70    4.10
   3  -3 -12  402.86   28.30
  -3   3  12  386.16   26.90
  -2   3  12  347.77   25.20
  -2   3  12  387.76   25.80
  -1   3  12   42.80    4.40
  -1   3  12   54.49    5.50
   0  -3 -12  147.99   12.80
   0   3  12  154.38   14.00
   0   3  12  167.48   11.90
   1   3  12  655.33   46.90
   1   3  12  692.13   47.80
   1   3  12  722.03   47.40
  -2  -3 -12   41.50    5.40
   2   3  12   43.70    5.20
   2   3  12   37.90    4.60
   2   3  12   39.50    6.20
   3   3  12    1.20    2.80
   3   3  12   -2.10    3.30
   3   3  12    4.10    5.90
  -4  -3 -12  504.25   33.10
   4   3  12  452.35   34.50
   4   3  12  498.75   34.10
   3  -4 -12   -3.10    5.00
   3  -4 -12    2.90    3.10
   2  -4 -12   56.09    6.80
  -2   4  12   53.99    6.00
  -2   4  12   48.80    4.80
   1  -4 -12  365.36   24.70
  -1   4  12  324.87   23.80
  -1   4  12  352.46   24.40
   0  -4 -12   30.10    4.80
   0   4  12   21.80    2.70
   0   4  12   32.80    5.10
   0   4  12   20.00    3.20
   1   4  12  109.89    8.90
   1   4  12  127.79    9.50
   1   4  12  123.59   10.60
  -2  -4 -12  895.11   63.89
   2   4  12  970.90   63.99
   2   4  12 1014.20   64.49
   2   4  12  869.01   63.59
  -3  -4 -12   96.29    9.00
   3   4  12   85.49    8.30
   3   4  12   80.49    7.70
   3   4  12   68.19   11.00
  -4  -4 -12   13.40    2.60
   4   4  12   16.40    6.00
   4   4  12   16.90    4.20
   2  -5 -12  201.68   14.60
  -2   5  12  183.18   14.10
   1  -5 -12   -0.20    3.80
  -1   5  12    0.70    2.50
  -1   5  12   -1.10    2.00
   0  -5 -12   71.29    8.30
   0   5  12   58.39    7.60
   0   5  12   81.19    6.80
   0   5  12   71.69    6.10
   0   5  12   90.99    8.60
  -1  -5 -12   46.20    6.40
   1   5  12   52.09    5.10
   1   5  12   51.29    6.60
   1   5  12   46.00    5.80
   1   5  12   39.70    4.60
  -2  -5 -12    4.40    3.50
   2   5  12    5.90    3.20
   2   5  12    7.70    3.00
   2   5  12   12.00    2.40
  -3  -5 -12  203.38   16.30
   3   5  12  214.98   16.10
   3   5  12  238.28   16.60
   2  -6 -12  130.29   10.20
  -2   6  12   95.69   10.70
   1  -6 -12  686.53   47.20
  -1   6  12  684.13   46.90
   0  -6 -12   20.30    4.50
   0   6  12   11.30    3.50
   0   6  12   14.50    2.80
   0   6  12   12.20    2.60
   0   6  12   13.60    4.50
  -1  -6 -12  125.59   11.20
   1   6  12  127.49    9.50
   1   6  12  122.99   10.10
  -2  -6 -12  160.78   13.10
   2   6  12  185.38   13.20
   2   6  12  146.39   12.10
   2   6  12  172.68   12.50
  -3  -6 -12  301.37   20.30
   3   6  12  283.47   20.30
   3   6  12  251.27   20.00
   1  -7 -12   49.70    7.00
  -1   7  12   56.79    5.50
  -1   7  12   48.50    7.10
   0  -7 -12  465.25   33.00
   0   7  12  490.95   32.60
   0   7  12  494.05   33.30
   0   7  12  435.46   32.70
  -1  -7 -12  125.59   10.50
  -1  -7 -12  133.39   12.20
   1   7  12  135.29   10.70
   1   7  12  125.29    9.60
   1   7  12  103.19    9.90
  -2  -7 -12    1.20    3.40
   2   7  12    6.90    3.10
   2   7  12    5.70    3.30
  -3  -7 -12  533.35   36.20
   3   7  12  515.55   36.50
   1  -8 -12    1.10    3.00
   1  -8 -12   -2.10    4.20
  -1   8  12    0.40    2.40
  -1   8  12    1.60    3.70
   0   8  12   56.59    7.30
   0   8  12   74.59    8.40
   0   8  12   63.49    7.60
  -1  -8 -12  220.88   16.10
  -1  -8 -12  229.28   15.70
   1   8  12  190.38   15.80
   1   8  12  187.08   15.10
   1   8  12  209.48   18.30
   2   8  12  229.48   16.10
   2   8  12  194.58   15.60
   0  -2  13   -3.30    3.30
  -1  -1  13  324.37   22.50
  -1  -1  13  326.97   22.80
   0  -1  13   16.70    4.00
   0  -1  13   29.20    4.00
   1  -1  13    0.60    4.30
   1  -1  13    4.80    3.00
   2  -1  13   22.10    5.80
   2  -1  13   16.20    4.20
  -2   0  13  283.57   19.40
  -2   0  13  277.07   19.70
  -1   0  13  158.58   11.70
  -1   0  13  151.38   11.20
   0   0  13   15.70    4.40
   0   0  13   16.60    2.50
   0   0  13    9.70    3.60
   1   0  13  278.37   17.80
   1   0  13  244.78   18.50
   1   0  13  224.68   24.60
   2   0  13    1.10    2.90
   2   0  13    0.20    4.60
  -2   1  13   73.29    6.80
  -2   1  13   75.29    6.80
  -1   1  13  537.95   36.70
  -1   1  13  539.25   36.90
   0   1  13    0.30    3.20
   0   1  13    1.60    2.00
   0   1  13    6.00    2.50
   1   1  13   79.99   10.60
   1   1  13   91.29    7.00
   1   1  13   86.19    8.00
   2   1  13   25.30    3.10
   2   1  13   16.40    3.60
   2   1  13   18.60    4.80
   3   1  13  174.08   13.90
   3   1  13  195.18   14.80
  -1   2  13    9.50    2.10
  -1   2  13    9.20    2.40
  -1   2  13   16.00    3.70
   0   2  13  438.36   30.00
   0   2  13  421.56   29.50
   1   2  13   92.69    7.20
   1   2  13   81.79   10.10
   1   2  13   93.09    8.00
   2   2  13   -1.80    3.60
   2   2  13   -1.10    2.20
   2   2  13    2.80    3.00
  -3  -2 -13  429.26   28.70
   3   2  13  446.26   29.90
   3   2  13  381.66   29.20
   2  -3 -13  128.79   11.00
  -2   3  13  114.79   10.30
  -2   3  13  113.99    8.70
   1  -3 -13  442.36   31.20
  -1   3  13  464.15   31.00
  -1   3  13  431.16   30.50
   0  -3 -13    9.20    8.70
   0   3  13    1.60    2.60
   0   3  13    3.50    1.90
   1   3  13   50.39    5.70
   1   3  13   54.39    4.80
   1   3  13   53.19    8.00
   2   3  13  101.79    9.50
   2   3  13   97.09    8.30
   2   3  13   87.69    7.50
   3   3  13  167.78   14.20
   3   3  13  211.28   16.20
   2  -4 -13  390.06   26.70
  -2   4  13  396.46   26.60
  -2   4  13  355.66   26.10
   1  -4 -13    9.30    4.20
  -1   4  13    1.00    2.00
  -1   4  13    7.50    2.90
   0  -4 -13   52.59    6.70
   0   4  13   62.19    5.40
   0   4  13   65.59    6.00
   1   4  13  248.08   17.10
   1   4  13  234.88   18.00
   1   4  13  222.48   16.50
  -2  -4 -13   84.29    9.60
   2   4  13  103.79    8.20
   2   4  13   99.09    9.20
   2   4  13   84.89    7.40
   3   4  13   34.80    6.70
   3   4  13   24.20    4.30
   2  -5 -13 1212.08   83.69
  -2   5  13 1254.67   83.59
   1  -5 -13  187.58   15.50
  -1   5  13  218.08   15.00
   0  -5 -13    1.80    5.80
   0   5  13    2.40    2.40
   0   5  13    3.20    2.10
   1   5  13  169.38   13.50
   1   5  13  145.09   11.90
   1   5  13  178.08   12.40
  -2  -5 -13   82.19    8.60
   2   5  13   75.59    6.70
   2   5  13   81.39    7.40
   2   5  13   85.29    8.40
  -3  -5 -13   56.59    8.60
   3   5  13   59.39    7.00
   3   5  13   76.79    7.50
   1  -6 -13   83.79    9.20
   0  -6 -13  208.98   16.80
   0   6  13  228.48   15.90
  -1  -6 -13    2.70    3.30
   1   6  13    4.20    2.40
   1   6  13   -1.20    2.50
   1   6  13    6.50    3.90
  -2  -6 -13   41.30    6.60
   2   6  13   41.30    6.50
   0  -7 -13   90.69    8.70
   0   7  13   85.29    7.80
   0   7  13   69.19    8.20
  -1  -7 -13   38.10    8.00
  -1  -7 -13   58.49    8.10
   1   7  13   59.59    7.40
   1   7  13   60.79    6.30
  -2  -7 -13    2.50    3.50
   2   7  13    6.50    3.20
   2   7  13    5.90    3.40
  -1   1  14   -2.50    2.10
   0   1  14   32.80    4.30
   0   1  14   42.20    6.80
   1   1  14   16.40    2.90
   1   1  14   14.70    4.00
  -1   2  14  161.58   14.20
  -1   2  14  172.38   12.10
   0   2  14  917.11   56.79
   0   2  14  750.92   56.79
   1   2  14  209.88   16.30
   2   2  14   32.20    3.80
   2   2  14   46.80    8.10
   2   2  14   32.60    5.40
   1  -3 -14   36.50    6.30
  -1   3  14   50.19    4.60
  -1   3  14   44.60    6.40
   0   3  14  297.57   20.60
  -1  -3 -14  113.19   10.50
   1   3  14  102.69    8.10
   1   3  14  108.99    9.00
   1   3  14   86.69   12.60
   2   3  14   -0.30    3.20
   2   3  14   -1.10    4.40
   2   3  14   -2.10    2.40
   1  -4 -14  503.25   36.80
  -1   4  14  575.64   36.60
  -1   4  14  511.15   36.10
   0   4  14   19.30    3.80
  -1  -4 -14   19.10    4.70
   1   4  14   21.00    4.10
   1   4  14   21.50    3.70
   1   4  14   11.40    5.90
   2   4  14  973.20   63.99
   2   4  14  943.21   64.39
   2   4  14  900.41   63.59
   0   5  14    1.60    2.40
   0   5  14    1.60    3.00
  -1  -5 -14   35.10    4.70
   1   5  14   29.10    5.90
   1   5  14   31.20    5.20
   1   5  14   23.30    3.30
  -2  -5 -14  110.29   10.60
   2   5  14  116.09    9.40
   2   5  14  116.89   10.60
  -1  -6 -14  275.87   19.20
   1   6  14  268.07   18.70
   1   6  14  246.28   19.90

_computing_structure_solution     'SHELXT 2014/4 (Sheldrick, 2014)'
;
_shelx_hkl_checksum              74099
_shelx_shelxl_version_number     2014/7
_olex2_date_sample_data_collection 2015-01-26
_olex2_date_sample_submission    2015-01-20
_olex2_exptl_crystal_mounting_method 'mounted on a cryoloop'
_olex2_submission_original_sample_id PhPhSO2Cl
_olex2_submission_special_instructions 'No special instructions were received'
loop_
_space_group_symop_operation_xyz
'x, y, z'
'-x, -y, -z'
loop_
_atom_site_label
_atom_site_type_symbol
_atom_site_fract_x
_atom_site_fract_y
_atom_site_fract_z
_atom_site_U_iso_or_equiv
_atom_site_adp_type
_atom_site_occupancy
_atom_site_site_symmetry_order
_atom_site_calc_flag
_atom_site_refinement_flags_posn
_atom_site_refinement_flags_adp
_atom_site_refinement_flags_occupancy
_atom_site_disorder_assembly
_atom_site_disorder_group
S1 S 0.00717(6) 0.37175(4) 0.78256(3) 0.01357(12) Uani 1 1 d . . . . .
Cl1 Cl 0.28799(7) 0.17637(4) 0.80992(3) 0.01960(13) Uani 1 1 d . . . . .
O1 O -0.1153(2) 0.36652(13) 0.90234(10) 0.0199(2) Uani 1 1 d . . . . .
O2 O -0.1471(2) 0.36399(13) 0.68357(10) 0.0206(2) Uani 1 1 d . . . . .
C10 C 0.2749(3) 0.58545(17) 0.60421(13) 0.0152(3) Uani 1 1 d . . . . .
C1 C 0.2079(3) 0.52933(16) 0.73294(13) 0.0135(3) Uani 1 1 d . . . . .
C8 C 0.5492(3) 0.76703(17) 0.65314(13) 0.0147(3) Uani 1 1 d . . . . .
C2 C 0.3009(3) 0.58886(17) 0.82049(13) 0.0141(3) Uani 1 1 d . . . . .
C3 C 0.4759(3) 0.71001(16) 0.78207(13) 0.0136(3) Uani 1 1 d . . . . .
C9 C 0.4414(3) 0.70337(17) 0.56626(13) 0.0159(3) Uani 1 1 d . . . . .
C6 C 0.8340(3) 0.94273(18) 0.70227(14) 0.0192(3) Uani 1 1 d . . . . .
C7 C 0.7291(3) 0.88543(18) 0.61619(14) 0.0177(3) Uani 1 1 d . . . . .
C4 C 0.5856(3) 0.77245(17) 0.86922(13) 0.0163(3) Uani 1 1 d . . . . .
C5 C 0.7619(3) 0.88529(18) 0.83013(14) 0.0179(3) Uani 1 1 d . . . . .
H10 H 0.212(4) 0.540(2) 0.5495(19) 0.021(5) Uiso 1 1 d . . . . .
H6 H 0.947(4) 1.027(2) 0.6739(18) 0.024(5) Uiso 1 1 d . . . . .
H2 H 0.251(4) 0.551(2) 0.907(2) 0.027(5) Uiso 1 1 d . . . . .
H4 H 0.532(4) 0.731(2) 0.959(2) 0.023(5) Uiso 1 1 d . . . . .
H9 H 0.486(4) 0.744(2) 0.4805(19) 0.025(5) Uiso 1 1 d . . . . .
H5 H 0.837(4) 0.925(3) 0.888(2) 0.027(5) Uiso 1 1 d . . . . .
H7 H 0.781(4) 0.922(2) 0.533(2) 0.026(5) Uiso 1 1 d . . . . .
loop_
_atom_site_aniso_label
_atom_site_aniso_U_11
_atom_site_aniso_U_22
_atom_site_aniso_U_33
_atom_site_aniso_U_23
_atom_site_aniso_U_13
_atom_site_aniso_U_12
S1 0.01359(18) 0.01657(19) 0.01142(19) -0.00459(13) 0.00227(13) -0.00498(13)
Cl1 0.0188(2) 0.01628(19) 0.0244(2) -0.00652(14) 0.00035(14) -0.00301(13)
O1 0.0211(5) 0.0239(5) 0.0158(5) -0.0069(4) 0.0081(4) -0.0081(4)
O2 0.0200(5) 0.0264(6) 0.0168(5) -0.0053(4) -0.0024(4) -0.0086(4)
C10 0.0176(7) 0.0184(7) 0.0106(6) -0.0055(5) 0.0008(5) -0.0022(5)
C1 0.0136(6) 0.0151(6) 0.0121(6) -0.0043(5) 0.0031(5) -0.0036(5)
C8 0.0154(6) 0.0153(6) 0.0128(7) -0.0037(5) 0.0028(5) -0.0014(5)
C2 0.0150(6) 0.0159(6) 0.0111(6) -0.0037(5) 0.0026(5) -0.0028(5)
C3 0.0145(6) 0.0144(6) 0.0115(6) -0.0036(5) 0.0018(5) -0.0016(5)
C9 0.0186(7) 0.0188(7) 0.0099(6) -0.0038(5) 0.0030(5) -0.0024(5)
C6 0.0186(7) 0.0176(7) 0.0215(8) -0.0051(6) 0.0048(6) -0.0068(5)
C7 0.0196(7) 0.0182(7) 0.0143(7) -0.0031(5) 0.0043(5) -0.0041(5)
C4 0.0179(7) 0.0178(7) 0.0137(7) -0.0056(5) 0.0013(5) -0.0025(5)
C5 0.0195(7) 0.0184(7) 0.0177(7) -0.0074(6) 0.0001(5) -0.0040(5)
loop_
_atom_type_symbol
_atom_type_description
_atom_type_scat_dispersion_real
_atom_type_scat_dispersion_imag
_atom_type_scat_source
C C 0.0140 0.0070 'International Tables Vol C Tables 4.2.6.8 and 6.1.1.4'
H H 0.0000 0.0000 'International Tables Vol C Tables 4.2.6.8 and 6.1.1.4'
Cl Cl 0.3290 0.5400 'International Tables Vol C Tables 4.2.6.8 and 6.1.1.4'
O O 0.0390 0.0250 'International Tables Vol C Tables 4.2.6.8 and 6.1.1.4'
S S 0.2920 0.4250 'International Tables Vol C Tables 4.2.6.8 and 6.1.1.4'
loop_
_geom_angle_atom_site_label_1
_geom_angle_atom_site_label_2
_geom_angle_atom_site_label_3
_geom_angle
_geom_angle_site_symmetry_1
_geom_angle_site_symmetry_3
O1 S1 Cl1 105.50(5) . .
O1 S1 C1 110.73(6) . .
O2 S1 Cl1 105.44(5) . .
O2 S1 O1 120.80(7) . .
O2 S1 C1 110.53(7) . .
C1 S1 Cl1 101.80(5) . .
C1 C10 H10 120.0(13) . .
C9 C10 C1 118.30(13) . .
C9 C10 H10 121.7(12) . .
C10 C1 S1 118.35(10) . .
C2 C1 S1 118.62(10) . .
C2 C1 C10 122.99(13) . .
C9 C8 C3 119.39(13) . .
C7 C8 C3 118.49(13) . .
C7 C8 C9 122.12(13) . .
C1 C2 C3 119.08(12) . .
C1 C2 H2 121.9(13) . .
C3 C2 H2 119.1(13) . .
C2 C3 C8 118.99(13) . .
C2 C3 C4 121.52(13) . .
C4 C3 C8 119.47(13) . .
C10 C9 C8 121.23(13) . .
C10 C9 H9 119.6(12) . .
C8 C9 H9 119.2(12) . .
C7 C6 C5 120.45(14) . .
C7 C6 H6 118.8(12) . .
C5 C6 H6 120.6(12) . .
C8 C7 H7 119.5(13) . .
C6 C7 C8 120.90(13) . .
C6 C7 H7 119.6(13) . .
C3 C4 H4 118.3(12) . .
C5 C4 C3 120.36(13) . .
C5 C4 H4 121.3(12) . .
C6 C5 H5 119.3(13) . .
C4 C5 C6 120.32(14) . .
C4 C5 H5 120.4(13) . .
loop_
_geom_bond_atom_site_label_1
_geom_bond_atom_site_label_2
_geom_bond_distance
_geom_bond_site_symmetry_2
S1 Cl1 2.0534(5) .
S1 O1 1.4274(10) .
S1 O2 1.4252(11) .
S1 C1 1.7517(14) .
C10 C1 1.4181(19) .
C10 C9 1.366(2) .
C10 H10 0.91(2) .
C1 C2 1.3707(19) .
C8 C3 1.4276(19) .
C8 C9 1.422(2) .
C8 C7 1.415(2) .
C2 C3 1.4172(19) .
C2 H2 0.96(2) .
C3 C4 1.4221(19) .
C9 H9 0.95(2) .
C6 C7 1.372(2) .
C6 C5 1.416(2) .
C6 H6 0.95(2) .
C7 H7 0.92(2) .
C4 C5 1.369(2) .
C4 H4 1.00(2) .
C5 H5 0.93(2) .
loop_
_geom_torsion_atom_site_label_1
_geom_torsion_atom_site_label_2
_geom_torsion_atom_site_label_3
_geom_torsion_atom_site_label_4
_geom_torsion
_geom_torsion_site_symmetry_1
_geom_torsion_site_symmetry_2
_geom_torsion_site_symmetry_3
_geom_torsion_site_symmetry_4
S1 C1 C2 C3 176.38(10) . . . .
Cl1 S1 C1 C10 88.20(11) . . . .
Cl1 S1 C1 C2 -89.47(11) . . . .
O1 S1 C1 C10 -160.02(11) . . . .
O1 S1 C1 C2 22.30(14) . . . .
O2 S1 C1 C10 -23.44(13) . . . .
O2 S1 C1 C2 158.89(11) . . . .
C10 C1 C2 C3 -1.2(2) . . . .
C1 C10 C9 C8 1.0(2) . . . .
C1 C2 C3 C8 0.3(2) . . . .
C1 C2 C3 C4 -177.89(12) . . . .
C8 C3 C4 C5 -0.6(2) . . . .
C2 C3 C4 C5 177.61(13) . . . .
C3 C8 C9 C10 -1.9(2) . . . .
C3 C8 C7 C6 0.9(2) . . . .
C3 C4 C5 C6 0.9(2) . . . .
C9 C10 C1 S1 -177.05(11) . . . .
C9 C10 C1 C2 0.5(2) . . . .
C9 C8 C3 C2 1.2(2) . . . .
C9 C8 C3 C4 179.40(13) . . . .
C9 C8 C7 C6 -178.81(14) . . . .
C7 C8 C3 C2 -178.57(13) . . . .
C7 C8 C3 C4 -0.3(2) . . . .
C7 C8 C9 C10 177.85(13) . . . .
C7 C6 C5 C4 -0.3(2) . . . .
C5 C6 C7 C8 -0.6(2) . . . .

_cod_database_fobs_code 3500029
