#------------------------------------------------------------------------------
#$Date: 2016-02-18 10:40:55 +0200 (Thu, 18 Feb 2016) $
#$Revision: 176722 $
#$URL: svn://www.crystallography.net/cod/cif/3/50/00/3500021.cif $
#------------------------------------------------------------------------------
#
# This file is available in the Crystallography Open Database (COD),
# http://www.crystallography.net/
#
# All data on this site have been placed in the public domain by the
# contributors.
#
data_3500021
loop_
_publ_author_name
'Thierry Maris'
_publ_section_references
;
Dolomanov, O.V., Bourhis, L.J., Gildea, R.J, Howard, J.A.K. & Puschmann, H.
 (2009), J. Appl. Cryst. 42, 339-341.

Sheldrick, G.M. (2008). Acta Cryst. A64, 112-122.
;
_publ_section_title
;
 1-naphtonitrile
;
_journal_name_full               'Personal communication to COD'
_journal_year                    2014
_chemical_formula_moiety         'C11 H7 N'
_chemical_formula_sum            'C11 H7 N'
_chemical_formula_weight         153.18
_space_group_crystal_system      monoclinic
_space_group_IT_number           4
_space_group_name_Hall           'P 2yb'
_space_group_name_H-M_alt        'P 1 21 1'
_symmetry_space_group_name_Hall  'P 2yb'
_symmetry_space_group_name_H-M   'P 1 21 1'
_atom_sites_solution_hydrogens   geom
_audit_creation_date             2014-11-18
_audit_creation_method
;
Olex2 1.2
(compiled 2014.09.19 svn.r3010 for OlexSys, GUI svn.r4874)
;
_cell_angle_alpha                90
_cell_angle_beta                 100.411(2)
_cell_angle_gamma                90
_cell_formula_units_Z            2
_cell_length_a                   3.9122(2)
_cell_length_b                   13.6040(7)
_cell_length_c                   7.4016(4)
_cell_measurement_reflns_used    5190
_cell_measurement_temperature    100
_cell_measurement_theta_max      70.03
_cell_measurement_theta_min      6.080
_cell_volume                     387.44(4)
_computing_cell_refinement
'SAINT (2012) Release V8.27B; Integration Software for Single Crystal Data. Bruker AXS Inc., Madison, WI 53719-1173.'
_computing_data_collection
'APEX2 (2012) ; Bruker Molecular Analysis Research Tool. Bruker AXS Inc., Madison, WI 53719-1173.'
_computing_data_reduction
'XPREP (2008) Version 2008/2; X-ray data Preparation and Reciprocal space Exploration Program. Bruker AXS Inc., Madison, WI 53719-1173.'
_computing_molecular_graphics    'Olex2 (Dolomanov et al., 2009)'
_computing_publication_material  'Olex2 (Dolomanov et al., 2009)'
_computing_structure_refinement  'XL (Sheldrick, 2008)'
_diffrn_ambient_temperature      100
_diffrn_detector_area_resol_mean 8.3
_diffrn_measured_fraction_theta_full 0.989
_diffrn_measured_fraction_theta_max 0.980
_diffrn_measurement_device_type  'Bruker Microstar'
_diffrn_measurement_method       '\w scans'
_diffrn_radiation_monochromator  'Helios Optics'
_diffrn_radiation_type           CuK\a
_diffrn_radiation_wavelength     1.54178
_diffrn_reflns_av_R_equivalents  0.0367
_diffrn_reflns_av_unetI/netI     0.0301
_diffrn_reflns_Laue_measured_fraction_full 0.989
_diffrn_reflns_Laue_measured_fraction_max 0.980
_diffrn_reflns_limit_h_max       4
_diffrn_reflns_limit_h_min       -4
_diffrn_reflns_limit_k_max       11
_diffrn_reflns_limit_k_min       -15
_diffrn_reflns_limit_l_max       8
_diffrn_reflns_limit_l_min       -8
_diffrn_reflns_number            6311
_diffrn_reflns_point_group_measured_fraction_full 0.762
_diffrn_reflns_point_group_measured_fraction_max 0.753
_diffrn_reflns_theta_full        67.679
_diffrn_reflns_theta_max         70.002
_diffrn_reflns_theta_min         6.079
_diffrn_source                   'Microstar Rotating Anode'
_exptl_absorpt_coefficient_mu    0.602
_exptl_absorpt_correction_T_max  0.647
_exptl_absorpt_correction_T_min  0.283
_exptl_absorpt_correction_type   multi-scan
_exptl_absorpt_process_details
'SADABS-2012/1 (Bruker,2012) was used for absorption correction. wR2(int) was 0.0783 before and 0.0596 after correction. The Ratio of minimum to maximum transmission is 0.7066. The \l/2 correction factor is 0.0015.'
_exptl_crystal_colour            'clear light colorless'
_exptl_crystal_colour_lustre     clear
_exptl_crystal_colour_modifier   light
_exptl_crystal_colour_primary    colorless
_exptl_crystal_density_diffrn    1.313
_exptl_crystal_description       fragment
_exptl_crystal_F_000             160
_exptl_crystal_size_max          0.21
_exptl_crystal_size_mid          0.2
_exptl_crystal_size_min          0.16
_geom_special_details
;
 All esds (except the esd in the dihedral angle between two l.s. planes)
 are estimated using the full covariance matrix.  The cell esds are taken
 into account individually in the estimation of esds in distances, angles
 and torsion angles; correlations between esds in cell parameters are only
 used when they are defined by crystal symmetry.  An approximate (isotropic)
 treatment of cell esds is used for estimating esds involving l.s. planes.
;
_refine_diff_density_max         0.266
_refine_diff_density_min         -0.170
_refine_diff_density_rms         0.067
_refine_ls_abs_structure_details
;
 Flack x determined using 345 quotients [(I+)-(I-)]/[(I+)+(I-)]
 (Parsons, Flack and Wagner, Acta Cryst. B69 (2013) 249-259).
;
_refine_ls_abs_structure_Flack   0.2(7)
_refine_ls_extinction_method     none
_refine_ls_goodness_of_fit_ref   1.090
_refine_ls_hydrogen_treatment    constr
_refine_ls_matrix_type           full
_refine_ls_number_parameters     109
_refine_ls_number_reflns         1105
_refine_ls_number_restraints     1
_refine_ls_restrained_S_all      1.090
_refine_ls_R_factor_all          0.0494
_refine_ls_R_factor_gt           0.0485
_refine_ls_shift/su_max          0.000
_refine_ls_shift/su_mean         0.000
_refine_ls_structure_factor_coef Fsqd
_refine_ls_weighting_details
'w=1/[\s^2^(Fo^2^)+(0.0895P)^2^+0.0469P] where P=(Fo^2^+2Fc^2^)/3'
_refine_ls_weighting_scheme      calc
_refine_ls_wR_factor_gt          0.1229
_refine_ls_wR_factor_ref         0.1251
_reflns_Friedel_coverage         0.471
_reflns_Friedel_fraction_full    0.514
_reflns_Friedel_fraction_max     0.505
_reflns_number_gt                1074
_reflns_number_total             1105
_reflns_special_details
;
 Reflections were merged by SHELXL according to the crystal
 class for the calculation of statistics and refinement.
 
 _reflns_Friedel_fraction is defined as the number of unique
 Friedel pairs measured divided by the number that would be
 possible theoretically, ignoring centric projections and
 systematic absences.
;
_reflns_threshold_expression     'I > 2\s(I)'
_iucr_refine_instructions_details
;

    naphtcn.res created by SHELXL-2014/7

TITL naphtcn in P21 #4
CELL 1.54178 3.9122 13.604 7.4016 90 100.411 90
ZERR 2 0.0002 0.0007 0.0004 0 0.002 0
LATT -1
SYMM -X,0.5+Y,-Z
 
SFAC C H N
UNIT 22 14 2
 
L.S. 50
PLAN  5
SIZE 0.16 0.2 0.21
TEMP -173
BOND
MORE -1
CONF
fmap 2
acta
REM <HKL>E:/DOSSIERS/TM/Inventaire%20Wuest/XTAL_STRUCTURES/NAPHT_CN/FINAL/2014
REM /naphtcn.hkl</HKL>
 
WGHT    0.089500    0.046900
FVAR       0.47739
N12   3   -0.060110   -0.101437    0.352826    11.00000    0.05041    0.03438 =
         0.05987    0.00480    0.00623   -0.00213
C1    1    0.277563    0.106349    0.160788    11.00000    0.03393    0.02466 =
         0.05129    0.00189    0.00825    0.00266
C2    1    0.402560    0.130362    0.345762    11.00000    0.03879    0.02882 =
         0.04838    0.00277    0.00856    0.00355
AFIX  43
H2    2    0.365404    0.086375    0.440011    11.00000   -1.20000
AFIX   0
C3    1    0.577577    0.216737    0.391115    11.00000    0.03807    0.03124 =
         0.04769   -0.00252    0.00482    0.00161
AFIX  43
H3    2    0.657508    0.233046    0.516429    11.00000   -1.20000
AFIX   0
C4    1    0.638949    0.281563    0.250881    11.00000    0.03611    0.02520 =
         0.05924   -0.00181    0.00712   -0.00053
AFIX  43
H4    2    0.761958    0.341061    0.283263    11.00000   -1.20000
AFIX   0
C5    1    0.525423    0.260271    0.071377    11.00000    0.03754    0.02515 =
         0.05479    0.00526    0.00944    0.00275
AFIX  43
H5    2    0.571032    0.304662   -0.020467    11.00000   -1.20000
AFIX   0
C6    1    0.337630    0.171634    0.018827    11.00000    0.03431    0.02597 =
         0.05183    0.00292    0.00866    0.00487
C7    1    0.211480    0.148160   -0.166909    11.00000    0.03699    0.02940 =
         0.05215    0.00589    0.00979    0.00519
AFIX  43
H7    2    0.251026    0.192235   -0.260542    11.00000   -1.20000
AFIX   0
C8    1    0.031948    0.062269   -0.214166    11.00000    0.03801    0.03432 =
         0.04770   -0.00190    0.00540    0.00339
AFIX  43
H8    2   -0.050091    0.047159   -0.339831    11.00000   -1.20000
AFIX   0
C9    1   -0.030032   -0.002921   -0.077272    11.00000    0.03616    0.02507 =
         0.05585   -0.00239    0.00518    0.00036
AFIX  43
H9    2   -0.153526   -0.062229   -0.110746    11.00000   -1.20000
AFIX   0
C10   1    0.086332    0.018159    0.105277    11.00000    0.03326    0.02382 =
         0.05550    0.00104    0.00628    0.00377
C11   1    0.008165   -0.048596    0.243048    11.00000    0.03871    0.02783 =
         0.05281   -0.00084    0.00544   -0.00021
HKLF 4
 
REM  naphtcn in P21 #4
REM R1 =  0.0485 for    1074 Fo > 4sig(Fo)  and  0.0494 for all    1105 data
REM    109 parameters refined using      1 restraints
 
END  
     
WGHT      0.0898      0.0463 

REM Highest difference peak  0.266,  deepest hole -0.170,  1-sigma level  0.067
Q1    1  -0.0453  0.0182  0.0325  11.00000  0.05    0.27
Q2    1  -0.0854 -0.1040  0.2130  11.00000  0.05    0.24
Q3    1   0.6825  0.2619  0.1430  11.00000  0.05    0.23
Q4    1   0.0044 -0.0993  0.4954  11.00000  0.05    0.23
Q5    1   0.0021 -0.0451  0.3660  11.00000  0.05    0.23

REM The information below was added by Olex2.
REM
REM R1 = 0.0485 for 1074 Fo > 4sig(Fo) and 0.0494 for all 6365 data
REM n/a parameters refined using n/a restraints
REM Highest difference peak 0.27, deepest hole -0.17
REM Mean Shift 0, Max Shift 0.000.

REM +++ Tabular Listing of Refinement Information +++
REM R1_all = 0.0494
REM R1_gt = 0.0485
REM wR_ref = 0.1251
REM GOOF = 1.090
REM Shift_max = 0.000
REM Shift_mean = 0
REM Reflections_all = 6365
REM Reflections_gt = 1074
REM Parameters = n/a
REM Hole = -0.17
REM Peak = 0.27
REM Flack = 0.2(7)

;
_cod_data_source_file            naphtcn.cif
_cod_data_source_block           naphtcn
_cod_database_code               3500021
_cod_database_fobs_code          3500021
#BEGIN Tags that were not found in dictionaries:
_shelx_space_group_comment
;
The symmetry employed for this shelxl refinement is uniquely defined
by the following loop, which should always be used as a source of
symmetry information in preference to the above space-group names.
They are only intended as comments.
;
_shelx_estimated_absorpt_t_max   0.910
_shelx_estimated_absorpt_t_min   0.884
_olex2_refinement_description
;
1. Fixed Uiso
 At 1.2 times of:
  All C(H) groups
2.a Aromatic/amide H refined with riding coordinates:
 C2(H2), C3(H3), C4(H4), C5(H5), C7(H7), C8(H8), C9(H9)
;
_shelx_shelxl_version_number     2014/7
_olex2_submission_special_instructions 'No special instructions were received'
#END Tags that were not found in dictionaries
loop_
_space_group_symop_operation_xyz
'x, y, z'
'-x, y+1/2, -z'
loop_
_atom_site_label
_atom_site_type_symbol
_atom_site_fract_x
_atom_site_fract_y
_atom_site_fract_z
_atom_site_U_iso_or_equiv
_atom_site_adp_type
_atom_site_occupancy
_atom_site_site_symmetry_order
_atom_site_calc_flag
_atom_site_refinement_flags_posn
N12 N -0.0601(6) -0.1014(2) 0.3528(3) 0.0487(6) Uani 1 1 d .
C1 C 0.2776(6) 0.10635(19) 0.1608(4) 0.0366(6) Uani 1 1 d .
C2 C 0.4026(7) 0.13036(19) 0.3458(4) 0.0386(6) Uani 1 1 d .
H2 H 0.3654 0.0864 0.4400 0.046 Uiso 1 1 calc R
C3 C 0.5776(7) 0.2167(2) 0.3911(4) 0.0394(6) Uani 1 1 d .
H3 H 0.6575 0.2330 0.5164 0.047 Uiso 1 1 calc R
C4 C 0.6389(7) 0.28156(19) 0.2509(4) 0.0404(6) Uani 1 1 d .
H4 H 0.7620 0.3411 0.2833 0.048 Uiso 1 1 calc R
C5 C 0.5254(7) 0.26027(18) 0.0714(4) 0.0390(6) Uani 1 1 d .
H5 H 0.5710 0.3047 -0.0205 0.047 Uiso 1 1 calc R
C6 C 0.3376(6) 0.17163(18) 0.0188(4) 0.0373(6) Uani 1 1 d .
C7 C 0.2115(7) 0.1482(2) -0.1669(4) 0.0393(6) Uani 1 1 d .
H7 H 0.2510 0.1922 -0.2605 0.047 Uiso 1 1 calc R
C8 C 0.0319(6) 0.0623(2) -0.2142(4) 0.0403(6) Uani 1 1 d .
H8 H -0.0501 0.0472 -0.3398 0.048 Uiso 1 1 calc R
C9 C -0.0300(7) -0.00292(18) -0.0773(4) 0.0394(6) Uani 1 1 d .
H9 H -0.1535 -0.0622 -0.1107 0.047 Uiso 1 1 calc R
C10 C 0.0863(6) 0.01816(19) 0.1053(4) 0.0377(6) Uani 1 1 d .
C11 C 0.0082(6) -0.0486(2) 0.2430(4) 0.0401(6) Uani 1 1 d .
loop_
_atom_site_aniso_label
_atom_site_aniso_U_11
_atom_site_aniso_U_22
_atom_site_aniso_U_33
_atom_site_aniso_U_23
_atom_site_aniso_U_13
_atom_site_aniso_U_12
N12 0.0504(13) 0.0344(13) 0.0599(14) 0.0048(12) 0.0062(10) -0.0021(11)
C1 0.0339(12) 0.0247(14) 0.0513(14) 0.0019(12) 0.0083(10) 0.0027(10)
C2 0.0388(13) 0.0288(16) 0.0484(13) 0.0028(11) 0.0086(10) 0.0035(11)
C3 0.0381(12) 0.0312(13) 0.0477(13) -0.0025(11) 0.0048(10) 0.0016(11)
C4 0.0361(12) 0.0252(14) 0.0592(15) -0.0018(12) 0.0071(10) -0.0005(10)
C5 0.0375(13) 0.0252(15) 0.0548(15) 0.0053(11) 0.0094(10) 0.0027(10)
C6 0.0343(13) 0.0260(13) 0.0518(14) 0.0029(12) 0.0087(10) 0.0049(11)
C7 0.0370(13) 0.0294(14) 0.0521(13) 0.0059(11) 0.0098(10) 0.0052(10)
C8 0.0380(12) 0.0343(13) 0.0477(14) -0.0019(12) 0.0054(10) 0.0034(11)
C9 0.0362(13) 0.0251(15) 0.0558(15) -0.0024(11) 0.0052(10) 0.0004(11)
C10 0.0333(12) 0.0238(13) 0.0555(16) 0.0010(11) 0.0063(10) 0.0038(10)
C11 0.0387(13) 0.0278(13) 0.0528(14) -0.0008(12) 0.0054(10) -0.0002(12)
loop_
_atom_type_symbol
_atom_type_description
_atom_type_scat_dispersion_real
_atom_type_scat_dispersion_imag
_atom_type_scat_source
C C 0.0181 0.0091 'International Tables Vol C Tables 4.2.6.8 and 6.1.1.4'
H H 0.0000 0.0000 'International Tables Vol C Tables 4.2.6.8 and 6.1.1.4'
N N 0.0311 0.0180 'International Tables Vol C Tables 4.2.6.8 and 6.1.1.4'
loop_
_geom_angle_atom_site_label_1
_geom_angle_atom_site_label_2
_geom_angle_atom_site_label_3
_geom_angle
C2 C1 C6 119.8(2)
C2 C1 C10 123.0(2)
C6 C1 C10 117.2(2)
C3 C2 C1 120.5(2)
C2 C3 C4 119.9(2)
C5 C4 C3 121.2(2)
C4 C5 C6 120.6(2)
C1 C6 C5 118.0(2)
C7 C6 C1 120.1(2)
C7 C6 C5 121.9(2)
C8 C7 C6 120.8(2)
C7 C8 C9 120.1(2)
C10 C9 C8 120.6(2)
C1 C10 C11 119.4(2)
C9 C10 C1 121.2(2)
C9 C10 C11 119.3(2)
N12 C11 C10 178.8(3)
loop_
_geom_bond_atom_site_label_1
_geom_bond_atom_site_label_2
_geom_bond_distance
N12 C11 1.152(4)
C1 C2 1.407(4)
C1 C6 1.427(3)
C1 C10 1.434(4)
C2 C3 1.371(4)
C3 C4 1.415(4)
C4 C5 1.354(4)
C5 C6 1.429(4)
C6 C7 1.411(4)
C7 C8 1.376(4)
C8 C9 1.400(4)
C9 C10 1.376(4)
C10 C11 1.439(4)
loop_
_geom_torsion_atom_site_label_1
_geom_torsion_atom_site_label_2
_geom_torsion_atom_site_label_3
_geom_torsion_atom_site_label_4
_geom_torsion
C1 C2 C3 C4 -1.2(4)
C1 C6 C7 C8 -0.5(4)
C2 C1 C6 C5 0.0(3)
C2 C1 C6 C7 -179.7(2)
C2 C1 C10 C9 -179.7(2)
C2 C1 C10 C11 1.7(4)
C2 C3 C4 C5 0.5(4)
C3 C4 C5 C6 0.4(4)
C4 C5 C6 C1 -0.7(3)
C4 C5 C6 C7 179.0(2)
C5 C6 C7 C8 179.9(2)
C6 C1 C2 C3 0.9(4)
C6 C1 C10 C9 0.8(3)
C6 C1 C10 C11 -177.9(2)
C6 C7 C8 C9 0.5(4)
C7 C8 C9 C10 0.2(4)
C8 C9 C10 C1 -0.8(4)
C8 C9 C10 C11 177.8(2)
C10 C1 C2 C3 -178.6(2)
C10 C1 C6 C5 179.5(2)
C10 C1 C6 C7 -0.1(3)
loop_
_refln_index_h
_refln_index_k
_refln_index_l
_refln_F_squared_meas
_refln_F_squared_sigma
1 0 0 30.41 1.71
-1 0 0 26.69 1.84
1 0 0 27.94 1.67
-1 0 0 27.59 1.9
-1 0 0 23.67 1.78
-2 0 0 65.65 4.58
2 0 0 65.13 4.12
-2 0 0 65.82 4.45
2 0 0 68.45 4.03
-2 0 0 65.28 4.29
3 0 0 27.39 1.66
3 0 0 26.41 1.7
-3 0 0 27.23 1.84
-4 0 0 0.85 0.08
4 0 0 0.92 0.09
-4 0 0 0.95 0.09
4 0 0 0.83 0.09
-1 -1 0 188.93 12.03
-1 -1 0 168.94 11.59
1 -1 0 197.52 10.9
-1 1 0 167.45 10.42
-1 1 0 175.93 12.37
1 1 0 163.63 10.9
-1 1 0 174.69 10.04
-1 1 0 174 12.03
1 1 0 186.89 10.9
1 1 0 189.6 11.14
2 -1 0 21.13 1.34
-2 -1 0 20.94 1.39
-2 -1 0 21.47 1.44
2 -1 0 21.8 1.31
-2 1 0 21.18 1.44
2 1 0 21.53 1.31
2 1 0 22.26 1.34
-2 1 0 20.38 1.48
-2 1 0 20.11 1.39
2 1 0 22.03 1.31
-3 -1 0 2.84 0.26
-3 -1 0 3.54 0.18
3 -1 0 3.29 0.2
-3 -1 0 3.65 0.2
3 -1 0 3.47 0.21
3 -1 0 2.83 0.23
3 -1 0 3.86 0.2
-3 -1 0 3.75 0.19
-3 1 0 3.39 0.26
3 1 0 3.35 0.23
3 1 0 3.11 0.24
4 -1 0 2.61 0.15
-4 -1 0 2.28 0.15
4 -1 0 2.19 0.16
-4 -1 0 2.76 0.15
-4 1 0 2.26 0.15
4 1 0 2.58 0.15
-4 1 0 2.63 0.15
4 1 0 2.21 0.16
1 -2 0 957.97 54.13
1 -2 0 1000 55.32
-1 -2 0 852.86 57.6
-1 -2 0 883.42 59.77
1 2 0 794.57 54.13
-1 2 0 846.68 51.76
1 2 0 871.26 55.33
-1 2 0 883.07 61.45
-1 2 0 839.16 49.89
-1 2 0 928.72 59.77
1 2 0 912.68 54.12
-2 -2 0 54.56 3.77
2 -2 0 58.5 3.41
2 -2 0 53.8 3.49
2 2 0 57.53 3.49
-2 2 0 58.88 3.77
-2 2 0 49.13 3.53
-2 2 0 57.44 3.87
2 2 0 57.87 3.41
2 2 0 54.89 3.41
-3 -2 0 6.78 0.48
3 -2 0 6.7 0.43
-3 -2 0 7.76 0.36
-3 -2 0 7.77 0.38
3 -2 0 5.69 0.44
3 -2 0 7.06 0.36
3 -2 0 6.54 0.37
-3 -2 0 6.87 0.33
3 -2 0 7.32 0.4
-3 2 0 5.72 0.49
3 2 0 6.7 0.43
-3 2 0 7.02 0.48
3 2 0 6.76 0.45
4 -2 0 2.54 0.16
4 -2 0 2.33 0.16
-4 -2 0 2.52 0.16
-4 -2 0 2.85 0.16
-4 2 0 2.33 0.16
-4 2 0 2.47 0.15
4 2 0 2.65 0.15
4 2 0 2.48 0.16
-1 -3 0 315.81 21.97
1 -3 0 358.63 19.9
1 3 0 310.01 20.34
-1 3 0 319.51 22.59
-1 3 0 317.56 18.34
-1 3 0 301.39 19.02
-1 3 0 362.85 21.97
2 -3 0 29.7 1.58
2 -3 0 28.8 1.74
-2 -3 0 31.23 2.11
-2 -3 0 27.05 1.46
2 -3 0 33.36 1.91
2 -3 0 32.66 1.95
-2 -3 0 27.77 1.65
-2 -3 0 27.2 1.57
2 3 0 32.74 1.95
-2 3 0 34.3 2.17
-2 3 0 35.28 2.11
2 3 0 33.95 1.91
2 3 0 31.12 1.91
-3 -3 0 13.73 0.68
-3 -3 0 14.87 0.73
-3 -3 0 15.94 0.77
-3 -3 0 13.42 0.97
3 -3 0 13.87 0.76
3 -3 0 13.54 0.88
3 -3 0 14.88 0.81
3 -3 0 14.7 0.73
-3 3 0 14.03 0.97
-3 3 0 13.25 1
3 3 0 13.75 0.88
3 3 0 14.06 0.9
4 -3 0 0.08 0.04
4 -3 0 0.17 0.04
-4 -3 0 0.14 0.04
-4 -3 0 0.14 0.04
-4 3 0 0.08 0.04
-4 3 0 0.1 0.04
4 3 0 0.1 0.04
4 3 0 0.1 0.04
-1 -4 0 0.19 0.03
-1 4 0 0.22 0.03
-1 4 0 0.17 0.03
-1 4 0 0.2 0.03
1 4 0 0.17 0.03
-1 4 0 0.17 0.03
-2 -4 0 46.87 2.69
2 -4 0 45.47 3.03
2 -4 0 49.23 2.58
2 -4 0 50.65 2.85
-2 -4 0 45.55 2.57
2 -4 0 53.84 3.11
-2 -4 0 51.8 3.44
-2 -4 0 44.69 2.39
2 -4 0 48.53 2.67
-2 4 0 53.75 2.98
2 4 0 53.28 3.18
2 4 0 53.29 3.11
-2 4 0 54.68 2.87
-2 4 0 55.29 3.53
-2 4 0 53.57 3.44
2 4 0 53.9 3.11
3 -4 0 0.08 0.04
-3 -4 0 0.12 0.05
-3 -4 0 0.02 0.04
3 -4 0 0.05 0.05
-3 -4 0 0.14 0.05
3 -4 0 0.11 0.04
-3 -4 0 0.09 0.03
3 4 0 0.08 0.04
-3 4 0 0.07 0.05
3 4 0 0.08 0.04
3 4 0 0.02 0.04
-3 4 0 0.04 0.05
4 -4 0 -0.02 0.04
-4 -4 0 0.02 0.04
4 -4 0 0.02 0.04
-4 -4 0 0.04 0.04
-4 4 0 -0.02 0.03
4 4 0 0.01 0.04
-1 5 0 62.34 3.75
-1 5 0 66.38 4.46
-1 5 0 66.29 4.34
-1 5 0 64.42 3.62
1 5 0 62.34 4.01
-2 -5 0 33.91 2.39
-2 -5 0 33.23 1.79
2 -5 0 37.72 1.86
-2 -5 0 31.44 1.87
2 -5 0 35.03 1.98
-2 -5 0 32.8 1.66
2 -5 0 35.73 1.8
2 -5 0 36.19 2.11
-2 -5 0 33.07 2.01
2 5 0 36.95 2.17
-2 5 0 36.9 2
-2 5 0 37.02 2.39
-2 5 0 37.21 2.07
-2 5 0 37.13 2.46
2 5 0 36.25 2.21
3 -5 0 1.64 0.12
3 -5 0 1.73 0.11
-3 -5 0 1.62 0.1
3 -5 0 1.52 0.11
-3 -5 0 1.81 0.11
-3 -5 0 1.65 0.11
-3 5 0 1.33 0.14
-3 5 0 1.16 0.15
3 5 0 1.39 0.13
4 -5 0 3.14 0.18
-4 -5 0 3.19 0.18
-4 -5 0 3.28 0.18
4 -5 0 3.05 0.19
4 5 0 2.71 0.19
-1 6 0 30.97 2.17
-1 6 0 31.06 1.83
-1 6 0 31.25 1.76
1 6 0 29.94 1.95
1 6 0 32.83 1.92
-1 6 0 31.53 2.11
2 -6 0 13.78 0.7
2 -6 0 13.45 0.68
2 -6 0 13.68 0.74
-2 -6 0 12.18 0.7
-2 -6 0 12.77 0.75
-2 -6 0 11.84 0.67
-2 -6 0 12.64 0.63
-2 -6 0 12.35 0.69
2 -6 0 14.28 0.79
-2 6 0 13.44 0.9
-2 6 0 14.05 0.84
-2 6 0 12.99 0.75
2 6 0 13.13 0.83
-2 6 0 13.11 0.92
-2 6 0 13.33 0.78
2 6 0 13 0.81
3 -6 0 0.73 0.08
3 -6 0 0.78 0.09
3 -6 0 0.83 0.08
4 -6 0 1.14 0.08
-4 -6 0 1.3 0.08
4 -6 0 1.11 0.09
-4 -6 0 1.02 0.08
1 -7 0 11.11 0.56
-1 -7 0 10.26 0.65
1 -7 0 11.2 0.62
-1 -7 0 9.51 0.57
1 -7 0 10.21 0.51
1 -7 0 10.8 0.5
-1 -7 0 9.36 0.58
-1 -7 0 9.92 0.52
-1 -7 0 9.43 0.61
-1 -7 0 9.97 0.55
1 -7 0 11.64 0.61
1 -7 0 11.8 0.57
1 -7 0 11.15 0.58
1 -7 0 11.09 0.58
1 -7 0 11.65 0.61
-1 -7 0 9.39 0.49
-1 -7 0 9.64 0.62
1 -7 0 10.16 0.52
1 -7 0 11.85 0.65
-1 7 0 11.91 0.74
-1 7 0 12.23 0.64
1 7 0 11.34 0.67
-1 7 0 11.96 0.62
-1 7 0 11.75 0.76
1 7 0 11.06 0.68
2 -7 0 0.7 0.07
-2 -7 0 0.65 0.07
2 -7 0 0.64 0.07
-2 -7 0 0.54 0.06
-2 -7 0 0.67 0.06
-2 -7 0 0.66 0.07
2 -7 0 0.65 0.05
2 -7 0 0.6 0.07
-2 -7 0 0.58 0.06
2 -7 0 0.62 0.07
2 7 0 0.63 0.08
-2 7 0 0.5 0.07
-2 7 0 0.65 0.07
2 7 0 0.61 0.07
-2 7 0 0.54 0.08
-2 7 0 0.53 0.06
-2 7 0 0.53 0.07
3 -7 0 0.65 0.08
3 -7 0 0.63 0.08
3 -7 0 0.46 0.06
4 -7 0 2.18 0.13
-4 -7 0 2.31 0.13
0 -8 0 41.43 2.09
0 -8 0 47.32 2.33
0 -8 0 47.03 2.24
0 -8 0 45.12 2.5
0 -8 0 46.83 2.1
0 -8 0 47.53 2.38
0 -8 0 43.82 2.14
0 -8 0 45.78 2.66
0 -8 0 43.82 2.1
0 -8 0 44.36 2.26
0 -8 0 44.46 2.47
0 -8 0 44.03 2.37
0 -8 0 41.62 2.35
0 -8 0 41.47 2.53
0 -8 0 44.39 2.47
0 -8 0 46.79 2.35
0 -8 0 42.94 2.27
0 -8 0 45.56 2.02
1 -8 0 4.45 0.27
-1 -8 0 4.22 0.22
1 -8 0 5.04 0.25
-1 -8 0 3.92 0.25
1 -8 0 5.18 0.27
1 -8 0 4.73 0.25
1 -8 0 4.84 0.26
-1 -8 0 4.5 0.29
1 -8 0 4.78 0.26
1 -8 0 5.24 0.25
1 -8 0 5.09 0.29
-1 -8 0 4.13 0.26
1 -8 0 4.97 0.22
-1 -8 0 3.97 0.23
1 -8 0 4.48 0.22
-1 -8 0 4.22 0.27
-1 -8 0 3.82 0.24
-1 -8 0 4.45 0.25
-1 -8 0 4.26 0.25
1 -8 0 4.52 0.23
-1 -8 0 4.31 0.27
-1 -8 0 4.28 0.26
1 -8 0 4.94 0.24
1 -8 0 5.26 0.27
-1 -8 0 4.04 0.22
-1 -8 0 4.3 0.23
1 -8 0 4.57 0.23
-1 8 0 4.74 0.28
1 8 0 4.3 0.3
-1 8 0 4.89 0.33
-1 8 0 4.75 0.27
1 8 0 4.98 0.3
-2 -8 0 0.38 0.05
-2 -8 0 0.55 0.06
2 -8 0 0.45 0.06
-2 -8 0 0.38 0.05
2 -8 0 0.44 0.06
-2 -8 0 0.31 0.04
2 -8 0 0.36 0.05
-2 -8 0 0.41 0.05
2 -8 0 0.4 0.05
-2 8 0 0.36 0.06
-2 8 0 0.42 0.05
-2 8 0 0.27 0.05
2 8 0 0.26 0.05
2 8 0 0.4 0.06
-2 8 0 0.33 0.06
-2 8 0 0.39 0.05
3 -8 0 1.77 0.12
3 -8 0 1.89 0.13
3 -8 0 1.88 0.12
-3 -8 0 1.82 0.12
-3 -8 0 1.77 0.13
-3 -8 0 1.85 0.13
4 -8 0 1.31 0.09
-4 -8 0 1.53 0.09
0 -9 0 0.01 0.03
0 -9 0 0 0.03
0 -9 0 0.01 0.03
0 -9 0 0.04 0.03
0 -9 0 0.01 0.03
0 -9 0 0.02 0.03
0 -9 0 0 0.03
0 -9 0 0.02 0.03
0 -9 0 -0.01 0.03
0 -9 0 0.02 0.03
0 -9 0 0 0.04
0 -9 0 0.01 0.03
0 -9 0 0.01 0.03
0 -9 0 0.05 0.04
0 -9 0 -0.02 0.03
0 -9 0 0 0.03
0 -9 0 0 0.03
0 -9 0 0.02 0.04
1 -9 0 2.25 0.12
1 -9 0 2.52 0.14
1 -9 0 2.32 0.13
1 -9 0 2.3 0.13
1 -9 0 2.21 0.13
1 -9 0 2.58 0.15
-1 -9 0 2 0.14
1 -9 0 2.27 0.12
1 -9 0 2.24 0.12
-1 -9 0 2.08 0.13
1 -9 0 2.54 0.15
-1 -9 0 1.91 0.13
1 -9 0 2.42 0.13
-1 -9 0 1.95 0.13
1 -9 0 2.18 0.12
1 -9 0 2.14 0.12
-1 -9 0 1.95 0.14
-1 -9 0 1.8 0.12
-1 -9 0 2.05 0.12
-1 -9 0 1.9 0.12
-1 -9 0 2.04 0.13
-1 -9 0 1.84 0.12
1 -9 0 2.3 0.14
-1 -9 0 1.97 0.14
1 -9 0 2.27 0.14
-1 9 0 2.02 0.14
-1 9 0 2.25 0.16
-1 9 0 1.95 0.17
1 9 0 2.07 0.15
-1 9 0 2.04 0.14
2 -9 0 2.72 0.14
-2 -9 0 2.7 0.15
-2 -9 0 2.8 0.17
2 -9 0 2.83 0.18
-2 -9 0 2.78 0.16
2 -9 0 2.72 0.16
2 -9 0 2.8 0.17
-2 -9 0 2.79 0.16
-2 -9 0 2.68 0.16
2 -9 0 2.7 0.16
2 9 0 2.29 0.18
-2 9 0 2.2 0.17
-2 9 0 2.47 0.19
-2 9 0 2.35 0.17
-2 9 0 2.26 0.21
2 9 0 2.71 0.19
3 -9 0 1.85 0.13
-3 -9 0 1.93 0.13
3 -9 0 1.79 0.12
3 -9 0 1.78 0.12
-3 -9 0 1.88 0.12
-3 -9 0 1.71 0.11
0 -10 0 0.46 0.05
0 -10 0 0.47 0.05
0 -10 0 0.35 0.05
0 -10 0 0.41 0.05
0 -10 0 0.35 0.04
0 -10 0 0.37 0.04
0 -10 0 0.42 0.05
0 -10 0 0.41 0.05
0 -10 0 0.44 0.05
0 -10 0 0.35 0.05
0 -10 0 0.49 0.07
0 -10 0 0.41 0.05
0 -10 0 0.49 0.05
0 -10 0 0.47 0.06
0 -10 0 0.37 0.05
0 -10 0 0.42 0.05
0 -10 0 0.45 0.06
0 -10 0 0.46 0.06
-1 -10 0 0.82 0.07
1 -10 0 0.68 0.08
-1 -10 0 0.91 0.08
1 -10 0 1.06 0.09
-1 -10 0 0.97 0.08
1 -10 0 0.78 0.08
-1 -10 0 0.75 0.07
1 -10 0 1.17 0.09
1 -10 0 0.99 0.08
1 -10 0 0.97 0.08
-1 -10 0 0.8 0.08
1 -10 0 1.16 0.1
-1 -10 0 0.8 0.07
-1 -10 0 0.93 0.08
1 -10 0 0.93 0.08
-1 -10 0 0.88 0.08
-1 -10 0 0.89 0.08
1 -10 0 1.12 0.09
1 -10 0 1.15 0.09
-1 -10 0 0.96 0.08
1 -10 0 0.93 0.07
1 -10 0 1.15 0.09
-1 -10 0 0.98 0.09
-1 10 0 0.78 0.09
1 10 0 0.61 0.09
-2 -10 0 0.32 0.05
2 -10 0 0.16 0.05
2 -10 0 0.13 0.04
2 -10 0 0.14 0.05
2 -10 0 0.15 0.04
2 -10 0 0.14 0.04
-3 -10 0 3.41 0.19
-3 -10 0 3.27 0.19
3 -10 0 3.14 0.18
3 -10 0 3.26 0.2
-3 -10 0 3.25 0.17
0 -11 0 -0.02 0.04
0 -11 0 0 0.04
0 -11 0 0 0.04
0 -11 0 0.04 0.04
0 -11 0 0.01 0.04
0 -11 0 -0.01 0.06
0 -11 0 -0.01 0.05
0 -11 0 -0.02 0.04
0 -11 0 0.08 0.05
0 -11 0 -0.05 0.04
0 -11 0 -0.01 0.05
0 -11 0 -0.02 0.04
0 -11 0 0.06 0.05
0 -11 0 0.01 0.04
0 -11 0 0.08 0.04
0 -11 0 0.04 0.05
0 -11 0 -0.01 0.03
0 -11 0 0.04 0.05
-1 -11 0 0.67 0.07
-1 -11 0 0.63 0.07
1 -11 0 0.73 0.09
1 -11 0 0.74 0.07
-1 -11 0 0.7 0.08
1 -11 0 0.69 0.07
1 -11 0 0.88 0.09
1 -11 0 0.77 0.07
-1 -11 0 0.74 0.08
-1 -11 0 0.67 0.08
1 -11 0 0.87 0.09
-1 -11 0 0.67 0.08
-1 -11 0 0.7 0.07
1 -11 0 0.9 0.09
1 -11 0 0.75 0.07
1 -11 0 0.68 0.08
-1 -11 0 0.48 0.06
1 -11 0 0.81 0.08
1 -11 0 0.62 0.08
-1 -11 0 0.64 0.06
-1 -11 0 0.65 0.08
-1 -11 0 0.54 0.07
1 11 0 0.54 0.07
-1 11 0 0.44 0.07
-1 11 0 0.54 0.07
-2 -11 0 3.18 0.18
2 -11 0 3.18 0.21
2 -11 0 2.94 0.18
-2 -11 0 3 0.18
-2 -11 0 3.11 0.18
-2 -11 0 3.08 0.17
2 -11 0 3.01 0.19
-2 -11 0 3.07 0.19
2 -11 0 2.85 0.16
2 -11 0 2.88 0.18
-3 -11 0 1.91 0.12
3 -11 0 1.87 0.12
-3 -11 0 1.87 0.11
3 -11 0 1.98 0.13
-3 -11 0 1.94 0.12
0 -12 0 0.14 0.05
0 -12 0 0.16 0.04
0 -12 0 0.18 0.05
0 -12 0 0.28 0.05
0 -12 0 0.26 0.06
0 -12 0 0.14 0.04
0 -12 0 0.13 0.05
0 -12 0 0.19 0.06
0 -12 0 0.11 0.04
0 -12 0 0.15 0.05
0 -12 0 0.26 0.05
0 -12 0 0.17 0.04
0 -12 0 0.21 0.06
0 -12 0 0.19 0.06
0 -12 0 0.14 0.05
0 -12 0 0.2 0.05
0 -12 0 0.21 0.06
0 -12 0 0.24 0.05
1 -12 0 5.46 0.28
1 -12 0 6.09 0.33
1 -12 0 6.28 0.31
-1 -12 0 5.28 0.28
1 -12 0 6.22 0.34
-1 -12 0 4.61 0.33
1 -12 0 5.83 0.3
-1 -12 0 5.5 0.31
-1 -12 0 5.13 0.31
-1 -12 0 5.33 0.33
1 -12 0 5.45 0.29
1 -12 0 5.57 0.27
-1 -12 0 5.37 0.28
-1 -12 0 5.28 0.31
-1 -12 0 5.5 0.3
1 -12 0 5.88 0.32
1 -12 0 6.27 0.36
1 -12 0 5.85 0.31
-1 -12 0 4.98 0.32
2 -12 0 1.15 0.1
2 -12 0 0.97 0.09
2 -12 0 1.04 0.1
2 -12 0 1.16 0.09
-3 -12 0 0.32 0.04
3 -12 0 0.3 0.04
3 -12 0 0.33 0.04
0 -13 0 0.11 0.05
0 -13 0 -0.09 0.04
0 -13 0 0.04 0.05
0 -13 0 0 0.04
0 -13 0 0.03 0.05
0 -13 0 0.01 0.05
0 -13 0 0.03 0.05
0 -13 0 -0.04 0.04
0 -13 0 0.01 0.05
0 -13 0 -0.08 0.04
0 -13 0 0.02 0.04
0 -13 0 -0.01 0.04
0 -13 0 -0.01 0.04
0 -13 0 -0.03 0.04
0 -13 0 -0.02 0.04
0 -13 0 -0.05 0.04
0 -13 0 0.02 0.05
0 -13 0 -0.01 0.04
1 -13 0 6.35 0.32
1 -13 0 6.56 0.41
1 -13 0 7.03 0.38
-1 -13 0 5.95 0.36
1 -13 0 6.7 0.38
1 -13 0 6.55 0.31
1 -13 0 7.21 0.34
-1 -13 0 6.1 0.32
1 -13 0 6.77 0.35
-1 -13 0 6.02 0.35
-1 -13 0 6.42 0.32
-1 -13 0 6.46 0.36
-1 -13 0 6.23 0.35
-1 -13 0 6.06 0.36
1 -13 0 6.64 0.36
-1 -13 0 6.48 0.38
2 -13 0 0.35 0.05
2 -13 0 0.42 0.06
2 -13 0 0.44 0.05
-2 -13 0 0.52 0.06
2 -13 0 0.42 0.06
-2 -13 0 0.37 0.04
-2 -13 0 0.45 0.05
1 -14 0 2.5 0.15
-1 -14 0 2.42 0.13
1 -14 0 2.33 0.17
1 -14 0 2.47 0.15
-1 -14 0 2.46 0.15
-1 -14 0 2.28 0.15
1 -14 0 2.34 0.15
-1 -14 0 2.5 0.14
-1 -14 0 2.3 0.15
-1 -14 0 2.5 0.16
-1 -14 0 2.45 0.15
1 -14 0 2.49 0.16
1 -14 0 2.34 0.13
-2 -14 0 1.78 0.1
-2 -14 0 1.65 0.09
2 -14 0 1.47 0.1
2 -14 0 1.34 0.1
-2 -14 0 1.68 0.1
2 -14 0 1.49 0.11
1 -15 0 1 0.08
-1 -15 0 1.09 0.08
-1 -15 0 1.03 0.08
1 -15 0 0.86 0.08
-1 -15 0 0.93 0.07
1 -15 0 1.02 0.09
-2 -15 0 6.94 0.36
2 -15 0 7.2 0.37
-4 0 1 5.41 0.31
-4 0 1 5.26 0.29
4 0 -1 5.46 0.32
4 0 -1 5.35 0.29
-3 0 1 -0.02 0.05
-3 0 1 -0.02 0.05
3 0 -1 -0.12 0.04
2 0 -1 0.37 0.05
2 0 -1 0.42 0.06
2 0 -1 0.36 0.05
-2 0 1 0.35 0.05
-2 0 1 0.42 0.06
1 0 -1 0.24 0.03
-1 0 1 0.27 0.04
-1 0 1 0.22 0.03
-1 0 1 0.3 0.04
1 0 -1 0.28 0.03
0 0 -1 217.94 13.47
0 0 -1 217 11.82
0 0 1 220.66 13
0 0 -1 209.56 14.76
0 0 1 201.4 14.24
1 0 1 37.36 2.54
1 0 1 44.53 2.54
-1 0 -1 40.76 2.81
-1 0 -1 42.43 2.88
1 0 1 43.08 2.6
-2 0 -1 -0.08 0.04
2 0 1 -0.07 0.03
3 0 1 1.5 0.11
-3 0 -1 1.45 0.1
-3 0 -1 1.55 0.14
-3 0 -1 1.02 0.13
3 0 1 1.3 0.12
3 0 1 1.38 0.11
-4 0 -1 0.29 0.04
4 0 1 0.35 0.05
-4 0 -1 0.34 0.05
4 0 1 0.28 0.05
-4 -1 1 4.98 0.28
4 -1 -1 5.12 0.31
4 -1 -1 4.72 0.28
-4 -1 1 5.16 0.3
4 1 -1 5.35 0.31
4 1 -1 5.29 0.28
-4 1 1 5.3 0.28
-4 1 1 5.34 0.3
3 -1 -1 3.58 0.2
-3 -1 1 3.81 0.21
-3 -1 1 3.45 0.2
3 -1 -1 2.9 0.24
3 -1 -1 3.43 0.23
3 -1 -1 3.68 0.24
-3 -1 1 3.46 0.22
-3 -1 1 3.85 0.26
3 -1 -1 3.92 0.23
-3 -1 1 3.51 0.27
-3 1 1 3.6 0.25
-3 1 1 3.47 0.27
3 1 -1 3.51 0.24
3 1 -1 3.35 0.25
2 -1 -1 1.97 0.12
2 -1 -1 1.63 0.1
-2 -1 1 1.68 0.13
-2 -1 1 1.57 0.13
-2 1 1 1.4 0.11
2 1 -1 1.67 0.12
-2 1 1 1.68 0.13
-2 1 1 1.43 0.1
1 -1 -1 497.36 28.45
1 -1 -1 476.65 31.3
-1 -1 1 445.87 34.56
-1 -1 1 493.3 33.31
-1 1 1 526.56 34.57
-1 1 1 556.16 33.31
1 1 -1 530.04 32
1 1 -1 535.91 28.45
1 1 -1 561.9 31.31
0 -1 -1 102.68 6.51
0 -1 -1 111.85 7.13
0 -1 1 105.51 6.28
0 -1 1 102.23 6.88
0 1 1 100.47 6.88
0 1 -1 97.55 6.51
0 1 -1 100.91 5.71
0 1 1 103.58 6.28
-1 -1 -1 90.16 5.94
1 -1 1 94.95 5.5
1 -1 1 89.71 5.38
-1 -1 -1 84.25 6.1
-1 1 -1 85.85 6.11
1 1 1 88.1 5.38
1 1 1 92.07 5.5
-1 1 -1 82.94 5.57
-1 1 -1 85.5 5.94
-2 -1 -1 11 0.81
2 -1 1 11.91 0.72
2 -1 1 11.1 0.73
2 1 1 11.63 0.74
-2 1 -1 11.74 0.82
2 1 1 11.65 0.72
-2 1 -1 12.15 0.79
2 1 1 11.68 0.72
-3 -1 -1 1.29 0.1
3 -1 1 1.56 0.11
3 -1 1 1.42 0.1
-3 -1 -1 1.43 0.1
-3 -1 -1 1.35 0.13
3 -1 1 1.01 0.12
3 -1 1 1.29 0.1
-3 -1 -1 1.59 0.09
3 1 1 1.2 0.12
3 1 1 1.24 0.1
-3 1 -1 0.94 0.13
-3 1 -1 1.36 0.13
-4 -1 -1 0.95 0.08
4 -1 1 0.93 0.09
-4 -1 -1 1.1 0.08
4 -1 1 0.98 0.08
-4 1 -1 1.13 0.09
4 1 1 1.09 0.08
-4 1 -1 0.95 0.08
4 1 1 0.89 0.08
-4 -2 1 2.12 0.15
4 -2 -1 2.27 0.14
-4 -2 1 2.12 0.14
4 -2 -1 2.27 0.16
4 2 -1 2.28 0.14
-4 2 1 2.22 0.14
4 2 -1 2.22 0.15
-4 2 1 2.17 0.14
3 -2 -1 13.81 0.7
3 -2 -1 14.34 0.77
-3 -2 1 14.44 0.73
-3 -2 1 13.31 0.78
-3 -2 1 12.36 0.93
3 -2 -1 13.64 0.84
-3 -2 1 14.1 0.69
3 -2 -1 12.87 0.82
-3 2 1 13.49 0.93
3 2 -1 12.9 0.86
3 2 -1 13.05 0.84
-2 -2 1 35.2 2.08
-2 -2 1 30.41 2.15
2 -2 -1 32.63 1.95
-2 2 1 33.73 2.07
2 2 -1 31.74 1.99
-2 2 1 30.65 2.21
-2 2 1 30.79 1.86
2 2 -1 32.03 1.95
-2 2 1 32.22 2.15
-2 2 1 30.68 1.8
2 2 -1 30.1 1.95
-1 -2 1 370.18 24.62
1 -2 -1 367.55 21.03
1 -2 -1 385.85 23.14
1 2 -1 366.18 23.66
1 2 -1 393.36 23.14
-1 2 1 409.47 24.63
-1 2 1 366.28 25.56
0 -2 -1 78.15 4.6
0 -2 1 76.97 4.44
0 2 -1 68.7 4.03
0 2 1 71.59 4.86
0 2 -1 68.2 4.59
-1 -2 -1 2.65 0.19
-1 -2 -1 2.6 0.19
1 -2 1 2.7 0.17
-1 2 -1 2.38 0.18
-1 2 -1 2.76 0.19
1 2 1 2.63 0.17
-1 2 -1 2.66 0.19
1 2 1 2.59 0.17
2 -2 1 10.51 0.59
2 -2 1 10.19 0.61
2 -2 1 11.71 0.71
2 -2 1 11.17 0.72
-2 -2 -1 11.38 0.78
-2 -2 -1 10.89 0.8
-2 2 -1 12.09 0.78
2 2 1 12.44 0.71
2 2 1 11.18 0.71
-2 2 -1 11.02 0.73
2 2 1 12.31 0.72
-2 2 -1 12.03 0.8
3 -2 1 0.03 0.04
-3 -2 -1 0.01 0.05
3 -2 1 0.02 0.04
3 -2 1 0.03 0.04
3 -2 1 0.05 0.04
-3 -2 -1 0 0.04
-3 -2 -1 0.02 0.04
-3 2 -1 -0.06 0.05
3 2 1 -0.05 0.04
-4 -2 -1 0.23 0.04
4 -2 1 0.1 0.04
4 -2 1 0.14 0.04
-4 -2 -1 0.14 0.04
-4 2 -1 0.16 0.04
-4 2 -1 0.17 0.04
4 2 1 0.18 0.04
4 2 1 0.21 0.04
4 -3 -1 0.58 0.08
4 -3 -1 0.53 0.06
-4 -3 1 0.64 0.07
-4 -3 1 0.5 0.06
4 3 -1 0.5 0.07
-4 3 1 0.58 0.07
-4 3 1 0.64 0.07
4 3 -1 0.54 0.06
-3 -3 1 2.47 0.17
-3 -3 1 2.56 0.16
3 -3 -1 2.56 0.18
3 -3 -1 2.42 0.17
3 -3 -1 2.83 0.17
-3 -3 1 2.43 0.15
3 -3 -1 2.59 0.15
3 3 -1 2.4 0.18
-3 3 1 2.73 0.2
3 3 -1 2.34 0.18
-3 3 1 2.22 0.2
2 -3 -1 82.13 5.05
2 -3 -1 91.19 5.53
-2 -3 1 81.48 4.78
-2 -3 1 85.57 6.1
-2 -3 1 82.62 4.56
2 -3 -1 86.98 4.59
-2 -3 1 98.91 5.88
-2 3 1 92.9 6.27
-2 3 1 98.65 5.88
2 3 -1 87.49 5.53
2 3 -1 92.96 5.53
2 3 -1 90.83 5.65
-2 3 1 93.64 5.09
-2 3 1 98.74 6.1
-2 3 1 94.33 5.28
1 -3 -1 105.37 6.42
1 -3 -1 101.58 5.84
-1 -3 1 101.8 6.84
-1 3 1 106.49 7.09
1 3 -1 111.28 6.42
-1 3 1 110.38 6.84
1 3 -1 100.71 6.57
0 3 -1 180.46 11.38
0 3 1 179.84 12.03
-1 -3 -1 35.48 2.45
-1 -3 -1 36.53 2.51
1 -3 1 38.77 2.27
1 3 1 36.23 2.26
-1 3 -1 36.63 2.51
1 3 1 35.58 2.22
-1 3 -1 34.68 2.29
2 -3 1 19.24 1
-2 -3 -1 17.93 0.9
2 -3 1 19.11 0.97
-2 -3 -1 19.87 1.29
-2 -3 -1 18 0.96
2 -3 1 19.7 1.19
-2 -3 -1 16.3 0.99
2 -3 1 17.92 0.86
2 -3 1 18.97 1.06
-2 -3 -1 17.83 1.01
-2 3 -1 20.6 1.21
-2 3 -1 20.05 1.32
2 3 1 18.37 1.17
2 3 1 19.81 1.19
-2 3 -1 20.42 1.29
-3 -3 -1 9.4 0.46
3 -3 1 8.81 0.5
-3 -3 -1 8.85 0.61
-3 -3 -1 8.85 0.42
3 -3 1 9.12 0.46
-3 -3 -1 8.83 0.47
3 -3 1 8.57 0.47
-3 3 -1 8.2 0.61
3 3 1 8.4 0.56
-3 3 -1 7.9 0.62
-4 -3 -1 0.14 0.04
-4 -3 -1 0.16 0.04
4 -3 1 0.15 0.04
4 -3 1 0.15 0.04
4 3 1 0.15 0.04
-4 3 -1 0.17 0.04
-4 3 -1 0.18 0.03
4 3 1 0.18 0.04
4 -4 -1 1.36 0.1
4 -4 -1 1.34 0.11
-4 -4 1 1.37 0.1
-4 -4 1 1.34 0.1
3 -4 -1 3.01 0.2
-3 -4 1 3.08 0.17
-3 -4 1 3.21 0.18
3 4 -1 2.24 0.2
3 4 -1 2.7 0.2
3 4 -1 2.72 0.21
-3 4 1 2.92 0.22
2 -4 -1 200.87 12.58
2 -4 -1 202.16 11.82
2 -4 -1 203.26 10.72
2 -4 -1 217.86 12.93
-2 -4 1 195.67 11.19
-2 -4 1 190.56 10.66
-2 -4 1 203.66 11.98
2 4 -1 216.71 12.92
2 4 -1 217.29 13.21
-2 4 1 223.22 11.92
-2 4 1 219.21 13.75
-2 4 1 229.99 14.27
-2 4 1 222.85 14.67
2 4 -1 211.27 12.93
-2 4 1 225.66 12.36
1 4 -1 11.19 0.75
1 4 -1 12.21 0.73
-1 4 1 12.65 0.78
-1 4 1 11.3 0.81
0 4 -1 58.31 3.66
0 4 1 57.44 3.87
1 -4 1 39.58 2.3
-1 -4 -1 35.17 2.56
-1 4 -1 36.94 2.56
-1 4 -1 36.66 2.08
1 4 1 34.86 2.25
-1 4 -1 37.6 2.15
-1 4 -1 37.39 2.33
1 4 1 36.87 2.3
2 -4 1 3.26 0.21
2 -4 1 3.32 0.19
2 -4 1 3.16 0.18
-2 -4 -1 2.79 0.18
-2 -4 -1 3.06 0.17
2 -4 1 3.35 0.17
-2 -4 -1 2.9 0.18
2 -4 1 3.11 0.15
-2 -4 -1 3.16 0.23
-2 -4 -1 2.79 0.16
-2 4 -1 3.42 0.23
2 4 1 3.29 0.22
2 4 1 3.01 0.21
-2 4 -1 3.47 0.24
-2 4 -1 3.17 0.22
-3 -4 -1 0 0.04
3 -4 1 -0.04 0.04
-3 -4 -1 -0.02 0.04
-3 -4 -1 0 0.05
-3 -4 -1 -0.01 0.04
3 -4 1 -0.03 0.04
3 -4 1 -0.04 0.04
3 -4 1 0 0.04
-3 4 -1 -0.08 0.05
3 4 1 -0.08 0.04
-3 4 -1 -0.03 0.04
3 4 1 -0.04 0.04
-4 -4 -1 1.21 0.08
-4 -4 -1 1.33 0.08
4 -4 1 1.05 0.09
4 -4 1 1.16 0.08
-4 4 -1 1.05 0.08
4 4 1 0.99 0.08
-4 4 -1 0.94 0.07
4 4 1 1.12 0.08
-4 -5 1 1.27 0.1
-4 -5 1 1.39 0.1
4 -5 -1 1.17 0.1
4 -5 -1 1.37 0.09
-3 -5 1 31.31 1.49
3 -5 -1 30.64 1.49
3 -5 -1 30.45 1.65
3 -5 -1 30.55 1.75
-3 -5 1 29.83 1.67
-3 -5 1 30.04 1.56
-3 5 1 24.4 1.86
3 5 -1 29.59 1.8
3 5 -1 27.81 1.8
-3 5 1 29.62 1.99
3 5 -1 29.18 1.84
-3 5 1 27.45 2.04
2 -5 -1 35.44 2.11
2 -5 -1 33.63 2.17
2 -5 -1 33.68 1.98
2 -5 -1 35.17 1.86
-2 -5 1 31.9 2.01
2 -5 -1 35.31 1.8
-2 -5 1 34.11 1.79
-2 -5 1 34.82 1.66
-2 -5 1 33.54 1.88
2 -5 -1 33.05 1.96
-2 5 1 37.29 2
-2 5 1 37.79 2.46
2 5 -1 35.35 2.22
-2 5 1 38.59 2.39
2 5 -1 37.21 2.17
2 5 -1 37.33 2.17
-2 5 1 37.54 2.07
1 5 -1 16.29 1.05
-1 5 1 17.38 1.09
1 5 -1 15.99 1.03
-1 5 1 17.15 1.13
0 5 1 63.45 4.24
-1 5 -1 45.3 2.75
-1 5 -1 43.29 2.54
1 5 1 41.96 2.71
-1 5 -1 43.23 3.01
1 5 1 42.27 2.66
-1 5 -1 44.66 2.45
-2 -5 -1 7.76 0.46
-2 -5 -1 7.86 0.44
2 -5 1 8.36 0.39
-2 -5 -1 7.52 0.45
2 -5 1 8.67 0.48
2 -5 1 8.99 0.44
2 -5 1 7.74 0.54
2 -5 1 8.56 0.45
-2 -5 -1 7.73 0.41
-2 5 -1 8.66 0.55
-2 5 -1 8.94 0.58
2 5 1 8.95 0.54
2 5 1 8.8 0.53
-2 5 -1 9.32 0.6
-3 -5 -1 1.02 0.09
-3 -5 -1 1.02 0.08
3 -5 1 1.18 0.09
-3 -5 -1 1.06 0.1
3 -5 1 1.03 0.09
3 -5 1 1.14 0.09
4 -5 1 1.46 0.09
-4 -5 -1 1.45 0.1
-4 -5 -1 1.48 0.09
-4 5 -1 1.25 0.09
4 5 1 1.34 0.09
-4 -6 1 1.7 0.11
-4 -6 1 1.62 0.12
4 -6 -1 1.76 0.12
4 -6 -1 1.79 0.11
3 -6 -1 35.63 2.1
-3 -6 1 35.8 1.87
-3 -6 1 35.03 2
3 -6 -1 36.15 1.97
-3 -6 1 35.01 1.78
3 -6 -1 35.49 1.79
3 6 -1 32.7 2.16
2 -6 -1 0.72 0.07
-2 -6 1 0.79 0.08
2 -6 -1 0.79 0.08
-2 -6 1 0.73 0.07
2 -6 -1 0.94 0.07
2 -6 -1 0.85 0.08
-2 -6 1 0.8 0.08
2 -6 -1 0.87 0.07
-2 -6 1 0.78 0.07
2 6 -1 1.1 0.09
-2 6 1 0.92 0.09
2 6 -1 1.09 0.08
2 6 -1 1.03 0.08
-2 6 1 0.8 0.08
-2 6 1 0.85 0.07
-2 6 1 0.77 0.09
1 6 -1 22.25 1.39
-1 6 1 22.91 1.5
1 6 -1 21.38 1.36
0 6 -1 62.02 3.53
0 6 1 65.24 4.25
1 -6 1 25.06 1.41
-1 -6 -1 22.95 1.26
-1 6 -1 27.22 1.87
-1 6 -1 27.83 1.57
-1 6 -1 28.99 1.71
1 6 1 27.39 1.68
1 6 1 27.79 1.65
-1 6 -1 27.69 1.52
2 -6 1 0.37 0.04
2 -6 1 0.38 0.05
-2 -6 -1 0.48 0.06
2 -6 1 0.4 0.05
2 -6 1 0.44 0.05
-2 -6 -1 0.36 0.04
-2 -6 -1 0.3 0.04
-2 -6 -1 0.38 0.04
2 6 1 0.41 0.06
-2 6 -1 0.36 0.05
-2 6 -1 0.39 0.06
2 6 1 0.3 0.05
-3 -6 -1 3.36 0.19
3 -6 1 3.42 0.21
3 -6 1 3.43 0.2
-3 -6 -1 3.32 0.2
-3 -6 -1 3.44 0.2
3 -6 1 3.41 0.19
4 -6 1 3.01 0.17
-4 -6 -1 3.05 0.17
4 -7 -1 6.73 0.38
-4 -7 1 6.75 0.35
4 -7 -1 6.69 0.35
-4 -7 1 6.47 0.36
3 -7 -1 19.35 1.14
-3 -7 1 18.65 1.02
-3 -7 1 18.35 0.97
-3 -7 1 18.99 1.09
3 -7 -1 19.22 1.08
3 -7 -1 19.36 0.98
-2 -7 1 0.79 0.06
2 -7 -1 0.98 0.08
2 -7 -1 0.91 0.08
2 -7 -1 0.92 0.09
-2 -7 1 0.85 0.08
2 -7 -1 0.91 0.07
-2 -7 1 0.79 0.08
-2 -7 1 0.84 0.08
2 -7 -1 0.93 0.09
-2 -7 1 0.91 0.07
2 7 -1 0.88 0.09
-2 7 1 0.78 0.08
-2 7 1 0.78 0.09
2 7 -1 0.89 0.09
-2 7 1 0.86 0.09
2 7 -1 0.91 0.08
-2 7 1 0.78 0.08
1 -7 -1 5.12 0.26
1 -7 -1 4.9 0.25
1 -7 -1 5.1 0.3
-1 -7 1 4.73 0.27
-1 -7 1 4.36 0.28
-1 -7 1 4.74 0.24
1 -7 -1 5.34 0.27
-1 -7 1 4.44 0.23
1 -7 -1 5 0.24
1 -7 -1 4.66 0.26
1 -7 -1 4.88 0.28
-1 -7 1 4.28 0.26
1 -7 -1 5.32 0.27
1 -7 -1 5.24 0.28
-1 -7 1 4.73 0.27
1 -7 -1 5.14 0.28
-1 -7 1 4.69 0.26
-1 -7 1 4.12 0.26
-1 -7 1 4.54 0.23
-1 -7 1 4.41 0.25
1 7 -1 5.23 0.31
1 7 -1 5.25 0.31
0 7 1 22.69 1.5
0 7 -1 22.08 1.25
1 -7 1 23.7 1.31
-1 -7 -1 20.17 1.23
-1 -7 -1 22.35 1.24
1 -7 1 22.43 1.12
1 -7 1 23.38 1.23
-1 -7 -1 20.89 1.24
1 -7 1 23.62 1.06
-1 -7 -1 21.17 1.32
1 -7 1 23.51 1.19
1 -7 1 22.96 1.32
-1 -7 -1 21.35 1.1
1 -7 1 23.29 1.1
1 -7 1 25.07 1.29
-1 -7 -1 22.2 1.18
1 -7 1 25.19 1.39
-1 -7 -1 21.54 1.22
-1 7 -1 24.89 1.62
-1 7 -1 25.88 1.48
-1 7 -1 24.45 1.32
-1 7 -1 24.85 1.36
1 7 1 25.87 1.43
-2 -7 -1 5.42 0.31
2 -7 1 5.81 0.27
2 -7 1 6.18 0.32
-2 -7 -1 5.64 0.32
2 -7 1 6.22 0.31
-2 -7 -1 5.45 0.29
2 -7 1 5.99 0.34
-2 -7 -1 5.28 0.31
-2 7 -1 5.76 0.42
2 7 1 5.66 0.37
2 7 1 6.06 0.41
-2 7 -1 5.72 0.38
2 7 1 5.7 0.38
-3 -7 -1 1.28 0.1
3 -7 1 1.28 0.1
3 -7 1 1.37 0.1
-3 -7 -1 1.34 0.11
-3 -7 -1 1.27 0.1
3 -7 1 1.33 0.1
4 -7 1 0.78 0.06
-4 -7 -1 0.9 0.06
4 -8 -1 5.79 0.28
-4 -8 1 5.21 0.28
-4 -8 1 5.17 0.3
3 -8 -1 0.24 0.05
-3 -8 1 0.22 0.06
-3 -8 1 0.18 0.05
3 -8 -1 0.18 0.05
-3 -8 1 0.2 0.05
3 -8 -1 0.2 0.04
-2 -8 1 0.91 0.08
-2 -8 1 0.77 0.08
2 -8 -1 0.79 0.08
2 -8 -1 0.72 0.07
2 -8 -1 0.73 0.07
-2 -8 1 0.84 0.08
2 -8 -1 0.69 0.08
-2 -8 1 0.81 0.07
-2 -8 1 0.74 0.06
2 -8 -1 0.78 0.07
-2 8 1 0.66 0.09
2 8 -1 0.71 0.08
-2 8 1 0.62 0.08
-2 8 1 0.69 0.08
2 8 -1 0.79 0.09
-2 8 1 0.67 0.07
-1 -8 1 43.82 2.4
-1 -8 1 47.07 2.84
-1 -8 1 47.29 2.51
1 -8 -1 51.9 2.63
-1 -8 1 47.91 2.26
1 -8 -1 54.66 2.35
-1 -8 1 48.08 2.63
1 -8 -1 55.49 2.63
-1 -8 1 45.71 2.6
1 -8 -1 53.11 2.51
1 -8 -1 55.95 2.61
1 -8 -1 51.46 2.8
-1 -8 1 49.75 2.35
-1 -8 1 45.56 2.36
-1 -8 1 47.07 2.65
-1 -8 1 43.24 2.67
1 -8 -1 51.81 2.98
-1 -8 1 43.54 2.77
1 -8 -1 50.29 2.36
-1 -8 1 46.38 2.63
1 -8 -1 53.52 2.77
-1 -8 1 46.66 2.53
1 -8 -1 52.98 2.67
1 -8 -1 51.61 2.4
-1 -8 1 45.1 2.34
1 -8 -1 54.73 2.54
1 -8 -1 53.76 2.26
1 -8 -1 54.4 2.77
-1 8 1 55.18 3.48
1 8 -1 47.74 3.06
1 8 -1 50.5 3.13
-1 8 1 57.23 3.38
0 -8 1 15.45 0.71
0 -8 1 17.96 0.83
0 -8 -1 15.88 0.74
0 -8 -1 15.14 0.8
0 -8 -1 14.64 0.87
0 -8 1 16.54 0.82
0 -8 1 14.89 0.74
0 -8 1 15.08 0.73
0 -8 -1 15.22 0.82
0 -8 -1 15.67 0.82
0 -8 -1 15.09 0.74
0 -8 -1 14.98 0.93
0 -8 -1 14.98 0.75
0 -8 1 15.1 0.82
0 -8 1 17.07 0.78
0 -8 -1 14.57 0.78
0 -8 -1 14.72 0.88
0 -8 -1 15.27 0.71
0 -8 -1 14.23 0.87
0 -8 -1 14.47 0.89
0 -8 -1 15.64 0.83
0 -8 -1 15.76 0.79
0 -8 1 15.11 0.89
0 -8 1 16.41 0.74
0 -8 1 15.48 0.87
0 -8 1 16.19 0.87
0 -8 -1 15.55 0.82
0 -8 1 15.55 0.75
0 -8 1 17.04 0.84
0 -8 1 15.5 0.8
0 -8 1 15.65 0.79
0 -8 1 15.05 0.83
0 -8 -1 15.88 0.84
0 -8 1 16.2 0.93
0 -8 1 15.7 0.88
0 -8 -1 14.14 0.73
0 8 -1 15.6 0.87
0 8 1 16.41 1.02
1 -8 1 0.16 0.03
-1 -8 -1 0.13 0.04
-1 -8 -1 0.12 0.03
-1 -8 -1 0.11 0.03
1 -8 1 0.16 0.04
1 -8 1 0.17 0.03
-1 -8 -1 0.12 0.04
-1 -8 -1 0.09 0.03
1 -8 1 0.13 0.03
1 -8 1 0.15 0.04
1 -8 1 0.12 0.03
1 -8 1 0.15 0.04
-1 -8 -1 0.13 0.03
1 -8 1 0.1 0.03
-1 -8 -1 0.14 0.04
1 -8 1 0.13 0.04
-1 -8 -1 0.13 0.03
-1 -8 -1 0.11 0.03
1 -8 1 0.14 0.03
1 -8 1 0.13 0.03
1 -8 1 0.11 0.04
-1 -8 -1 0.09 0.03
1 -8 1 0.08 0.03
-1 -8 -1 0.18 0.04
-1 8 -1 0.14 0.04
-1 8 -1 0.15 0.03
1 8 1 0.13 0.04
-1 8 -1 0.15 0.03
-1 8 -1 0.13 0.04
1 8 1 0.14 0.04
2 -8 1 4.39 0.21
-2 -8 -1 4.13 0.22
-2 -8 -1 3.91 0.23
2 -8 1 4.46 0.23
-2 -8 -1 3.97 0.24
-2 -8 -1 4.05 0.24
2 -8 1 4.75 0.24
2 -8 1 4.57 0.26
2 8 1 4.11 0.31
2 8 1 4.02 0.28
-2 8 -1 3.92 0.29
-2 8 -1 3.99 0.31
2 8 1 4.51 0.29
-3 -8 -1 5.13 0.27
3 -8 1 5.41 0.3
3 -8 1 5.11 0.31
-3 -8 -1 5.17 0.3
3 -8 1 5.34 0.28
-3 -8 -1 5.38 0.29
3 -9 -1 1.32 0.11
3 -9 -1 1.3 0.11
3 -9 -1 1.33 0.1
-3 -9 1 1.46 0.11
-3 -9 1 1.41 0.1
2 -9 -1 1.67 0.12
-2 -9 1 1.62 0.12
-2 -9 1 1.69 0.12
-2 -9 1 1.7 0.11
2 -9 -1 1.69 0.11
-2 -9 1 1.65 0.1
2 -9 -1 1.73 0.13
-2 -9 1 1.69 0.11
2 -9 -1 1.51 0.12
2 -9 -1 1.68 0.11
-2 9 1 1.44 0.14
2 9 -1 1.45 0.13
-2 9 1 1.42 0.12
-2 9 1 1.46 0.12
2 9 -1 1.71 0.13
-2 9 1 1.27 0.13
1 -9 -1 1.14 0.08
-1 -9 1 1.11 0.08
-1 -9 1 0.88 0.09
-1 -9 1 1.12 0.09
1 -9 -1 1.29 0.1
1 -9 -1 1.09 0.08
-1 -9 1 1.03 0.08
1 -9 -1 1.31 0.08
-1 -9 1 0.96 0.08
-1 -9 1 1 0.08
1 -9 -1 1.28 0.08
1 -9 -1 1.38 0.09
1 -9 -1 1.3 0.09
1 -9 -1 1.22 0.08
-1 -9 1 1.04 0.09
-1 -9 1 1.01 0.09
1 -9 -1 1.21 0.09
-1 -9 1 1.1 0.08
1 -9 -1 1.2 0.1
1 -9 -1 1.13 0.09
1 -9 -1 1.45 0.1
-1 -9 1 0.99 0.09
-1 -9 1 1.01 0.09
-1 -9 1 0.99 0.08
1 -9 -1 1.06 0.09
-1 -9 1 1.02 0.09
-1 -9 1 1.09 0.09
-1 9 1 1.26 0.11
-1 9 1 1.36 0.11
1 9 -1 1.11 0.1
0 -9 1 11.11 0.53
0 -9 1 12.49 0.59
0 -9 1 10.78 0.57
0 -9 1 11.65 0.53
0 -9 -1 11.57 0.6
0 -9 1 11.87 0.62
0 -9 1 11.29 0.54
0 -9 -1 10.7 0.67
0 -9 1 10.31 0.53
0 -9 -1 10.39 0.54
0 -9 -1 10.51 0.62
0 -9 1 11.72 0.59
0 -9 -1 10.51 0.53
0 -9 1 10.72 0.57
0 -9 -1 11.42 0.59
0 -9 -1 10.87 0.53
0 -9 1 11.01 0.63
0 -9 -1 11.2 0.57
0 -9 1 11.33 0.67
0 -9 1 10.86 0.59
0 -9 1 11.04 0.51
0 -9 -1 11.25 0.53
0 -9 -1 10.63 0.57
0 -9 -1 11.1 0.62
0 -9 1 12.12 0.56
0 -9 1 10.28 0.62
0 -9 -1 10.63 0.63
0 -9 -1 10.9 0.59
0 -9 -1 10.95 0.51
0 -9 1 10.34 0.6
0 -9 -1 11.04 0.6
0 -9 1 11.79 0.6
0 -9 1 10.71 0.64
0 -9 -1 10.84 0.59
0 -9 -1 11.58 0.56
0 -9 -1 10.38 0.64
0 9 1 10.88 0.73
-1 -9 -1 1.03 0.1
-1 -9 -1 1.31 0.1
1 -9 1 1.55 0.11
1 -9 1 1.29 0.09
-1 -9 -1 1.28 0.1
-1 -9 -1 1.34 0.1
1 -9 1 1.42 0.08
-1 -9 -1 1.14 0.09
-1 -9 -1 1.3 0.09
1 -9 1 1.47 0.09
1 -9 1 1.36 0.1
1 -9 1 1.36 0.09
-1 -9 -1 1.13 0.08
-1 -9 -1 1.32 0.1
1 -9 1 1.44 0.1
-1 -9 -1 1.22 0.09
1 -9 1 1.51 0.09
-1 -9 -1 1.16 0.11
1 -9 1 1.5 0.1
1 -9 1 1.42 0.09
-1 -9 -1 1.17 0.1
-1 -9 -1 1.24 0.09
1 -9 1 1.25 0.1
-1 9 -1 1.37 0.11
1 9 1 1.42 0.11
-1 9 -1 1.21 0.1
-1 9 -1 1.17 0.11
1 9 1 1.21 0.12
2 -9 1 19.38 0.95
-2 -9 -1 18.25 0.98
2 -9 1 19.31 0.99
-2 -9 -1 18.24 0.88
-2 -9 -1 17.78 0.95
2 -9 1 19.82 0.85
2 -9 1 20.67 1.05
-2 -9 -1 18.16 0.99
2 9 1 18.39 1.26
-2 9 -1 17.15 1.3
2 9 1 15.59 1.17
2 9 1 18.86 1.15
-2 9 -1 19.24 1.19
-3 -9 -1 0.04 0.04
3 -9 1 0 0.04
-3 -9 -1 -0.02 0.03
3 -9 1 -0.01 0.03
3 -10 -1 0.34 0.05
3 -10 -1 0.35 0.06
-3 -10 1 0.45 0.06
3 -10 -1 0.34 0.05
-3 -10 1 0.6 0.07
-2 -10 1 2.31 0.16
-2 -10 1 2.23 0.13
-2 -10 1 2.42 0.15
-2 -10 1 2.31 0.15
2 -10 -1 2.52 0.15
2 -10 -1 2.36 0.16
-2 -10 1 2.43 0.14
2 -10 -1 2.38 0.17
2 -10 -1 2.52 0.15
2 -10 -1 2.37 0.16
-1 -10 1 42.74 2.27
-1 -10 1 43.01 2.11
1 -10 -1 48.47 2.68
1 -10 -1 48.89 2.36
1 -10 -1 48.64 2.16
-1 -10 1 40.78 2.11
1 -10 -1 47.48 2.25
-1 -10 1 40.3 2.38
1 -10 -1 48.54 2.52
-1 -10 1 40.5 2.48
-1 -10 1 41.77 2.1
-1 -10 1 41.44 2.16
-1 -10 1 42.41 2.36
-1 -10 1 40.34 2.54
1 -10 -1 48.9 2.03
1 -10 -1 48.45 2.28
1 -10 -1 47.92 2.34
1 -10 -1 50.7 2.49
-1 -10 1 39.93 2.39
-1 -10 1 43.68 2.03
1 -10 -1 47.91 2.39
-1 -10 1 42.85 2.34
1 -10 -1 48.22 2.11
-1 10 1 47.5 3.12
-1 10 1 46.85 2.53
1 10 -1 40.64 2.75
-1 10 1 45.52 3.03
-1 10 1 47.25 2.63
1 10 -1 38.58 2.81
0 -10 -1 9.59 0.59
0 -10 -1 9.95 0.53
0 -10 -1 9.62 0.55
0 -10 -1 9.54 0.56
0 -10 1 9.11 0.53
0 -10 1 9.64 0.55
0 -10 -1 9.15 0.46
0 -10 1 10.83 0.5
0 -10 -1 9.84 0.47
0 -10 1 9.7 0.47
0 -10 -1 9.58 0.47
0 -10 -1 9.31 0.51
0 -10 1 8.89 0.56
0 -10 1 9.24 0.52
0 -10 -1 8.83 0.55
0 -10 1 9.34 0.5
0 -10 -1 9.71 0.5
0 -10 -1 9.1 0.56
0 -10 1 9.48 0.56
0 -10 1 9.8 0.45
0 -10 -1 9.43 0.45
0 -10 -1 9.24 0.48
0 -10 -1 9.51 0.52
0 -10 -1 9.88 0.5
0 -10 1 10.21 0.52
0 -10 -1 9.73 0.52
0 -10 1 9.24 0.48
0 -10 1 9.24 0.5
0 -10 -1 9.69 0.52
0 -10 1 10.44 0.53
0 -10 1 9.83 0.59
0 -10 1 10.8 0.52
0 -10 1 10.06 0.47
0 -10 1 9.64 0.46
0 -10 -1 9.65 0.52
0 -10 1 10.67 0.55
0 10 1 8.73 0.64
1 -10 1 1.49 0.11
1 -10 1 1.39 0.09
1 -10 1 1.35 0.09
1 -10 1 1.27 0.1
-1 -10 -1 1.24 0.09
-1 -10 -1 1.2 0.1
-1 -10 -1 1.22 0.1
1 -10 1 1.25 0.08
-1 -10 -1 1.24 0.1
-1 -10 -1 1.24 0.1
1 -10 1 1.3 0.09
1 -10 1 1.39 0.1
1 -10 1 1.26 0.1
-1 -10 -1 1.25 0.1
-1 -10 -1 1.23 0.09
1 -10 1 1.27 0.11
-1 -10 -1 1.21 0.09
1 -10 1 1.27 0.1
1 -10 1 1.31 0.09
-1 -10 -1 1.19 0.09
-1 -10 -1 1.03 0.08
-1 -10 -1 0.9 0.1
1 10 1 1.26 0.11
1 10 1 1.02 0.12
-1 10 -1 1.2 0.11
-2 -10 -1 1.11 0.09
-2 -10 -1 0.99 0.09
-2 -10 -1 0.98 0.09
2 -10 1 1.09 0.09
2 -10 1 1.14 0.09
2 -10 1 1.27 0.1
2 -10 1 1.06 0.08
-2 -10 -1 1.04 0.09
-3 -10 -1 8.25 0.4
3 -10 1 8.16 0.44
3 -10 1 7.94 0.43
-3 -10 -1 8.27 0.43
3 -11 -1 0.27 0.04
-3 -11 1 0.3 0.05
-3 -11 1 0.32 0.04
3 -11 -1 0.26 0.05
3 -11 -1 0.29 0.05
-2 -11 1 2.06 0.13
2 -11 -1 2.23 0.14
2 -11 -1 2.15 0.14
-2 -11 1 1.94 0.12
-2 -11 1 2.04 0.14
-2 -11 1 2.07 0.14
2 -11 -1 2.07 0.15
2 -11 -1 2.13 0.14
2 -11 -1 2.14 0.16
-2 -11 1 2.11 0.15
-1 -11 1 0.94 0.09
-1 -11 1 0.94 0.08
1 -11 -1 1.14 0.11
-1 -11 1 1.07 0.09
-1 -11 1 0.86 0.09
1 -11 -1 1.05 0.1
-1 -11 1 0.87 0.09
-1 -11 1 0.84 0.09
1 -11 -1 0.96 0.09
1 -11 -1 1.15 0.08
1 -11 -1 0.8 0.09
1 -11 -1 0.99 0.08
-1 -11 1 0.91 0.08
1 -11 -1 1.26 0.1
1 -11 -1 1.24 0.1
1 -11 -1 1.03 0.09
-1 -11 1 0.95 0.09
-1 -11 1 0.87 0.08
-1 -11 1 0.92 0.07
1 -11 -1 0.87 0.08
1 -11 -1 1.1 0.08
-1 -11 1 0.88 0.08
1 11 -1 0.78 0.09
-1 11 1 0.89 0.11
-1 11 1 0.91 0.09
1 11 -1 0.71 0.09
-1 11 1 0.81 0.09
0 -11 -1 20.39 1.09
0 -11 -1 20.45 0.98
0 -11 1 20.02 0.97
0 -11 1 20.67 1.17
0 -11 -1 21.09 1.04
0 -11 1 20.43 0.98
0 -11 1 23.4 1.04
0 -11 -1 21.09 1.18
0 -11 -1 20.51 1.1
0 -11 -1 20.2 1.06
0 -11 -1 19.52 1.17
0 -11 1 22.5 1.09
0 -11 -1 20.13 1.15
0 -11 -1 20.1 0.98
0 -11 1 20.59 0.94
0 -11 -1 19.92 1.1
0 -11 1 19.64 1.05
0 -11 1 20.42 1.08
0 -11 1 20.25 1.24
0 -11 1 21.21 0.98
0 -11 1 20.89 1.15
0 -11 1 22.63 1.15
0 -11 -1 20.31 0.97
0 -11 1 20.48 1
0 -11 -1 20.52 0.94
0 -11 -1 20.69 1.11
0 -11 -1 20.57 1.05
0 -11 1 20.26 1.1
0 -11 1 19.75 1.18
0 -11 -1 21.06 1.09
0 -11 -1 20.17 1.15
0 -11 1 22.37 1.11
0 -11 1 19.62 1.1
0 -11 1 20.08 1.06
0 -11 -1 19.57 1.24
0 -11 -1 20 1
1 -11 1 0.59 0.06
-1 -11 -1 0.49 0.06
1 -11 1 0.52 0.07
-1 -11 -1 0.49 0.06
-1 -11 -1 0.48 0.06
1 -11 1 0.56 0.07
1 -11 1 0.52 0.06
1 -11 1 0.47 0.05
-1 -11 -1 0.47 0.06
-1 -11 -1 0.44 0.05
-1 -11 -1 0.39 0.06
-1 -11 -1 0.52 0.06
1 -11 1 0.57 0.07
1 -11 1 0.55 0.06
1 -11 1 0.43 0.06
1 -11 1 0.46 0.05
1 -11 1 0.47 0.05
1 -11 1 0.55 0.07
-1 -11 -1 0.47 0.05
-1 -11 -1 0.5 0.05
-1 -11 -1 0.56 0.07
-1 11 -1 0.34 0.05
1 11 1 0.39 0.06
1 11 1 0.29 0.06
-1 11 -1 0.31 0.05
-2 -11 -1 4.04 0.22
2 -11 1 4.38 0.26
2 -11 1 4.17 0.24
2 -11 1 4.3 0.23
-2 -11 -1 4.13 0.24
-2 -11 -1 4.01 0.23
2 -11 1 4.22 0.21
-2 -11 -1 4.17 0.24
3 -11 1 2.78 0.16
-3 -11 -1 2.84 0.16
-3 -11 -1 2.76 0.15
3 -11 1 2.8 0.16
3 -12 -1 0.83 0.08
3 -12 -1 0.84 0.07
-3 -12 1 0.98 0.07
-3 -12 1 0.99 0.07
2 -12 -1 10.51 0.57
2 -12 -1 11.15 0.61
-2 -12 1 10.37 0.57
-2 -12 1 10.08 0.51
2 -12 -1 11.07 0.64
-2 -12 1 10.02 0.61
2 -12 -1 10.9 0.6
-2 -12 1 10.08 0.5
-2 -12 1 10.06 0.55
2 -12 -1 10.81 0.55
1 -12 -1 3.49 0.22
-1 -12 1 3.26 0.21
1 -12 -1 3.66 0.19
1 -12 -1 3.97 0.23
1 -12 -1 3.84 0.2
-1 -12 1 2.86 0.21
1 -12 -1 3.72 0.2
1 -12 -1 3.8 0.21
-1 -12 1 3.08 0.17
1 -12 -1 3.27 0.2
-1 -12 1 3.16 0.18
-1 -12 1 3.15 0.2
-1 -12 1 3.06 0.18
-1 -12 1 2.83 0.2
-1 -12 1 2.72 0.18
1 -12 -1 3.62 0.18
1 -12 -1 3.66 0.17
1 -12 -1 3.33 0.2
-1 -12 1 3.08 0.2
-1 -12 1 3 0.2
0 -12 1 29.96 1.63
0 -12 -1 28.51 1.65
0 -12 1 28.59 1.67
0 -12 -1 28.92 1.39
0 -12 1 28.68 1.49
0 -12 1 29.14 1.55
0 -12 -1 29.57 1.54
0 -12 1 29.74 1.38
0 -12 1 29.81 1.39
0 -12 1 29.35 1.5
0 -12 -1 30.64 1.57
0 -12 1 30.05 1.76
0 -12 -1 29.72 1.55
0 -12 -1 28.64 1.67
0 -12 -1 31.39 1.55
0 -12 -1 29.25 1.5
0 -12 -1 28.96 1.49
0 -12 1 30.18 1.65
0 -12 -1 27.82 1.63
0 -12 1 29.77 1.42
0 -12 1 28.87 1.33
0 -12 1 28.69 1.39
0 -12 -1 27.61 1.76
0 -12 -1 31.01 1.48
0 -12 -1 27.88 1.56
0 -12 1 29.92 1.63
0 -12 1 28.47 1.56
1 -12 1 9.84 0.46
-1 -12 -1 8.69 0.45
-1 -12 -1 8.65 0.48
-1 -12 -1 8.78 0.51
-1 -12 -1 9.33 0.45
-1 -12 -1 9.15 0.51
1 -12 1 9.34 0.51
1 -12 1 9.52 0.44
-1 -12 -1 8.68 0.51
1 -12 1 10.26 0.53
-1 -12 -1 9.4 0.54
1 -12 1 10.23 0.53
1 -12 1 10.11 0.57
1 -12 1 8.7 0.49
1 -12 1 9.48 0.45
1 -12 1 9.36 0.54
-1 -12 -1 8.91 0.49
-1 -12 -1 8.91 0.5
-2 -12 -1 3.06 0.18
2 -12 1 3.26 0.2
-2 -12 -1 2.98 0.18
-2 -12 -1 3.04 0.18
2 -12 1 3.25 0.19
2 -12 1 3.05 0.16
2 -12 1 3.14 0.18
-2 -12 -1 3.1 0.17
-3 -12 -1 0.17 0.03
3 -12 1 0.16 0.03
-3 -12 -1 0.14 0.03
3 -12 1 0.18 0.03
-2 -13 1 0.6 0.07
2 -13 -1 0.61 0.07
2 -13 -1 0.56 0.06
-2 -13 1 0.53 0.06
2 -13 -1 0.55 0.07
-2 -13 1 0.57 0.05
2 -13 -1 0.61 0.08
2 -13 -1 0.64 0.08
-2 -13 1 0.57 0.07
-2 -13 1 0.61 0.07
-1 -13 1 4.6 0.27
1 -13 -1 5.53 0.26
1 -13 -1 5.53 0.31
1 -13 -1 5.81 0.29
1 -13 -1 5.41 0.28
-1 -13 1 5.12 0.26
1 -13 -1 5.66 0.32
-1 -13 1 5.12 0.29
1 -13 -1 5.18 0.3
1 -13 -1 5.58 0.34
-1 -13 1 4.93 0.31
-1 -13 1 4.95 0.27
-1 -13 1 4.59 0.29
-1 -13 1 5.26 0.3
1 -13 -1 5.76 0.3
-1 -13 1 5.14 0.32
0 -13 -1 18.99 1.04
0 -13 -1 19.01 1.08
0 -13 -1 19.45 1.04
0 -13 1 19.81 0.92
0 -13 1 20.42 1.08
0 -13 -1 18.9 0.99
0 -13 1 19.6 0.94
0 -13 1 19.34 1.1
0 -13 -1 19.02 1.02
0 -13 1 19.14 0.88
0 -13 1 19.71 1.03
0 -13 1 18.83 1.04
0 -13 -1 18.74 1.1
0 -13 -1 19.34 0.98
0 -13 1 19.5 0.91
0 -13 1 19.72 1
0 -13 -1 17.91 1.16
0 -13 1 19.96 1.11
0 -13 -1 18.99 0.92
0 -13 -1 19.39 1.03
1 -13 1 17.13 0.77
-1 -13 -1 15.4 0.76
-1 -13 -1 15.6 0.86
1 -13 1 15.07 0.82
1 -13 1 15.92 0.9
-1 -13 -1 16.07 0.91
1 -13 1 15.52 0.73
-1 -13 -1 15.89 0.85
-1 -13 -1 15.73 0.81
1 -13 1 16.86 0.96
1 -13 1 15.46 0.85
-1 -13 -1 15.65 0.81
-1 -13 -1 15.88 0.84
1 -13 1 15.88 0.76
-1 -13 -1 15.89 0.85
2 -13 1 0.9 0.06
-2 -13 -1 0.95 0.07
-2 -13 -1 0.86 0.07
2 -13 1 0.86 0.08
2 -13 1 0.97 0.08
2 -13 1 0.95 0.08
-2 -13 -1 0.92 0.08
-2 -13 -1 0.9 0.07
-2 -14 1 2.7 0.15
-2 -14 1 2.76 0.16
-2 -14 1 2.75 0.17
2 -14 -1 2.75 0.17
2 -14 -1 2.78 0.16
2 -14 -1 2.73 0.18
-1 -14 1 2.26 0.16
-1 -14 1 2.45 0.13
-1 -14 1 2.71 0.15
1 -14 -1 2.53 0.15
1 -14 -1 2.43 0.15
-1 -14 1 2.49 0.15
1 -14 -1 2.49 0.17
1 -14 -1 2.39 0.17
-1 -14 1 2.25 0.13
-1 -14 1 2.52 0.16
1 -14 -1 2.45 0.16
1 -14 -1 2.53 0.14
0 -14 -1 2.04 0.12
0 -14 1 2.14 0.12
0 -14 1 2.25 0.13
0 -14 1 2.26 0.12
0 -14 -1 2.07 0.13
0 -14 1 2.16 0.15
0 -14 -1 2.11 0.14
0 -14 -1 2.09 0.14
0 -14 -1 1.91 0.14
0 -14 1 2.21 0.13
0 -14 1 2.27 0.14
0 -14 -1 2.22 0.14
0 -14 -1 2.13 0.16
1 -14 1 25.55 1.13
-1 -14 -1 24.02 1.3
-1 -14 -1 24.34 1.18
1 -14 1 24.67 1.4
-1 -14 -1 24.56 1.32
-1 -14 -1 25.36 1.27
-1 -14 -1 24.62 1.34
1 -14 1 26.22 1.18
1 -14 1 24.29 1.27
1 -14 1 24.69 1.32
-1 -14 -1 25.82 1.33
2 -14 1 2.45 0.15
2 -14 1 2.6 0.14
-2 -14 -1 2.47 0.14
-2 -14 -1 2.31 0.14
-2 -14 -1 2.58 0.13
2 -14 1 2.47 0.15
2 -15 -1 3.19 0.19
-2 -15 1 3.35 0.18
-1 -15 1 1.01 0.08
1 -15 -1 0.76 0.08
-1 -15 1 0.86 0.07
-1 -15 1 0.94 0.07
1 -15 -1 0.75 0.07
1 -15 -1 0.81 0.08
1 -15 1 17.08 0.89
-1 -15 -1 16.9 0.82
-1 -15 -1 16.68 0.91
1 -15 1 17.78 0.92
1 -15 1 18.04 0.79
-1 -15 -1 17.73 0.88
4 0 -2 4.01 0.24
4 0 -2 3.38 0.21
-4 0 2 3.31 0.21
-4 0 2 4.04 0.22
3 0 -2 -0.02 0.04
-3 0 2 0.02 0.05
-3 0 2 0.06 0.05
2 0 -2 6.68 0.4
-2 0 2 6.35 0.48
-2 0 2 7.27 0.47
2 0 -2 7.54 0.44
1 0 -2 13.53 0.73
1 0 -2 12.84 0.83
1 0 -2 12.88 0.8
-1 0 2 13.31 0.88
-1 0 2 12.4 0.85
0 0 -2 54.95 3.62
0 0 2 58.62 3.83
0 0 2 58.12 3.49
0 0 -2 58.56 3.96
0 0 -2 55.99 3.17
1 0 2 104.95 6.14
1 0 2 103.55 6.27
-1 0 -2 96.83 6.36
-1 0 -2 97.31 6.97
-2 0 -2 4.53 0.3
2 0 2 4.26 0.28
-2 0 -2 4.08 0.31
2 0 2 3.8 0.27
3 0 2 10.44 0.48
3 0 2 9.07 0.67
-3 0 -2 9.61 0.72
-3 0 -2 11.87 0.5
-3 0 -2 10.66 0.54
3 0 2 10.86 0.54
-3 0 -2 8.81 0.74
3 0 2 11.67 0.57
4 0 2 7.38 0.41
-4 0 -2 8.11 0.38
-4 0 -2 7.72 0.4
4 0 2 7.82 0.42
-4 -1 2 0.11 0.05
4 -1 -2 0.34 0.06
4 -1 -2 0.1 0.05
-4 -1 2 0.17 0.06
-4 1 2 0.14 0.05
4 1 -2 0.37 0.06
-4 1 2 0.18 0.06
4 1 -2 0.3 0.05
-3 -1 2 0.34 0.07
3 -1 -2 0.29 0.06
3 -1 -2 0.25 0.04
3 -1 -2 0.31 0.06
3 -1 -2 0.3 0.06
-3 -1 2 0.28 0.04
-3 -1 2 0.34 0.06
-3 -1 2 0.27 0.06
-3 -1 2 0.31 0.05
-3 1 2 0.24 0.06
-3 1 2 0.32 0.06
3 1 -2 0.25 0.06
2 -1 -2 20.82 1.26
2 -1 -2 21.58 1.15
-2 -1 2 19.35 1.39
-2 -1 2 20.95 1.35
2 1 -2 20.47 1.29
-2 1 2 19.66 1.4
2 1 -2 21.46 1.15
-2 1 2 20.96 1.35
2 1 -2 20.01 1.26
1 -1 -2 6.6 0.42
-1 -1 2 6.9 0.45
1 -1 -2 5.9 0.4
-1 1 2 7.18 0.45
-1 1 2 6.7 0.43
-1 1 2 5.49 0.45
1 1 -2 6.86 0.37
1 1 -2 6.62 0.41
0 -1 -2 51.74 3.52
0 -1 2 49.28 3.39
0 -1 2 51.21 3.1
0 -1 -2 50.89 3.21
0 1 -2 49.91 3.21
0 1 2 52.45 3.1
0 1 -2 48.88 2.82
0 1 2 51.89 3.39
-1 -1 -2 27.76 1.91
1 -1 2 28.23 1.68
1 -1 2 27.59 1.72
-1 -1 -2 27.3 1.86
1 1 2 28.44 1.72
1 1 2 28.07 1.68
-1 1 -2 27.66 1.91
1 1 2 25.91 1.84
-1 1 -2 26.74 1.74
-2 -1 -2 16.27 1.05
2 -1 2 15.04 0.97
2 -1 2 14.61 0.95
-2 -1 -2 14.65 1.08
-2 1 -2 16.26 1.05
-2 1 -2 15.34 1.07
2 1 2 15.95 0.97
2 1 2 14.54 0.95
-3 -1 -2 0.56 0.05
-3 -1 -2 0.38 0.05
-3 -1 -2 0.18 0.07
3 -1 2 0.55 0.06
3 -1 2 0.42 0.06
-3 -1 -2 0.45 0.06
3 -1 2 0.32 0.05
-3 1 -2 0.36 0.06
3 1 2 0.39 0.06
-3 1 -2 0.48 0.07
4 -1 2 3.08 0.19
-4 -1 -2 3.23 0.17
-4 -1 -2 3.17 0.18
4 -1 2 2.9 0.18
4 1 2 3.11 0.18
4 1 2 3.13 0.18
-4 1 -2 3.28 0.18
-4 1 -2 3.23 0.17
4 -2 -2 0.27 0.06
-4 -2 2 0.19 0.04
-4 -2 2 0.25 0.05
4 -2 -2 0.19 0.04
4 2 -2 0.23 0.04
4 2 -2 0.27 0.05
-4 2 2 0.21 0.05
-4 2 2 0.23 0.04
-3 -2 2 0.2 0.05
3 -2 -2 0.17 0.05
3 -2 -2 0.16 0.05
-3 -2 2 0.12 0.05
-3 -2 2 0.26 0.06
-3 -2 2 0.18 0.05
-3 -2 2 0.14 0.04
3 -2 -2 0.15 0.05
3 -2 -2 0.14 0.04
-3 2 2 0.12 0.05
3 2 -2 0.13 0.05
-3 2 2 0.16 0.06
3 2 -2 0.08 0.05
2 -2 -2 2.64 0.14
-2 -2 2 2.43 0.17
-2 -2 2 1.95 0.13
2 -2 -2 2.4 0.16
2 2 -2 2.3 0.16
-2 2 2 2.04 0.14
2 2 -2 2.32 0.16
-2 2 2 2.09 0.15
-2 2 2 2.03 0.17
-2 2 2 2.41 0.17
-2 2 2 2.27 0.17
2 2 -2 2.42 0.14
-1 -2 2 13.43 0.91
-1 -2 2 12.72 0.88
-1 2 2 12.01 0.92
-1 2 2 14.16 0.91
-1 2 2 14.03 0.89
1 2 -2 14.45 0.76
1 2 -2 13.99 0.83
0 -2 2 19.02 1.27
0 -2 -2 19.53 1.2
0 -2 2 20.34 1.16
0 -2 -2 20.76 1.32
0 2 2 18.41 1.27
0 2 -2 18.46 1.06
0 2 2 16.21 1.23
0 2 2 19.32 1.16
0 2 -2 18.71 1.2
-1 -2 -2 8.23 0.57
1 -2 2 8.63 0.52
1 -2 2 8.32 0.51
-1 -2 -2 7.95 0.58
1 2 2 7.69 0.56
-1 2 -2 8.74 0.58
1 2 2 8.18 0.51
-1 2 -2 8.24 0.53
-2 -2 -2 41.07 2.57
2 -2 2 37.89 1.72
-2 -2 -2 35.6 1.98
2 -2 2 38.97 2.38
-2 -2 -2 36.33 2.64
2 -2 2 37.02 1.93
-2 -2 -2 34.36 1.79
2 -2 2 37.87 2
-2 -2 -2 36 1.92
-2 2 -2 43.32 2.57
-2 2 -2 37.45 2.41
2 2 2 39.79 2.38
2 2 2 37.74 2.33
-2 2 -2 39 2.64
-3 -2 -2 9.53 0.49
-3 -2 -2 10.15 0.46
3 -2 2 8.82 0.43
-3 -2 -2 8.52 0.5
3 -2 2 9.16 0.49
3 -2 2 9.75 0.51
4 -2 2 5.26 0.3
-4 -2 -2 6.24 0.28
4 -2 2 5.62 0.32
-4 -2 -2 5.91 0.3
4 2 2 5.54 0.3
4 2 2 5.69 0.31
-4 2 -2 5.82 0.28
-4 2 -2 5.59 0.3
4 -3 -2 0.46 0.05
-4 -3 2 0.5 0.05
-4 -3 2 0.62 0.07
4 -3 -2 0.6 0.08
-4 3 2 0.6 0.07
4 3 -2 0.52 0.06
4 3 -2 0.43 0.05
-4 3 2 0.53 0.05
3 -3 -2 2.95 0.2
-3 -3 2 2.87 0.19
3 -3 -2 2.5 0.2
-3 -3 2 2.76 0.22
-3 -3 2 3.27 0.17
-3 -3 2 2.92 0.18
3 -3 -2 3.14 0.17
3 -3 -2 2.85 0.18
3 3 -2 2.74 0.2
3 3 -2 2.42 0.2
-3 3 2 2.77 0.22
-3 3 2 2.84 0.21
-2 -3 2 2.11 0.12
-2 -3 2 2.24 0.14
2 -3 -2 2.55 0.14
-2 -3 2 2.65 0.17
2 -3 -2 2.36 0.15
-2 -3 2 2.19 0.15
2 -3 -2 1.98 0.14
2 -3 -2 2.35 0.16
2 -3 -2 2.48 0.16
-2 3 2 2.46 0.18
-2 3 2 2.46 0.17
-2 3 2 2.15 0.18
-2 3 2 2.15 0.15
2 3 -2 2.46 0.16
2 3 -2 2.3 0.16
-2 3 2 2.13 0.14
-1 -3 2 72.79 4.69
1 -3 -2 70.56 4.01
-1 -3 2 71.27 4.83
-1 3 2 77.44 4.69
-1 3 2 68.42 4.87
1 3 -2 73.94 4.01
1 3 -2 71.48 4.41
0 -3 -2 61.57 3.76
0 -3 2 60.2 3.64
0 3 2 58.43 3.63
0 3 -2 56.02 3.3
0 3 -2 57.16 3.76
0 3 2 64.02 3.98
1 -3 2 0.94 0.08
1 -3 2 0.89 0.07
-1 -3 -2 0.87 0.09
-1 3 -2 0.96 0.09
1 3 2 0.88 0.08
1 3 2 0.69 0.08
-1 3 -2 0.85 0.08
2 -3 2 0.4 0.04
-2 -3 -2 0.4 0.06
2 -3 2 0.37 0.05
-2 -3 -2 0.34 0.04
2 -3 2 0.41 0.04
2 -3 2 0.35 0.04
-2 -3 -2 0.36 0.04
-2 -3 -2 0.34 0.04
-2 -3 -2 0.35 0.06
-2 3 -2 0.43 0.07
-2 3 -2 0.5 0.08
2 3 2 0.36 0.05
2 3 2 0.31 0.05
2 3 2 0.49 0.07
-2 3 -2 0.38 0.05
3 -3 2 4.83 0.24
3 -3 2 5.03 0.28
-3 -3 -2 5.18 0.25
-3 -3 -2 5 0.27
3 -3 2 4.93 0.27
-3 -3 -2 4.71 0.28
4 -3 2 4.48 0.25
4 -3 2 4.69 0.26
-4 -3 -2 4.88 0.25
-4 -3 -2 5.1 0.24
-4 3 -2 4.68 0.25
4 3 2 4.74 0.25
-4 3 -2 4.79 0.24
4 3 2 4.7 0.26
4 -4 -2 1.2 0.1
-4 -4 2 1.15 0.09
4 -4 -2 0.96 0.08
-4 -4 2 1.06 0.08
-4 4 2 1.01 0.08
4 4 -2 1.12 0.09
3 -4 -2 15.84 0.86
-3 -4 2 16.37 0.77
-3 -4 2 15.79 0.87
-3 -4 2 15.46 0.81
3 -4 -2 15.41 0.91
3 -4 -2 15.42 0.77
3 -4 -2 13.35 0.93
-3 4 2 15.44 1.03
-3 4 2 13.32 1.06
3 4 -2 14.75 0.93
-3 4 2 15.1 0.99
3 4 -2 14.1 0.95
-2 -4 2 5.99 0.36
-2 -4 2 6.27 0.42
2 -4 -2 6.06 0.36
2 -4 -2 5.77 0.32
2 -4 -2 6.01 0.39
-2 -4 2 5.98 0.3
-2 -4 2 5.86 0.32
2 -4 -2 5.69 0.35
-2 -4 2 6.26 0.34
2 -4 -2 5.94 0.38
-2 4 2 6.14 0.44
-2 4 2 6.52 0.36
2 4 -2 6.61 0.4
-2 4 2 6.5 0.42
-2 4 2 6.55 0.37
2 4 -2 6.73 0.39
-2 4 2 6.46 0.43
-1 -4 2 17.29 1.15
1 -4 -2 18.34 0.98
1 4 -2 17.13 1.08
-1 4 2 18.24 1.15
-1 4 2 16.92 1.19
1 4 -2 17.81 0.98
0 -4 -2 41.95 2.62
0 4 -2 42.43 2.62
0 4 2 41.35 2.77
0 4 -2 39.78 2.3
-1 -4 -2 5.18 0.4
1 -4 2 5.84 0.36
-1 4 -2 5.46 0.36
-1 4 -2 6.06 0.4
1 4 2 5.51 0.35
1 4 2 5.16 0.38
2 -4 2 1.5 0.12
2 -4 2 1.58 0.1
-2 -4 -2 1.28 0.13
-2 -4 -2 1.39 0.1
2 -4 2 1.53 0.09
2 -4 2 1.61 0.1
-2 -4 -2 1.4 0.1
2 4 2 1.38 0.12
2 4 2 1.59 0.12
-2 4 -2 1.64 0.14
-2 4 -2 1.52 0.12
2 4 2 1.34 0.13
-3 -4 -2 10.38 0.54
3 -4 2 10.29 0.54
-3 -4 -2 10.37 0.5
3 -4 2 10.33 0.56
3 -4 2 10.22 0.48
-4 -4 -2 3.91 0.18
4 -4 2 3.64 0.2
-4 -4 -2 3.56 0.19
4 -4 2 3.22 0.19
4 4 2 3.38 0.19
-4 4 -2 3.49 0.18
-4 4 -2 3.36 0.19
4 4 2 3.25 0.2
4 -5 -2 2.33 0.14
-4 -5 2 2.66 0.16
-4 -5 2 2.41 0.15
4 -5 -2 2.45 0.16
-3 -5 2 2.91 0.18
-3 -5 2 3.08 0.17
3 -5 -2 2.77 0.18
3 -5 -2 2.69 0.16
3 -5 -2 2.81 0.19
3 5 -2 2.45 0.2
3 5 -2 2.41 0.19
-3 5 2 2.54 0.21
3 5 -2 2.41 0.19
-2 -5 2 1.96 0.12
2 -5 -2 2.08 0.13
-2 -5 2 1.94 0.11
2 -5 -2 1.78 0.14
-2 -5 2 1.98 0.13
-2 -5 2 2 0.13
2 -5 -2 1.95 0.14
2 -5 -2 1.89 0.13
2 -5 -2 1.96 0.12
-2 5 2 1.91 0.13
-2 5 2 1.88 0.16
2 5 -2 2.17 0.14
2 5 -2 2.13 0.15
-2 5 2 2.11 0.15
-2 5 2 1.94 0.14
-2 5 2 2.09 0.16
-1 5 2 16.9 1.1
-1 5 2 16.53 1.06
1 5 -2 15.9 0.91
1 5 -2 15.61 1
0 5 -2 28.45 1.62
0 5 2 29.22 1.95
0 5 -2 29.62 1.84
1 -5 2 15.01 0.82
1 -5 2 14.69 0.7
-1 -5 -2 13.4 0.81
-1 -5 -2 14.32 0.73
-1 -5 -2 14.96 1.08
1 5 2 16.64 1.04
-1 5 -2 16.31 0.98
-1 5 -2 16.9 1.08
1 5 2 16.36 0.95
2 -5 2 1.16 0.09
2 -5 2 1.11 0.07
-2 -5 -2 1.09 0.09
-2 -5 -2 1.12 0.08
2 -5 2 1 0.1
2 -5 2 1.14 0.08
-2 -5 -2 0.99 0.08
2 5 2 1 0.12
-2 5 -2 1.16 0.1
2 5 2 1.18 0.1
-2 5 -2 1.28 0.12
2 5 2 1.17 0.11
3 -5 2 3.89 0.21
-3 -5 -2 3.62 0.22
-3 -5 -2 3.64 0.21
3 -5 2 3.8 0.22
-3 -5 -2 3.87 0.2
-4 -5 -2 1.2 0.08
4 -5 2 1.23 0.08
-4 -5 -2 1.3 0.07
4 -5 2 1.25 0.08
4 5 2 1.15 0.08
4 5 2 1.12 0.08
-4 5 -2 1.11 0.07
-4 5 -2 1.09 0.08
4 -6 -2 3.15 0.2
-4 -6 2 3.15 0.19
-3 -6 2 45.8 2.52
3 -6 -2 43.92 2.65
3 -6 -2 43.71 2.26
-3 -6 2 44.93 2.24
-3 -6 2 46.1 2.36
3 -6 -2 41.84 2.49
2 -6 -2 4.33 0.26
-2 -6 2 4.43 0.22
2 -6 -2 4.29 0.24
-2 -6 2 4.3 0.24
-2 -6 2 4.3 0.25
-2 -6 2 4.22 0.26
2 -6 -2 4.4 0.26
2 -6 -2 4.48 0.28
2 6 -2 4.73 0.29
-2 6 2 4.48 0.3
-2 6 2 4.15 0.32
-2 6 2 4.43 0.32
-2 6 2 4.29 0.26
-2 6 2 4.22 0.27
2 6 -2 4.59 0.29
-1 -6 2 4.06 0.25
-1 -6 2 4.02 0.2
-1 -6 2 3.88 0.24
1 -6 -2 3.97 0.26
1 -6 -2 3.8 0.22
1 -6 -2 4.12 0.24
-1 6 2 4.55 0.3
1 6 -2 4.36 0.24
-1 6 2 4.63 0.29
1 6 -2 4.5 0.27
0 6 2 48.9 3.18
0 6 2 50.37 3.27
0 6 -2 48.06 2.71
0 6 -2 48.1 3.09
-1 -6 -2 31 1.75
-1 -6 -2 32.83 1.58
1 -6 2 34.24 1.52
-1 -6 -2 30.13 1.79
1 -6 2 34.5 1.77
1 -6 2 33.24 1.58
1 -6 2 31.96 1.71
-1 -6 -2 29.85 1.77
1 -6 2 32.12 1.61
-1 6 -2 36.85 2.34
-1 6 -2 35.82 2.13
1 6 2 37.7 2.26
1 6 2 36.92 2.06
2 -6 2 0.29 0.04
-2 -6 -2 0.29 0.04
-2 -6 -2 0.24 0.04
-2 -6 -2 0.32 0.04
2 -6 2 0.29 0.04
-2 -6 -2 0.22 0.04
2 -6 2 0.29 0.04
2 6 2 0.23 0.06
-2 6 -2 0.27 0.06
2 6 2 0.22 0.06
-2 6 -2 0.29 0.05
2 6 2 0.2 0.04
3 -6 2 3.64 0.21
-3 -6 -2 3.67 0.21
-3 -6 -2 3.74 0.21
-3 -6 -2 3.75 0.2
3 -6 2 3.69 0.22
-4 -6 -2 0.9 0.06
4 -6 2 0.86 0.06
-4 6 -2 0.95 0.06
4 6 2 0.86 0.06
4 -7 -2 7.62 0.46
-4 -7 2 8.32 0.43
-3 -7 2 1.74 0.13
3 -7 -2 1.52 0.11
3 -7 -2 1.5 0.13
3 -7 -2 1.54 0.13
-2 -7 2 8.92 0.51
2 -7 -2 9.29 0.48
-2 -7 2 9.3 0.45
2 -7 -2 9.55 0.57
2 -7 -2 9.43 0.53
2 -7 -2 9.52 0.54
-2 -7 2 9.35 0.48
-2 -7 2 9.23 0.54
-2 7 2 9.37 0.54
-2 7 2 9.65 0.65
2 7 -2 9.6 0.6
-2 7 2 8.65 0.62
-2 7 2 9.28 0.66
2 7 -2 9.19 0.58
-2 7 2 9.47 0.56
1 -7 -2 11.39 0.68
1 -7 -2 12.15 0.64
-1 -7 2 10.78 0.63
-1 -7 2 10.59 0.54
1 -7 -2 10.81 0.64
-1 -7 2 12.01 0.61
-1 -7 2 10.47 0.6
-1 -7 2 11.01 0.55
1 -7 -2 11.19 0.6
-1 -7 2 11.38 0.58
-1 -7 2 11.03 0.61
1 -7 -2 10.77 0.6
-1 -7 2 11.38 0.65
-1 -7 2 11.43 0.54
1 -7 -2 10.92 0.58
-1 -7 2 10.72 0.6
1 -7 -2 11 0.57
1 7 -2 11.82 0.7
-1 7 2 12.35 0.75
-1 7 2 12.67 0.78
1 7 -2 11.69 0.72
0 -7 -2 7.99 0.38
0 -7 -2 7.88 0.41
0 -7 -2 8.02 0.45
0 -7 2 8.63 0.45
0 -7 2 8.22 0.39
0 -7 -2 7.98 0.43
0 -7 2 7.72 0.37
0 -7 2 7.12 0.43
0 -7 -2 7.65 0.43
0 -7 2 8.29 0.46
0 -7 2 8.11 0.38
0 -7 -2 6.78 0.46
0 -7 -2 6.89 0.48
0 -7 2 7.67 0.38
0 -7 2 7.55 0.38
0 -7 2 8.54 0.48
0 -7 2 8.06 0.45
0 -7 -2 7.88 0.42
0 -7 -2 7.62 0.43
0 7 2 9.1 0.53
0 7 -2 8.67 0.45
0 7 2 8.69 0.55
1 -7 2 4.13 0.19
1 -7 2 4.02 0.19
1 -7 2 3.87 0.2
-1 -7 -2 3.78 0.21
-1 -7 -2 3.65 0.22
1 -7 2 3.74 0.21
-1 -7 -2 3.67 0.22
1 -7 2 4 0.22
-1 -7 -2 3.82 0.2
-1 -7 -2 3.64 0.22
1 7 2 3.99 0.28
-1 7 -2 3.94 0.26
1 7 2 3.9 0.25
-1 7 -2 3.88 0.28
-2 -7 -2 1.09 0.08
-2 -7 -2 0.93 0.09
2 -7 2 1.05 0.08
2 -7 2 1.15 0.08
2 -7 2 1.25 0.09
-2 -7 -2 1.07 0.08
-2 7 -2 1.08 0.1
2 7 2 1.12 0.12
2 7 2 0.83 0.11
2 7 2 1.03 0.1
-2 7 -2 0.99 0.12
3 -7 2 0.34 0.05
-3 -7 -2 0.28 0.05
3 -7 2 0.33 0.05
-3 -7 -2 0.3 0.05
-3 -7 -2 0.28 0.05
3 -7 2 0.26 0.04
4 -8 -2 17.05 0.95
-4 -8 2 16.83 0.9
3 -8 -2 2.55 0.18
-3 -8 2 2.56 0.17
-3 -8 2 2.54 0.15
3 -8 -2 2.64 0.17
3 -8 -2 2.34 0.15
-3 -8 2 2.55 0.17
2 -8 -2 49.25 2.45
2 -8 -2 48.9 2.91
-2 -8 2 47.7 2.77
-2 -8 2 47.78 2.59
2 -8 -2 48.98 2.71
-2 -8 2 49.97 2.29
2 -8 -2 48.02 2.48
2 -8 -2 49.73 2.74
-2 -8 2 49.21 2.47
-2 8 2 49.82 3.39
2 8 -2 49.19 3.06
-2 8 2 49.32 3.3
-2 8 2 49.71 2.76
-2 8 2 49.72 2.86
2 8 -2 45.04 2.99
1 -8 -2 15.59 0.74
-1 -8 2 15.6 0.71
-1 -8 2 16.12 0.84
1 -8 -2 15.1 0.82
1 -8 -2 15.42 0.8
1 -8 -2 15.71 0.79
-1 -8 2 15.33 0.74
1 -8 -2 16.03 0.94
-1 -8 2 16.08 0.8
-1 -8 2 16.19 0.74
-1 -8 2 15.16 0.82
-1 -8 2 16.22 0.84
-1 -8 2 15.29 0.87
1 -8 -2 14.69 0.88
-1 -8 2 15.72 0.89
-1 -8 2 15.54 0.76
1 -8 -2 14.7 0.84
1 -8 -2 14.36 0.71
-1 -8 2 16.17 0.83
1 -8 -2 16.06 0.87
1 -8 -2 15.43 0.83
-1 -8 2 15.73 0.74
1 8 -2 15.94 0.98
-1 8 2 16.57 1.07
1 8 -2 15.6 0.96
-1 8 2 15.11 1.03
0 -8 2 4.63 0.23
0 -8 2 4.75 0.27
0 -8 2 4.86 0.25
0 -8 -2 4.06 0.28
0 -8 -2 4.52 0.28
0 -8 2 4.43 0.28
0 -8 2 5.05 0.29
0 -8 -2 4.45 0.26
0 -8 -2 4.73 0.23
0 -8 -2 4.34 0.27
0 -8 2 4.92 0.27
0 -8 2 4.87 0.28
0 -8 -2 4.56 0.26
0 -8 -2 4.55 0.26
0 -8 -2 4.67 0.25
0 -8 2 4.46 0.26
0 -8 2 4.95 0.23
0 -8 -2 4.78 0.26
0 -8 -2 4.64 0.26
0 -8 2 4.99 0.24
0 -8 2 4.63 0.23
0 -8 -2 4.55 0.25
0 -8 2 4.57 0.22
0 -8 -2 4.38 0.29
0 -8 2 4.82 0.25
0 -8 -2 4.62 0.25
0 8 2 4.7 0.33
0 8 -2 4.8 0.27
0 8 2 4.75 0.32
-1 -8 -2 20.12 1.01
1 -8 2 20.6 0.96
-1 -8 -2 19.95 0.94
1 -8 2 20.11 0.94
-1 -8 -2 19.16 1.05
-1 -8 -2 17.54 1
1 -8 2 19.42 1.12
-1 -8 -2 18.29 1.06
-1 -8 -2 19.32 1.06
1 -8 2 20.99 0.9
-1 -8 -2 20.06 1.04
1 -8 2 20.06 1.05
1 -8 2 19.1 1.01
1 8 2 21.57 1.34
1 8 2 19.97 1.22
-1 8 -2 18.32 1.38
-1 8 -2 20.27 1.26
-1 8 -2 21.82 1.11
2 -8 2 4.55 0.25
-2 -8 -2 4.36 0.25
2 -8 2 4.45 0.24
-2 -8 -2 4.2 0.25
-2 -8 -2 4.41 0.24
2 -8 2 4.53 0.22
-2 -8 -2 4.48 0.22
2 -8 2 4.5 0.21
-2 8 -2 3.77 0.32
2 8 2 4.14 0.29
2 8 2 4.18 0.33
-2 8 -2 4.18 0.3
-3 -8 -2 0.68 0.07
3 -8 2 0.61 0.07
-3 -8 -2 0.59 0.07
-3 -8 -2 0.71 0.07
3 -8 2 0.68 0.07
-3 -9 2 0.49 0.06
3 -9 -2 0.41 0.05
3 -9 -2 0.42 0.06
-3 -9 2 0.5 0.06
-3 -9 2 0.46 0.05
3 -9 -2 0.49 0.06
-2 -9 2 45.45 2.47
-2 -9 2 46.55 2.09
2 -9 -2 45.46 2.27
2 -9 -2 46.27 2.48
-2 -9 2 44.04 2.54
2 -9 -2 45.9 2.67
-2 -9 2 46.02 2.26
-2 -9 2 44.53 2.37
2 -9 -2 44.99 2.51
2 9 -2 37.83 2.73
2 9 -2 42.35 2.8
-2 9 2 45.51 2.62
2 9 -2 47.84 2.74
-2 9 2 45.49 2.53
-2 9 2 44.99 3.11
-2 9 2 41.7 3.02
-1 -9 2 10.96 0.58
1 -9 -2 10.25 0.56
-1 -9 2 11.21 0.51
-1 -9 2 10.59 0.51
-1 -9 2 10.82 0.51
-1 -9 2 11.08 0.57
-1 -9 2 11.4 0.55
1 -9 -2 10.12 0.58
1 -9 -2 10.83 0.6
-1 -9 2 10.38 0.52
-1 -9 2 10.48 0.56
-1 -9 2 10.97 0.49
1 -9 -2 10.79 0.57
1 -9 -2 10.69 0.54
1 -9 -2 10.66 0.57
-1 -9 2 10.54 0.61
1 -9 -2 10.24 0.51
1 -9 -2 10.28 0.61
1 -9 -2 10.88 0.65
-1 -9 2 10.59 0.6
1 -9 -2 9.96 0.55
-1 9 2 9.27 0.71
-1 9 2 10.73 0.73
1 9 -2 10.33 0.66
1 9 -2 10.99 0.68
0 -9 2 6.61 0.37
0 -9 2 5.83 0.29
0 -9 2 6.2 0.35
0 -9 -2 6.12 0.3
0 -9 2 6.16 0.29
0 -9 -2 5.79 0.34
0 -9 2 5.97 0.3
0 -9 2 5.99 0.33
0 -9 -2 6 0.32
0 -9 -2 5.7 0.38
0 -9 -2 6.17 0.33
0 -9 2 6.4 0.35
0 -9 -2 5.92 0.33
0 -9 -2 5.8 0.35
0 -9 -2 6.12 0.33
0 -9 2 5.73 0.33
0 -9 2 6.17 0.3
0 -9 -2 5.42 0.35
0 -9 2 6.15 0.32
0 -9 -2 6 0.32
0 -9 2 6.04 0.29
0 -9 2 6.12 0.32
0 -9 -2 5.93 0.31
0 -9 -2 6.16 0.33
0 -9 -2 5.79 0.35
0 -9 2 6.1 0.36
0 9 2 6.07 0.41
0 9 -2 5.78 0.38
0 9 -2 5.71 0.35
0 9 2 5.59 0.42
-1 -9 -2 2.19 0.13
-1 -9 -2 1.9 0.13
1 -9 2 2.09 0.13
1 -9 2 2.2 0.15
1 -9 2 2.27 0.12
-1 -9 -2 2.08 0.14
1 -9 2 2.43 0.12
1 -9 2 2.33 0.13
-1 -9 -2 2.15 0.12
1 -9 2 2.12 0.14
-1 -9 -2 2.22 0.14
1 -9 2 2.26 0.14
-1 -9 -2 2.19 0.14
1 9 2 2.11 0.18
-1 9 -2 2.34 0.14
1 9 2 2.06 0.16
-1 9 -2 2.01 0.16
2 -9 2 8.33 0.38
2 -9 2 8.48 0.45
-2 -9 -2 8.29 0.4
-2 -9 -2 8.07 0.44
-2 -9 -2 8.12 0.43
2 -9 2 7.88 0.43
-3 -9 -2 0.09 0.03
3 -9 2 0.15 0.03
-3 -9 -2 0.12 0.04
3 -9 2 0.11 0.04
3 -10 -2 4.35 0.24
-3 -10 2 4.5 0.27
-3 -10 2 4.55 0.24
3 -10 -2 4.26 0.28
-3 -10 2 4.63 0.25
3 -10 -2 4.35 0.27
-2 -10 2 9.24 0.51
-2 -10 2 9.33 0.45
-2 -10 2 9.35 0.48
2 -10 -2 9.35 0.57
2 -10 -2 9.48 0.53
-2 -10 2 9.16 0.54
2 -10 -2 9.06 0.54
2 -10 -2 9.16 0.49
-1 -10 2 59.97 2.89
1 -10 -2 57.05 2.98
-1 -10 2 61.97 2.7
-1 -10 2 60.21 2.68
-1 -10 2 58.51 2.69
-1 -10 2 58.74 3.03
1 -10 -2 54.87 2.58
1 -10 -2 57.4 2.91
-1 -10 2 60.67 2.75
-1 -10 2 62.53 2.59
1 -10 -2 56.56 3.17
1 -10 -2 59.65 3.05
1 -10 -2 55.15 3.21
-1 -10 2 58.89 3.17
1 -10 -2 58.41 3.01
1 -10 -2 55.25 3.41
-1 -10 2 56.97 3.25
-1 -10 2 56.43 2.98
1 -10 -2 59.07 2.87
1 -10 -2 55.05 3.01
1 10 -2 58.17 3.58
-1 10 2 48.12 3.73
-1 10 2 52.61 3.87
1 10 -2 53.51 3.5
-1 10 2 55.35 3.98
0 -10 2 2.73 0.17
0 -10 2 2.64 0.15
0 -10 -2 2.55 0.16
0 -10 2 2.61 0.15
0 -10 -2 2.45 0.15
0 -10 -2 2.16 0.17
0 -10 -2 2.6 0.15
0 -10 2 2.48 0.16
0 -10 2 2.85 0.18
0 -10 2 2.63 0.15
0 -10 2 2.56 0.14
0 -10 -2 2.51 0.18
0 -10 2 2.56 0.17
0 -10 2 2.79 0.16
0 -10 2 2.6 0.14
0 -10 -2 2.6 0.16
0 -10 -2 2.51 0.15
0 -10 -2 2.54 0.16
0 -10 -2 2.48 0.17
0 -10 -2 2.63 0.16
0 -10 -2 2.55 0.17
0 -10 2 2.55 0.16
0 -10 2 2.63 0.17
0 10 2 2.53 0.2
0 10 -2 2.43 0.18
1 -10 2 0.34 0.05
1 -10 2 0.41 0.05
-1 -10 -2 0.43 0.05
-1 -10 -2 0.44 0.05
-1 -10 -2 0.39 0.05
-1 -10 -2 0.35 0.06
1 -10 2 0.39 0.05
-1 -10 -2 0.37 0.05
1 -10 2 0.47 0.05
1 -10 2 0.44 0.05
-1 -10 -2 0.41 0.06
1 -10 2 0.49 0.06
-1 -10 -2 0.28 0.05
1 -10 2 0.45 0.05
-1 10 -2 0.45 0.07
1 10 2 0.35 0.07
-1 10 -2 0.35 0.05
1 10 2 0.33 0.05
-2 -10 -2 1.01 0.09
-2 -10 -2 1.12 0.09
-2 -10 -2 1.09 0.08
2 -10 2 1.05 0.09
2 -10 2 1.07 0.08
2 -10 2 1.04 0.08
-3 -10 -2 0.1 0.03
3 -10 2 0.08 0.03
-3 -10 -2 0.1 0.03
3 -10 2 0.06 0.03
-3 -11 2 2.09 0.12
-3 -11 2 2.07 0.14
3 -11 -2 2.11 0.15
-3 -11 2 2.11 0.13
3 -11 -2 1.98 0.14
-2 -11 2 2.76 0.17
-2 -11 2 2.79 0.16
2 -11 -2 2.64 0.18
2 -11 -2 2.79 0.19
2 -11 -2 2.66 0.17
-2 -11 2 2.79 0.15
2 -11 -2 2.66 0.18
-2 -11 2 2.79 0.18
1 -11 -2 45.16 2.39
1 -11 -2 47.19 2.8
1 -11 -2 49.2 2.47
1 -11 -2 47.36 2.44
-1 -11 2 49.69 2.2
1 -11 -2 48.78 2.5
-1 -11 2 43 2.44
-1 -11 2 47.83 2.49
-1 -11 2 47.42 2.66
-1 -11 2 52.18 2.12
1 -11 -2 48.33 2.35
-1 -11 2 49.72 2.21
-1 -11 2 49.21 2.26
-1 -11 2 50.45 2.37
-1 -11 2 48.59 2.21
1 -11 -2 46.43 2.63
1 -11 -2 46.32 2.6
-1 -11 2 47.97 2.6
1 -11 -2 47.52 2.47
1 11 -2 45.2 2.94
-1 11 2 41.59 3.17
-1 11 2 42.78 2.75
-1 11 2 42.91 2.65
-1 11 2 40.36 3.26
0 -11 2 10.47 0.57
0 -11 -2 10.79 0.56
0 -11 2 10.19 0.57
0 -11 2 10.5 0.5
0 -11 -2 10.03 0.64
0 -11 2 10.5 0.51
0 -11 -2 10.29 0.54
0 -11 -2 10.62 0.56
0 -11 2 11.15 0.6
0 -11 2 10.96 0.52
0 -11 -2 10.5 0.54
0 -11 2 11.35 0.6
0 -11 2 10.5 0.54
0 -11 -2 10.6 0.55
0 -11 -2 10.45 0.6
0 -11 -2 10.21 0.6
0 -11 -2 10.79 0.51
0 -11 2 11.02 0.61
0 -11 -2 10.51 0.57
0 -11 -2 10.72 0.57
0 -11 2 10.99 0.55
0 -11 2 10.28 0.49
0 11 2 9.08 0.7
0 11 -2 8.9 0.66
0 11 2 9.39 0.73
-1 -11 -2 13.91 0.75
1 -11 2 14.76 0.68
-1 -11 -2 13.29 0.74
1 -11 2 14.34 0.78
1 -11 2 13.65 0.75
1 -11 2 13.94 0.79
-1 -11 -2 13.71 0.72
1 -11 2 14.48 0.84
-1 -11 -2 13.7 0.76
1 -11 2 14.44 0.67
-1 -11 -2 13.67 0.67
1 -11 2 13.14 0.72
1 -11 2 14.16 0.64
-1 -11 -2 13.37 0.74
-1 -11 -2 13.55 0.71
2 -11 2 3.72 0.21
2 -11 2 3.6 0.2
2 -11 2 3.73 0.18
-2 -11 -2 3.42 0.21
-2 -11 -2 3.71 0.19
-2 -11 -2 3.56 0.2
3 -11 2 1.34 0.09
-3 -11 -2 1.35 0.08
3 -11 2 1.29 0.08
-3 -11 -2 1.25 0.08
-3 -12 2 7.34 0.43
3 -12 -2 7.29 0.45
-3 -12 2 7.39 0.4
3 -12 -2 7.51 0.42
2 -12 -2 4.19 0.27
2 -12 -2 4.48 0.28
-2 -12 2 4.28 0.27
2 -12 -2 4.36 0.26
-2 -12 2 4.47 0.24
-2 -12 2 4.45 0.22
-2 -12 2 4.25 0.25
2 -12 -2 4.18 0.24
1 -12 -2 7.22 0.38
1 -12 -2 6.71 0.38
1 -12 -2 6.96 0.4
-1 -12 2 7.65 0.43
-1 -12 2 7.27 0.42
1 -12 -2 7.09 0.4
-1 -12 2 7.26 0.35
1 -12 -2 6.83 0.4
1 -12 -2 6.72 0.43
-1 -12 2 7.74 0.38
-1 -12 2 7.89 0.34
1 -12 -2 6.17 0.39
1 -12 -2 6.97 0.45
1 -12 -2 7.14 0.42
-1 -12 2 7.27 0.36
-1 -12 2 7.66 0.4
-1 -12 2 7.37 0.35
-1 -12 2 7.42 0.36
0 -12 -2 17.9 0.93
0 -12 2 18.02 0.84
0 -12 -2 16.66 1.1
0 -12 -2 17.87 0.87
0 -12 -2 17.29 1.02
0 -12 -2 17.82 0.94
0 -12 2 18.95 1.03
0 -12 2 18.13 0.89
0 -12 -2 18.48 0.97
0 -12 2 17.92 0.98
0 -12 2 19.12 0.94
0 -12 -2 17.72 1.04
0 -12 2 19.02 1.05
0 -12 2 18.2 0.87
0 -12 -2 18.58 0.99
0 -12 -2 19.08 0.97
0 -12 2 18.3 0.98
0 -12 2 18.88 1.04
0 -12 2 19.1 0.87
-1 -12 -2 1.29 0.09
1 -12 2 1.28 0.1
1 -12 2 1.26 0.09
-1 -12 -2 1.15 0.09
-1 -12 -2 1.19 0.1
1 -12 2 1.23 0.1
-1 -12 -2 1.24 0.1
1 -12 2 1.22 0.09
-1 -12 -2 1.14 0.09
1 -12 2 1.27 0.09
-1 -12 -2 1.06 0.09
1 -12 2 1.18 0.11
1 -12 2 1.14 0.1
-1 -12 -2 1.19 0.09
-2 -12 -2 0.4 0.05
2 -12 2 0.33 0.04
-2 -12 -2 0.38 0.04
-2 -12 -2 0.36 0.04
2 -12 2 0.39 0.05
2 -12 2 0.39 0.05
2 -13 -2 1.81 0.12
2 -13 -2 1.82 0.14
-2 -13 2 1.9 0.1
2 -13 -2 1.71 0.12
-2 -13 2 1.84 0.13
-2 -13 2 1.9 0.12
-2 -13 2 1.82 0.11
2 -13 -2 1.85 0.13
1 -13 -2 0.33 0.06
-1 -13 2 0.42 0.05
-1 -13 2 0.42 0.05
1 -13 -2 0.3 0.06
-1 -13 2 0.5 0.05
1 -13 -2 0.32 0.07
-1 -13 2 0.47 0.06
1 -13 -2 0.36 0.06
1 -13 -2 0.35 0.05
-1 -13 2 0.34 0.05
1 -13 -2 0.3 0.05
1 -13 -2 0.35 0.05
-1 -13 2 0.39 0.04
-1 -13 2 0.45 0.06
-1 -13 2 0.41 0.05
0 -13 -2 39.03 1.96
0 -13 -2 39.34 2.06
0 -13 2 38.2 2.06
0 -13 2 40.8 1.88
0 -13 2 40.39 2.22
0 -13 -2 38.51 1.84
0 -13 -2 36.09 2.17
0 -13 2 38.7 1.77
0 -13 2 39.75 1.84
0 -13 -2 40.6 2.09
0 -13 -2 35.17 2.33
0 -13 2 40.2 2.17
0 -13 -2 39.2 2.04
0 -13 2 39.48 1.99
0 -13 -2 37.84 1.98
0 -13 2 41.55 1.83
1 -13 2 0.38 0.06
-1 -13 -2 0.38 0.05
1 -13 2 0.36 0.04
-1 -13 -2 0.38 0.05
-1 -13 -2 0.41 0.05
-1 -13 -2 0.42 0.05
-1 -13 -2 0.37 0.05
1 -13 2 0.39 0.05
1 -13 2 0.38 0.04
-1 -13 -2 0.38 0.05
-1 -13 -2 0.38 0.05
1 -13 2 0.43 0.05
1 -13 2 0.35 0.05
-2 -13 -2 2.05 0.13
-2 -13 -2 2.11 0.11
2 -13 2 2.07 0.13
-2 -13 -2 1.88 0.12
2 -13 2 2.09 0.11
2 -13 2 2.14 0.12
2 -14 -2 1.33 0.1
2 -14 -2 1.28 0.1
-2 -14 2 1.39 0.09
-2 -14 2 1.3 0.08
-2 -14 2 1.43 0.09
2 -14 -2 1.17 0.09
-2 -14 2 1.25 0.08
-1 -14 2 0.04 0.04
-1 -14 2 0.06 0.03
1 -14 -2 0.03 0.03
1 -14 -2 0.06 0.05
1 -14 -2 0.06 0.05
-1 -14 2 0.07 0.04
1 -14 -2 0.03 0.03
-1 -14 2 0.09 0.04
1 -14 -2 0.05 0.04
-1 -14 2 0.04 0.04
1 -14 -2 0.05 0.04
-1 -14 2 0.05 0.03
0 -14 -2 1.46 0.11
0 -14 -2 1.39 0.09
0 -14 -2 1.37 0.1
0 -14 -2 1.49 0.11
0 -14 2 1.64 0.11
0 -14 -2 1.43 0.1
0 -14 2 1.54 0.1
0 -14 -2 1.53 0.11
0 -14 2 1.54 0.1
0 -14 2 1.55 0.11
0 -14 2 1.46 0.09
0 -14 2 1.52 0.09
1 -14 2 8.25 0.46
1 -14 2 9.43 0.43
-1 -14 -2 8.64 0.48
1 -14 2 9.41 0.44
1 -14 2 8.87 0.41
-1 -14 -2 8.78 0.43
-1 -14 -2 8.89 0.46
-1 -14 -2 9.01 0.48
1 -14 2 9 0.48
-1 -14 -2 8.83 0.49
-2 -14 -2 0.75 0.05
2 -14 2 0.79 0.06
-2 -14 -2 0.71 0.06
-1 -15 2 1.99 0.12
1 -15 -2 1.64 0.12
-1 -15 2 1.98 0.1
-1 -15 2 2.12 0.12
1 -15 -2 1.42 0.13
1 -15 -2 1.66 0.11
0 -15 -2 2.18 0.13
0 -15 2 2.26 0.14
0 -15 2 2.18 0.12
0 -15 -2 2.17 0.13
0 -15 -2 1.97 0.12
0 -15 2 2.21 0.12
-1 -15 -2 3.98 0.22
1 -15 2 4.13 0.22
1 -15 2 4.16 0.2
-1 -15 -2 3.96 0.22
1 -15 2 3.92 0.19
-1 -15 -2 3.85 0.2
-4 0 3 0.18 0.05
-4 0 3 0.15 0.05
4 0 -3 0.15 0.05
4 0 -3 0.12 0.05
-3 0 3 3.48 0.25
-3 0 3 3.48 0.18
3 0 -3 3.48 0.21
3 0 -3 3.09 0.21
3 0 -3 3.2 0.24
2 0 -3 26.55 1.42
-2 0 3 25.42 1.72
2 0 -3 24.47 1.57
-2 0 3 25.68 1.67
-1 0 3 -0.02 0.04
1 0 -3 -0.07 0.03
1 0 -3 -0.04 0.03
1 0 -3 0.02 0.03
-1 0 3 0.04 0.04
0 0 -3 5.54 0.37
0 0 3 5.93 0.36
0 0 -3 5.85 0.4
0 0 -3 5.46 0.32
0 0 3 5.52 0.39
1 0 3 68.38 4.24
-1 0 -3 72.75 4.71
1 0 3 66.46 4.15
-1 0 -3 63.92 4.29
-2 0 -3 4.79 0.34
2 0 3 3.73 0.3
-2 0 -3 4.85 0.32
2 0 3 4.53 0.3
3 0 3 -0.03 0.04
3 0 3 -0.02 0.03
3 0 3 -0.03 0.04
-3 0 -3 -0.02 0.04
-3 0 -3 -0.04 0.04
-3 0 -3 0.03 0.04
4 0 3 10.96 0.6
-4 0 -3 11.73 0.54
4 -1 -3 0.12 0.05
-4 -1 3 0.08 0.05
-4 -1 3 0.11 0.05
4 -1 -3 0.12 0.05
4 1 -3 0.08 0.05
-4 1 3 0.1 0.05
4 1 -3 0.09 0.05
-4 1 3 0.13 0.05
3 -1 -3 8.89 0.51
-3 -1 3 8.45 0.45
-3 -1 3 8.37 0.56
3 -1 -3 7.69 0.47
-3 -1 3 7.8 0.39
-3 -1 3 8.59 0.48
3 -1 -3 8.55 0.47
3 -1 -3 6.97 0.52
-3 1 3 8.59 0.55
3 1 -3 7.65 0.47
3 1 -3 8.03 0.52
2 -1 -3 28.88 1.56
2 -1 -3 26.09 1.72
-2 -1 3 29.29 1.88
-2 -1 3 28.11 1.83
-2 1 3 28.39 1.83
-2 1 3 29.5 1.88
-2 1 3 25.17 1.89
2 1 -3 27.92 1.72
2 1 -3 28.74 1.56
-1 -1 3 3.87 0.26
1 -1 -3 3.71 0.24
1 1 -3 3.56 0.21
1 1 -3 3.45 0.24
-1 1 3 3.69 0.26
1 1 -3 3.39 0.23
-1 1 3 3.63 0.25
0 -1 3 35.31 2.24
0 -1 -3 37.2 2.54
0 -1 -3 35.92 2.31
0 -1 3 36.26 2.45
0 1 3 37.85 2.45
0 1 -3 36.57 2.31
0 1 -3 35.93 2.03
0 1 3 37.31 2.23
-1 -1 -3 24.24 1.76
1 -1 3 24.97 1.58
-1 -1 -3 22.77 1.6
1 -1 3 25.28 1.55
1 1 3 25.96 1.58
1 1 3 27.05 1.55
-1 1 -3 26.29 1.76
-1 1 -3 25.55 1.6
1 1 3 25.21 1.7
-2 -1 -3 16.08 1.05
2 -1 3 13.64 0.95
2 -1 3 15.63 0.73
2 -1 3 14.96 0.97
-2 -1 -3 14.88 1.08
-2 -1 -3 14.63 0.82
2 1 3 15.13 0.95
2 1 3 16.01 0.97
-2 1 -3 16.39 1.08
-2 1 -3 15.5 1.04
3 -1 3 0.36 0.05
3 -1 3 0.23 0.04
-3 -1 -3 0.3 0.05
-3 -1 -3 0.28 0.05
-3 -1 -3 0.31 0.05
3 -1 3 0.34 0.05
-3 1 -3 0.27 0.05
3 1 3 0.28 0.05
3 1 3 0.33 0.05
-3 1 -3 0.32 0.05
3 1 3 0.28 0.04
4 -1 3 5.44 0.3
-4 -1 -3 5.56 0.27
4 1 3 5.41 0.3
-4 1 -3 5.79 0.27
-4 -2 3 1.1 0.1
4 -2 -3 1.18 0.1
4 -2 -3 1.16 0.1
-4 -2 3 1.21 0.09
4 2 -3 1.08 0.1
-4 2 3 1.19 0.1
4 2 -3 1.15 0.1
-4 2 3 1.12 0.1
3 -2 -3 4.17 0.25
-3 -2 3 4.27 0.25
3 -2 -3 3.52 0.27
3 -2 -3 4.17 0.26
-3 -2 3 4.24 0.29
-3 -2 3 4.23 0.23
-3 2 3 3.45 0.29
3 2 -3 3.59 0.24
3 2 -3 3.99 0.27
-3 2 3 3.95 0.28
-2 -2 3 6.68 0.42
2 -2 -3 7.08 0.42
2 -2 -3 7.78 0.42
2 -2 -3 7.14 0.44
2 -2 -3 7.24 0.45
-2 -2 3 7.35 0.35
2 -2 -3 6.93 0.41
-2 -2 3 6.82 0.39
-2 -2 3 7.74 0.49
-2 2 3 7.42 0.49
2 2 -3 8.01 0.41
2 2 -3 6.82 0.46
-2 2 3 7.16 0.5
2 2 -3 7.44 0.46
1 -2 -3 38.29 2.27
1 -2 -3 35.02 1.99
-1 -2 3 30.76 2.32
-1 -2 3 36.5 2.4
1 2 -3 35.33 2.26
-1 2 3 38.39 2.4
1 2 -3 36.65 1.99
1 2 -3 37.49 2.19
-1 2 3 36.74 2.33
-1 2 3 32.53 2.41
0 -2 3 42.96 2.6
0 -2 -3 40.39 2.69
0 -2 -3 43.31 2.95
0 -2 3 40.16 2.84
0 2 -3 41.77 2.36
0 2 3 44.67 2.6
0 2 3 41.92 2.76
0 2 -3 43.86 2.69
0 2 3 42.96 2.84
-1 -2 -3 36.99 2.62
1 -2 3 41.48 2.54
-1 -2 -3 42.11 2.88
1 -2 3 41.96 2.59
-1 2 -3 41.61 2.63
1 2 3 41.94 2.54
-1 2 -3 40.48 2.3
1 2 3 43.77 2.59
-1 2 -3 42.87 2.88
1 2 3 41.54 2.78
2 -2 3 6.02 0.33
-2 -2 -3 5.71 0.35
-2 -2 -3 5.97 0.46
2 -2 3 6.35 0.41
2 -2 3 5.63 0.4
2 -2 3 6.76 0.35
-2 -2 -3 6.48 0.31
2 -2 3 6.84 0.3
-2 -2 -3 6.58 0.34
2 -2 3 6.27 0.31
-2 2 -3 6.61 0.46
-2 2 -3 5.97 0.41
2 2 3 6.46 0.41
2 2 3 6.51 0.41
3 -2 3 6.3 0.34
-3 -2 -3 6.56 0.3
3 -2 3 5.78 0.32
-3 -2 -3 5.95 0.33
3 -2 3 6.21 0.29
3 2 3 5.13 0.32
-4 -2 -3 4.27 0.22
4 -2 3 4.36 0.24
4 2 3 4.29 0.24
-4 2 -3 4.56 0.22
-4 -3 3 0.68 0.07
4 -3 -3 0.64 0.07
-4 -3 3 0.64 0.07
4 -3 -3 0.58 0.08
4 3 -3 0.5 0.07
-4 3 3 0.5 0.06
4 3 -3 0.66 0.08
-4 3 3 0.53 0.07
-3 -3 3 0.26 0.07
3 -3 -3 0.18 0.05
-3 -3 3 0.31 0.06
-3 -3 3 0.24 0.05
3 -3 -3 0.25 0.06
3 -3 -3 0.29 0.05
3 3 -3 0.22 0.05
3 3 -3 0.11 0.04
-3 3 3 0.18 0.06
-3 3 3 0.11 0.05
2 -3 -3 11.59 0.6
-2 -3 3 10.77 0.51
-2 -3 3 9.85 0.6
-2 -3 3 10.82 0.71
2 -3 -3 10.35 0.6
2 -3 -3 9.53 0.54
-2 -3 3 10.14 0.61
2 -3 -3 10.29 0.61
2 -3 -3 10.51 0.65
-2 -3 3 10.49 0.57
-2 3 3 11.11 0.73
2 3 -3 11.1 0.67
-2 3 3 10.93 0.75
-2 3 3 11.23 0.71
2 3 -3 10.97 0.68
2 3 -3 11.01 0.6
-1 -3 3 52.53 3.39
1 -3 -3 48.55 2.81
1 3 -3 49 3.09
1 3 -3 52.06 2.81
-1 3 3 54.03 3.29
-1 3 3 53.99 3.39
-1 3 3 44.5 3.42
0 -3 -3 42.6 2.72
0 -3 3 42.54 2.87
0 -3 3 42.54 2.63
0 3 3 43.74 2.62
0 3 -3 43.83 2.72
0 3 3 41.24 2.79
0 3 -3 42.81 2.38
0 3 3 44.24 2.88
1 -3 3 7.06 0.35
1 -3 3 7.01 0.34
-1 -3 -3 6.68 0.4
-1 -3 -3 7.34 0.52
-1 -3 -3 6.49 0.39
1 -3 3 7.35 0.47
1 -3 3 7.41 0.46
-1 3 -3 7.41 0.41
-1 3 -3 7.59 0.47
1 3 3 7.57 0.46
-1 3 -3 7.93 0.52
1 3 3 7.64 0.5
-2 -3 -3 1.27 0.09
-2 -3 -3 1.35 0.1
-2 -3 -3 1.11 0.13
2 -3 3 1.44 0.08
2 -3 3 1.34 0.11
-2 -3 -3 1.35 0.09
-2 -3 -3 1.15 0.09
2 -3 3 1.43 0.1
2 -3 3 1.34 0.08
2 3 3 1.35 0.11
-2 3 -3 1.14 0.11
2 3 3 1.32 0.11
-2 3 -3 1.37 0.13
-3 -3 -3 32.13 1.68
3 -3 3 33.22 1.7
3 -3 3 31.75 1.46
-3 -3 -3 30.56 1.63
-3 -3 -3 33.26 1.52
4 -3 3 1.09 0.08
-4 -3 -3 1.15 0.07
4 3 3 1.09 0.07
-4 3 -3 1.14 0.07
-4 -4 3 13.32 0.73
4 -4 -3 13.02 0.77
4 -4 -3 12.88 0.72
-4 -4 3 13.57 0.69
-4 4 3 11.79 0.73
4 4 -3 11.61 0.77
3 -4 -3 0.22 0.05
3 -4 -3 0.29 0.06
-3 -4 3 0.28 0.06
3 -4 -3 0.23 0.05
-3 -4 3 0.23 0.04
3 -4 -3 0.33 0.05
-3 -4 3 0.27 0.05
3 4 -3 0.17 0.05
-3 4 3 0.19 0.05
-3 4 3 0.14 0.05
3 4 -3 0.18 0.05
2 -4 -3 1.42 0.09
2 -4 -3 1.63 0.11
-2 -4 3 1.55 0.1
2 -4 -3 1.64 0.12
-2 -4 3 1.6 0.09
-2 -4 3 1.63 0.11
2 -4 -3 1.54 0.11
-2 -4 3 1.53 0.13
-2 -4 3 1.39 0.11
2 -4 -3 1.57 0.11
-2 4 3 1.55 0.13
2 4 -3 1.58 0.11
2 4 -3 1.63 0.12
-2 4 3 1.59 0.13
-2 4 3 1.67 0.13
2 4 -3 1.62 0.12
1 -4 -3 2.96 0.18
-1 -4 3 3.21 0.22
-1 4 3 3.2 0.22
1 4 -3 2.89 0.2
-1 4 3 3.07 0.22
1 4 -3 3.15 0.18
-1 4 3 2.86 0.22
0 -4 3 26.15 1.66
0 -4 -3 27.07 1.72
0 4 3 28.02 1.82
0 4 3 27.44 1.66
0 4 -3 26.78 1.51
0 4 3 26.57 1.77
0 4 -3 28.1 1.72
1 -4 3 5.54 0.29
1 -4 3 5.95 0.29
-1 -4 -3 5.23 0.29
-1 -4 -3 5.38 0.32
1 -4 3 5.85 0.28
-1 -4 -3 5.88 0.43
1 -4 3 5.77 0.32
1 -4 3 5.93 0.37
-1 -4 -3 5.63 0.33
-1 -4 -3 5.37 0.32
-1 4 -3 6.23 0.34
1 4 3 6.54 0.42
-1 4 -3 6.68 0.39
1 4 3 6.57 0.38
-1 4 -3 6.37 0.42
-2 -4 -3 17.84 0.99
2 -4 3 20 0.98
2 -4 3 18.31 1.16
2 -4 3 18.87 0.87
-2 -4 -3 19.01 0.87
-2 -4 -3 18.37 0.97
2 -4 3 18.97 0.84
2 -4 3 18.26 0.94
2 4 3 18.62 1.16
-2 4 -3 17.73 1.03
2 4 3 16.41 1.25
2 4 3 17.99 1.14
-2 4 -3 19.2 1.29
-2 4 -3 18.04 1.18
-3 -4 -3 12.48 0.69
3 -4 3 12.78 0.6
-3 -4 -3 13.65 0.63
3 -4 3 13.23 0.7
4 -5 -3 15.88 0.97
-4 -5 3 16.52 0.86
4 -5 -3 16.48 0.91
-4 -5 3 15.68 0.92
3 -5 -3 5.73 0.37
-3 -5 3 7.29 0.36
-3 -5 3 6.99 0.39
3 -5 -3 6.32 0.41
3 -5 -3 5.84 0.38
-2 -5 3 8.83 0.52
2 -5 -3 8.95 0.56
-2 -5 3 9.24 0.53
2 -5 -3 8.99 0.52
2 -5 -3 9.13 0.52
-2 -5 3 9.23 0.44
-2 -5 3 8.75 0.49
2 -5 -3 8.69 0.47
-2 -5 3 8.33 0.61
-2 5 3 9.62 0.61
2 5 -3 9.37 0.57
-2 5 3 9.51 0.65
-2 5 3 9.35 0.63
2 5 -3 9.47 0.59
1 -5 -3 51.44 2.77
-1 -5 3 49.39 2.39
-1 -5 3 46.13 2.76
-1 -5 3 45.42 2.82
1 -5 -3 46.63 2.49
1 -5 -3 48.33 2.62
-1 -5 3 47.32 2.33
1 -5 -3 49.11 2.76
1 -5 -3 44.29 2.97
1 5 -3 49.66 3.05
-1 5 3 56.62 3.34
-1 5 3 56.49 3.25
1 5 -3 54.5 2.77
-1 5 3 52.84 3.37
0 -5 -3 31.15 1.92
0 -5 -3 26.93 1.59
0 -5 3 28.21 1.46
0 -5 -3 27.81 1.62
0 -5 3 28.42 1.43
0 5 3 33.33 2.04
0 5 -3 32.59 1.69
0 5 -3 33.02 1.92
0 5 3 31.37 1.98
1 -5 3 4.41 0.23
-1 -5 -3 4.01 0.25
1 -5 3 4.46 0.22
1 -5 3 4.36 0.25
-1 -5 -3 4.11 0.25
-1 -5 -3 4.18 0.25
-1 -5 -3 4.24 0.22
1 -5 3 4.65 0.22
-1 5 -3 4.68 0.32
1 5 3 4.66 0.32
-1 5 -3 4.74 0.26
1 5 3 4.89 0.29
-1 5 -3 4.76 0.3
-2 -5 -3 27.13 1.38
2 -5 3 26.44 1.35
-2 -5 -3 25.28 1.34
2 -5 3 27.85 1.4
2 -5 3 27.26 1.2
-2 -5 -3 26.25 1.25
2 -5 3 27.82 1.25
-2 -5 -3 26.07 1.41
-2 5 -3 26.52 1.84
-2 5 -3 25.55 1.47
2 5 3 26.31 1.63
2 5 3 26.52 1.66
2 5 3 24.42 1.78
-2 5 -3 26.3 1.68
3 -5 3 5.64 0.31
-3 -5 -3 5.6 0.31
3 -5 3 5.6 0.27
3 -5 3 5.03 0.29
-3 -5 -3 5.58 0.28
4 -6 -3 2.41 0.15
-4 -6 3 2.21 0.15
-4 -6 3 2.51 0.15
4 -6 -3 2.38 0.16
-3 -6 3 13.5 0.72
3 -6 -3 12.88 0.75
3 -6 -3 13.05 0.74
-3 -6 3 13.75 0.77
-3 -6 3 12.95 0.63
3 -6 -3 13.16 0.8
-2 -6 3 1.46 0.11
2 -6 -3 1.51 0.11
2 -6 -3 1.29 0.1
2 -6 -3 1.17 0.09
-2 -6 3 1.34 0.1
-2 -6 3 1.19 0.1
-2 -6 3 1.26 0.09
2 -6 -3 1.32 0.1
-2 6 3 1.24 0.13
2 6 -3 1.32 0.11
2 6 -3 1.34 0.12
-2 6 3 1.36 0.13
-2 6 3 1.53 0.12
-1 -6 3 0.56 0.06
-1 -6 3 0.54 0.05
1 -6 -3 0.51 0.07
-1 -6 3 0.53 0.06
-1 -6 3 0.56 0.05
1 -6 -3 0.53 0.05
1 -6 -3 0.58 0.06
1 -6 -3 0.52 0.06
-1 -6 3 0.52 0.06
1 6 -3 0.63 0.06
-1 6 3 0.61 0.08
1 6 -3 0.63 0.06
-1 6 3 0.61 0.08
0 -6 -3 4.25 0.24
0 -6 -3 3.89 0.26
0 -6 3 4.34 0.21
0 -6 -3 4.37 0.25
0 -6 -3 4.1 0.23
0 -6 3 4.39 0.26
0 -6 3 4.48 0.22
0 -6 -3 4.39 0.25
0 -6 3 4.47 0.22
0 6 -3 5.02 0.26
0 6 -3 4.85 0.29
0 6 3 4.4 0.31
0 6 3 4.68 0.32
-1 -6 -3 12.26 0.58
1 -6 3 11.64 0.65
-1 -6 -3 11.35 0.66
1 -6 3 11.85 0.58
-1 -6 -3 11.4 0.65
1 -6 3 12.2 0.56
1 -6 3 12.11 0.59
-1 -6 -3 11.93 0.64
-1 6 -3 12.54 0.68
-1 6 -3 12.16 0.85
-1 6 -3 12.84 0.78
1 6 3 13.22 0.76
1 6 3 12.21 0.83
2 -6 3 16.41 0.82
-2 -6 -3 15.47 0.73
-2 -6 -3 15.43 0.83
2 -6 3 15.34 0.78
-2 -6 -3 15.84 0.81
2 -6 3 16.48 0.7
2 -6 3 16.14 0.73
-2 6 -3 14.67 1.07
2 6 3 15.39 0.95
2 6 3 13.47 0.97
-2 6 -3 15.19 0.98
2 6 3 14.1 1.04
-2 6 -3 14.42 0.86
-3 -6 -3 0.05 0.04
-3 -6 -3 0.06 0.04
3 -6 3 0.07 0.04
3 -6 3 0.1 0.04
-4 -7 3 0.36 0.04
4 -7 -3 0.32 0.04
4 -7 -3 0.28 0.04
-4 -7 3 0.28 0.04
-3 -7 3 26.96 1.52
-3 -7 3 26.29 1.42
3 -7 -3 26.19 1.5
3 -7 -3 26.93 1.6
-2 -7 3 10.55 0.6
-2 -7 3 10.67 0.57
-2 -7 3 10.96 0.61
2 -7 -3 10.45 0.6
-2 -7 3 10.54 0.5
2 -7 -3 10.4 0.64
2 -7 -3 10.3 0.6
2 -7 -3 10.32 0.54
2 7 -3 11.45 0.68
2 7 -3 10.05 0.66
-2 7 3 10.51 0.75
-2 7 3 10.12 0.73
-2 7 3 10.34 0.7
-1 -7 3 11.56 0.56
1 -7 -3 11.63 0.59
-1 -7 3 11.73 0.62
1 -7 -3 11.83 0.65
-1 -7 3 11.74 0.66
-1 -7 3 11.19 0.55
1 -7 -3 11.83 0.62
1 -7 -3 11.32 0.7
-1 -7 3 11.41 0.65
1 -7 -3 9.98 0.65
1 7 -3 12.03 0.65
-1 7 3 11.5 0.77
-1 7 3 11.86 0.79
1 7 -3 11.75 0.72
0 -7 3 13.17 0.66
0 -7 -3 13.29 0.73
0 -7 -3 13.19 0.65
0 -7 3 13.68 0.67
0 -7 3 13.24 0.77
0 -7 -3 13.63 0.77
0 -7 3 13.15 0.65
0 -7 -3 13.6 0.7
0 -7 -3 13.66 0.74
0 -7 3 13.5 0.63
0 -7 -3 14.04 0.73
0 7 3 14.23 0.94
0 7 -3 14.06 0.88
0 7 3 15.44 0.91
0 7 -3 14.69 0.77
1 -7 3 22.47 1.01
1 -7 3 21.86 1.17
-1 -7 -3 21.92 1.16
-1 -7 -3 22.69 1.05
-1 -7 -3 21.69 1.19
1 -7 3 22.46 1.05
1 -7 3 23.23 1.07
-1 -7 -3 22.44 1.17
1 -7 3 18.73 1.13
1 7 3 23.03 1.5
-1 7 -3 23.01 1.24
-1 7 -3 22.59 1.41
1 7 3 22.24 1.37
2 -7 3 5.55 0.31
2 -7 3 5.9 0.28
-2 -7 -3 5.82 0.33
2 -7 3 5.95 0.29
-2 -7 -3 5.78 0.33
2 -7 3 5.99 0.33
-2 -7 -3 6 0.29
3 -7 3 0.02 0.03
3 -7 3 0.03 0.03
-3 -7 -3 0 0.03
-3 -7 -3 0.04 0.03
-4 -8 3 0.29 0.04
4 -8 -3 0.26 0.04
3 -8 -3 9.65 0.56
3 -8 -3 9.41 0.55
3 -8 -3 9.65 0.59
-3 -8 3 9.87 0.53
-3 -8 3 9.84 0.57
-2 -8 3 14.04 0.67
-2 -8 3 15.01 0.76
2 -8 -3 14.68 0.8
-2 -8 3 14.52 0.82
2 -8 -3 13.72 0.81
-2 -8 3 14.23 0.8
2 -8 -3 14.72 0.86
2 -8 -3 13.76 0.72
-2 8 3 12.49 0.94
-2 8 3 14.43 1.01
-2 8 3 14.99 0.85
2 8 -3 13.38 0.88
2 8 -3 14.6 0.9
-2 8 3 13.09 0.98
-2 8 3 14.79 0.81
-1 -8 3 3.35 0.17
1 -8 -3 3.23 0.19
1 -8 -3 2.62 0.2
-1 -8 3 3.35 0.2
-1 -8 3 3.28 0.2
-1 -8 3 3.23 0.17
1 -8 -3 3.31 0.18
1 -8 -3 3.4 0.2
-1 -8 3 3.24 0.19
1 -8 -3 3.15 0.21
1 8 -3 3.19 0.22
-1 8 3 3.29 0.24
1 8 -3 3.05 0.19
-1 8 3 3.07 0.24
0 -8 3 3.71 0.19
0 -8 3 3.28 0.21
0 -8 -3 3.63 0.2
0 -8 3 3.61 0.19
0 -8 -3 3.76 0.21
0 -8 -3 3.68 0.23
0 -8 -3 3.83 0.22
0 -8 -3 3.55 0.21
0 -8 3 3.85 0.19
0 -8 3 4.13 0.2
0 -8 3 3.85 0.22
0 8 -3 3.38 0.25
0 8 -3 3.97 0.23
0 8 3 3.94 0.27
0 8 -3 3.94 0.25
0 8 3 3.63 0.27
1 -8 3 2.22 0.13
-1 -8 -3 2.19 0.14
1 -8 3 2.18 0.14
-1 -8 -3 2.28 0.13
-1 -8 -3 2.05 0.15
1 -8 3 2.34 0.12
-1 -8 -3 2.24 0.14
1 8 3 2.32 0.19
-1 8 -3 2.43 0.15
1 8 3 2.19 0.16
-1 8 -3 2.21 0.16
2 -8 3 4.41 0.25
-2 -8 -3 4.16 0.25
-2 -8 -3 4.44 0.25
2 -8 3 4.39 0.22
-2 -8 -3 4.44 0.23
2 -8 3 4.31 0.22
3 -8 3 0.12 0.03
-3 -8 -3 0.09 0.03
-3 -8 -3 0.1 0.03
-3 -9 3 0.56 0.07
3 -9 -3 0.55 0.08
3 -9 -3 0.5 0.06
-3 -9 3 0.62 0.07
2 -9 -3 11.81 0.73
2 -9 -3 11.65 0.68
-2 -9 3 12.45 0.58
-2 -9 3 12.52 0.65
-2 -9 3 12.02 0.7
-2 -9 3 12.01 0.68
2 -9 -3 12.27 0.61
2 -9 -3 11.41 0.69
-1 -9 3 1.87 0.11
1 -9 -3 1.89 0.13
-1 -9 3 2.05 0.13
1 -9 -3 1.8 0.14
-1 -9 3 2.04 0.14
-1 -9 3 1.98 0.13
1 -9 -3 1.49 0.14
1 -9 -3 2.03 0.12
-1 -9 3 2.15 0.11
1 -9 -3 1.86 0.13
1 -9 -3 2.05 0.13
-1 -9 3 1.83 0.12
1 9 -3 2.06 0.14
1 9 -3 1.68 0.13
-1 9 3 2.03 0.17
-1 9 3 1.69 0.16
1 9 -3 1.98 0.15
0 -9 -3 7.95 0.42
0 -9 -3 8.13 0.39
0 -9 3 8.28 0.4
0 -9 3 7.96 0.38
0 -9 -3 8.02 0.44
0 -9 3 7.74 0.47
0 -9 3 8.69 0.46
0 -9 -3 7.73 0.46
0 -9 -3 8.32 0.45
0 -9 3 8.38 0.4
0 -9 -3 8.3 0.44
0 -9 3 8.14 0.39
0 -9 3 7.88 0.44
0 9 -3 8.29 0.51
0 9 3 7.24 0.56
0 9 3 8.17 0.55
0 9 -3 8.13 0.46
1 -9 3 5.82 0.28
1 -9 3 5.77 0.27
-1 -9 -3 5.38 0.3
-1 -9 -3 5.62 0.31
1 -9 3 5.81 0.27
-1 -9 -3 5.79 0.27
1 -9 3 5.16 0.31
-1 -9 -3 5.53 0.31
1 9 3 5.5 0.38
-1 9 -3 5.4 0.32
-1 9 -3 4.66 0.36
1 9 3 5.07 0.39
2 -9 3 0.05 0.03
2 -9 3 0.09 0.03
2 -9 3 0.09 0.03
-2 -9 -3 0.05 0.04
2 -9 3 0.06 0.04
-2 -9 -3 0.08 0.04
-2 -9 -3 0.07 0.04
-3 -9 -3 0 0.03
3 -9 3 -0.01 0.03
-3 -9 -3 -0.04 0.03
-3 -10 3 0.39 0.05
-3 -10 3 0.37 0.05
3 -10 -3 0.34 0.05
3 -10 -3 0.34 0.05
-2 -10 3 10.26 0.59
-2 -10 3 10.63 0.56
2 -10 -3 10.16 0.63
2 -10 -3 10.49 0.59
2 -10 -3 9.94 0.59
2 -10 -3 10.23 0.53
-2 -10 3 10.32 0.6
-2 -10 3 10.55 0.5
-1 -10 3 9.61 0.47
-1 -10 3 9.65 0.54
1 -10 -3 8.69 0.55
-1 -10 3 9.45 0.46
1 -10 -3 9.79 0.54
-1 -10 3 9.69 0.52
1 -10 -3 9.55 0.49
-1 -10 3 9.83 0.55
-1 -10 3 9.88 0.46
1 -10 -3 9.42 0.51
1 -10 -3 8.97 0.58
1 10 -3 9.51 0.6
-1 10 3 8.7 0.66
1 10 -3 9.39 0.61
0 -10 -3 1.49 0.11
0 -10 3 1.39 0.1
0 -10 3 1.52 0.1
0 -10 -3 1.53 0.11
0 -10 3 1.55 0.1
0 -10 -3 1.54 0.11
0 -10 -3 1.47 0.12
0 -10 -3 1.55 0.1
0 -10 3 1.62 0.11
0 -10 3 1.37 0.11
0 -10 3 1.51 0.09
0 -10 -3 1.44 0.1
0 -10 3 1.33 0.11
0 10 -3 1.31 0.11
0 10 -3 1.42 0.13
0 10 3 1.33 0.14
0 10 3 1.21 0.13
1 -10 3 2.41 0.16
1 -10 3 2.67 0.14
-1 -10 -3 2.6 0.16
-1 -10 -3 2.64 0.16
1 -10 3 2.74 0.15
1 -10 3 2.71 0.15
-1 -10 -3 2.61 0.17
-1 -10 -3 2.76 0.15
-1 -10 -3 2.56 0.16
2 -10 3 0.85 0.08
-2 -10 -3 0.97 0.07
2 -10 3 0.93 0.07
2 -10 3 0.79 0.07
-2 -10 -3 0.86 0.08
-2 -10 -3 0.87 0.08
3 -10 3 0.21 0.03
-3 -10 -3 0.22 0.03
3 -11 -3 0.83 0.08
-3 -11 3 0.86 0.07
-3 -11 3 0.89 0.07
-2 -11 3 2.9 0.17
2 -11 -3 2.64 0.16
2 -11 -3 2.7 0.19
2 -11 -3 2.58 0.18
-2 -11 3 2.81 0.15
-2 -11 3 2.68 0.18
2 -11 -3 2.75 0.18
-2 -11 3 2.84 0.18
-1 -11 3 1.39 0.09
1 -11 -3 1.15 0.12
1 -11 -3 1.36 0.09
-1 -11 3 1.44 0.11
1 -11 -3 1.19 0.1
-1 -11 3 1.05 0.09
1 -11 -3 1.34 0.11
-1 -11 3 1.5 0.1
-1 -11 3 0.93 0.1
-1 -11 3 1.24 0.1
1 -11 -3 1.08 0.11
0 -11 3 0.59 0.06
0 -11 3 0.59 0.06
0 -11 -3 0.56 0.06
0 -11 -3 0.56 0.06
0 -11 3 0.59 0.07
0 -11 -3 0.53 0.07
0 -11 -3 0.49 0.06
0 -11 3 0.6 0.08
0 -11 -3 0.49 0.06
0 -11 3 0.64 0.08
0 -11 3 0.56 0.06
0 -11 -3 0.52 0.07
0 -11 -3 0.49 0.05
0 -11 3 0.62 0.07
1 -11 3 0.56 0.06
-1 -11 -3 0.5 0.06
-1 -11 -3 0.49 0.06
1 -11 3 0.48 0.05
-1 -11 -3 0.55 0.07
1 -11 3 0.49 0.06
-1 -11 -3 0.58 0.06
1 -11 3 0.51 0.05
-2 -11 -3 0.2 0.04
2 -11 3 0.21 0.04
-2 -11 -3 0.24 0.04
-2 -11 -3 0.22 0.04
2 -11 3 0.24 0.04
2 -11 3 0.22 0.04
3 -12 -3 0.55 0.06
-3 -12 3 0.67 0.06
3 -12 -3 0.59 0.06
-3 -12 3 0.65 0.05
2 -12 -3 0.45 0.06
2 -12 -3 0.43 0.06
-2 -12 3 0.5 0.06
-2 -12 3 0.49 0.06
-2 -12 3 0.52 0.05
2 -12 -3 0.49 0.07
-2 -12 3 0.5 0.07
-1 -12 3 1.39 0.1
1 -12 -3 1.09 0.11
1 -12 -3 1.06 0.1
1 -12 -3 1.26 0.09
1 -12 -3 1.19 0.1
-1 -12 3 1.25 0.08
-1 -12 3 1.46 0.1
-1 -12 3 1.08 0.09
-1 -12 3 0.98 0.09
-1 -12 3 1.18 0.1
1 -12 -3 0.88 0.1
0 -12 -3 0.96 0.08
0 -12 3 0.85 0.08
0 -12 -3 0.93 0.09
0 -12 -3 0.8 0.09
0 -12 -3 0.84 0.09
0 -12 3 1.01 0.09
0 -12 3 1.05 0.09
0 -12 -3 0.73 0.09
0 -12 3 1.07 0.07
0 -12 3 0.9 0.08
0 -12 3 1 0.08
0 -12 -3 0.84 0.09
1 -12 3 1.71 0.1
-1 -12 -3 1.69 0.1
-1 -12 -3 1.72 0.12
-1 -12 -3 1.65 0.11
1 -12 3 1.65 0.1
1 -12 3 1.52 0.12
1 -12 3 1.73 0.1
-1 -12 -3 1.66 0.12
2 -12 3 0.74 0.07
-2 -12 -3 0.72 0.07
2 -12 3 0.83 0.06
-2 -12 -3 0.77 0.06
2 -13 -3 1.09 0.1
2 -13 -3 1.17 0.09
-2 -13 3 1.38 0.09
-2 -13 3 1.24 0.07
-2 -13 3 1.3 0.09
2 -13 -3 1.11 0.09
1 -13 -3 1.59 0.1
-1 -13 3 1.88 0.11
-1 -13 3 1.55 0.1
1 -13 -3 1.26 0.11
1 -13 -3 1.47 0.11
1 -13 -3 1.26 0.13
-1 -13 3 1.7 0.12
-1 -13 3 1.67 0.1
1 -13 -3 1.6 0.12
-1 -13 3 1.87 0.12
-1 -13 3 1.77 0.1
0 -13 -3 0.12 0.04
0 -13 3 0.12 0.03
0 -13 3 0.12 0.04
0 -13 3 0.04 0.03
0 -13 -3 0.05 0.04
0 -13 3 0.08 0.04
0 -13 3 0.07 0.04
0 -13 -3 0.09 0.04
0 -13 -3 0.1 0.04
0 -13 3 0.09 0.04
0 -13 -3 0.05 0.04
-1 -13 -3 0.29 0.04
-1 -13 -3 0.24 0.04
1 -13 3 0.26 0.04
1 -13 3 0.32 0.04
-1 -13 -3 0.27 0.04
1 -13 3 0.27 0.04
1 -13 3 0.32 0.04
-1 -13 -3 0.32 0.05
2 -13 3 0.28 0.03
-2 -13 -3 0.28 0.03
-2 -13 -3 0.27 0.03
2 -13 3 0.28 0.03
2 -14 -3 0.07 0.03
2 -14 -3 0.06 0.04
-2 -14 3 0.05 0.02
-2 -14 3 0.09 0.03
1 -14 -3 0.33 0.04
-1 -14 3 0.46 0.06
-1 -14 3 0.36 0.04
1 -14 -3 0.38 0.05
1 -14 -3 0.27 0.05
-1 -14 3 0.49 0.06
-1 -14 3 0.5 0.05
0 -14 3 1.88 0.11
0 -14 3 1.73 0.1
0 -14 -3 1.34 0.11
0 -14 -3 1.63 0.11
0 -14 -3 1.54 0.1
0 -14 3 1.5 0.09
0 -14 -3 1.47 0.1
0 -14 3 1.69 0.1
0 -14 -3 1.62 0.11
0 -14 3 1.51 0.09
1 -14 3 1.74 0.1
-1 -14 -3 1.66 0.1
-1 -14 -3 1.7 0.11
1 -14 3 1.72 0.1
-1 -14 -3 1.85 0.11
1 -14 3 1.69 0.11
1 -14 3 1.84 0.1
-1 -14 -3 1.81 0.11
-1 -15 3 3.16 0.17
1 -15 -3 2.43 0.15
1 -15 -3 2.43 0.17
-1 -15 3 3.08 0.17
-1 -15 3 3.16 0.14
0 -15 3 0.39 0.04
0 -15 3 0.43 0.05
0 -15 3 0.43 0.05
0 -15 -3 0.37 0.05
0 -15 -3 0.38 0.05
0 -15 -3 0.36 0.04
4 0 -4 0.04 0.05
-4 0 4 -0.05 0.05
-4 0 4 0.1 0.04
4 0 -4 0.11 0.05
-3 0 4 16.4 1.16
3 0 -4 15.65 0.99
-3 0 4 18.17 0.94
-3 0 4 18.4 0.83
-3 0 4 19.81 1.01
3 0 -4 15.63 1.09
3 0 -4 18.17 1
3 0 -4 18.33 0.99
-2 0 4 0.06 0.05
-2 0 4 0 0.04
2 0 -4 -0.01 0.04
2 0 -4 0.07 0.04
1 0 -4 1.88 0.13
-1 0 4 1.99 0.16
1 0 -4 2.16 0.15
-1 0 4 1.93 0.15
0 0 -4 10.3 0.69
0 0 -4 9.09 0.55
0 0 4 9.93 0.61
0 0 4 9.19 0.67
0 0 -4 10.36 0.63
-1 0 -4 3.41 0.24
-1 0 -4 2.72 0.21
1 0 4 2.87 0.21
2 0 4 0.62 0.08
-2 0 -4 0.9 0.11
-2 0 -4 0.84 0.08
2 0 4 0.92 0.07
2 0 4 0.94 0.08
2 0 4 0.69 0.09
3 0 4 0.42 0.04
3 0 4 0.39 0.05
-3 0 -4 0.42 0.05
-3 0 -4 0.47 0.05
-4 -1 4 2.7 0.15
4 -1 -4 2.47 0.18
-4 -1 4 2.72 0.17
4 -1 -4 2.27 0.16
-4 1 4 2.38 0.15
4 1 -4 2.52 0.18
4 1 -4 2.54 0.16
-4 1 4 2.41 0.17
-3 -1 4 2.14 0.13
3 -1 -4 1.88 0.17
-3 -1 4 2.59 0.16
3 -1 -4 2.19 0.15
-3 -1 4 2.09 0.14
3 1 -4 2.23 0.17
3 1 -4 1.96 0.14
-2 -1 4 1.59 0.14
-2 -1 4 1.65 0.12
2 -1 -4 1.54 0.1
-2 -1 4 1.88 0.14
2 -1 -4 1.72 0.12
2 1 -4 1.74 0.12
2 1 -4 1.59 0.13
-2 1 4 1.48 0.13
-2 1 4 1.64 0.14
1 -1 -4 0.95 0.1
1 -1 -4 0.89 0.08
-1 -1 4 1 0.11
-1 1 4 0.99 0.1
1 1 -4 1.05 0.08
-1 1 4 1.09 0.1
1 1 -4 1.13 0.09
0 -1 4 14.08 0.85
0 -1 4 12.74 0.93
0 -1 -4 13.71 0.88
0 -1 -4 14.85 0.96
0 1 4 14.13 0.85
0 1 4 13.22 0.93
0 1 -4 13.91 0.88
0 1 -4 14.02 0.96
0 1 -4 13.17 0.77
-1 -1 -4 8.37 0.55
1 -1 4 7.88 0.38
1 -1 4 7.61 0.49
-1 -1 -4 6.93 0.5
1 -1 4 7.32 0.49
-1 -1 -4 6.83 0.37
-1 1 -4 7.46 0.5
1 1 4 8.09 0.49
1 1 4 7.36 0.53
1 1 4 7.66 0.49
-1 1 -4 8.8 0.55
2 -1 4 0.11 0.04
2 -1 4 0.07 0.04
-2 -1 -4 0.14 0.04
-2 -1 -4 0.18 0.04
2 -1 4 0.09 0.04
-2 -1 -4 0.09 0.06
-2 -1 -4 0.16 0.04
2 -1 4 0.06 0.04
2 -1 4 0.12 0.04
2 1 4 0.09 0.05
-2 1 -4 0.12 0.04
-2 1 -4 0.14 0.05
2 1 4 0.14 0.04
-3 -1 -4 0.14 0.04
-3 -1 -4 0.11 0.04
3 -1 4 0.14 0.04
3 -1 4 0.11 0.04
3 1 4 0.16 0.04
-3 1 -4 0.14 0.04
-3 1 -4 0.17 0.04
3 1 4 0.15 0.04
-4 -2 4 3.45 0.21
4 -2 -4 4.07 0.24
4 -2 -4 3.69 0.22
-4 -2 4 3.9 0.23
4 2 -4 3.47 0.24
-4 2 4 3.71 0.21
-4 2 4 3.8 0.23
4 2 -4 3.43 0.23
-3 -2 4 4.4 0.26
-3 -2 4 3.77 0.31
3 -2 -4 4.15 0.25
-3 -2 4 4.25 0.24
3 -2 -4 4.09 0.25
3 -2 -4 4.61 0.27
-3 -2 4 4.23 0.21
3 2 -4 3.75 0.28
-3 2 4 3.99 0.3
-2 -2 4 12.18 0.82
-2 -2 4 12.38 0.72
-2 -2 4 12.49 0.59
2 -2 -4 11.83 0.7
-2 -2 4 14.03 0.85
2 -2 -4 13.2 0.7
2 -2 -4 12.58 0.75
-2 -2 4 12.96 0.7
2 -2 -4 12.08 0.63
-2 2 4 11.91 0.82
2 2 -4 12.82 0.7
-2 2 4 12.63 0.85
-2 2 4 10.67 0.85
2 2 -4 12.31 0.77
1 -2 -4 19.46 1.13
1 -2 -4 17.75 1.06
1 -2 -4 22.26 1.29
-1 -2 4 18.91 1.12
1 -2 -4 18.86 1.12
-1 -2 4 22.43 1.36
-1 -2 4 17.64 0.97
-1 -2 4 18.24 0.95
1 2 -4 21.72 1.24
1 2 -4 20.91 1.13
-1 2 4 20.66 1.32
1 2 -4 22.31 1.29
-1 2 4 21.45 1.36
0 -2 -4 7.52 0.49
0 -2 4 7.63 0.52
0 -2 4 8.19 0.48
0 -2 4 7.45 0.37
0 -2 -4 7.24 0.41
0 -2 4 7.09 0.37
0 -2 -4 6.9 0.39
0 -2 4 6.62 0.43
0 2 -4 8.6 0.49
0 2 -4 8.07 0.43
0 2 4 8.1 0.52
0 2 4 7.74 0.51
0 2 -4 7.11 0.47
0 2 4 7.86 0.48
1 -2 4 0.06 0.04
-1 -2 -4 0.1 0.03
1 -2 4 0.07 0.03
-1 -2 -4 0.1 0.05
-1 -2 -4 0.08 0.04
-1 -2 -4 0.1 0.03
1 -2 4 0.13 0.03
1 -2 4 0.07 0.03
-1 -2 -4 0.12 0.03
1 -2 4 0.04 0.03
-1 2 -4 0.08 0.03
-1 2 -4 0.18 0.04
-1 2 -4 0.1 0.05
1 2 4 0.14 0.04
1 2 4 0.11 0.04
-2 -2 -4 0.22 0.04
-2 -2 -4 0.23 0.05
2 -2 4 0.18 0.04
2 -2 4 0.16 0.04
2 -2 4 0.14 0.04
-2 -2 -4 0.19 0.04
2 -2 4 0.16 0.04
-2 -2 -4 0.22 0.06
2 -2 4 0.18 0.04
-2 2 -4 0.16 0.06
2 2 4 0.12 0.04
2 2 4 0.12 0.05
-2 2 -4 0.12 0.05
-3 -2 -4 3.6 0.21
3 -2 4 3.61 0.21
3 -2 4 3.43 0.18
-3 -2 -4 3.77 0.19
3 2 4 3.39 0.21
3 2 4 3.37 0.18
-3 2 -4 3.66 0.21
-3 2 -4 3.62 0.19
4 -3 -4 1.31 0.1
-4 -3 4 1.3 0.09
-4 -3 4 1.14 0.09
4 -3 -4 1.17 0.09
4 3 -4 0.95 0.1
-4 3 4 1.05 0.09
-4 3 4 1.14 0.09
4 3 -4 0.81 0.09
3 -3 -4 2.38 0.17
-3 -3 4 2.39 0.16
3 -3 -4 2.37 0.16
3 -3 -4 2.3 0.16
-3 -3 4 2.21 0.15
-3 -3 4 2.37 0.13
2 -3 -4 1.47 0.1
-2 -3 4 1.65 0.11
-2 -3 4 1.53 0.13
2 -3 -4 1.74 0.12
-2 -3 4 1.52 0.11
-2 -3 4 1.73 0.1
2 -3 -4 1.61 0.11
2 -3 -4 1.62 0.12
2 3 -4 1.64 0.13
2 3 -4 1.72 0.11
-2 3 4 1.42 0.14
2 3 -4 1.39 0.12
-2 3 4 1.64 0.13
-2 3 4 1.61 0.13
1 -3 -4 15.17 0.89
-1 -3 4 16.3 1.08
-1 -3 4 15.13 0.77
-1 -3 4 15.75 0.89
1 -3 -4 18.05 1.02
1 -3 -4 15.49 0.89
1 -3 -4 15.12 0.8
1 -3 -4 14.42 0.84
-1 -3 4 14.94 0.75
1 3 -4 16.46 0.89
1 3 -4 16.85 1.01
-1 3 4 16.21 1.05
-1 3 4 15.16 1.08
-1 3 4 17.44 1.08
1 3 -4 16.28 0.98
0 -3 -4 6.74 0.39
0 -3 4 7.32 0.49
0 -3 -4 7.32 0.47
0 -3 -4 6.43 0.39
0 -3 4 6.76 0.41
0 -3 4 6.94 0.35
0 -3 4 7.45 0.45
0 -3 -4 6.62 0.37
0 -3 4 6.79 0.35
0 3 -4 7.14 0.45
0 3 4 7.09 0.48
0 3 4 7.64 0.45
0 3 -4 7.81 0.47
0 3 -4 7.98 0.41
0 3 4 7.78 0.5
1 -3 4 3.33 0.16
-1 -3 -4 3.36 0.25
-1 -3 -4 3.02 0.19
1 -3 4 3.49 0.17
-1 -3 -4 3.16 0.19
-1 -3 -4 3.26 0.19
1 -3 4 3.39 0.22
1 -3 4 3.24 0.17
-1 3 -4 3.11 0.2
1 3 4 2.74 0.23
1 3 4 3.31 0.24
1 3 4 3.53 0.22
-1 3 -4 3.37 0.25
-1 3 -4 3.44 0.23
2 -3 4 0.57 0.06
2 -3 4 0.52 0.05
-2 -3 -4 0.48 0.05
-2 -3 -4 0.37 0.07
-2 -3 -4 0.46 0.05
-2 -3 -4 0.42 0.05
2 -3 4 0.48 0.05
2 -3 4 0.35 0.05
2 3 4 0.31 0.06
-2 3 -4 0.31 0.06
2 3 4 0.26 0.05
-2 3 -4 0.36 0.07
3 -3 4 2.23 0.15
-3 -3 -4 2.49 0.15
-3 -3 -4 2.42 0.13
3 -3 4 2.51 0.13
3 3 4 2.07 0.15
3 3 4 2.22 0.13
-3 3 -4 2.43 0.15
-3 3 -4 2.29 0.13
-4 -4 4 4.17 0.24
4 -4 -4 4.22 0.25
4 -4 -4 3.97 0.24
-4 -4 4 4.03 0.22
4 4 -4 3.88 0.25
-4 4 4 3.82 0.22
-4 4 4 3.84 0.24
4 4 -4 3.73 0.24
3 -4 -4 1.63 0.12
3 -4 -4 1.61 0.13
-3 -4 4 1.71 0.13
-3 -4 4 1.58 0.1
3 -4 -4 1.55 0.12
-3 -4 4 1.45 0.11
2 -4 -4 5.63 0.3
-2 -4 4 5.8 0.34
-2 -4 4 5.54 0.32
-2 -4 4 6.06 0.29
-2 -4 4 4.95 0.4
-2 -4 4 6.38 0.35
2 -4 -4 6.02 0.34
2 -4 -4 5.98 0.34
2 -4 -4 6.21 0.37
2 4 -4 6.14 0.34
2 4 -4 5.53 0.38
2 4 -4 5.81 0.37
-2 4 4 5.56 0.41
-2 4 4 6.01 0.4
1 -4 -4 7.31 0.43
1 -4 -4 6.97 0.4
-1 -4 4 6.89 0.37
-1 -4 4 7.69 0.52
1 -4 -4 7.24 0.42
-1 -4 4 7.17 0.36
-1 -4 4 7.13 0.43
1 -4 -4 7.51 0.38
-1 4 4 8.14 0.52
-1 4 4 7.67 0.5
1 4 -4 7.61 0.47
-1 4 4 7.76 0.52
1 4 -4 8.18 0.43
0 -4 4 4.23 0.22
0 -4 4 4.03 0.22
0 -4 -4 3.97 0.24
0 -4 -4 4.1 0.23
0 -4 4 4.05 0.25
0 -4 -4 4.11 0.24
0 -4 4 4.63 0.28
0 -4 -4 4.28 0.29
0 4 -4 4.51 0.28
0 4 4 4.85 0.31
0 4 4 4.43 0.28
0 4 -4 4.54 0.26
0 4 4 4.49 0.31
0 4 -4 4.55 0.29
1 -4 4 0.19 0.03
1 -4 4 0.2 0.04
-1 -4 -4 0.22 0.04
1 -4 4 0.28 0.04
-1 -4 -4 0.21 0.05
1 -4 4 0.21 0.03
1 -4 4 0.25 0.03
-1 -4 -4 0.24 0.04
-1 -4 -4 0.27 0.04
1 4 4 0.24 0.05
1 4 4 0.22 0.05
-1 4 -4 0.25 0.05
-1 4 -4 0.21 0.04
1 4 4 0.26 0.05
-1 4 -4 0.25 0.05
-2 -4 -4 4.96 0.24
2 -4 4 5.09 0.27
2 -4 4 5.07 0.24
-2 -4 -4 3.85 0.35
-2 -4 -4 5.21 0.27
2 -4 4 5.02 0.23
-2 -4 -4 4.8 0.27
2 4 4 4.33 0.32
-2 4 -4 4.25 0.32
-2 4 -4 4.79 0.35
3 -4 4 1.53 0.09
-3 -4 -4 1.52 0.11
3 -4 4 1.56 0.11
-3 -4 -4 1.61 0.1
4 -5 -4 5.22 0.3
4 -5 -4 4.95 0.28
-4 -5 4 4.99 0.29
-4 -5 4 4.77 0.27
-4 5 4 4.9 0.29
4 5 -4 4.89 0.3
-4 5 4 4.61 0.27
4 5 -4 4.45 0.28
3 -5 -4 -0.01 0.04
3 -5 -4 0 0.04
-3 -5 4 0.04 0.05
-3 -5 4 0.03 0.04
-3 -5 4 0.05 0.04
3 -5 -4 0.04 0.05
-2 -5 4 9.31 0.54
2 -5 -4 9.26 0.57
-2 -5 4 8.93 0.51
-2 -5 4 9.33 0.53
-2 -5 4 9.73 0.45
2 -5 -4 9.74 0.53
2 -5 -4 9.23 0.48
2 5 -4 9.26 0.6
2 5 -4 8.96 0.53
-2 5 4 9.12 0.65
-2 5 4 9.83 0.63
2 5 -4 9.43 0.59
-1 -5 4 14.92 0.91
1 -5 -4 15.83 0.89
1 -5 -4 15.59 0.8
1 -5 -4 15.55 0.84
1 -5 -4 14.56 0.96
-1 -5 4 15.48 0.77
-1 -5 4 15.83 0.89
-1 -5 4 16.1 0.75
1 5 -4 16.53 0.98
-1 5 4 16.85 1.09
1 5 -4 16.7 0.89
-1 5 4 16.8 1.08
-1 5 4 16.14 1.05
0 -5 -4 3.52 0.2
0 -5 4 3.58 0.19
0 -5 -4 3.13 0.24
0 -5 -4 3.29 0.2
0 -5 4 3.58 0.21
0 -5 -4 3.38 0.21
0 -5 4 3.37 0.18
0 -5 -4 3.52 0.19
0 5 4 4.16 0.27
0 5 -4 3.95 0.25
0 5 -4 3.81 0.22
0 5 -4 3.66 0.23
0 5 4 3.73 0.26
0 5 4 3.69 0.24
1 -5 4 1.49 0.09
1 -5 4 1.48 0.09
1 -5 4 1.27 0.09
-1 -5 -4 1.33 0.08
-1 -5 -4 1.37 0.1
1 -5 4 1.14 0.11
-1 -5 -4 1.35 0.1
-1 -5 -4 1.34 0.09
1 -5 4 1.44 0.08
1 5 4 1.3 0.12
-1 5 -4 1.28 0.12
1 5 4 1.39 0.12
-1 5 -4 1.47 0.12
-1 5 -4 1.24 0.1
1 5 4 1.48 0.13
2 -5 4 40.35 1.88
2 -5 4 39.69 1.81
-2 -5 -4 39.92 2.08
2 -5 4 40.61 2.1
-2 -5 -4 39.44 2.13
-2 -5 -4 39.38 1.88
-3 -5 -4 0.19 0.04
3 -5 4 0.23 0.04
-3 -5 -4 0.18 0.04
3 -5 4 0.23 0.03
-4 -6 4 1.05 0.08
4 -6 -4 1.15 0.09
-4 -6 4 1.15 0.09
-4 6 4 1.18 0.08
4 6 -4 1.12 0.09
4 6 -4 1.06 0.08
-4 6 4 1.05 0.08
3 -6 -4 0.8 0.08
-3 -6 4 0.87 0.07
3 -6 -4 0.74 0.08
3 -6 -4 0.86 0.09
-3 -6 4 0.92 0.08
-3 -6 4 0.98 0.09
-2 -6 4 7.23 0.42
-2 -6 4 7.35 0.34
2 -6 -4 6.97 0.44
-2 -6 4 7.11 0.41
2 -6 -4 7.27 0.41
2 -6 -4 7.02 0.37
2 6 -4 7.2 0.46
2 6 -4 6.77 0.45
-2 6 4 6.61 0.5
2 6 -4 6.58 0.4
-2 6 4 7.38 0.48
1 -6 -4 2.07 0.14
1 -6 -4 2.09 0.12
-1 -6 4 2.24 0.14
-1 -6 4 1.93 0.14
1 -6 -4 1.72 0.14
-1 -6 4 1.99 0.12
-1 -6 4 2.07 0.11
1 -6 -4 2.07 0.13
-1 6 4 2.05 0.17
-1 6 4 2.12 0.17
-1 6 4 2.15 0.17
1 6 -4 2.17 0.13
1 6 -4 2.07 0.15
0 -6 4 4.12 0.22
0 -6 -4 4.18 0.23
0 -6 4 4.24 0.21
0 -6 -4 3.97 0.24
0 -6 4 4.31 0.25
0 -6 -4 4.12 0.24
0 -6 -4 4.13 0.24
0 -6 4 3.99 0.21
0 6 4 4.62 0.31
0 6 -4 4.44 0.29
0 6 4 4.47 0.31
0 6 -4 4.3 0.25
0 6 -4 4.23 0.28
1 -6 4 18.16 0.87
-1 -6 -4 17.29 0.95
-1 -6 -4 17.68 0.97
1 -6 4 18.94 0.86
1 -6 4 16.75 0.95
-1 -6 -4 17.66 0.95
-1 -6 -4 18 0.85
1 -6 4 17.87 0.82
1 6 4 17.97 1.22
1 6 4 18.78 1.12
-1 6 -4 17.91 1.01
-1 6 -4 18.52 1.15
1 6 4 18.1 1.18
-2 -6 -4 3.29 0.19
2 -6 4 3.26 0.17
2 -6 4 3.15 0.17
-2 -6 -4 3.24 0.2
2 -6 4 3.07 0.19
-2 -6 -4 3.32 0.17
-3 -6 -4 0.61 0.06
3 -6 4 0.57 0.06
3 -6 4 0.64 0.05
-3 -6 -4 0.58 0.06
4 -7 -4 0.79 0.07
-4 -7 4 0.86 0.07
4 7 -4 0.9 0.07
-4 7 4 0.89 0.07
-3 -7 4 3.48 0.2
-3 -7 4 3.78 0.22
3 -7 -4 3.28 0.22
3 -7 -4 3.18 0.21
-3 -7 4 3.31 0.17
3 -7 -4 3.02 0.21
2 -7 -4 4.98 0.32
2 -7 -4 4.89 0.26
2 -7 -4 5.34 0.3
-2 -7 4 4.85 0.29
-2 -7 4 5.34 0.25
2 -7 -4 4.42 0.29
-2 -7 4 5.08 0.28
-2 -7 4 5.11 0.3
2 7 -4 4.83 0.32
-2 7 4 4.51 0.36
2 7 -4 5.18 0.34
-2 7 4 4.87 0.35
1 -7 -4 0.77 0.07
-1 -7 4 0.84 0.07
-1 -7 4 0.85 0.08
1 -7 -4 0.8 0.08
-1 -7 4 0.7 0.07
1 -7 -4 0.79 0.07
-1 -7 4 0.76 0.08
1 -7 -4 0.7 0.08
1 7 -4 0.79 0.07
1 7 -4 0.85 0.08
-1 7 4 0.75 0.1
-1 7 4 0.75 0.1
-1 7 4 0.69 0.09
0 -7 4 5.39 0.28
0 -7 4 5.86 0.33
0 -7 -4 5.59 0.32
0 -7 4 5.76 0.29
0 -7 -4 5.72 0.31
0 -7 4 5.48 0.28
0 -7 -4 5.69 0.31
0 -7 -4 5.62 0.3
0 -7 4 5.34 0.27
0 7 4 5.83 0.4
0 7 -4 5.56 0.38
0 7 4 5.75 0.4
0 7 -4 5.83 0.36
0 7 -4 5.91 0.33
1 -7 4 36.34 2.01
-1 -7 -4 39.2 1.8
1 -7 4 39.89 1.84
-1 -7 -4 37.78 2.01
-1 -7 -4 38.63 1.99
-1 -7 -4 38.01 2.04
1 -7 4 38.35 1.73
1 -7 4 39.48 1.8
-1 7 -4 37.54 2.42
-1 7 -4 37.59 2.13
1 7 4 39.17 2.49
1 7 4 36.23 2.34
1 7 4 37.71 2.57
2 -7 4 4.25 0.21
-2 -7 -4 4.32 0.24
-2 -7 -4 4.12 0.24
-2 -7 -4 4.11 0.21
2 -7 4 4.22 0.21
2 -7 4 4 0.24
3 -7 4 8.59 0.47
-3 -7 -4 8.97 0.42
3 -7 4 8.69 0.4
-3 -7 -4 8.67 0.46
3 -8 -4 1.84 0.13
3 -8 -4 1.82 0.14
-3 -8 4 1.97 0.13
-3 -8 4 1.98 0.11
3 -8 -4 1.7 0.13
-3 -8 4 1.97 0.12
-2 -8 4 3.29 0.17
2 -8 -4 3.17 0.2
2 -8 -4 3.16 0.22
-2 -8 4 3.12 0.2
-2 -8 4 3.29 0.19
2 -8 -4 3.18 0.18
-2 -8 4 3.3 0.21
-1 -8 4 6.39 0.33
-1 -8 4 6.44 0.33
-1 -8 4 7.03 0.32
1 -8 -4 5.49 0.41
-1 -8 4 6.99 0.39
1 -8 -4 6.85 0.38
1 -8 -4 6.74 0.35
-1 -8 4 6.84 0.38
1 -8 -4 6.66 0.36
1 8 -4 6.27 0.38
-1 8 4 6.28 0.46
-1 8 4 7.2 0.47
1 8 -4 6.8 0.42
0 -8 4 26.82 1.27
0 -8 -4 26.01 1.32
0 -8 -4 27.19 1.41
0 -8 4 25.06 1.23
0 -8 -4 26.55 1.39
0 -8 4 26.72 1.24
0 -8 4 27.42 1.46
0 -8 4 25.3 1.19
0 -8 -4 27.53 1.37
0 8 4 28.21 1.73
0 8 -4 25.8 1.47
0 8 -4 23.7 1.67
0 8 4 24.4 1.77
0 8 -4 26.83 1.62
-1 -8 -4 27.65 1.26
-1 -8 -4 27.8 1.44
1 -8 4 25.65 1.41
1 -8 4 27.79 1.27
1 -8 4 27.07 1.22
-1 -8 -4 27 1.41
-1 -8 -4 28.38 1.4
1 -8 4 27.84 1.29
-1 8 -4 25.5 1.7
1 8 4 25.52 1.81
-1 8 -4 26.4 1.49
1 8 4 23.31 1.65
1 8 4 27.37 1.75
-2 -8 -4 5.12 0.29
-2 -8 -4 5.13 0.26
2 -8 4 5.39 0.25
2 -8 4 4.91 0.29
-2 -8 -4 5.35 0.29
2 -8 4 5.15 0.26
3 -8 4 5.29 0.25
3 -8 4 5.25 0.29
-3 -8 -4 5.55 0.29
-3 -8 -4 5.37 0.26
-3 -9 4 1.78 0.12
3 -9 -4 1.48 0.12
-3 -9 4 1.62 0.11
3 -9 -4 1.53 0.11
-3 -9 4 1.58 0.09
2 -9 -4 0.22 0.05
2 -9 -4 0.23 0.06
-2 -9 4 0.28 0.05
2 -9 -4 0.16 0.04
-1 -9 4 0.4 0.05
-1 -9 4 0.4 0.05
-1 -9 4 0.49 0.05
1 -9 -4 0.38 0.06
1 -9 -4 0.45 0.06
-1 -9 4 0.38 0.05
1 -9 -4 0.38 0.05
-1 -9 4 0.46 0.06
1 -9 -4 0.34 0.05
1 9 -4 0.4 0.06
1 9 -4 0.34 0.05
1 9 -4 0.34 0.06
-1 9 4 0.43 0.08
-1 9 4 0.37 0.07
0 -9 4 19.01 0.89
0 -9 4 17.77 0.84
0 -9 -4 19.42 0.97
0 -9 4 18.86 1.03
0 -9 4 18.33 0.87
0 -9 4 18.33 0.87
0 -9 -4 18.15 0.93
0 -9 -4 18.8 0.98
0 -9 -4 19.19 0.99
0 9 -4 18.21 1.03
0 9 4 17.83 1.21
0 9 4 15.91 1.24
0 9 -4 18.37 1.14
1 -9 4 2.55 0.14
1 -9 4 2.37 0.13
-1 -9 -4 2.46 0.15
-1 -9 -4 2.46 0.16
1 -9 4 2.56 0.14
1 -9 4 2.1 0.15
-1 -9 -4 2.45 0.15
-2 -9 -4 0.26 0.04
2 -9 4 0.22 0.04
2 -9 4 0.23 0.04
-2 -9 -4 0.26 0.05
2 -9 4 0.19 0.04
-2 -9 -4 0.24 0.04
3 -10 -4 0.31 0.04
-3 -10 4 0.31 0.04
3 -10 -4 0.31 0.04
-2 -10 4 4.49 0.25
-2 -10 4 4.37 0.26
2 -10 -4 4.18 0.23
-2 -10 4 4.46 0.27
2 -10 -4 4.1 0.26
2 -10 -4 4.03 0.28
-2 -10 4 4.55 0.22
-1 -10 4 18.52 1
-1 -10 4 18.02 0.83
1 -10 -4 17.53 0.89
1 -10 -4 16.94 0.98
1 -10 -4 17.62 0.93
1 -10 -4 15.98 1.05
-1 -10 4 17.54 0.85
-1 -10 4 17.63 0.98
-1 -10 4 17.09 0.83
0 -10 4 24.22 1.15
0 -10 -4 25.16 1.33
0 -10 4 24.84 1.22
0 -10 4 25.26 1.4
0 -10 4 24.69 1.19
0 -10 -4 26.58 1.32
0 -10 -4 24.71 1.27
0 -10 4 25.32 1.18
0 -10 -4 25.63 1.35
-1 -10 -4 1.61 0.11
1 -10 4 1.53 0.1
-1 -10 -4 1.52 0.11
-1 -10 -4 1.51 0.1
-1 -10 -4 1.56 0.12
1 -10 4 1.6 0.1
1 -10 4 1.59 0.1
2 -10 4 1.31 0.09
-2 -10 -4 1.34 0.1
-2 -10 -4 1.44 0.09
2 -10 4 1.38 0.09
-2 -10 -4 1.37 0.1
2 -10 4 1.39 0.1
3 -11 -4 0.82 0.07
-3 -11 4 0.92 0.07
-2 -11 4 0.08 0.04
2 -11 -4 0.06 0.04
-2 -11 4 0.08 0.03
2 -11 -4 0.07 0.04
-2 -11 4 0.08 0.03
2 -11 -4 0.08 0.04
1 -11 -4 4.12 0.31
1 -11 -4 5.01 0.28
1 -11 -4 4.78 0.29
-1 -11 4 5.19 0.3
1 -11 -4 4.9 0.26
-1 -11 4 5.04 0.25
-1 -11 4 5.08 0.26
-1 -11 4 5.15 0.29
0 -11 -4 5.99 0.32
0 -11 -4 5.11 0.35
0 -11 -4 6.09 0.33
0 -11 -4 6.26 0.34
0 -11 4 5.91 0.35
0 -11 4 5.89 0.3
0 -11 -4 6.3 0.33
0 -11 4 6.06 0.29
0 -11 4 5.61 0.29
0 -11 4 6.07 0.3
-1 -11 -4 1.55 0.11
1 -11 4 1.2 0.1
-1 -11 -4 1.4 0.1
1 -11 4 1.52 0.1
1 -11 4 1.4 0.09
1 -11 4 1.51 0.09
-1 -11 -4 1.47 0.1
2 -11 4 0.31 0.04
-2 -11 -4 0.3 0.03
2 -11 4 0.3 0.03
-2 -11 -4 0.34 0.04
-2 -12 4 0.38 0.05
2 -12 -4 0.41 0.05
2 -12 -4 0.36 0.05
2 -12 -4 0.37 0.04
-2 -12 4 0.39 0.04
-2 -12 4 0.36 0.04
-1 -12 4 7.14 0.39
1 -12 -4 6.54 0.36
1 -12 -4 6.11 0.38
1 -12 -4 6.62 0.35
-1 -12 4 6.93 0.32
-1 -12 4 6.81 0.33
1 -12 -4 5.74 0.41
-1 -12 4 6.74 0.38
0 -12 4 1 0.08
0 -12 4 0.93 0.07
0 -12 -4 1 0.09
0 -12 4 1.02 0.09
0 -12 4 1.02 0.08
0 -12 -4 0.94 0.08
0 -12 4 1.03 0.07
0 -12 -4 1.08 0.09
-1 -12 -4 4.11 0.23
1 -12 4 3.79 0.19
1 -12 4 3.89 0.2
1 -12 4 3.71 0.2
-1 -12 -4 3.92 0.22
-1 -12 -4 3.68 0.22
2 -12 4 1.71 0.09
-2 -12 -4 1.8 0.11
2 -13 -4 5.09 0.34
-2 -13 4 5.79 0.32
-2 -13 4 5.81 0.27
2 -13 -4 5.44 0.32
-1 -13 4 1.13 0.09
1 -13 -4 0.93 0.08
-1 -13 4 1.15 0.08
-1 -13 4 1.14 0.07
1 -13 -4 0.95 0.09
1 -13 -4 1.03 0.08
-1 -13 4 1.05 0.08
0 -13 4 0.23 0.04
0 -13 4 0.23 0.04
0 -13 4 0.25 0.04
0 -13 -4 0.28 0.04
0 -13 -4 0.25 0.04
0 -13 -4 0.24 0.04
-1 -13 -4 0.74 0.06
1 -13 4 0.68 0.05
1 -13 4 0.73 0.06
-1 -13 -4 0.69 0.06
1 -13 4 0.6 0.05
1 -14 -4 2.82 0.17
-1 -14 4 3.47 0.15
-1 -14 4 3.18 0.16
-1 -14 4 3.27 0.18
1 -14 -4 2.59 0.17
0 -14 -4 0.13 0.03
0 -14 4 0.15 0.03
0 -14 4 0.12 0.03
0 -14 4 0.15 0.03
0 -14 -4 0.17 0.03
0 -14 -4 0.14 0.03
-1 -14 -4 0.83 0.06
1 -14 4 0.83 0.05
-4 0 5 0.12 0.04
4 0 -5 0.17 0.04
3 0 -5 0.92 0.09
3 0 -5 1.01 0.1
-3 0 5 1.04 0.1
-3 0 5 0.99 0.08
-2 0 5 2.16 0.17
2 0 -5 2.08 0.14
-2 0 5 1.83 0.16
-1 0 5 3.46 0.26
1 0 -5 3.56 0.24
1 0 -5 3.33 0.21
0 0 -5 2.18 0.17
0 0 -5 2.24 0.18
1 0 5 0.14 0.05
-1 0 -5 0.23 0.06
-1 0 -5 0.18 0.05
2 0 5 8.38 0.42
2 0 5 8.65 0.41
-2 0 -5 9 0.47
-2 0 -5 8.61 0.48
-3 0 -5 0.97 0.07
-3 0 -5 0.86 0.07
3 0 5 0.84 0.07
3 0 5 0.86 0.06
-4 -1 5 0.57 0.06
4 -1 -5 0.55 0.07
-4 1 5 0.65 0.07
4 1 -5 0.51 0.07
3 -1 -5 0.24 0.06
3 -1 -5 0.31 0.06
-3 -1 5 0.23 0.05
-3 -1 5 0.26 0.05
3 1 -5 0.33 0.06
-3 1 5 0.27 0.05
3 1 -5 0.36 0.06
-3 1 5 0.32 0.06
-2 -1 5 0.32 0.05
2 -1 -5 0.38 0.05
2 -1 -5 0.28 0.04
-2 -1 5 0.21 0.05
-2 -1 5 0.15 0.06
-2 -1 5 0.17 0.06
2 -1 -5 0.15 0.05
-2 -1 5 0.21 0.05
2 1 -5 0.28 0.05
-2 1 5 0.31 0.06
2 1 -5 0.24 0.05
-2 1 5 0.27 0.05
-1 -1 5 2.98 0.23
1 -1 -5 2.61 0.18
-1 -1 5 2.97 0.15
1 -1 -5 2.98 0.21
1 1 -5 2.87 0.18
1 1 -5 3.12 0.21
-1 1 5 3.17 0.22
-1 1 5 2.69 0.21
0 -1 5 9.21 0.48
0 -1 5 7.86 0.58
0 -1 5 8.43 0.53
0 -1 -5 7.96 0.55
0 1 5 8.74 0.53
0 1 -5 8.16 0.48
0 1 -5 8.57 0.55
0 1 5 8.29 0.58
-1 -1 -5 0.64 0.08
1 -1 5 0.75 0.06
1 -1 5 0.7 0.07
-1 -1 -5 0.82 0.1
1 -1 5 0.68 0.09
-1 -1 -5 0.59 0.08
-1 -1 -5 0.6 0.07
-1 -1 -5 0.69 0.07
1 -1 5 0.67 0.07
1 1 5 0.48 0.07
1 1 5 0.7 0.09
-1 1 -5 0.67 0.09
-1 1 -5 0.57 0.08
-2 -1 -5 1.15 0.1
2 1 5 1.38 0.09
2 1 5 1.01 0.09
3 -1 5 1.68 0.09
-3 -1 -5 1.63 0.1
-3 -1 -5 1.9 0.11
3 -1 5 1.42 0.11
-3 1 -5 1.91 0.11
3 1 5 1.64 0.09
3 1 5 1.5 0.1
-3 1 -5 1.63 0.09
4 -2 -5 1.21 0.1
-4 -2 5 1.2 0.09
4 2 -5 1.1 0.1
-4 2 5 1.27 0.09
-3 -2 5 0.64 0.07
3 -2 -5 0.72 0.09
-3 -2 5 0.64 0.08
3 -2 -5 0.61 0.08
-2 -2 5 0.9 0.1
-2 -2 5 0.64 0.09
-2 -2 5 0.94 0.08
2 -2 -5 0.88 0.07
2 -2 -5 0.86 0.08
2 -2 -5 0.83 0.08
2 -2 -5 0.94 0.08
-2 -2 5 0.98 0.07
-2 -2 5 0.77 0.08
-2 2 5 0.94 0.1
2 2 -5 0.67 0.08
-2 2 5 0.7 0.09
2 2 -5 0.92 0.08
-1 -2 5 0.82 0.1
1 -2 -5 0.73 0.07
-1 -2 5 0.75 0.08
1 -2 -5 0.88 0.09
-1 -2 5 0.72 0.06
1 -2 -5 0.76 0.07
-1 -2 5 0.68 0.06
1 -2 -5 0.65 0.07
1 -2 -5 0.78 0.07
1 2 -5 0.77 0.07
-1 2 5 0.78 0.09
1 2 -5 0.79 0.08
-1 2 5 0.71 0.09
0 -2 -5 10.22 0.53
0 -2 5 10.43 0.59
0 -2 -5 10.96 0.56
0 -2 5 10.61 0.66
0 -2 5 10.98 0.51
0 -2 5 9.62 0.71
0 -2 5 10.29 0.5
0 -2 -5 10.58 0.57
0 -2 -5 10.25 0.68
0 2 5 9.98 0.72
0 2 -5 10.17 0.59
0 2 -5 11.37 0.68
0 2 5 10.37 0.65
1 -2 5 0.19 0.04
1 -2 5 0.21 0.03
1 -2 5 0.21 0.05
-1 -2 -5 0.17 0.04
-1 -2 -5 0.16 0.04
1 -2 5 0.21 0.04
-1 -2 -5 0.17 0.04
-1 -2 -5 0.22 0.06
-1 -2 -5 0.17 0.04
1 2 5 0.21 0.05
1 2 5 0.11 0.04
-1 2 -5 0.16 0.05
-1 2 -5 0.16 0.05
2 -2 5 0.06 0.04
2 -2 5 0.03 0.03
2 -2 5 0.01 0.04
-2 -2 -5 0.06 0.04
-2 -2 -5 0.06 0.04
3 -2 5 2.11 0.14
3 -2 5 2.34 0.12
-3 -2 -5 2.64 0.14
3 2 5 2.34 0.12
-3 2 -5 2.46 0.14
-3 2 -5 2.14 0.12
-4 -3 5 0.21 0.04
4 -3 -5 0.25 0.04
-4 3 5 0.26 0.04
4 3 -5 0.2 0.04
3 -3 -5 1.23 0.1
3 -3 -5 1.29 0.11
-3 -3 5 1.23 0.09
-3 -3 5 1.27 0.11
2 -3 -5 1.53 0.1
-2 -3 5 1.6 0.11
-2 -3 5 1.55 0.11
2 -3 -5 1.53 0.12
-2 -3 5 1.71 0.1
2 -3 -5 1.37 0.11
2 -3 -5 1.7 0.11
-2 3 5 1.38 0.13
2 3 -5 1.32 0.12
2 3 -5 1.47 0.11
-2 3 5 1.33 0.13
1 -3 -5 1.66 0.1
-1 -3 5 1.71 0.11
1 -3 -5 1.56 0.13
1 -3 -5 1.49 0.1
-1 -3 5 1.42 0.13
-1 -3 5 1.44 0.09
-1 -3 5 1.49 0.09
1 -3 -5 1.2 0.1
1 -3 -5 1.5 0.11
-1 3 5 1.63 0.13
1 3 -5 1.33 0.11
1 3 -5 1.54 0.11
1 3 -5 1.59 0.12
-1 3 5 1.36 0.13
0 -3 5 8.36 0.5
0 -3 -5 8.1 0.43
0 -3 5 7.97 0.45
0 -3 5 7.6 0.38
0 -3 -5 7.73 0.42
0 -3 5 8.1 0.39
0 -3 -5 7.76 0.51
0 -3 5 7.45 0.54
0 -3 -5 7.72 0.4
0 3 -5 7.8 0.45
0 3 5 7.96 0.54
0 3 -5 8.32 0.51
0 3 5 8.04 0.49
0 3 5 6.71 0.52
-1 -3 -5 8.01 0.45
1 -3 5 8.46 0.41
-1 -3 -5 8.33 0.59
1 -3 5 7.81 0.52
1 -3 5 8.64 0.4
-1 -3 -5 8.2 0.45
1 -3 5 8.71 0.39
-1 -3 -5 8.52 0.44
1 3 5 8.35 0.52
1 3 5 7.14 0.57
-1 3 -5 8.47 0.54
-1 3 -5 8.19 0.59
2 -3 5 0.36 0.04
-2 -3 -5 0.39 0.05
2 -3 5 0.45 0.05
-2 -3 -5 0.38 0.05
-2 -3 -5 0.38 0.04
-3 -3 -5 1.29 0.08
3 -3 5 1.22 0.07
-3 -3 -5 1.38 0.09
3 3 5 1.12 0.08
-3 3 -5 1.07 0.07
-3 3 -5 1.32 0.09
3 3 5 1.19 0.07
-4 -4 5 0.16 0.04
4 -4 -5 0.19 0.04
-4 4 5 0.17 0.03
4 4 -5 0.17 0.04
-3 -4 5 0.23 0.04
3 -4 -5 0.25 0.05
-3 -4 5 0.21 0.05
3 -4 -5 0.26 0.05
2 -4 -5 2.43 0.14
-2 -4 5 2.19 0.15
2 -4 -5 2.33 0.16
2 -4 -5 2.6 0.15
-2 -4 5 2.49 0.13
-2 -4 5 2.48 0.15
2 -4 -5 2.12 0.15
2 4 -5 2.1 0.17
2 4 -5 2.29 0.15
-2 4 5 2.16 0.18
-2 4 5 2.08 0.18
1 -4 -5 4.06 0.21
-1 -4 5 4.41 0.24
-1 -4 5 4 0.2
-1 -4 5 3.9 0.2
1 -4 -5 3.89 0.22
-1 -4 5 3.55 0.28
1 -4 -5 3.99 0.23
-1 4 5 3.74 0.28
1 4 -5 4.06 0.23
-1 4 5 3.9 0.29
-1 4 5 3.64 0.28
1 4 -5 3.73 0.26
1 4 -5 3.68 0.26
0 -4 5 10.06 0.49
0 -4 -5 9.17 0.65
0 -4 -5 10.33 0.54
0 -4 5 10.19 0.57
0 -4 -5 10.13 0.52
0 -4 -5 9.96 0.55
0 -4 5 10.35 0.5
0 4 -5 10.61 0.65
0 4 -5 10.46 0.63
0 4 5 10.15 0.63
0 4 5 9.46 0.67
0 4 -5 10.12 0.57
0 4 5 10.06 0.69
1 -4 5 11.74 0.83
-1 -4 -5 13.85 0.71
-1 -4 -5 14.14 0.71
1 -4 5 14.26 0.64
-1 -4 -5 14.08 0.73
1 -4 5 14.21 0.65
1 -4 5 13.76 0.61
-1 4 -5 12.73 0.94
1 4 5 12.51 0.91
-1 4 -5 12.07 0.75
1 4 5 13.31 0.83
-1 4 -5 13.42 0.86
-2 -4 -5 0.29 0.05
-2 -4 -5 0.3 0.05
2 -4 5 0.23 0.04
-2 -4 -5 0.26 0.04
2 -4 5 0.24 0.04
2 -4 5 0.25 0.04
-3 -4 -5 0.27 0.04
3 -4 5 0.24 0.03
3 4 5 0.21 0.03
-3 4 -5 0.24 0.03
3 4 5 0.18 0.03
4 -5 -5 0.57 0.06
-4 -5 5 0.53 0.05
4 5 -5 0.57 0.06
-4 5 5 0.59 0.06
-3 -5 5 1.74 0.13
3 -5 -5 1.79 0.13
3 -5 -5 1.78 0.13
-3 -5 5 1.8 0.11
-2 -5 5 0.21 0.04
-2 -5 5 0.19 0.05
2 -5 -5 0.21 0.05
2 -5 -5 0.2 0.04
2 -5 -5 0.17 0.05
-2 -5 5 0.2 0.04
2 5 -5 0.13 0.05
-2 5 5 0.21 0.05
2 5 -5 0.14 0.04
2 5 -5 0.13 0.05
-2 5 5 0.12 0.06
-1 -5 5 3.93 0.32
-1 -5 5 4.58 0.22
1 -5 -5 4.81 0.24
1 -5 -5 4.51 0.27
-1 -5 5 4.88 0.27
-1 -5 5 4.59 0.23
1 -5 -5 4.63 0.25
-1 5 5 4.29 0.32
-1 5 5 4.53 0.32
1 5 -5 4.3 0.29
-1 5 5 4.25 0.32
1 5 -5 4.39 0.27
0 -5 -5 1.43 0.1
0 -5 -5 1.38 0.1
0 -5 5 1.41 0.09
0 -5 -5 1.49 0.1
0 -5 -5 1.16 0.12
0 -5 5 1.62 0.1
0 -5 5 1.43 0.11
0 5 -5 1.41 0.11
0 5 -5 1.52 0.12
0 5 -5 1.47 0.12
0 5 5 1.47 0.14
0 5 5 1.33 0.14
-1 -5 -5 16.31 0.82
1 -5 5 15.97 0.74
-1 -5 -5 16.23 0.84
1 -5 5 16.06 0.71
-1 -5 -5 16.05 0.82
1 -5 5 16.51 0.75
-1 5 -5 15.06 0.99
1 5 5 14.1 1.05
1 5 5 14.72 0.96
-1 5 -5 14.53 0.87
1 5 5 14.29 1.02
-2 -5 -5 0.63 0.07
2 -5 5 0.47 0.05
-2 -5 -5 0.61 0.07
-2 -5 -5 0.55 0.06
2 -5 5 0.56 0.06
-3 -5 -5 0.22 0.03
3 -5 5 0.23 0.03
-3 5 -5 0.17 0.02
-3 5 -5 0.18 0.03
3 5 5 0.15 0.02
3 -6 -5 3.92 0.24
-3 -6 5 3.91 0.24
3 -6 -5 3.99 0.26
-3 -6 5 3.84 0.2
-2 -6 5 6.05 0.35
2 -6 -5 5.62 0.37
2 -6 -5 6.12 0.35
-2 -6 5 6.13 0.29
-2 -6 5 5.77 0.36
2 -6 -5 5.92 0.31
1 -6 -5 1.39 0.1
1 -6 -5 1.37 0.09
-1 -6 5 1.36 0.11
1 -6 -5 1.34 0.11
-1 -6 5 1.33 0.09
-1 -6 5 1.39 0.09
-1 6 5 1.25 0.13
-1 6 5 1.29 0.13
-1 6 5 1.24 0.13
1 6 -5 1.33 0.1
1 6 -5 1.31 0.11
0 -6 5 1.3 0.09
0 -6 -5 1.29 0.1
0 -6 -5 1.41 0.1
0 -6 5 1.36 0.1
0 -6 -5 1.32 0.09
0 -6 5 1.39 0.09
0 6 -5 1.25 0.11
0 6 -5 1.23 0.1
0 6 5 1.12 0.13
0 6 -5 1.32 0.11
0 6 5 1.27 0.13
-1 -6 -5 22.65 1.23
1 -6 5 22.71 1.06
-1 -6 -5 24.38 1.26
1 -6 5 23.16 1.11
-1 -6 -5 23.72 1.22
1 -6 5 23.19 1.13
2 -6 5 8.24 0.5
-2 -6 -5 9.97 0.5
-2 -6 -5 9.48 0.51
2 -6 5 9.56 0.43
2 -6 5 9.32 0.45
3 -6 5 0.21 0.02
-3 -6 -5 0.24 0.03
-3 6 -5 0.19 0.03
3 6 5 0.17 0.02
-3 -7 5 0.57 0.07
-3 -7 5 0.52 0.06
3 -7 -5 0.56 0.07
3 -7 -5 0.64 0.07
2 -7 -5 3.1 0.19
-2 -7 5 2.93 0.19
-2 -7 5 2.95 0.16
2 -7 -5 2.92 0.17
-2 -7 5 2.98 0.19
2 -7 -5 2.67 0.2
-1 -7 5 4.17 0.21
1 -7 -5 4.1 0.23
1 -7 -5 4.01 0.24
-1 -7 5 4.24 0.2
1 -7 -5 4.2 0.22
-1 -7 5 4.12 0.24
-1 7 5 3.55 0.29
1 7 -5 3.84 0.27
-1 7 5 3.64 0.29
1 7 -5 3.92 0.24
-1 7 5 3.83 0.3
0 -7 5 1.08 0.09
0 -7 -5 1.31 0.1
0 -7 5 1.26 0.1
0 -7 5 1.25 0.09
0 -7 -5 1.26 0.09
0 -7 -5 1.21 0.09
0 7 -5 1.25 0.11
0 7 5 1.04 0.13
0 7 5 1.05 0.12
0 7 -5 0.93 0.11
0 7 -5 1.07 0.1
1 -7 5 2.35 0.14
1 -7 5 2.43 0.14
1 -7 5 2.44 0.14
-1 -7 -5 2.44 0.15
-1 -7 -5 2.67 0.16
-1 -7 -5 2.49 0.16
-2 -7 -5 14.56 0.75
2 -7 5 13.98 0.65
2 -7 5 13.96 0.67
-2 -7 -5 13.9 0.76
-3 -8 5 2.1 0.14
-3 -8 5 2.13 0.12
3 -8 -5 2.14 0.14
3 -8 -5 2.07 0.15
2 -8 -5 0.05 0.05
-2 -8 5 0.02 0.04
2 -8 -5 0.06 0.05
-2 -8 5 0.07 0.04
2 -8 -5 0.05 0.04
-2 -8 5 0.03 0.04
-1 -8 5 3.57 0.2
1 -8 -5 3.6 0.22
1 -8 -5 3.64 0.21
-1 -8 5 3.85 0.23
-1 -8 5 3.53 0.19
1 -8 -5 3.67 0.2
0 -8 -5 9.51 0.5
0 -8 5 9.73 0.56
0 -8 5 9.35 0.47
0 -8 -5 9.91 0.54
0 -8 -5 10.25 0.53
0 -8 5 9.72 0.48
1 -8 5 0.16 0.04
-1 -8 -5 0.16 0.04
-1 -8 -5 0.17 0.04
1 -8 5 0.19 0.04
-1 -8 -5 0.21 0.05
1 -8 5 0.19 0.04
2 -8 5 15.05 0.73
-2 -8 -5 15.76 0.81
-2 -8 -5 15.15 0.83
2 -8 5 15.41 0.7
-3 -9 5 0.35 0.04
3 -9 -5 0.32 0.04
3 -9 -5 0.3 0.04
-3 -9 5 0.32 0.03
2 -9 -5 1.11 0.08
2 -9 -5 1.13 0.09
-2 -9 5 1.24 0.08
-2 -9 5 1.12 0.09
2 -9 -5 0.98 0.1
-2 -9 5 1.12 0.09
-1 -9 5 1.06 0.08
-1 -9 5 1.09 0.1
-1 -9 5 1.02 0.08
1 -9 -5 1.09 0.09
1 -9 -5 0.96 0.09
1 -9 -5 1 0.09
0 -9 5 24.58 1.38
0 -9 5 24.51 1.17
0 -9 -5 25.27 1.33
0 -9 5 24.64 1.2
0 -9 -5 24.68 1.31
0 -9 -5 24.65 1.25
1 -9 5 1.17 0.08
-1 -9 -5 1.28 0.1
-1 -9 -5 1.18 0.09
1 -9 5 1.24 0.09
-1 -9 -5 1.32 0.09
1 -9 5 1.21 0.08
2 -9 5 1.05 0.07
-2 -9 -5 1.14 0.08
-2 -9 -5 1.29 0.08
2 -9 5 1.16 0.07
3 -10 -5 1.24 0.09
-3 -10 5 1.41 0.09
-3 -10 5 1.28 0.07
3 -10 -5 1.24 0.09
-2 -10 5 0.12 0.04
2 -10 -5 0.11 0.04
-2 -10 5 0.1 0.03
-2 -10 5 0.11 0.03
2 -10 -5 0.06 0.04
2 -10 -5 0.09 0.03
1 -10 -5 12.09 0.71
-1 -10 5 13.16 0.6
1 -10 -5 12.64 0.64
1 -10 -5 12.47 0.67
-1 -10 5 12.29 0.62
-1 -10 5 12.68 0.71
0 -10 5 1 0.08
0 -10 5 1.01 0.09
0 -10 5 0.99 0.08
0 -10 -5 1 0.08
0 -10 -5 1.09 0.09
0 -10 -5 1.1 0.09
-1 -10 -5 1.6 0.11
-1 -10 -5 1.66 0.11
1 -10 5 1.5 0.09
1 -10 5 1.62 0.1
-1 -10 -5 1.63 0.11
1 -10 5 1.65 0.1
-2 -10 -5 0.48 0.05
2 -10 5 0.42 0.04
2 -11 -5 2.35 0.14
-2 -11 5 2.5 0.15
-2 -11 5 2.45 0.13
2 -11 -5 2.39 0.15
1 -11 -5 19.38 0.99
-1 -11 5 20.57 0.92
-1 -11 5 19.47 1.09
1 -11 -5 18.09 1.09
-1 -11 5 20.32 0.95
1 -11 -5 19.49 1.04
0 -11 5 0.58 0.06
0 -11 5 0.57 0.06
0 -11 -5 0.56 0.07
0 -11 -5 0.63 0.07
0 -11 -5 0.52 0.06
0 -11 5 0.5 0.06
1 -11 5 5.66 0.27
-1 -11 -5 5.67 0.3
-1 -11 -5 5.35 0.29
1 -11 5 5.19 0.27
-1 -11 -5 5.16 0.29
1 -11 5 5.07 0.25
-2 -12 5 4.98 0.23
2 -12 -5 4.62 0.27
-2 -12 5 4.93 0.27
2 -12 -5 4.47 0.25
-1 -12 5 5.11 0.25
-1 -12 5 5.23 0.29
1 -12 -5 4.64 0.29
1 -12 -5 4.88 0.28
-1 -12 5 5.15 0.25
1 -12 -5 5.12 0.27
0 -12 5 3.1 0.18
0 -12 -5 2.83 0.16
0 -12 5 2.89 0.16
0 -12 -5 3.17 0.18
0 -12 -5 2.92 0.18
0 -12 5 3.13 0.16
1 -12 5 2.39 0.12
-1 -12 -5 2.48 0.14
-1 -12 -5 2.36 0.13
1 -12 5 2.16 0.12
1 -13 -5 0.04 0.02
-1 -13 5 0.08 0.02
1 -13 -5 0.05 0.03
1 -13 -5 0.05 0.03
-1 -13 5 0.14 0.02
-1 -13 5 0.06 0.03
0 -13 -5 1.96 0.11
0 -13 -5 1.66 0.1
0 -13 -5 1.82 0.11
0 -13 5 1.78 0.1
0 -13 5 1.98 0.1
-4 0 6 0.22 0.03
4 0 -6 0.24 0.04
-3 0 6 2.55 0.14
-3 0 6 2.21 0.16
3 0 -6 2.57 0.16
3 0 -6 2.47 0.17
2 0 -6 28.55 1.49
-2 0 6 28.98 1.39
-2 0 6 30.4 1.65
2 0 -6 30.6 1.65
1 0 -6 2.77 0.21
0 0 6 0.23 0.05
0 0 6 0.2 0.05
0 0 -6 0.25 0.06
0 0 6 0.22 0.05
0 0 6 0.32 0.05
0 0 -6 0.29 0.04
-1 0 -6 0.03 0.04
-1 0 -6 0.05 0.04
1 0 6 0.1 0.04
1 0 6 0.03 0.03
-1 0 -6 0.05 0.04
1 0 6 0.05 0.03
-2 0 -6 3.29 0.2
-2 0 -6 3.5 0.2
2 0 6 3.17 0.18
2 0 6 3.38 0.17
4 -1 -6 0 0.03
-4 -1 6 -0.05 0.02
4 1 -6 0.01 0.03
-4 1 6 0.02 0.03
-3 -1 6 1.16 0.11
-3 -1 6 1.34 0.09
3 -1 -6 1.17 0.12
3 -1 -6 1.48 0.11
3 1 -6 1.55 0.12
-3 1 6 1.35 0.11
-3 1 6 1.56 0.09
3 1 -6 1.54 0.11
2 -1 -6 6.06 0.33
-2 -1 6 5.3 0.28
2 -1 -6 5.82 0.3
-2 -1 6 5.36 0.33
-1 -1 6 34.75 2.55
1 -1 -6 36.54 2.11
1 -1 -6 39.45 2
-1 -1 6 42.98 2.11
-1 -1 6 40.12 1.83
-1 -1 6 36.35 1.78
1 -1 -6 39.62 1.91
1 -1 -6 36.87 2.41
-1 1 6 37.76 2.56
1 1 -6 36.05 2.41
1 1 -6 37.33 2.12
0 -1 6 0.67 0.07
0 -1 6 0.59 0.08
0 -1 -6 0.84 0.08
0 -1 -6 0.7 0.09
0 -1 -6 0.74 0.07
0 -1 6 0.67 0.07
0 -1 6 0.51 0.07
0 -1 -6 0.66 0.07
0 -1 6 0.6 0.08
0 1 -6 0.66 0.09
0 1 6 0.57 0.08
0 1 6 0.57 0.09
1 -1 6 0.28 0.05
-1 -1 -6 0.19 0.04
1 -1 6 0.2 0.04
1 -1 6 0.21 0.04
-1 -1 -6 0.27 0.05
-1 -1 -6 0.22 0.04
1 1 6 0.23 0.04
1 1 6 0.2 0.04
-1 1 -6 0.23 0.04
-1 1 -6 0.23 0.04
-2 -1 -6 3.24 0.2
-2 -1 -6 3.63 0.2
2 -1 6 3.18 0.18
2 -1 6 3.18 0.17
2 1 6 3.41 0.18
-2 1 -6 3.42 0.2
-2 1 -6 3.51 0.2
2 1 6 3.51 0.17
-4 -2 6 2.08 0.13
4 -2 -6 2.14 0.14
4 2 -6 2.07 0.14
-4 2 6 2.05 0.13
3 -2 -6 2.29 0.16
-3 -2 6 2.39 0.13
3 -2 -6 2.41 0.15
-3 -2 6 2.01 0.15
3 2 -6 2.3 0.15
3 2 -6 2.29 0.16
-3 2 6 2.13 0.15
-3 2 6 2.34 0.13
-2 -2 6 7.28 0.41
-2 -2 6 6.98 0.34
2 -2 -6 6.85 0.41
2 -2 -6 6.75 0.37
-1 -2 6 15.38 1.13
-1 -2 6 18.26 0.94
1 -2 -6 16.36 1.07
-1 -2 6 16.7 0.81
1 -2 -6 17.67 0.85
1 -2 -6 17.05 0.89
1 -2 -6 16.01 0.93
-1 -2 6 16.35 0.79
1 2 -6 16.67 0.94
-1 2 6 16.41 1.13
1 2 -6 16.2 1.07
0 -2 6 8.24 0.38
0 -2 -6 8.25 0.42
0 -2 -6 7.56 0.5
0 -2 6 7.76 0.44
0 -2 6 6.73 0.53
0 -2 -6 8.08 0.42
0 -2 -6 7.74 0.4
0 -2 6 8.06 0.37
0 -2 6 7.61 0.49
0 2 -6 6.98 0.44
0 2 -6 7.49 0.5
0 2 6 7.23 0.53
0 2 6 7.39 0.49
-1 -2 -6 6.5 0.37
1 -2 6 6.47 0.32
-1 -2 -6 6.68 0.37
-1 -2 -6 7.18 0.38
1 -2 6 6.62 0.34
1 -2 6 7.11 0.34
2 -2 6 0.58 0.05
2 -2 6 0.56 0.06
-2 -2 -6 0.6 0.07
-2 -2 -6 0.66 0.07
-2 2 -6 0.66 0.07
2 2 6 0.68 0.06
2 2 6 0.73 0.06
-2 2 -6 0.75 0.07
3 -3 -6 1.01 0.08
-3 -3 6 0.99 0.07
-3 -3 6 0.86 0.08
3 -3 -6 0.94 0.09
-3 3 6 0.82 0.08
3 3 -6 0.93 0.09
-3 3 6 0.96 0.07
2 -3 -6 6.41 0.38
-2 -3 6 6.46 0.32
2 -3 -6 6.47 0.34
-2 -3 6 6.57 0.38
1 -3 -6 5.1 0.3
-1 -3 6 5.28 0.27
-1 -3 6 5.24 0.26
-1 -3 6 4.45 0.37
1 -3 -6 5.45 0.29
-1 -3 6 5.56 0.31
1 -3 -6 5.08 0.35
1 -3 -6 5.56 0.28
-1 3 6 4.4 0.36
1 3 -6 5.2 0.3
1 3 -6 5.07 0.34
-1 3 6 5.13 0.37
0 -3 6 15.59 0.72
0 -3 6 16.06 0.85
0 -3 -6 15.69 0.77
0 -3 6 15.96 0.74
0 -3 -6 16.04 0.81
0 -3 -6 14.1 0.97
0 -3 -6 16.25 0.82
0 3 -6 15.13 0.97
0 3 6 14.08 0.94
0 3 -6 13.49 0.85
0 3 6 13.42 1.03
1 -3 6 2.64 0.15
-1 -3 -6 2.52 0.16
-1 -3 -6 2.64 0.16
-1 -3 -6 2.68 0.16
1 -3 6 2.32 0.14
1 -3 6 2.59 0.15
-2 -3 -6 0.39 0.05
2 -3 6 0.4 0.04
-2 -3 -6 0.38 0.05
2 -3 6 0.36 0.04
2 3 6 0.39 0.04
-2 3 -6 0.42 0.05
-2 3 -6 0.33 0.05
2 3 6 0.37 0.04
3 -4 -6 2.75 0.18
-3 -4 6 2.81 0.14
-3 -4 6 2.54 0.17
3 -4 -6 2.89 0.17
-3 4 6 2.51 0.17
-2 -4 6 0.2 0.04
-2 -4 6 0.21 0.05
2 -4 -6 0.2 0.04
2 -4 -6 0.22 0.05
-1 -4 6 0.19 0.05
1 -4 -6 0.18 0.04
-1 -4 6 0.2 0.04
1 -4 -6 0.28 0.05
-1 -4 6 0.17 0.05
1 -4 -6 0.21 0.04
-1 -4 6 0.2 0.04
-1 4 6 0.19 0.06
-1 4 6 0.21 0.05
1 4 -6 0.22 0.04
1 4 -6 0.2 0.05
1 4 -6 0.09 0.04
0 -4 -6 29.92 2.24
0 -4 -6 36.93 1.88
0 -4 6 36.06 1.67
0 -4 -6 36.56 1.86
0 -4 6 38.55 1.7
0 -4 6 38.88 1.96
0 -4 -6 38.38 1.77
0 4 -6 35.16 2.24
0 4 6 32.2 2.37
0 4 -6 33.49 1.97
0 4 6 31.82 2.17
1 -4 6 1.17 0.09
1 -4 6 1.18 0.09
-1 -4 -6 1.19 0.09
-1 -4 -6 1.15 0.09
-1 -4 -6 1.34 0.1
1 -4 6 1.15 0.08
2 -4 6 2.53 0.13
2 -4 6 2.58 0.14
-2 -4 -6 2.69 0.15
-2 -4 -6 2.58 0.15
2 4 6 2.33 0.14
2 4 6 2.48 0.13
-2 4 -6 2.4 0.15
-3 -5 6 2.05 0.11
-3 -5 6 1.92 0.13
3 -5 -6 2.1 0.13
3 -5 -6 1.97 0.14
-2 -5 6 1.85 0.13
-2 -5 6 1.77 0.11
2 -5 -6 1.9 0.12
2 -5 -6 1.81 0.13
1 -5 -6 0.13 0.04
-1 -5 6 0.16 0.04
1 -5 -6 0.19 0.04
-1 -5 6 0.17 0.04
1 -5 -6 0.12 0.04
-1 -5 6 0.12 0.04
0 -5 6 1.61 0.12
0 -5 6 1.83 0.11
0 -5 -6 1.55 0.11
0 -5 6 1.69 0.11
0 -5 -6 1.78 0.12
0 -5 -6 1.84 0.12
1 -5 6 11.18 0.54
-1 -5 -6 11.42 0.6
1 -5 6 11.34 0.55
-1 -5 -6 10.94 0.6
-1 -5 -6 11.59 0.61
1 -5 6 10.59 0.52
-2 -5 -6 0.46 0.06
2 -5 6 0.47 0.05
2 -5 6 0.44 0.05
-2 -5 -6 0.55 0.06
2 5 6 0.37 0.04
3 -6 -6 0.27 0.04
-3 -6 6 0.23 0.03
-3 -6 6 0.23 0.04
3 -6 -6 0.21 0.04
-2 -6 6 2.32 0.15
2 -6 -6 2.33 0.15
2 -6 -6 2.31 0.14
-2 -6 6 2.23 0.13
1 -6 -6 1.59 0.11
-1 -6 6 1.44 0.1
-1 -6 6 1.65 0.12
-1 -6 6 1.49 0.1
1 -6 -6 1.66 0.11
1 -6 -6 1.4 0.11
0 -6 -6 0.34 0.05
0 -6 -6 0.35 0.05
0 -6 -6 0.37 0.05
0 -6 6 0.34 0.05
0 -6 6 0.34 0.05
0 -6 6 0.34 0.05
1 -6 6 10.64 0.52
-1 -6 -6 10.77 0.58
-1 -6 -6 10.32 0.57
1 -6 6 9.95 0.49
1 -6 6 10.7 0.51
-1 -6 -6 11.13 0.56
2 -6 6 1.08 0.07
2 -6 6 1.06 0.07
-2 -6 -6 1.16 0.08
-2 -6 -6 1.17 0.08
-3 -7 6 1.2 0.09
3 -7 -6 1.27 0.09
-3 -7 6 1.26 0.07
3 -7 -6 1.11 0.09
2 -7 -6 0.49 0.07
2 -7 -6 0.51 0.06
-2 -7 6 0.49 0.06
-2 -7 6 0.56 0.06
1 -7 -6 2.7 0.16
-1 -7 6 2.58 0.15
1 -7 -6 2.58 0.17
-1 -7 6 2.82 0.17
1 -7 -6 2.69 0.15
-1 -7 6 2.42 0.14
0 -7 -6 0.03 0.04
0 -7 6 0.01 0.03
0 -7 6 0.06 0.03
0 -7 -6 0.04 0.03
0 -7 -6 0.08 0.04
0 -7 6 0.06 0.04
-1 -7 -6 3.08 0.18
-1 -7 -6 3.11 0.17
1 -7 6 3.17 0.16
-1 -7 -6 2.98 0.18
1 -7 6 2.81 0.16
1 -7 6 2.61 0.15
2 -7 6 1.1 0.07
-2 -7 -6 1.24 0.08
2 -7 6 1.14 0.07
-2 -7 -6 1.2 0.08
-3 -8 6 0.28 0.03
3 -8 -6 0.3 0.04
-3 -8 6 0.28 0.03
2 -8 -6 1.06 0.08
-2 -8 6 1.03 0.09
-2 -8 6 1.07 0.07
2 -8 -6 0.99 0.09
-1 -8 6 1.59 0.11
-1 -8 6 1.45 0.09
-1 -8 6 1.5 0.1
1 -8 -6 1.58 0.1
1 -8 -6 1.5 0.11
1 -8 -6 1.37 0.11
0 -8 6 0.71 0.07
0 -8 -6 0.79 0.08
0 -8 -6 0.74 0.07
0 -8 -6 0.78 0.07
0 -8 6 0.71 0.07
0 -8 6 0.77 0.06
1 -8 6 0.32 0.04
1 -8 6 0.33 0.04
-1 -8 -6 0.3 0.04
1 -8 6 0.33 0.04
-1 -8 -6 0.32 0.04
2 -8 6 2.83 0.14
-2 -8 -6 3.13 0.17
-2 -9 6 0.97 0.08
-2 -9 6 1.06 0.07
2 -9 -6 0.98 0.08
2 -9 -6 1.03 0.07
1 -9 -6 0.47 0.06
1 -9 -6 0.45 0.05
-1 -9 6 0.38 0.04
1 -9 -6 0.33 0.05
-1 -9 6 0.48 0.06
-1 -9 6 0.44 0.04
0 -9 6 0.2 0.04
0 -9 -6 0.2 0.04
0 -9 6 0.23 0.04
0 -9 6 0.21 0.04
0 -9 -6 0.2 0.04
0 -9 -6 0.26 0.04
-1 -9 -6 0.08 0.03
1 -9 6 0.04 0.02
-1 -9 -6 0.03 0.03
1 -9 6 0.03 0.03
-1 -9 -6 0.04 0.03
-2 -10 6 0.5 0.05
-2 -10 6 0.52 0.05
2 -10 -6 0.5 0.05
2 -10 -6 0.43 0.05
-1 -10 6 1.75 0.11
-1 -10 6 1.79 0.12
1 -10 -6 1.98 0.12
1 -10 -6 1.8 0.11
0 -10 -6 0.57 0.06
0 -10 -6 0.57 0.06
0 -10 6 0.49 0.05
0 -10 6 0.48 0.05
-1 -10 -6 0.4 0.05
1 -10 6 0.31 0.03
2 -11 -6 1.1 0.08
-2 -11 6 1.18 0.08
-2 -11 6 1.23 0.07
2 -11 -6 1.12 0.07
-1 -11 6 0.05 0.02
-1 -11 6 0.05 0.03
1 -11 -6 0.04 0.03
1 -11 -6 0.04 0.03
0 -11 6 0.06 0.02
0 -11 -6 0.05 0.03
0 -11 -6 0 0.03
0 -11 6 0.03 0.02
1 -11 6 0.25 0.03
-1 -11 -6 0.33 0.04
-1 -12 6 0.08 0.02
1 -12 -6 0.08 0.02
1 -12 -6 0.08 0.02
0 -12 6 1.34 0.08
0 -12 -6 1.45 0.09
-2 0 7 49.41 2.38
2 0 -7 50.96 2.82
-2 0 7 51.4 2.82
2 0 -7 51.57 2.55
-1 0 7 0.01 0.05
1 0 -7 0 0.04
-1 0 7 -0.03 0.04
1 0 -7 0.12 0.05
0 0 7 5.33 0.26
0 0 -7 5.28 0.29
0 0 -7 5.35 0.28
0 0 7 4.92 0.26
0 0 7 4.32 0.3
1 0 7 3.46 0.18
-1 0 -7 3.32 0.2
-1 0 -7 3.75 0.2
1 0 7 3.18 0.18
-2 0 -7 0.07 0.03
2 0 7 0.1 0.02
2 0 7 0.11 0.02
-2 0 -7 0.09 0.03
3 -1 -7 2.26 0.15
-3 -1 7 2.2 0.12
3 1 -7 2.4 0.15
-3 1 7 2.3 0.12
2 1 -7 1.87 0.12
2 1 -7 1.68 0.13
-1 -1 7 4.45 0.28
1 -1 -7 4.56 0.25
1 -1 -7 4.53 0.27
-1 -1 7 4.36 0.25
1 1 -7 4.86 0.25
-1 1 7 4.61 0.28
-1 1 7 4.87 0.25
1 1 -7 4.96 0.27
0 -1 7 0.75 0.08
0 -1 -7 0.63 0.08
0 -1 7 0.58 0.06
0 -1 -7 0.55 0.07
0 1 7 0.78 0.08
0 1 -7 0.72 0.08
0 1 7 0.65 0.07
0 1 7 0.5 0.06
1 -1 7 0.71 0.07
-1 -1 -7 0.72 0.08
-1 -1 -7 0.54 0.07
1 -1 7 0.86 0.07
-1 1 -7 0.99 0.08
1 1 7 0.71 0.07
1 1 7 0.78 0.07
-1 1 -7 0.87 0.07
-2 -1 -7 0.17 0.03
2 -1 7 0.19 0.03
-2 -1 -7 0.15 0.03
2 -1 7 0.16 0.02
2 1 7 0.17 0.03
2 1 7 0.19 0.02
-2 1 -7 0.19 0.03
-2 1 -7 0.2 0.03
3 -2 -7 9.25 0.55
-3 -2 7 9.7 0.46
3 2 -7 9.98 0.55
-3 2 7 9.73 0.46
-2 -2 7 2.92 0.18
2 -2 -7 3.57 0.19
-2 -2 7 3.17 0.21
2 -2 -7 3.22 0.21
2 2 -7 3.5 0.21
2 2 -7 3.89 0.19
-2 2 7 3.56 0.22
-2 2 7 3.22 0.18
1 -2 -7 12.41 0.67
1 -2 -7 12.65 0.64
-1 -2 7 12.46 0.7
-1 -2 7 12.27 0.61
0 -2 -7 1.44 0.1
0 -2 -7 1.54 0.11
0 -2 7 1.3 0.11
0 -2 7 1.42 0.1
0 -2 7 1.6 0.1
0 -2 -7 1.6 0.11
0 2 7 1.2 0.11
0 2 7 1.7 0.1
1 -2 7 0.52 0.05
-1 -2 -7 0.53 0.07
-1 -2 -7 0.57 0.06
1 -2 7 0.55 0.06
1 2 7 0.55 0.06
-1 2 -7 0.53 0.06
-1 2 -7 0.62 0.07
1 2 7 0.62 0.06
-2 -2 -7 0.86 0.06
-2 -2 -7 0.88 0.06
2 -2 7 0.74 0.05
2 -2 7 0.76 0.05
-2 2 -7 0.8 0.06
2 2 7 0.83 0.05
2 2 7 0.78 0.05
-2 2 -7 0.82 0.06
3 -3 -7 10.13 0.58
-3 -3 7 10.02 0.49
3 3 -7 10.14 0.58
-3 3 7 10.83 0.49
-2 -3 7 0.22 0.04
2 -3 -7 0.23 0.04
-2 -3 7 0.15 0.04
2 -3 -7 0.2 0.05
-2 3 7 0.25 0.04
-1 -3 7 0.7 0.08
1 -3 -7 0.76 0.07
-1 -3 7 0.75 0.07
1 -3 -7 0.78 0.07
0 -3 -7 3.69 0.2
0 -3 7 3.41 0.19
0 -3 -7 3.72 0.2
0 -3 7 3.36 0.18
0 3 7 3.07 0.21
1 -3 7 1.34 0.09
-1 -3 -7 1.38 0.09
-1 -3 -7 1.44 0.1
1 -3 7 1.28 0.09
-1 3 -7 1.56 0.1
-1 3 -7 1.26 0.09
1 3 7 1.1 0.09
1 3 7 1.45 0.09
-2 -3 -7 0.11 0.03
-2 -3 -7 0.13 0.02
2 -3 7 0.15 0.02
2 3 7 0.14 0.02
-2 3 -7 0.13 0.02
-2 3 -7 0.09 0.02
3 -4 -7 0.63 0.06
-3 -4 7 0.59 0.05
-3 4 7 0.66 0.05
3 4 -7 0.61 0.06
-2 -4 7 0.07 0.03
2 -4 -7 0.11 0.04
2 -4 -7 0.08 0.04
-2 -4 7 0.11 0.04
-1 -4 7 -0.04 0.03
1 -4 -7 -0.01 0.03
-1 -4 7 0.01 0.03
1 -4 -7 0.05 0.04
0 -4 -7 1.3 0.1
0 -4 7 1.18 0.08
0 -4 7 1.2 0.09
0 -4 -7 1.35 0.09
1 -4 7 0.01 0.03
-1 -4 -7 -0.01 0.03
-1 -4 -7 0.02 0.03
1 -4 7 0 0.02
1 4 7 0.01 0.02
-1 4 -7 0 0.03
2 4 7 0.22 0.03
-3 -5 7 0.73 0.05
3 -5 -7 0.76 0.06
3 5 -7 0.72 0.06
-3 5 7 0.75 0.05
-2 -5 7 0.36 0.05
2 -5 -7 0.41 0.05
2 -5 -7 0.43 0.05
-2 -5 7 0.41 0.04
-1 -5 7 2.59 0.15
1 -5 -7 2.74 0.15
-1 -5 7 2.56 0.17
1 -5 -7 2.66 0.16
0 -5 -7 0.75 0.07
0 -5 7 0.69 0.06
0 -5 -7 0.84 0.07
0 -5 7 0.75 0.07
-1 -5 -7 0.68 0.06
-1 -5 -7 0.79 0.07
1 -5 7 0.75 0.06
-3 -6 7 0.3 0.03
3 -6 -7 0.32 0.04
3 6 -7 0.31 0.04
-3 6 7 0.34 0.04
-2 -6 7 0.19 0.03
2 -6 -7 0.18 0.04
-2 -6 7 0.21 0.04
2 -6 -7 0.21 0.04
1 -6 -7 3.19 0.17
-1 -6 7 2.97 0.17
1 -6 -7 3.15 0.18
-1 -6 7 2.99 0.19
0 -6 -7 1.26 0.09
0 -6 7 1.11 0.08
0 -6 7 1.25 0.09
0 -6 -7 1.4 0.09
1 -6 7 0.69 0.06
-1 -6 -7 0.78 0.06
1 -6 7 0.61 0.05
2 -7 -7 0.31 0.04
-2 -7 7 0.3 0.03
2 -7 -7 0.25 0.04
-2 -7 7 0.31 0.04
-1 -7 7 0.25 0.04
1 -7 -7 0.44 0.05
1 -7 -7 0.29 0.04
-1 -7 7 0.29 0.04
0 -7 7 0.02 0.03
0 -7 -7 0.02 0.03
0 -7 -7 0 0.03
0 -7 7 0.02 0.03
1 -7 7 0.1 0.03
-1 -7 -7 0.09 0.03
-2 -8 7 2.27 0.12
2 -8 -7 2.4 0.13
2 -8 -7 2.19 0.14
-2 -8 7 2.4 0.14
-1 -8 7 0.53 0.05
-1 -8 7 0.57 0.06
1 -8 -7 0.59 0.06
1 -8 -7 0.64 0.06
0 -8 7 1.01 0.07
0 -8 7 1.1 0.07
0 -8 -7 1.13 0.08
0 -8 -7 1.23 0.08
-1 -8 -7 1.95 0.11
1 -8 7 1.68 0.1
-2 -9 7 0.78 0.05
2 -9 -7 0.84 0.06
-2 -9 7 0.84 0.06
1 -9 -7 0.57 0.05
-1 -9 7 0.57 0.06
-1 -9 7 0.56 0.05
1 -9 -7 0.63 0.05
0 -9 -7 0.72 0.06
0 -9 7 0.64 0.05
0 -9 7 0.59 0.05
1 -10 -7 0.07 0.02
-1 -10 7 0.07 0.02
-1 -10 7 0.02 0.02
0 -10 -7 0.01 0.02
0 -10 7 0.01 0.02
2 0 -8 0.03 0.03
2 0 -8 0.03 0.03
-2 0 8 0.01 0.02
-2 0 8 0.04 0.03
1 0 -8 0.02 0.03
-1 0 8 -0.03 0.03
-1 0 8 0 0.03
1 0 -8 0.03 0.03
0 0 8 0.67 0.06
0 0 -8 0.82 0.07
0 0 8 0.81 0.06
1 0 8 0.02 0.02
-1 0 -8 -0.01 0.02
-2 -1 8 0.07 0.03
2 -1 -8 0.09 0.03
-2 1 8 0.07 0.02
2 1 -8 0.1 0.03
-2 1 8 0.07 0.03
-1 -1 8 0.32 0.04
1 -1 -8 0.4 0.04
-1 -1 8 0.35 0.04
1 -1 -8 0.39 0.04
-1 1 8 0.36 0.05
1 1 -8 0.43 0.04
1 1 -8 0.4 0.04
-1 1 8 0.39 0.04
0 -1 -8 0.52 0.05
0 -1 8 0.46 0.05
0 -1 8 0.35 0.04
0 1 -8 0.36 0.04
0 1 8 0.43 0.04
0 1 -8 0.58 0.06
0 1 8 0.52 0.05
-1 -1 -8 0.03 0.02
1 -1 8 0.04 0.02
1 1 8 0.06 0.02
-1 1 -8 0.01 0.02
2 -2 -8 0.09 0.03
-2 -2 8 0.07 0.03
-2 2 8 0.06 0.03
2 2 -8 0.06 0.03
-1 -2 8 0.86 0.08
1 -2 -8 1.01 0.07
-1 -2 8 0.89 0.07
1 -2 -8 1.02 0.08
1 2 -8 0.95 0.07
-1 2 8 0.94 0.08
-1 2 8 0.94 0.07
1 2 -8 1 0.07
0 -2 -8 0.19 0.03
0 -2 8 0.19 0.03
0 -2 -8 0.26 0.04
0 2 -8 0.19 0.03
0 2 8 0.22 0.03
0 2 8 0.15 0.03
0 2 -8 0.22 0.03
1 -2 8 0.49 0.04
-1 -2 -8 0.57 0.05
1 2 8 0.54 0.04
-1 2 -8 0.53 0.05
2 -3 -8 0.86 0.06
-2 -3 8 0.77 0.07
2 3 -8 0.81 0.06
-2 3 8 0.74 0.07
-1 -3 8 0.89 0.07
-1 -3 8 0.85 0.07
1 -3 -8 0.89 0.07
1 -3 -8 1 0.07
-1 3 8 0.79 0.08
1 3 -8 0.89 0.07
1 3 -8 0.95 0.07
-1 3 8 0.84 0.07
0 -3 8 0.36 0.04
0 -3 -8 0.42 0.05
0 3 8 0.33 0.04
0 3 -8 0.4 0.05
-1 -3 -8 2.19 0.12
1 -3 8 1.93 0.1
-1 3 -8 1.92 0.12
1 3 8 1.93 0.1
2 -4 -8 2.2 0.12
-2 -4 8 2.1 0.13
-2 4 8 1.99 0.13
2 4 -8 1.99 0.12
-1 -4 8 0.11 0.03
-1 -4 8 0.14 0.03
1 -4 -8 0.15 0.03
1 -4 -8 0.13 0.03
-1 4 8 0.08 0.03
1 4 -8 0.14 0.03
-1 4 8 0.14 0.03
1 4 -8 0.11 0.03
0 -4 -8 0.61 0.06
0 -4 8 0.54 0.05
0 4 8 0.47 0.05
0 4 -8 0.54 0.05
1 -4 8 0.35 0.03
-1 4 -8 0.33 0.04
1 4 8 0.34 0.04
-2 -5 8 0.57 0.05
2 -5 -8 0.58 0.05
2 5 -8 0.58 0.05
-2 5 8 0.55 0.06
1 -5 -8 1.54 0.09
-1 -5 8 1.38 0.08
1 -5 -8 1.54 0.09
-1 -5 8 1.36 0.1
1 5 -8 1.33 0.08
-1 5 8 1.33 0.1
-1 5 8 1.36 0.09
1 5 -8 1.33 0.09
0 -5 8 1.07 0.07
0 -5 -8 1.16 0.08
0 5 8 1 0.07
0 5 -8 1.03 0.07
-2 -6 8 0.88 0.07
2 -6 -8 0.96 0.06
-2 6 8 0.98 0.07
2 6 -8 0.92 0.06
1 -6 -8 2.54 0.13
-1 -6 8 2.23 0.12
1 -6 -8 2.45 0.13
-1 -6 8 2.25 0.14
1 6 -8 2.23 0.13
-1 6 8 2.28 0.14
1 6 -8 2.28 0.13
-1 6 8 2.23 0.12
0 -6 8 0 0.02
0 -6 -8 0.03 0.02
0 6 8 -0.01 0.02
0 6 -8 0.01 0.02
-1 -7 8 1.08 0.08
-1 -7 8 1.09 0.07
1 -7 -8 1.18 0.07
1 -7 -8 1.22 0.07
-1 7 8 1.2 0.08
-1 7 8 1.16 0.07
1 7 -8 1.14 0.07
1 7 -8 1.15 0.07
0 -7 8 1.71 0.1
0 -7 -8 1.97 0.11
0 7 8 1.85 0.1
0 7 -8 1.75 0.11
