#------------------------------------------------------------------------------
#$Date: 2016-03-03 17:54:24 +0200 (Thu, 03 Mar 2016) $
#$Revision: 177185 $
#$URL: svn://www.crystallography.net/cod/cif/3/50/00/3500034.cif $
#------------------------------------------------------------------------------
#
# This file is available in the Crystallography Open Database (COD),
# http://www.crystallography.net/
#
# All data on this site have been placed in the public domain by the
# contributors.
#
data_3500034
loop_
_publ_author_name
'Thierry Maris'
_publ_section_references
;
Dolomanov, O.V., Bourhis, L.J., Gildea, R.J, Howard, J.A.K. & Puschmann, H.
 (2009), J. Appl. Cryst. 42, 339-341.

Sheldrick, G.M. (2008). Acta Cryst. A64, 112-122.

Sheldrick, G.M. (2015). Acta Cryst. A71, 3-8.
;
_journal_name_full               'Personal communication to COD'
_journal_year                    2016
_chemical_formula_moiety         'C9 H7 N O2'
_chemical_formula_sum            'C9 H7 N O2'
_chemical_formula_weight         161.16
_chemical_name_common            'Benzoic acid, 4-cyano-, methyl ester'
_chemical_name_systematic        'Methyl p-cyanobenzoate'
_space_group_crystal_system      monoclinic
_space_group_IT_number           14
_space_group_name_Hall           '-P 2ybc'
_space_group_name_H-M_alt        'P 1 21/c 1'
_symmetry_space_group_name_Hall  '-P 2ybc'
_symmetry_space_group_name_H-M   'P 1 21/c 1'
_atom_sites_solution_hydrogens   difmap
_audit_creation_date             2015-12-16
_audit_creation_method
;
Olex2 1.2
(compiled 2015.09.30 svn.r3233 for OlexSys, GUI svn.r5103)
;
_cell_angle_alpha                90
_cell_angle_beta                 115.2050(10)
_cell_angle_gamma                90
_cell_formula_units_Z            4
_cell_length_a                   7.1996(3)
_cell_length_b                   17.0679(7)
_cell_length_c                   7.1221(3)
_cell_measurement_reflns_used    9911
_cell_measurement_temperature    100
_cell_measurement_theta_max      60.686
_cell_measurement_theta_min      2.252
_cell_volume                     791.85(6)
_computing_cell_refinement
'SAINT (2013) V8.35A; Integration Software for Single Crystal Data. Bruker AXS Inc., Madison, WI 53719-1173.'
_computing_data_collection
;
APEX 2 (2013) Bruker AXS Inc., Madison, WI 53719-1173.
;
_computing_data_reduction
'SAINT (2013) V8.35A; Integration Software for Single Crystal Data. Bruker AXS Inc., Madison, WI 53719-1173.'
_computing_molecular_graphics    'Olex2 (Dolomanov et al., 2009)'
_computing_publication_material  'Olex2 (Dolomanov et al., 2009)'
_computing_structure_refinement  'XL (Sheldrick, 2008)'
_computing_structure_solution    'XT (Sheldrick, 2015)'
_diffrn_ambient_temperature      100
_diffrn_detector                 'CMOS Area detector'
_diffrn_detector_area_resol_mean 10.24
_diffrn_detector_type            'Bruker Photon 100 CMOS Detector'
_diffrn_measured_fraction_theta_full 0.983
_diffrn_measured_fraction_theta_max 0.987
_diffrn_measurement_device       'k-geometry diffractometer'
_diffrn_measurement_device_type  'Bruker Venture Metaljet'
_diffrn_measurement_method       '\w and \f scans'
_diffrn_radiation_collimation    'Focusing mirrors'
_diffrn_radiation_monochromator  'Helios MX Mirror Optics'
_diffrn_radiation_probe          x-ray
_diffrn_radiation_type           GaK\a
_diffrn_radiation_wavelength     1.34139
_diffrn_reflns_av_R_equivalents  0.0350
_diffrn_reflns_av_unetI/netI     0.0282
_diffrn_reflns_laue_measured_fraction_full 0.983
_diffrn_reflns_laue_measured_fraction_max 0.987
_diffrn_reflns_limit_h_max       9
_diffrn_reflns_limit_h_min       -9
_diffrn_reflns_limit_k_max       22
_diffrn_reflns_limit_k_min       -22
_diffrn_reflns_limit_l_max       9
_diffrn_reflns_limit_l_min       -9
_diffrn_reflns_number            11724
_diffrn_reflns_point_group_measured_fraction_full 0.983
_diffrn_reflns_point_group_measured_fraction_max 0.987
_diffrn_reflns_theta_full        53.594
_diffrn_reflns_theta_max         60.655
_diffrn_reflns_theta_min         5.910
_diffrn_source                   'Metal Jet'
_diffrn_source_target            Ga
_diffrn_source_type              'Gallium Liquid Metal Jet Source'
_exptl_absorpt_coefficient_mu    0.517
_exptl_absorpt_correction_T_max  0.7519
_exptl_absorpt_correction_T_min  0.6326
_exptl_absorpt_correction_type   multi-scan
_exptl_absorpt_process_details
;
SADABS-2014/5 (Bruker,2014/5) was used for absorption correction.
wR2(int) was 0.1399 before and 0.0493 after correction.
The Ratio of minimum to maximum transmission is 0.8413.
The \l/2 correction factor is 0.00150.
;
_exptl_crystal_colour            'clear light colourless'
_exptl_crystal_colour_lustre     clear
_exptl_crystal_colour_modifier   light
_exptl_crystal_colour_primary    colourless
_exptl_crystal_density_diffrn    1.352
_exptl_crystal_description       Block
_exptl_crystal_F_000             336
_exptl_crystal_preparation       'extracted from the commercial bottle'
_exptl_crystal_size_max          0.37
_exptl_crystal_size_mid          0.2
_exptl_crystal_size_min          0.15
_exptl_special_details
;
X-ray crystallographic data for I were collected from a single crystal
sample, which was mounted on a loop fiber. Data were collected using
a Bruker Venture diffractometer equipped with a Photon 100 CMOS Detector,
a Helios MX optics and a Kappa goniometer. The crystal-to-detector distance 
was 4.0 cm, and the data collection was carried out in 1024 x 1024 pixel mode.
;
_geom_special_details
;
 All esds (except the esd in the dihedral angle between two l.s. planes)
 are estimated using the full covariance matrix.  The cell esds are taken
 into account individually in the estimation of esds in distances, angles
 and torsion angles; correlations between esds in cell parameters are only
 used when they are defined by crystal symmetry.  An approximate (isotropic)
 treatment of cell esds is used for estimating esds involving l.s. planes.
;
_refine_diff_density_max         0.352
_refine_diff_density_min         -0.201
_refine_diff_density_rms         0.047
_refine_ls_extinction_coef       .
_refine_ls_extinction_method     none
_refine_ls_goodness_of_fit_ref   1.097
_refine_ls_hydrogen_treatment    refall
_refine_ls_matrix_type           full
_refine_ls_number_parameters     137
_refine_ls_number_reflns         1795
_refine_ls_number_restraints     0
_refine_ls_restrained_S_all      1.097
_refine_ls_R_factor_all          0.0390
_refine_ls_R_factor_gt           0.0382
_refine_ls_shift/su_max          0.001
_refine_ls_shift/su_mean         0.000
_refine_ls_structure_factor_coef Fsqd
_refine_ls_weighting_details
'w=1/[\s^2^(Fo^2^)+(0.0616P)^2^+0.1550P] where P=(Fo^2^+2Fc^2^)/3'
_refine_ls_weighting_scheme      calc
_refine_ls_wR_factor_gt          0.1034
_refine_ls_wR_factor_ref         0.1047
_reflns_Friedel_coverage         0.000
_reflns_friedel_fraction_full    .
_reflns_friedel_fraction_max     .
_reflns_number_gt                1743
_reflns_number_total             1795
_reflns_special_details
;
 Reflections were merged by SHELXL according to the crystal
 class for the calculation of statistics and refinement.
 
 _reflns_Friedel_fraction is defined as the number of unique
 Friedel pairs measured divided by the number that would be
 possible theoretically, ignoring centric projections and
 systematic absences.
;
_reflns_threshold_expression     'I > 2\s(I)'
_cod_data_source_file            CNPhCOMe.cif
_cod_data_source_block           cnphco
_cod_depositor_comments
;
The following automatic conversions were performed:

'_diffrn_radiation_probe' value 'X-ray' changed to 'x-ray' according
to the built-in table from CIF Core dictionary named 'cif_core.dic'
version 2.4.1 from 2010-06-29.

Automatic conversion script
Id: cif_fix_values 4287 2015-11-16 14:04:37Z antanas 
;
_cod_database_code               3500034
_shelx_space_group_comment
;
The symmetry employed for this shelxl refinement is uniquely defined
by the following loop, which should always be used as a source of
symmetry information in preference to the above space-group names.
They are only intended as comments.
;
_shelx_estimated_absorpt_t_max   0.927
_shelx_estimated_absorpt_t_min   0.832
_olex2_refinement_description
;
;
_shelx_res_file
;
    cnphco.res created by SHELXL-2014/7

TITL cnphco_a.res in P2(1)/c
REM Old TITL CNPHCO in P21/c #14
REM SHELXT solution in P2(1)/c
REM R1 0.105, Rweak 0.003, Alpha 0.023, Orientation as input
REM Formula found by SHELXT: C9 N O2
CELL 1.34139 7.1996 17.0679 7.1221 90 115.205 90
ZERR 4 0.0003 0.0007 0.0003 0 0.001 0
LATT 1
SYMM -X,0.5+Y,0.5-Z
SFAC C H N O
DISP C 0.014 0.007 57.748
DISP H -0 0 0.648
DISP N 0.025 0.014 110.512
DISP O 0.039 0.025 193.954
UNIT 36 28 4 8

L.S. 22 0 0
PLAN  5
SIZE 0.15 0.2 0.37
TEMP 0
BOND $H
LIST 6
fmap 2 53
MORE -1
CONF
ACTA
REM <olex2.extras>
REM <HklSrc "%.\\CNPHCO.hkl">
REM </olex2.extras>

WGHT    0.061600    0.155000
FVAR       1.64808
O1    4    0.164331    0.332738    0.325335    11.00000    0.03747    0.01557 =
         0.02078   -0.00232    0.01535   -0.00267
O2    4    0.173527    0.412157    0.077574    11.00000    0.03211    0.02544 =
         0.01854    0.00097    0.01094   -0.00157
N1    3    0.384662    0.697360    0.964617    11.00000    0.03578    0.02421 =
         0.04084   -0.00993    0.01425   -0.00073
C1    1    0.350200    0.649446    0.840631    11.00000    0.02218    0.01997 =
         0.03138   -0.00181    0.01079    0.00045
C2    1    0.306675    0.587570    0.689633    11.00000    0.01626    0.01680 =
         0.02490   -0.00215    0.00797    0.00019
C3    1    0.286008    0.510956    0.748754    11.00000    0.01945    0.01948 =
         0.02015    0.00019    0.00860    0.00012
C4    1    0.246734    0.450703    0.606886    11.00000    0.01918    0.01579 =
         0.01957    0.00167    0.00838   -0.00034
C5    1    0.225219    0.466500    0.406181    11.00000    0.01457    0.01681 =
         0.01848    0.00091    0.00644    0.00054
C6    1    0.243891    0.543211    0.347806    11.00000    0.01805    0.01927 =
         0.02092    0.00459    0.00776    0.00141
C7    1    0.285714    0.604051    0.489278    11.00000    0.01927    0.01549 =
         0.02773    0.00342    0.00903    0.00086
C8    1    0.185014    0.402594    0.250423    11.00000    0.01605    0.01874 =
         0.01812    0.00144    0.00682    0.00091
C9    1    0.136784    0.266915    0.187539    11.00000    0.03834    0.01924 =
         0.02475   -0.00652    0.01634   -0.00272
H9A   2    0.257668    0.263185    0.157026    11.00000    0.02699
H9B   2    0.129276    0.220644    0.270129    11.00000    0.03729
H3    2    0.295921    0.499456    0.886742    11.00000    0.02391
H9C   2    0.011441    0.274057    0.059442    11.00000    0.03169
H6    2    0.225967    0.552399    0.205802    11.00000    0.02931
H7    2    0.301998    0.657774    0.451435    11.00000    0.02918
H4    2    0.233596    0.398525    0.649711    11.00000    0.02953
HKLF 4

REM  cnphco_a.res in P2(1)/c
REM R1 =  0.0382 for    1743 Fo > 4sig(Fo)  and  0.0390 for all    1795 data
REM    137 parameters refined using      0 restraints

END

WGHT      0.0616      0.1542

REM Highest difference peak  0.352,  deepest hole -0.201,  1-sigma level  0.047
Q1    1   0.2085  0.4363  0.3308  11.00000  0.05    0.35
Q2    1   0.2336  0.4607  0.5055  11.00000  0.05    0.31
Q3    1   0.2905  0.4790  0.6828  11.00000  0.05    0.28
Q4    1   0.2927  0.5982  0.5961  11.00000  0.05    0.26
Q5    1   0.2478  0.5769  0.4203  11.00000  0.05    0.26
;
_shelx_res_checksum              20152
_shelx_hkl_file
;
   0   0   1    0.10    0.10
   0   0   1    0.40    0.10
   0   0   3    0.00    0.20
   0   0   3    0.00    0.10
   0   0  -4   58.59    2.60
   0   0   4   64.39    2.60
   0   0  -4   57.09    2.60
   0   0   4   61.69    2.70
   0   0   4   56.09    2.60
   0   0   5    0.10    0.30
   0   0   5   -0.10    0.40
   0   0   5    0.50    0.30
   0   0   6    2.20    0.40
   0   0   6    2.00    0.50
   0   0   7   -0.40    0.40
   0   0   7    0.00    0.50
   0   0   7   -0.90    0.60
   0   0   8    2.30    0.60
   0   0   8    3.50    0.70
   0  -1   0    1.30    1.40
   0   1   2 2071.69  139.09
   0  -1  -2 2343.27  117.59
   0   1   4  784.62   35.20
   0   1  -4  806.72   35.20
   0   1   4  870.71   35.30
   0  -1  -4  820.42   35.20
   0  -1   4  861.71   35.30
   0  -1   4  912.81   35.30
   0  -1   4  807.42   35.20
   0   1   5   79.69    3.80
   0   1   5   82.99    3.60
   0   1   5   80.09    3.60
   0  -1   5   79.29    3.60
   0  -1  -5   78.39    3.60
   0  -1   5   87.29    4.00
   0  -1   5   86.39    3.60
   0   1   6   20.10    1.30
   0   1   6   22.70    1.30
   0   1   6   21.50    1.20
   0  -1   6   22.80    1.20
   0  -1   6   22.50    1.30
   0  -1   6   21.60    1.30
   0  -1   6   19.50    1.20
   0   1   7   84.79    4.00
   0   1   7   90.29    4.00
   0   1   7   88.19    3.90
   0  -1   7   86.79    4.00
   0  -1   7   86.89    4.00
   0  -1   7   88.49    3.90
   0   1   8   12.10    1.10
   0  -1   8   10.80    1.10
   0   2   2  131.39    5.60
   0   2  -2  123.29    5.50
   0  -2   2  138.69    6.90
   0   2  -3    9.10    0.60
   0   2   3   10.00    0.70
   0   2   3   10.30    0.60
   0  -2   3    9.80    0.60
   0  -2  -3    9.30    0.60
   0  -2   3   10.50    1.70
   0   2   4  206.18    8.10
   0   2   4  189.78    8.20
   0   2  -4  181.48    8.10
   0   2   4  182.98    8.10
   0  -2   4  206.88    8.10
   0  -2  -4  187.78    8.10
   0  -2   4  177.28    8.10
   0  -2   4  191.98    8.20
   0   2   5   73.09    3.20
   0   2   5   69.49    3.10
   0   2   5   73.89    3.30
   0  -2   5   75.39    3.20
   0  -2  -5   67.19    3.20
   0  -2   5   71.79    3.30
   0  -2  -5   72.59    3.20
   0   2   6  985.00   42.50
   0   2   6 1042.70   42.50
   0   2   6 1009.90   42.60
   0  -2   6  953.70   42.40
   0  -2   6  994.30   42.40
   0  -2   6 1007.40   42.50
   0  -2   6 1069.59   42.50
   0   2   7   54.39    2.50
   0   2   7   53.29    2.60
   0  -2   7   53.19    2.60
   0  -2   7   52.69    2.50
   0  -2   7   53.29    2.60
   0   2   8  246.98   10.80
   0   2   8  255.57   10.80
   0  -2   8  249.18   10.70
   0  -3   0    0.10    0.50
   0   3   1 3947.60  185.18
   0   3  -2  446.66   18.50
   0   3   2  423.76   18.60
   0   3   2  452.05   18.60
   0   3   3    6.80    0.50
   0   3  -3    6.20    0.40
   0   3   3    7.10    0.60
   0  -3   3    7.10    1.70
   0  -3   3    8.00    0.50
   0  -3  -3    6.60    0.50
   0  -3   3    6.20    0.50
   0   3   4 1222.18   47.30
   0   3   4 1054.09   47.20
   0  -3   4 1098.39   47.30
   0   3   5  375.56   15.90
   0   3   5  366.86   15.80
   0   3   5  352.06   15.80
   0  -3   5  406.46   15.80
   0  -3   5  373.36   15.90
   0  -3   5  361.26   15.80
   0  -3  -5  377.26   15.80
   0   3   6  308.67   13.20
   0   3   6  324.27   13.10
   0  -3   6  281.07   13.00
   0  -3   6  306.07   13.10
   0  -3   6  323.97   13.10
   0  -3   6  295.57   13.00
   0   3   7    0.10    0.50
   0   3   7    0.80    0.50
   0  -3   7    0.60    0.50
   0  -3   7   -0.20    0.50
   0   3   8    2.80    0.70
   0   3   8    4.30    0.70
   0  -3   8    3.20    0.60
   0  -3   8    3.60    1.00
   0  -4   0  375.66   17.50
   0   4  -1 1325.17   73.39
   0   4   1 1153.98   73.99
   0  -4  -1 1397.96   75.29
   0   4   2  298.37   12.60
   0   4  -2  298.27   12.60
   0  -4   2  298.77   12.60
   0  -4   2  322.07   14.70
   0  -4   2  294.97   12.60
   0  -4   2  273.87   12.60
   0   4  -3  259.37   11.10
   0   4   3  270.47   11.20
   0   4   3  269.17   11.30
   0  -4  -3  251.27   11.20
   0  -4   3  263.27   11.20
   0  -4   3  291.37   13.70
   0  -4   3  236.08   11.20
   0  -4   3  275.47   11.20
   0   4   4   54.09    2.50
   0   4   4   56.39    2.70
   0   4   4   54.69    2.50
   0   4   4   60.49    2.60
   0  -4   4   60.69    2.60
   0  -4  -4   58.29    2.60
   0  -4   4   57.19    2.60
   0  -4   4   56.29    2.60
   0   4   5 1161.68   49.60
   0   4   5 1005.60   49.60
   0   4   5 1245.18   49.60
   0   4   5 1195.18   49.70
   0  -4  -5 1171.18   49.60
   0  -4   5 1177.48   49.60
   0  -4   5 1172.08   49.60
   0  -4   5 1305.77   49.70
   0   4   6  155.18    6.50
   0   4   6  146.59    6.70
   0  -4   6  149.69    6.60
   0  -4   6  159.58    6.60
   0  -4  -6  156.78    6.70
   0  -4   6  139.19    6.50
   0   4   7  485.85   20.70
   0   4   7  489.95   20.60
   0  -4   7  493.55   20.60
   0  -4   7  473.25   20.60
   0   4   8    9.40    1.00
   0   4   8    9.40    1.30
   0  -4   8    9.70    1.40
   0  -4   8    8.90    1.50
   0  -5   0   -0.20    0.70
   0   5   1  540.25   22.80
   0  -5  -1  550.04   25.40
   0  -5   1  537.75   22.80
   0   5  -2 2340.17  130.99
   0  -5  -2 2471.95  133.99
   0   5   3  488.05   20.70
   0   5   3  485.55   20.80
   0  -5   3  507.35   20.70
   0  -5   3  463.35   20.70
   0  -5   3  538.65   23.90
   0  -5  -3  465.75   20.70
   0  -5   3  492.35   20.70
   0   5   4  248.68   10.30
   0   5   4  250.47   10.10
   0   5   4  225.08   10.10
   0   5   4  239.48   10.20
   0  -5   4  231.48   10.20
   0  -5   4  248.78   10.20
   0  -5   4  220.68   10.10
   0  -5  -4  239.18   10.10
   0  -5   4  244.68   13.40
   0   5   5 1115.89   47.20
   0   5   5 1155.18   47.10
   0  -5   5 1050.09   47.10
   0  -5   5 1100.39   47.10
   0  -5  -5 1109.99   47.10
   0  -5   5 1184.48   47.20
   0   5   6    1.00    0.50
   0   5   6    2.30    0.50
   0  -5   6    2.60    0.50
   0  -5  -6    1.40    0.60
   0  -5   6    1.70    0.50
   0  -5   6    1.70    0.40
   0   5   7   77.99    4.30
   0   5   7   88.39    3.90
   0  -5   7   88.89    3.90
   0  -5   8    6.70    1.20
   0   6   0 1596.84   91.99
   0  -6   0 1507.35   90.69
   0   6   1  538.15   21.30
   0  -6  -1  495.25   24.20
   0  -6  -1  484.05   21.30
   0  -6   1  499.85   21.30
   0   6   2  263.07   10.80
   0  -6  -2  237.78   10.80
   0  -6  -2  218.48   13.80
   0  -6   2  287.67   10.80
   0  -6   2  282.47   13.80
   0  -6   2  250.37   10.90
   0  -6   2  249.78   10.80
   0   6   3   73.29    3.30
   0   6  -3   74.49    3.20
   0   6   3   73.59    3.30
   0  -6   3   76.29    3.30
   0  -6   3   70.69    3.30
   0  -6   3   76.29    3.30
   0  -6  -3   75.69    3.20
   0  -6  -3   70.29    3.30
   0  -6   3   83.19    6.10
   0   6   4   60.69    2.80
   0   6   4   62.59    2.90
   0  -6   4   64.89    2.80
   0  -6  -4   61.19    2.80
   0  -6   4   59.89    2.80
   0  -6   4   63.79    5.90
   0  -6   4   62.99    2.80
   0   6   5  441.16   18.60
   0   6   5  441.96   18.70
   0  -6   5  463.85   18.60
   0  -6  -5  438.56   18.50
   0  -6   5  434.26   18.60
   0  -6   5  409.56   18.50
   0   6   6  163.78    7.30
   0   6   6  169.48    7.20
   0  -6  -6  166.58    7.20
   0  -6   6  173.48    7.20
   0  -6   6  166.58    7.20
   0  -6   6  153.38    7.10
   0   6   7   39.50    2.00
   0   6   7   39.50    2.20
   0  -6   7   38.60    2.00
   0  -6   7   39.20    2.00
   0   6   8   13.80    1.10
   0  -7   0   -1.10    0.20
   0  -7   0   -0.90    0.20
   0  -7  -1  640.64   27.50
   0  -7  -1  667.23   31.30
   0  -7   1  655.93   27.50
   0   7   2  428.06   17.60
   0   7  -2  442.86   17.50
   0  -7   2  393.26   17.60
   0  -7  -2  363.26   21.30
   0  -7  -2  405.96   17.60
   0  -7   2  462.75   21.30
   0  -7   2  423.86   17.60
   0   7  -3  341.17   14.60
   0   7   3  350.36   14.70
   0   7   3  352.56   14.80
   0  -7   3  374.56   18.70
   0  -7   3  328.07   14.70
   0  -7   3  356.06   14.70
   0  -7   3  369.86   14.70
   0  -7  -3  327.97   14.70
   0  -7  -3  331.27   14.70
   0   7   4    6.30    0.60
   0   7   4    5.60    0.70
   0  -7   4    6.20    0.60
   0  -7   4    4.90    0.50
   0  -7   4    6.70    0.60
   0  -7  -4    4.50    0.60
   0  -7   4    5.00    2.80
   0  -7  -4    5.40    0.50
   0   7   5    0.80    0.30
   0   7   5    1.20    0.40
   0   7   5    0.10    0.40
   0  -7   5    1.70    0.40
   0  -7   5    0.80    0.40
   0  -7   5    0.70    0.40
   0  -7  -5    0.60    0.40
   0   7   6   88.49    3.90
   0   7   6   87.19    4.10
   0  -7   6   90.39    4.00
   0  -7  -6   88.89    3.90
   0  -7   6   83.99    3.90
   0  -7   6   83.99    3.90
   0   7   7  133.49    6.10
   0   7   7  135.79    5.90
   0  -7   7  138.09    6.20
   0  -8   0  858.81   39.00
   0  -8   0  990.30   39.00
   0   8   1  560.74   23.80
   0  -8   1  612.34   27.90
   0  -8   1  567.34   23.80
   0  -8  -1  554.64   28.00
   0  -8  -1  559.84   23.80
   0  -8   1  542.55   23.90
   0   8   2  710.93   29.50
   0  -8  -2  673.53   29.50
   0  -8   2  708.33   29.60
   0  -8  -2  630.94   34.10
   0  -8   2  781.22   34.10
   0   8   3   92.29    4.10
   0   8   3   96.79    4.20
   0  -8  -3   88.29    4.10
   0  -8   3   92.79    4.10
   0  -8  -3   91.39    4.10
   0  -8   3  103.89    7.90
   0   8   4  571.44   23.60
   0   8   4  545.25   23.80
   0  -8  -4  568.94   23.60
   0  -8  -4  511.75   23.50
   0  -8   4  554.24   23.80
   0  -8   4  545.85   23.60
   0  -8   4  582.04   29.20
   0  -8   4  591.84   23.60
   0   8   5  157.28    6.80
   0   8   5  161.28    7.00
   0   8   5  158.28    6.90
   0  -8  -5  155.88    6.80
   0  -8   5  157.68    6.90
   0  -8   5  161.78    6.90
   0  -8   5  155.48    6.80
   0   8   6   13.00    1.20
   0   8   6   13.10    1.00
   0  -8   6   12.00    0.90
   0  -8  -6   13.00    1.00
   0  -8   6   14.50    1.00
   0   8   7    2.40    0.70
   0   8   7    3.30    0.70
   0  -8   7    4.60    0.80
   0   9   0    0.00    0.10
   0  -9   0    0.40    0.20
   0  -9   0    0.20    1.30
   0  -9   0    0.30    0.20
   0  -9  -1 1273.37   53.49
   0   9   2    8.10    0.50
   0   9   2    7.20    0.50
   0  -9   2    9.60    0.70
   0  -9  -2    8.50    0.60
   0  -9  -2    8.10    0.50
   0  -9  -2    7.70    3.10
   0  -9   2    9.00    2.80
   0   9   3 1696.93   70.79
   0   9   3 1699.73   70.89
   0  -9  -3 1662.13   70.79
   0   9   4 3061.19  122.19
   0   9   4 3010.80  122.09
   0  -9  -4 2654.23  121.99
   0  -9   4 2904.71  122.09
   0   9   5   71.79    3.30
   0   9   5   72.59    3.50
   0   9   5   73.59    3.40
   0  -9   5   71.39    3.30
   0  -9  -5   74.79    3.30
   0  -9   5   74.79    3.40
   0   9   6   10.50    0.90
   0   9   6    9.40    1.20
   0  -9   6   10.60    0.90
   0  -9  -6   10.30    0.90
   0  -9   6    9.60    0.90
   0   9   7   28.20    1.80
   0   9   7   29.80    1.60
   0  -9   7   28.90    1.60
   0  10   0  243.48   10.50
   0 -10   0  230.28   10.60
   0 -10   0  280.47   10.60
   0 -10   0  237.98   15.20
   0  10   1  255.37   12.30
   0  10   1  293.07   12.30
   0 -10   1  312.77   17.40
   0 -10   1  286.87   12.30
   0 -10   1  307.57   12.30
   0 -10  -1  288.87   17.60
   0 -10  -1  291.07   12.30
   0  10   2  380.46   16.00
   0  10   2  357.16   16.00
   0 -10  -2  383.36   16.00
   0 -10   2  392.46   16.10
   0 -10  -2  338.57   21.60
   0 -10  -2  378.26   16.00
   0 -10   2  383.26   16.20
   0 -10   2  423.66   21.80
   0  10   3   20.00    1.10
   0  10   3   19.10    1.00
   0 -10   3   20.40    1.10
   0 -10  -3   20.70    1.10
   0 -10   3   21.50    4.40
   0 -10  -3   19.90    1.10
   0  10   4 2708.63  112.89
   0  10   4 2690.53  112.79
   0 -10   4 2658.53  112.79
   0  10   5   95.79    4.40
   0  10   5   99.19    4.50
   0  10   5   96.09    4.30
   0 -10   5  103.19    4.40
   0 -10  -5  101.29    4.40
   0 -10   5   90.89    4.30
   0  10   6  305.77   13.10
   0  10   6  312.77   12.90
   0 -10   6  303.47   13.00
   0 -10  -6  307.67   12.90
   0 -10   6  285.57   12.90
   0  10   7  174.98    8.10
   0  10   7  192.88    8.00
   0 -10  -7  190.78    8.00
   0 -10   7  181.48    8.00
   0  11   0    0.10    0.20
   0 -11   0    0.30    0.30
   0 -11   0   -0.30    1.60
   0  11   1  334.97   16.80
   0  11   1  407.16   16.70
   0 -11   1  427.16   16.70
   0 -11  -1  388.36   23.00
   0 -11   1  420.66   22.90
   0 -11   1  398.56   16.80
   0 -11  -1  397.06   16.70
   0  11   2    3.70    0.50
   0  11   2    3.60    0.50
   0 -11  -2    4.80    0.50
   0 -11   2    4.20    0.60
   0 -11   2    3.90    3.00
   0 -11  -2    4.00    3.50
   0 -11   2    4.40    0.50
   0 -11  -2    4.10    0.40
   0  11   3  353.56   15.20
   0  11   3  340.97   15.10
   0 -11   3  377.46   15.20
   0 -11  -3  365.16   15.20
   0 -11  -3  335.07   15.10
   0 -11   3  374.56   22.00
   0  11   4   74.09    3.60
   0  11   4   75.59    3.40
   0  11   4   73.39    3.30
   0 -11   4   72.79    8.60
   0 -11   4   75.79    3.40
   0 -11  -4   75.39    3.40
   0 -11   4   78.99    3.40
   0  11   5 1544.45   66.59
   0  11   5 1583.44   66.79
   0 -11   5 1539.75   66.59
   0 -11  -5 1601.64   66.59
   0 -11   5 1650.63   66.69
   0  11   6  125.59    5.80
   0  11   6  129.49    5.60
   0 -11  -6  129.29    5.60
   0 -11   6  123.59    5.60
   0 -11   6  134.19    5.70
   0  11   7   22.40    2.40
   0  11   7   18.90    1.20
   0 -11  -7   17.70    1.40
   0 -11   7   16.90    1.20
   0  12   0  959.70   40.60
   0 -12   0  957.60   40.60
   0 -12   0  979.00   48.40
   0  12   1  220.58   10.10
   0 -12   1  243.88   16.30
   0 -12  -1  227.78   10.00
   0 -12   1  235.48   10.10
   0 -12  -1  234.28   10.00
   0 -12   1  262.87   10.10
   0 -12  -1  227.38   16.40
   0  12   2 1093.79   47.90
   0  12   2 1111.29   47.90
   0 -12   2 1176.68   48.00
   0 -12  -2 1053.29   56.09
   0 -12  -2 1141.99   47.90
   0 -12   2 1228.78   56.59
   0 -12  -2 1114.19   47.90
   0 -12   2 1195.48   47.90
   0  12   3    5.70    0.60
   0  12   3    5.20    0.70
   0 -12  -3    5.60    0.70
   0 -12   3    6.40    0.60
   0 -12   3    6.30    3.60
   0  12   4  197.78    8.40
   0  12   4  187.78    8.30
   0  12   4  186.78    8.20
   0 -12   4  192.98    8.30
   0 -12  -4  197.58    8.20
   0 -12   4  194.58    8.30
   0 -12   4  180.28   15.00
   0  12   5  585.74   24.70
   0  12   5  580.84   24.90
   0 -12   5  597.04   24.80
   0 -12   5  559.84   24.70
   0 -12  -5  598.04   24.70
   0  12   6    4.80    0.70
   0  12   6    3.70    0.80
   0 -12  -6    3.20    0.60
   0 -12   6    3.50    0.70
   0 -12   6    3.20    0.60
   0  12   7  404.06   17.30
   0 -12  -7  414.26   17.20
   0 -12   7  401.56   17.30
   0  13   0    0.10    0.20
   0 -13   0    0.30    0.30
   0 -13   0    0.80    0.30
   0 -13   0    0.20    2.00
   0  13  -1  839.72   34.30
   0  13   1  810.72   34.40
   0 -13   1  920.31   34.40
   0 -13   1  824.72   34.50
   0 -13  -1  781.92   42.90
   0 -13  -1  798.82   34.40
   0 -13   1  837.92   43.00
   0 -13   1  753.52   34.30
   0 -13  -1  780.02   34.30
   0  13   2  588.54   25.10
   0  13   2  576.44   25.00
   0 -13   2  624.34   33.70
   0 -13   2  610.94   25.20
   0 -13  -2  603.14   25.00
   0 -13  -2  584.54   25.00
   0 -13  -2  536.05   33.20
   0 -13   2  625.24   25.10
   0  13   3  309.87   13.40
   0  13   3  316.37   13.50
   0 -13  -3  292.87   13.40
   0 -13   3  331.27   13.50
   0 -13  -3  323.07   13.50
   0 -13   3  328.07   21.60
   0  13   4  246.68   11.00
   0  13   4  262.07   11.10
   0  13   4  255.07   10.90
   0 -13   4  257.77   11.00
   0 -13   4  240.98   18.60
   0 -13   4  272.17   11.00
   0  13   5  176.28    8.00
   0  13   5  183.68    8.10
   0  13   5  186.48    7.90
   0 -13  -5  190.18    7.90
   0 -13   5  188.98    8.00
   0 -13   5  172.28    7.90
   0  13   6   21.70    1.70
   0  13   6   23.90    1.50
   0 -13   6   23.30    1.40
   0 -13  -6   24.00    1.40
   0 -13   6   24.30    1.40
   0  14   0  870.51   35.00
   0 -14   0  831.72   44.50
   0 -14   0  847.52   35.10
   0 -14   0  776.42   35.00
   0  14   2   54.69    2.50
   0 -14  -2   56.89    2.50
   0 -14  -2   55.19    2.50
   0 -14   2   54.19    8.00
   0 -14   2   59.69    2.60
   0 -14   2   55.39    2.70
   0 -14  -2   48.10    8.30
   0  14   3   16.00    1.10
   0  14   3   16.40    1.10
   0 -14   3   16.20    5.20
   0 -14  -3   17.00    1.00
   0 -14  -3   14.80    1.10
   0 -14   3   18.20    1.10
   0  14   4    0.70    0.60
   0  14   4    2.10    0.60
   0  14   4   -0.10    0.50
   0 -14  -4    0.40    0.40
   0 -14   4    1.20    2.90
   0 -14   4    1.30    0.50
   0  14   5   62.09    2.90
   0  14   5   61.19    3.20
   0  14   5   57.19    3.00
   0 -14   5   61.39    2.90
   0 -14   5   63.29    2.90
   0 -14  -5   62.89    2.90
   0  14   6   10.70    1.00
   0  14   6   11.70    1.40
   0 -14   6   10.60    1.00
   0 -14  -6   11.80    1.00
   0 -14   6   10.20    0.90
   0  15   0    1.30    0.30
   0  15   1  913.91   38.10
   0  15  -1  945.11   38.10
   0 -15   1  840.42   38.00
   0 -15  -1  910.81   38.10
   0 -15  -1  909.71   38.10
   0 -15   1  939.61   38.20
   0 -15  -1  855.71   48.40
   0 -15   1  924.31   48.80
   0  15   2    9.30    0.80
   0  15  -2    9.40    0.60
   0 -15   2    7.50    1.20
   0 -15  -2    9.90    0.80
   0 -15  -2    7.70    5.30
   0 -15   2    8.50    8.30
   0 -15  -2    9.60    0.90
   0 -15   2   11.40    0.90
   0  15   3    1.20    0.60
   0  15   3    0.70    0.50
   0  15   3    1.20    0.50
   0 -15   3    1.70    0.50
   0 -15   3    1.50    0.50
   0 -15   3    1.40    2.70
   0 -15  -3    1.90    0.50
   0  15   4   65.49    3.20
   0  15   4   62.29    3.10
   0  15   4   65.19    3.00
   0 -15   4   59.29    9.30
   0 -15   4   63.89    3.00
   0 -15  -4   67.19    3.00
   0 -15   4   69.49    3.00
   0  15   5   24.40    2.00
   0  15   5   30.80    1.90
   0  15   5   30.10    1.60
   0 -15  -5   28.70    1.50
   0 -15   5   30.20    1.60
   0 -15   5   30.10    1.60
   0  15   6    0.30    0.60
   0 -15   6    0.70    0.70
   0 -15  -6    1.30    0.50
   0 -15   6    0.20    0.60
   0  16   0 2031.40   82.59
   0 -16   0 1901.11   82.59
   0 -16   0 1966.50   94.89
   0  16  -1  128.29    5.50
   0  16   1  129.89    5.60
   0 -16   1  134.09    5.70
   0 -16  -1  119.89   13.30
   0 -16  -1  127.09    5.60
   0 -16   1  130.09   13.60
   0  16   2   61.29    2.80
   0 -16   2   62.59    3.00
   0 -16  -2   52.49    9.40
   0 -16  -2   61.69    2.90
   0 -16   2   62.59    9.40
   0  16   3  235.58   10.00
   0 -16  -3  224.38    9.80
   0 -16   3  237.68    9.80
   0 -16   3  227.08    9.80
   0 -16   3  215.38   18.50
   0  16   4   58.29    2.80
   0  16   4   57.69    2.90
   0  16   4   53.49    3.70
   0 -16  -4   62.79    2.80
   0 -16   4   61.89    2.80
   0 -16   4   60.69    2.80
   0  16   5   47.70    2.30
   0  16   5   46.00    2.60
   0 -16   5   45.60    2.30
   0 -16   5   47.20    2.30
   0 -16  -5   49.40    2.30
   0  17   0    0.90    0.40
   0 -17   0    1.80    0.50
   0 -17   0   -0.30    0.70
   0  17  -1  119.49    5.10
   0  17   1  116.99    5.10
   0 -17  -1  108.49   13.10
   0 -17   1  112.59   13.10
   0 -17  -1  117.09    5.10
   0 -17   1  121.29    5.30
   0 -17  -1  118.19    5.20
   0 -17  -2   29.40    1.50
   0 -17   2   29.10    7.30
   0 -17  -2   26.60    1.80
   0  17  -3   36.10    1.80
   0  17   3   38.90    2.10
   0  17   3   40.20    2.10
   0 -17  -3   40.40    1.90
   0 -17   3   35.50    7.80
   0 -17   3   38.90    2.00
   0  17  -4    1.10    0.60
   0  17   4    2.00    1.00
   0  17   4    1.00    0.70
   0 -17   4    1.20    3.80
   0 -17  -4    1.90    0.50
   0 -17   4    0.80    0.60
   0 -17   4    0.40    0.60
   0  17   5   77.59    4.10
   0 -17  -5   78.59    3.50
   0 -17   5   76.99    3.50
   0  18   0    1.20    0.50
   0 -18   0    0.60    0.40
   0 -18   0    0.00    2.90
   0 -18   0    0.30    0.50
   0  18  -1    4.40    0.60
   0  18   1    4.80    0.70
   0 -18   1    4.20    4.90
   0 -18  -1    4.70    0.60
   0 -18  -1    3.90    4.30
   0 -18   1    3.30    0.60
   0 -18  -1    4.00    0.70
   0  18   2   88.89    4.00
   0  18  -2   85.29    3.90
   0 -18   2   84.29   11.50
   0 -18  -2   89.59    3.90
   0  18   3   18.00    1.70
   0  18  -3   17.20    1.20
   0  18   3   20.60    1.50
   0 -18   3   19.50    1.30
   0 -18  -3   20.40    1.20
   0 -18   3   17.10    6.50
   0  18   4    0.70    1.00
   0  18   4    1.20    0.70
   0 -18   4    2.20    4.60
   0 -18  -4    0.70    0.40
   0 -18   4    1.40    0.60
   0  19   0   -0.40    0.70
   0 -19   0    0.30    3.40
   0 -19   0    0.20    0.50
   0 -19   0    0.40    0.60
   0  19  -1  193.68    8.70
   0  19   1  203.58    8.80
   0 -19  -1  208.28    8.70
   0 -19  -1  213.98    8.80
   0 -19   1  194.28   18.10
   0  19  -2  234.08   10.90
   0 -19   2  242.28   20.40
   0 -19  -2  267.57   10.80
   0 -19   2  270.47   10.90
   0  19   3   -0.10    0.70
   0 -19  -3    0.40    0.40
   0 -19   3    0.80    0.60
   0 -19   3    0.90    3.80
   0  19   4    0.70    1.00
   0 -19   4    1.20    0.50
   0 -20   0  615.74   37.60
   0 -20   1    9.30    6.20
   0 -20  -1   10.10    0.90
   0  20   2   19.80    1.50
   0 -20  -2   18.90    1.20
   0 -20   2   18.20    7.00
   0 -20   2   20.10    1.20
   0  20   3  130.29    5.60
   0  20   3  105.99    5.80
   0 -20   3  111.19   14.60
   0 -20   3  132.59    5.30
   0 -21  -1   10.60    1.10
   0 -21   1   12.90    6.80
   0 -21   1   13.60    1.00
   0  21  -2   69.09    3.30
   0 -21   2   66.79    2.90
   0 -21   2   53.79    9.70
   0 -21  -2   65.49    2.90
   0 -22   0  389.46   16.50
   0  22  -1   27.00    1.90
   0 -22   1   26.10    1.40
  -1   0   8  834.92   34.80
  -1   0   8  859.51   34.70
  -1   0   8  777.42   34.70
  -1   0   7    0.20    0.50
  -1   0   7   -0.20    0.40
  -1   0   6   12.00    0.90
   1   0  -6   11.40    1.00
   1   0  -5    0.30    0.30
  -1   0   5   -0.20    0.30
   1   0  -5    0.80    0.40
   1   0  -5    0.10    0.40
  -1   0   4    3.00    0.50
   1   0  -4    2.80    0.40
   1   0  -4    3.70    0.40
   1   0  -4    2.30    0.40
  -1   0   3   -0.40    0.20
   1   0  -3   -0.30    0.20
   1   0  -2 2610.74  132.39
  -1   0   2 2452.35  131.29
   1   0  -1    0.40    0.10
   1   0  -1    0.50    0.10
   1   0   0  306.17   12.90
   1   0   1    0.00    0.20
   1   0   1    0.10    0.10
   1   0   2  110.39    4.70
   1   0   2  110.99    4.70
   1   0   2  104.69    4.70
   1   0   2  110.29    4.60
   1   0   3    2.70    0.40
   1   0   4  323.47   13.80
   1   0   4  330.17   13.90
   1   0   4  335.97   13.80
   1   0   4  316.67   13.80
   1   0   5    0.10    0.30
   1   0   5    0.50    0.40
   1   0   5   -0.60    0.40
   1   0   5    0.00    0.30
   1   0   6  127.49    5.50
   1   0   6  125.09    5.50
   1   0   6  120.29    5.40
   1   0   6  126.79    5.60
   1   0   7    0.40    0.60
   1   0   7   -0.20    0.50
  -1   1   8    3.40    0.60
  -1   1   8    2.20    0.60
  -1  -1   8    2.60    0.70
  -1  -1   8    3.40    0.60
  -1  -1   8    2.40    0.60
  -1   1   7    8.40    0.90
  -1   1   7    7.70    0.90
  -1  -1   7    7.10    0.90
  -1  -1   7    8.90    0.90
  -1   1   6  147.49    6.60
   1  -1  -6  145.89    6.50
  -1  -1   6  163.98    6.50
   1  -1  -6  146.29    6.50
  -1  -1   6  148.49    6.60
  -1   1   5   -0.20    0.30
   1   1  -5    0.10    0.40
   1   1  -5    0.70    0.40
   1   1  -5    0.50    0.40
  -1  -1   5    0.20    0.30
   1  -1  -5    0.30    0.40
   1  -1  -5    0.60    0.30
   1  -1  -5    0.30    0.30
   1   1  -4  332.97   13.70
   1   1  -4  317.27   13.60
   1   1  -4  304.37   13.70
  -1   1   4  357.66   13.70
   1  -1  -4  298.97   13.70
  -1  -1   4  297.17   16.30
  -1  -1   4  345.67   13.70
   1  -1  -4  331.77   13.70
  -1   1   3 1930.41  121.79
   1   1  -3 2040.70  123.59
   1  -1  -3 2066.39  122.19
  -1   1   2 1388.56   83.49
   1   1  -2 1433.06   84.89
   1  -1  -2 1403.56   82.59
  -1  -1   2 1388.46   83.39
   1  -1  -1  229.78    9.60
   1  -1  -1  226.98    9.60
   1   1   0 1142.89   48.30
  -1  -1   0  882.61   47.20
   1   1   1  153.98    6.30
   1   1   1  144.69    6.30
   1   1   1  146.29    6.30
   1  -1   1  144.59    6.30
   1  -1   1  152.68    6.30
  -1   1  -2 2139.19  116.39
  -1   1  -2 2216.08  114.79
   1   1   2 2233.28  118.79
  -1  -1  -2 2516.45  119.39
   1   1   3  476.35   19.60
   1   1   3  466.65   19.60
   1   1   3  477.45   19.60
   1   1   3  485.45   19.60
   1   1   3  444.96   19.60
   1  -1   3  462.05   19.60
   1  -1   3  464.15   19.60
   1  -1   3  435.56   19.60
   1   1   4  145.99    6.30
   1   1   4  142.09    6.20
   1   1   4  152.68    6.30
   1   1   4  140.49    6.20
   1   1   4  148.29    6.30
   1  -1   4  146.49    6.30
   1  -1   4  145.49    6.30
   1  -1   4  145.99    6.30
   1   1   5   27.80    1.40
   1   1   5   26.00    1.30
   1   1   5   25.60    1.50
   1   1   5   29.00    1.40
   1  -1   5   28.20    1.40
   1  -1   5   26.50    1.50
   1  -1   5   26.70    1.40
   1  -1   5   26.40    1.40
   1   1   6  155.18    7.00
   1   1   6  166.38    7.10
   1   1   6  154.78    7.00
   1   1   6  168.78    7.10
   1  -1   6  159.08    7.00
   1  -1   6  162.68    7.10
   1  -1   6  167.08    7.00
   1  -1   6  165.28    7.10
   1   1   7   44.40    2.20
   1   1   7   42.20    2.20
   1  -1   7   40.70    2.30
   1  -1   7   43.90    2.20
  -1   2   8    3.00    0.60
  -1   2   8    2.10    0.60
  -1  -2   8    2.00    0.60
  -1  -2   8    2.30    0.60
  -1   2   7    2.90    0.60
  -1   2   7    1.60    0.60
  -1  -2   7    2.70    0.50
  -1  -2   7    3.10    0.50
  -1  -2   7    4.20    0.50
  -1   2   6   -0.40    0.40
   1  -2  -6    1.10    0.50
  -1  -2   6    0.70    0.40
   1  -2  -6    0.80    0.50
  -1  -2   6    0.20    0.40
  -1   2   5    4.80    0.70
   1   2  -5    4.20    0.60
   1   2  -5    4.80    0.60
  -1  -2   5    4.50    0.60
   1  -2  -5    4.70    0.60
   1  -2  -5    5.40    0.60
   1  -2  -5    4.20    0.70
   1   2  -4   47.00    2.40
  -1   2   4   54.09    2.40
   1   2  -4   50.59    2.30
   1   2  -4   52.29    2.30
   1  -2  -4   48.90    2.30
   1  -2  -4   52.69    2.30
  -1  -2   4   52.49    2.30
   1  -2  -3 1149.89   48.30
  -1   2   2 2366.16  128.79
   1   2  -2 2520.75  131.39
   1   2  -2 2301.77  124.59
   1  -2  -2 2465.45  127.69
  -1   2   1    4.10    0.20
   1   2  -1    3.90    0.30
  -1  -2   1    3.70    0.20
   1   2   0   23.80    1.00
   1   2   0   23.50    1.00
   1  -2   0   21.00    2.30
   1   2   1  730.03   29.90
   1  -2   1  695.23   29.90
   1   2   2  705.53   31.10
   1   2   2  756.62   31.10
   1  -2   2  750.82   31.10
   1  -2   2  726.33   31.10
   1  -2   2  752.22   31.10
   1   2   3  898.81   35.30
   1   2   3  796.82   35.30
   1   2   3  857.41   35.20
   1   2   3  858.11   35.30
   1  -2   3  799.12   35.20
  -1  -2  -3  816.42   35.20
   1  -2   3  871.11   35.30
   1  -2   3  791.12   35.30
   1  -2   3  860.91   35.30
   1   2   4   52.09    2.40
   1   2   4   49.70    2.30
   1   2   4   52.29    2.40
   1   2   4   52.69    2.30
   1   2   4   49.99    2.30
   1  -2   4   50.09    2.30
   1  -2   4   51.59    2.40
   1  -2   4   51.79    2.30
   1  -2   4   54.59    2.40
  -1  -2  -4   51.49    2.30
   1   2   5  102.19    4.50
   1   2   5   96.69    4.40
   1   2   5  101.49    4.50
   1   2   5  105.09    4.60
   1  -2   5  101.99    4.40
   1  -2   5  103.09    4.50
   1  -2   5  101.69    4.40
   1   2   6  124.49    5.50
   1   2   6  130.59    5.70
   1  -2   6  121.29    5.50
   1  -2   6  127.79    5.60
   1  -2   6  130.99    5.60
   1  -2   6  130.29    5.60
   1   2   7   63.89    2.90
   1   2   7   62.49    3.00
   1  -2   7   59.29    3.00
   1  -2   7   62.59    2.90
  -1   3   8   54.59    2.80
  -1   3   8   59.79    2.70
  -1  -3   8   56.89    2.70
  -1  -3   8   56.99    2.70
  -1   3   7   70.69    3.60
  -1   3   7   84.49    3.80
  -1  -3   7   81.49    3.60
  -1  -3   7   82.29    3.70
  -1  -3   7   87.99    3.70
  -1   3   6 2189.28  102.79
  -1   3   6 2609.84  102.79
  -1  -3   6 2579.54  102.69
   1  -3  -6 2368.86  102.69
   1  -3  -6 2476.45  102.59
  -1   3   5    0.30    0.30
   1   3  -5    0.90    0.40
   1   3  -5    0.60    0.50
  -1  -3   5    0.50    0.30
  -1  -3   5    0.20    0.50
   1  -3  -5    0.30    0.30
   1   3  -4 1124.99   46.60
  -1   3   4 1180.38   46.70
   1   3  -4 1036.70   46.60
   1   3  -4 1022.90   46.70
  -1  -3   4 1149.08   46.60
   1  -3  -4 1162.38   46.60
   1  -3  -4 1086.79   46.60
  -1   3   3  659.63   25.90
   1   3  -3  616.84   25.90
  -1   3   3  649.04   25.90
  -1  -3   3  576.04   28.70
  -1  -3   3  629.24   25.90
   1  -3  -3  612.54   25.90
   1  -3  -3  562.94   25.90
   1   3  -2 1211.68   75.09
  -1   3   2 1126.79   76.99
   1   3  -2 1250.57   80.89
   1  -3  -2 1252.07   76.79
  -1   3   1   34.90    1.30
  -1  -3   1   28.60    2.80
   1  -3  -1   33.30    1.40
   1  -3  -1   28.00    3.10
   1   3   0   -0.40    0.10
   1   3   0   -0.30    0.10
   1  -3   0   -0.30    0.20
   1  -3   0   -0.30    0.80
  -1  -3   0    0.10    1.10
   1   3   1 2837.72  134.39
   1  -3   1 2614.24  129.39
   1   3   2 1742.83   73.09
   1   3   3 1593.34   64.69
   1   3   3 1574.54   64.69
  -1  -3  -3 1579.64   64.69
   1  -3   3 1490.05   64.69
   1  -3   3 1466.25   64.69
   1   3   4    2.30    0.40
   1   3   4    2.70    0.40
   1   3   4    2.20    0.30
   1   3   4    2.90    0.50
   1   3   4    1.70    0.30
   1  -3   4    2.40    0.40
   1  -3   4    2.30    0.50
   1  -3   4    2.10    0.40
  -1  -3  -4    2.80    0.40
   1  -3   4    3.20    0.50
   1   3   5  315.87   13.30
   1   3   5  312.17   13.10
   1   3   5  295.97   13.10
   1  -3   5  313.27   13.20
   1  -3   5  311.27   13.10
   1  -3   5  292.27   13.10
   1  -3   5  321.27   13.20
   1   3   6 1398.96   61.89
   1   3   6 1546.45   61.99
   1   3   6 1505.25   62.09
   1  -3   6 1483.85   61.99
   1  -3   6 1503.55   61.99
   1  -3   6 1398.06   61.89
   1   3   7    4.30    0.70
   1   3   7    4.40    0.70
   1  -3   7    3.80    0.70
   1  -3   7    4.00    0.60
  -1   4   8   27.50    1.70
  -1   4   8   30.30    1.60
  -1  -4   8   28.60    1.60
  -1  -4   8   26.70    1.60
  -1   4   7  108.19    5.00
  -1   4   7  113.39    4.90
  -1  -4   7  113.39    4.90
  -1  -4   7  109.49    4.90
  -1   4   6  330.27   13.60
  -1   4   6  268.57   13.50
   1  -4  -6  302.57   13.50
   1  -4  -6  325.87   13.50
  -1  -4   6  345.97   13.50
  -1  -4   6  327.87   13.50
  -1   4   5  118.79    5.00
   1   4  -5  110.59    4.80
   1   4  -5  100.79    4.90
   1  -4  -5  108.49    4.80
   1  -4  -5  110.79    4.90
  -1  -4   5  113.09    4.90
  -1  -4   5  122.19    4.90
  -1  -4   5  109.89    4.80
   1   4  -4 1215.18   53.29
  -1   4   4 1382.06   53.29
   1  -4  -4 1301.97   53.19
  -1  -4   4 1140.09   53.19
   1  -4  -4 1297.97   53.29
   1  -4  -3 1777.72   75.59
   1  -4  -3 1824.62   75.59
   1   4  -2  108.59    4.70
  -1   4   2  113.99    4.70
  -1  -4   2  106.79    7.00
  -1  -4   2  110.89    4.70
  -1   4   1 3872.51  187.28
  -1  -4   1 3877.51  185.88
   1   4   0   39.80    1.90
   1   4   0   47.20    1.90
   1   4   0   44.40    1.90
   1  -4   0   43.10    1.90
   1  -4   0   41.70    3.80
  -1  -4   0   45.40    3.40
   1   4   1 2427.86  139.99
  -1   4  -1 3261.17  141.09
   1   4   2    6.60    0.40
   1   4   2    6.60    0.50
   1   4   2    6.70    0.40
   1   4   2    6.20    0.40
   1  -4   2    6.30    1.90
   1  -4   2    7.20    0.50
   1  -4   2    6.40    0.50
   1   4   3   12.80    0.70
   1   4   3   12.70    0.70
   1   4   3   15.20    0.90
   1   4   3   13.30    0.70
   1   4   3   14.20    0.70
   1   4   3   11.60    1.00
   1   4   3   14.60    0.80
   1  -4   3   11.30    2.80
   1  -4   3   13.10    0.80
  -1  -4  -3   12.90    0.70
   1  -4   3   13.00    0.80
   1  -4   3   13.00    0.80
   1   4   4  315.57   12.90
   1   4   4  307.97   12.80
   1   4   4  298.67   12.80
   1   4   4  312.57   12.90
   1   4   4  283.37   12.80
   1  -4   4  294.97   12.80
   1  -4   4  320.47   12.90
   1  -4   4  299.17   12.90
  -1  -4  -4  307.67   12.80
   1  -4   4  284.47   12.80
   1   4   5 1561.14   64.89
   1   4   5 1483.85   64.79
   1   4   5 1559.54   64.99
   1   4   5 1573.24   64.89
   1  -4   5 1521.05   64.89
  -1  -4  -5 1515.45   64.79
   1  -4   5 1529.85   64.89
   1  -4   5 1602.84   64.89
   1   4   6   50.59    2.30
   1   4   6   48.50    2.50
   1   4   6   43.40    2.20
   1  -4   6   50.39    2.40
   1  -4   6   46.70    2.20
   1  -4   6   49.00    2.30
   1   4   7    0.20    0.60
   1   4   7    1.10    0.60
   1  -4   7    1.80    0.60
   1  -4   7    1.10    0.50
  -1   5   8    2.10    0.60
  -1   5   8    1.50    0.70
  -1  -5   8    2.00    0.60
  -1   5   7  455.35   18.30
  -1   5   7  428.56   18.40
   1  -5  -7  405.06   18.30
  -1  -5   7  424.16   18.30
  -1  -5   7  446.76   18.40
  -1   5   6  664.83   28.20
  -1  -5   6  710.23   28.10
   1  -5  -6  612.64   28.20
   1  -5  -6  669.93   28.10
  -1  -5   6  671.53   28.10
   1   5  -5 2312.37  104.29
   1   5  -5 2551.44  104.19
  -1  -5   5 2439.16  104.19
   1  -5  -5 2626.24  104.19
   1   5  -4    9.60    0.90
   1   5  -4    9.60    0.60
  -1   5   4   11.80    0.80
  -1   5   4   11.40    0.70
  -1  -5   4   12.30    0.70
   1  -5  -4   11.50    0.70
  -1  -5   4   12.50    0.70
  -1  -5   4   12.50    2.70
   1  -5  -4   10.20    0.70
  -1   5   3  122.49    5.20
   1   5  -3  117.39    5.20
   1   5  -3  114.19    5.20
  -1   5   3  125.99    5.30
  -1  -5   3  123.19    5.20
   1  -5  -3  121.69    5.30
  -1  -5   3  136.09    8.30
   1  -5  -3  118.69    5.20
  -1   5   2    6.20    0.40
   1   5  -2    5.80    0.40
   1  -5  -2    7.20    0.50
  -1  -5   2    6.20    0.40
   1  -5  -2    6.10    0.40
  -1  -5   2    6.30    2.10
   1   5  -1 4606.34  196.38
  -1   5   1 3634.24  193.68
  -1  -5   1 3663.63  192.38
  -1   5   0 1948.51  101.89
   1   5   0 1951.50  102.09
  -1  -5   0 1720.93   99.99
   1  -5   0 1853.31   99.59
  -1  -5  -1 1076.49   47.20
   1   5   3   30.00    1.60
   1   5   3   30.30    1.60
   1   5   3   31.90    1.50
   1   5   3   32.70    1.60
   1   5   3   31.10    1.40
   1  -5   3   30.90    4.00
   1  -5   3   32.40    1.50
   1  -5   3   31.50    1.50
   1  -5   3   32.10    1.50
  -1  -5  -3   31.30    1.40
   1   5   4  770.22   35.50
   1   5   4  868.21   35.60
   1   5   4  875.91   35.50
   1  -5   4  876.81   35.50
   1  -5   4  840.72   35.50
   1  -5   4  837.12   35.50
  -1  -5  -4  830.02   35.40
   1   5   5 1551.64   64.49
   1   5   5 1479.35   64.49
   1   5   5 1588.54   64.69
   1   5   5 1557.14   64.59
   1  -5   5 1541.45   64.59
   1  -5   5 1593.44   64.59
   1  -5   5 1462.25   64.49
  -1  -5  -5 1502.25   64.49
   1   5   6  134.79    6.10
   1   5   6  141.59    5.90
   1  -5   6  138.09    6.00
   1  -5   6  136.29    5.90
   1  -5   6  126.19    5.90
   1   5   7  164.68    7.30
   1   5   7  170.48    7.20
   1  -5   7  159.88    7.20
   1  -5   7  162.88    7.20
   1  -5   7  169.78    7.30
  -1   6   8    1.10    0.60
  -1   6   8    1.00    0.70
  -1  -6   8    0.60    0.50
  -1   6   7   47.30    2.20
  -1   6   7   46.10    2.40
  -1  -6   7   48.60    2.30
  -1  -6   7   45.00    2.30
   1  -6  -7   46.70    2.30
  -1   6   6    4.10    0.70
  -1  -6   6    6.00    0.70
   1  -6  -6    4.50    0.60
  -1  -6   6    4.40    0.70
   1  -6  -6    4.30    0.60
  -1  -6   6    6.70    0.80
  -1   6   5 1016.30   40.80
  -1   6   5 1011.70   40.90
   1   6  -5  853.71   40.90
   1   6  -5  886.81   40.80
  -1  -6   5  909.11   40.80
  -1  -6   5 1050.39   45.70
   1  -6  -5  972.40   40.80
  -1  -6   5  988.90   40.80
   1  -6  -5  964.00   40.80
  -1  -6   5 1035.70   40.80
  -1   6   4  234.38    9.90
  -1   6   4  233.68   10.00
   1   6  -4  221.48    9.80
   1   6  -4  211.18   10.00
  -1  -6   4  230.38    9.90
  -1  -6   4  241.18    9.90
   1  -6  -4  232.38    9.90
   1  -6  -4  236.48    9.90
  -1  -6   4  226.38    9.90
  -1  -6   4  254.47   13.70
   1  -6  -3 1498.45   62.89
  -1   6   2 9999.00  435.16
  -1  -6   2 8285.27  421.66
   1   6  -1 3670.33  168.68
  -1   6   1 3072.19  167.48
  -1  -6   1 2883.61  164.18
   1   6   0 1234.88   51.79
   1   6   1 1921.71   80.69
   1   6   3 1141.69   47.50
   1   6   3 1184.58   47.70
   1   6   3 1153.48   47.50
   1   6   3 1173.68   47.60
   1   6   3 1126.59   47.70
  -1  -6  -3 1108.49   47.50
   1  -6   3 1055.19   51.99
   1  -6   3 1108.59   47.60
   1   6   4  356.06   16.00
   1   6   4  379.96   15.90
   1   6   4  367.86   15.80
   1   6   4  379.46   15.90
   1  -6   4  370.26   15.90
  -1  -6  -4  374.06   15.80
   1  -6   4  399.26   15.90
   1  -6   4  371.46   15.90
   1   6   5    1.40    0.50
   1   6   5    4.00    0.60
   1   6   5    3.30    0.50
   1  -6   5    4.60    0.70
   1  -6   5    2.50    0.40
  -1  -6  -5    3.00    0.50
   1  -6   5    3.20    0.50
   1   6   6  285.97   11.90
   1   6   6  280.77   12.00
   1  -6   6  282.77   11.90
   1  -6   6  263.37   11.80
   1  -6   6  273.07   11.90
   1   6   7   72.69    3.50
   1   6   7   77.39    3.40
   1  -6   7   74.49    3.40
   1  -6   7   68.49    3.30
  -1   7   8    1.40    0.80
  -1   7   8    1.20    0.60
  -1  -7   8    1.70    0.60
  -1   7   7  109.69    5.10
  -1   7   7  114.39    4.90
   1  -7  -7  108.59    4.90
  -1  -7   7  113.29    5.00
  -1   7   6  380.46   15.80
  -1  -7   6  389.96   15.70
   1  -7  -6  351.56   15.80
   1  -7  -6  369.96   15.70
  -1  -7   6  371.26   15.60
  -1  -7   6  346.07   15.60
  -1   7   5  160.48    6.70
   1   7  -5  141.49    6.80
  -1   7   5  159.08    6.80
   1  -7  -5  158.38    6.70
   1  -7  -5  142.19    6.70
  -1  -7   5  150.48    6.70
  -1  -7   5  171.28   11.20
  -1  -7   5  157.08    6.70
  -1   7   4  514.85   20.90
  -1   7   4  501.15   20.80
   1   7  -4  482.35   20.70
   1  -7  -4  492.15   20.80
   1  -7  -4  509.45   20.80
  -1  -7   4  474.85   20.80
  -1  -7   4  535.85   25.40
  -1  -7   4  507.65   20.80
  -1  -7   4  483.75   20.80
   1  -7  -4  420.36   20.80
  -1   7   3 1557.64   63.29
   1  -7  -3 1351.76   63.29
   1  -7  -3 1611.34   63.29
  -1   7   2 3981.90  240.18
   1   7  -2 5345.67  243.88
   1  -7  -1 1818.82   76.29
   1   7   0   29.50    1.40
   1   7   0   30.70    1.40
  -1  -7   0   31.90    3.40
   1  -7   0   28.40    4.00
  -1  -7   0   27.80    1.40
   1  -7   0   29.50    1.40
   1  -7   0   29.00    1.40
   1   7   1  160.88    6.40
   1   7   1  149.69    6.40
  -1  -7  -1  141.99    6.40
  -1  -7  -1  151.48    9.10
   1  -7   1  153.28   10.10
   1  -7   1  143.29    6.40
   1   7   2   29.10    1.40
   1   7   2   29.40    1.40
   1  -7   2   30.90    1.40
  -1  -7  -2   28.20    4.00
   1  -7   2   30.00    1.40
   1  -7   2   30.40    1.40
   1   7   3  262.57   11.30
   1   7   3  275.97   11.50
   1   7   3  274.07   11.40
   1  -7   3  267.37   11.40
   1  -7   3  278.47   11.40
   1  -7   3  265.47   11.40
   1  -7   3  251.77   15.80
  -1  -7  -3  263.57   11.30
   1   7   4   72.89    3.40
   1   7   4   73.49    3.20
   1   7   4   73.49    3.30
   1  -7   4   68.79    3.30
  -1  -7  -4   72.19    3.20
   1  -7   4   75.99    3.30
   1  -7   4   71.19    3.20
   1   7   5   16.00    1.10
   1   7   5   16.30    1.00
   1   7   5   15.20    1.20
   1  -7   5   16.50    1.10
   1  -7   5   15.50    1.00
  -1  -7  -5   16.30    1.00
   1  -7   5   15.30    1.00
   1   7   6    2.90    0.70
   1   7   6    2.80    0.60
   1  -7   6    2.80    0.50
   1  -7   6    3.10    0.50
   1   7   7   29.70    1.60
   1   7   7   25.10    1.80
   1  -7   7   26.90    1.60
   1  -7   7   26.10    1.40
  -1   8   8   54.89    2.50
  -1  -8   8   48.80    2.50
  -1   8   7   27.00    1.50
  -1   8   7   26.80    1.70
  -1  -8   7   25.90    1.50
   1  -8  -7   25.60    1.50
  -1   8   6   68.29    3.20
   1  -8  -6   68.19    3.20
   1  -8  -6   62.89    3.10
  -1  -8   6   62.49    3.00
  -1  -8   6   68.49    3.10
  -1   8   5    2.90    0.60
   1   8  -5    3.00    0.70
  -1   8   5    3.20    0.50
   1  -8  -5    2.50    0.50
  -1  -8   5    2.70    0.50
   1  -8  -5    2.40    0.40
  -1  -8   5    3.10    3.20
  -1  -8   5    2.00    0.40
   1   8  -4   55.59    2.50
  -1   8   4   58.69    2.70
  -1   8   4   57.99    2.60
   1  -8  -4   51.19    2.60
   1  -8  -4   56.19    2.60
  -1  -8   4   62.69    6.10
  -1  -8   4   58.99    2.60
  -1   8   3 1190.18   47.90
   1  -8  -3 1089.29   47.90
   1  -8  -3 1140.79   47.90
  -1   8   2  208.58    8.50
  -1  -8   2  205.38    8.50
   1  -8  -2  200.88    8.50
   1  -8  -2  196.28    8.50
  -1  -8   2  209.08    8.60
   1  -8  -2  179.78   13.10
  -1   8   1 4008.60  238.88
   1  -8  -1 5398.26  244.18
   1   8   0   25.20    1.00
   1   8   0   25.00    1.00
   1  -8   0   18.00    1.10
   1  -8   0   17.90    3.60
   1   8   2   13.20    0.80
   1   8   2   12.20    0.70
   1   8   2   14.10    0.70
   1  -8   2   13.70    3.30
   1  -8   2   13.60    0.80
   1  -8   2   14.20    0.80
  -1  -8  -2   12.50    3.40
   1   8   3  621.94   25.70
   1   8   3  599.74   25.60
   1   8   3  603.64   25.60
  -1  -8  -3  609.24   25.50
   1  -8   3  576.34   31.30
   1  -8   3  604.74   25.60
   1  -8   3  630.74   25.60
   1   8   4  354.56   15.00
   1   8   4  360.76   15.10
   1   8   4  363.56   15.20
   1  -8   4  363.26   15.10
   1  -8   4  332.27   15.10
  -1  -8  -4  353.66   15.00
   1   8   5   33.90    1.80
   1   8   5   31.10    1.90
   1   8   5   32.30    1.70
   1  -8   5   31.60    1.70
  -1  -8  -5   32.50    1.70
   1  -8   5   35.30    1.80
   1   8   6   19.70    1.50
   1   8   6   18.70    1.30
  -1  -8  -6   19.10    1.40
   1  -8   6   17.40    1.10
   1  -8   6   19.30    1.30
   1   8   7  162.88    7.10
   1   8   7  174.78    6.90
   1  -8   7  140.29    6.90
   1  -8   7  160.38    7.00
  -1   9   8  104.09    4.60
  -1  -9   8   93.89    4.40
  -1   9   7   33.60    1.70
  -1   9   7   30.40    1.90
  -1  -9   7   33.30    1.70
   1  -9  -7   32.20    1.70
  -1   9   6   26.40    1.60
  -1   9   6   23.60    1.40
  -1  -9   6   23.30    1.40
   1  -9  -6   26.30    1.40
  -1  -9   6   26.90    1.40
  -1   9   5  407.46   17.20
   1   9  -5  374.16   17.30
  -1   9   5  415.06   17.40
  -1  -9   5  417.16   17.20
  -1  -9   5  424.56   23.30
   1  -9  -5  410.16   17.20
   1  -9  -5  375.86   17.10
  -1  -9   5  418.96   17.20
  -1   9   4    2.20    0.40
   1   9  -4    1.20    0.30
   1  -9  -4    0.90    0.40
   1  -9  -4    1.80    0.30
  -1  -9   4    1.60    0.40
  -1  -9   4    1.30    0.30
  -1   9   3   56.49    2.60
   1   9  -3   62.19    2.60
   1  -9  -3   56.49    2.60
  -1  -9   3   65.69    6.20
  -1  -9   3   56.59    2.60
   1  -9  -3   54.79    2.60
  -1   9   2 1095.79   45.20
   1  -9  -2 1117.99   45.20
  -1  -9   2 1127.79   45.30
   1  -9  -2 1094.49   45.20
   1  -9  -2  943.81   51.29
   1   9   1 1197.48   50.49
   1   9   1 1195.28   50.49
  -1  -9  -1 1152.68   50.49
  -1  -9  -1 1267.57   55.59
   1   9   2  113.19    4.80
   1  -9   2  111.19    9.40
  -1  -9  -2  104.29    8.80
   1  -9   2  112.49    4.90
   1  -9   2  113.39    4.80
   1   9   3  761.42   31.50
   1   9   3  723.83   31.50
   1   9   3  774.82   31.60
   1  -9   3  754.62   31.50
   1  -9   3  761.02   31.50
  -1  -9  -3  757.92   31.40
   1  -9   3  712.93   38.10
   1  -9   3  731.63   31.60
   1   9   4    1.90    0.70
   1   9   4    1.50    0.40
   1   9   4    1.30    0.50
   1  -9   4    1.60    0.40
  -1  -9  -4    2.70    0.40
   1  -9   4    1.10    0.40
   1   9   5    1.90    0.60
   1   9   5    0.40    0.50
   1   9   5    0.80    0.50
   1  -9   5    1.10    0.50
  -1  -9  -5    0.60    0.40
   1  -9   5    0.30    0.40
   1   9   6  151.08    6.60
   1   9   6  149.88    6.50
   1  -9   6  150.78    6.50
  -1  -9  -6  143.79    6.40
   1  -9   6  142.09    6.40
   1   9   7   50.79    2.30
   1  -9   7   42.50    2.20
   1  -9   7   44.50    2.30
  -1  10   7  111.19    5.10
  -1  10   7  114.09    4.90
   1 -10  -7  109.39    4.90
  -1 -10   7  111.39    5.00
  -1  10   6  108.49    4.80
  -1  10   6  108.99    5.00
  -1 -10   6  112.49    4.90
   1 -10  -6  109.49    4.90
   1  10  -5  604.04   27.10
  -1  10   5  645.14   27.00
   1 -10  -5  580.14   26.90
  -1 -10   5  660.43   27.00
  -1 -10   5  657.83   27.00
   1 -10  -5  663.23   27.00
  -1 -10   5  658.73   33.90
  -1  10   4  712.83   29.50
  -1  10   4  685.13   29.40
  -1 -10   4  765.02   36.10
  -1 -10   4  678.53   29.40
   1 -10  -4  635.44   29.30
   1 -10  -4  709.73   29.40
  -1 -10   4  692.93   29.40
  -1  10   3  180.98    8.00
  -1 -10   3  207.58   13.00
   1 -10  -3  179.58    8.00
  -1 -10   3  181.18    8.00
   1 -10  -3  185.98    8.00
  -1  10   2  480.85   20.70
  -1 -10   2  508.95   20.80
  -1 -10   2  563.64   26.20
   1 -10  -2  435.16   27.10
   1 -10  -2  486.05   20.70
  -1 -10   2  467.55   20.70
   1 -10  -2  490.05   20.80
  -1  10   1    0.70    0.20
   1 -10  -1    1.10    0.30
   1 -10  -1    0.90    0.30
  -1 -10   1    0.80    1.50
  -1 -10   1    0.40    0.30
   1 -10  -1    0.50    1.70
   1 -10  -1    0.80    0.20
   1  10   0  176.08    7.20
  -1  10   0  171.48    7.20
   1  10   0  152.18    7.20
   1  10   0  159.28    7.10
  -1 -10   0  183.58   11.50
   1 -10   0  172.68    7.20
   1 -10   0  172.48    7.20
   1 -10   0  170.38   12.60
  -1 -10   0  166.78    7.20
   1 -10   0  160.18    7.20
   1  10   1  107.69    4.60
   1  10   1  101.89    4.60
   1 -10   1  109.69    4.70
  -1 -10  -1  108.49    8.80
   1 -10   1  108.49    4.70
  -1 -10  -1  102.49    4.60
   1 -10   1  111.69    9.70
   1  10   2 1027.90   41.50
   1  10   2  965.10   41.50
  -1 -10  -2  922.71   47.40
   1 -10   2 1005.50   49.10
   1 -10   2  991.90   41.50
   1 -10   2 1003.40   41.60
   1  10   3  182.28    7.90
   1  10   3  181.38    7.90
   1  10   3  186.98    8.00
   1 -10   3  181.28    8.00
  -1 -10  -3  184.68    7.80
   1 -10   3  182.28    7.90
   1 -10   3  182.58   14.10
   1 -10   3  184.98    7.90
   1  10   4   97.79    4.50
   1  10   4  101.19    4.40
   1  10   4   89.89    4.50
   1  10   4   98.69    4.30
  -1 -10  -4   99.39    4.30
   1 -10   4   98.79    4.40
   1 -10   4   98.19    4.40
   1  10   5  333.17   14.40
   1  10   5  327.77   14.30
   1  10   5  339.07   14.20
   1 -10   5  335.97   14.30
   1 -10   5  329.07   14.20
  -1 -10  -5  334.07   14.20
   1  10   6   18.30    1.30
   1  10   6   17.60    1.50
  -1 -10  -6   17.30    1.30
   1 -10   6   16.60    1.20
   1 -10   6   17.10    1.10
   1  10   7  186.28    7.90
   1 -10   7  179.38    8.10
  -1  11   7  151.78    7.00
  -1  11   7  163.48    6.90
   1 -11  -7  161.08    6.90
  -1 -11   7  156.28    6.90
  -1  11   6   25.80    1.40
  -1  11   6   25.20    1.70
  -1 -11   6   23.00    1.40
  -1 -11   6   25.10    1.40
   1 -11  -6   27.00    1.40
  -1  11   5    5.00    0.70
   1  11  -5    5.10    0.90
  -1  11   5    5.00    0.70
  -1  11   5    5.60    0.70
  -1 -11   5    4.40    0.60
   1 -11  -5    3.70    0.80
  -1 -11   5    5.30    4.00
   1 -11  -5    7.30    0.70
  -1  11   4    0.10    0.40
  -1  11   4    0.30    0.40
  -1 -11   4    0.40    0.30
  -1 -11   4    0.10    0.30
   1 -11  -4    0.10    0.30
   1 -11  -4    0.00    0.40
  -1  11   3  306.07   13.40
  -1 -11   3  355.26   19.60
   1 -11  -3  313.87   13.40
   1 -11  -3  295.07   13.40
  -1 -11   3  312.87   13.40
  -1  11   2   54.79    2.20
  -1  11   2   43.80    2.10
  -1 -11   2   45.80    2.20
   1 -11  -2   42.80    6.80
  -1 -11   2   53.29    6.10
  -1 -11   2   50.19    2.30
   1 -11  -2   48.10    2.20
   1 -11  -2   47.30    2.20
  -1  11   1   11.70    0.70
   1  11  -1   11.80    0.60
  -1 -11   1   13.40    3.50
   1 -11  -1   11.40    4.10
   1 -11  -1   13.00    0.70
  -1 -11   1   12.00    0.80
   1 -11  -1   11.90    0.70
   1 -11  -1   13.00    0.80
   1  11   0  767.72   32.40
  -1  11   0  773.52   32.40
   1 -11   0  773.92   32.50
   1 -11   0  779.22   32.50
   1 -11   0  772.72   40.20
  -1 -11   0  756.42   32.50
  -1 -11   0  817.62   38.50
   1 -11   0  724.23   32.40
   1  11   1   57.89    2.70
   1  11   1   60.89    2.70
  -1 -11  -1   58.49    2.70
   1 -11   1   61.09    2.70
  -1 -11  -1   62.19    6.90
   1 -11   1   61.29    2.70
   1 -11   1   61.39    7.50
   1  11   2    4.70    0.50
   1  11   3  166.78    7.30
   1  11   3  173.48    7.50
   1  11   3  172.58    7.30
   1 -11   3  174.18    7.40
   1 -11   3  162.48   14.20
   1 -11   3  169.68    7.30
  -1 -11  -3  168.08    7.30
   1  11   4  521.55   21.80
   1  11   4  480.65   21.80
   1  11   4  516.35   21.60
   1  11   4  506.85   21.70
   1 -11   4  507.35   21.70
  -1 -11  -4  525.25   21.60
   1 -11   4  521.65   21.70
   1  11   5  273.07   11.70
   1  11   5  265.67   11.80
   1  11   5  279.77   11.90
  -1 -11  -5  280.57   11.70
   1 -11   5  267.27   11.80
   1 -11   5  279.47   11.80
   1  11   6  146.39    6.70
   1  11   6  155.48    6.60
  -1 -11  -6  152.38    6.60
   1 -11   6  151.68    6.60
   1 -11   6  147.79    6.50
  -1  12   7  116.29    5.40
  -1  12   7  125.39    5.20
  -1 -12   7  114.69    5.20
  -1  12   6   31.60    1.70
   1 -12  -6   33.00    1.70
  -1 -12   6   33.20    1.70
  -1 -12   6   30.80    1.70
  -1  12   5   10.90    1.10
  -1  12   5   11.50    1.10
   1  12  -5   14.50    1.50
  -1  12   5   13.10    1.00
   1 -12  -5    8.60    1.00
   1 -12  -5    9.20    0.90
  -1 -12   5   10.50    0.90
  -1 -12   5   10.10    4.60
  -1 -12   5   11.70    0.90
  -1  12   4  108.79    4.90
  -1  12   4  111.99    5.10
  -1  12   4  110.49    5.00
   1 -12  -4  117.69    5.00
  -1 -12   4  120.59    5.00
   1 -12  -4  104.99    4.90
  -1 -12   4  112.59    5.00
  -1 -12   4  120.09   10.80
  -1  12   3    8.70    0.70
  -1  12   3    7.90    0.70
   1 -12  -3    8.50    0.70
  -1 -12   3    8.60    0.70
  -1 -12   3    9.70    3.90
   1 -12  -3    9.50    0.70
  -1 -12   2  377.76   15.40
  -1 -12   2  407.56   22.00
   1 -12  -2  359.26   15.20
   1 -12  -2  360.86   15.20
   1 -12  -2  312.37   22.60
  -1 -12   2  341.37   15.20
   1  12  -1   63.89    2.80
  -1  12   1   63.29    2.80
   1 -12  -1   63.09    2.80
  -1 -12   1   70.79    7.40
   1 -12  -1   60.29    8.10
   1 -12  -1   64.99    2.90
  -1 -12   1   66.99    3.00
   1 -12  -1   60.59    2.90
  -1  12   0  297.27   13.00
   1  12   0  314.37   13.00
   1 -12   0  304.97   13.10
  -1 -12   0  324.97   19.20
   1 -12   0  309.67   20.60
  -1 -12   0  303.47   13.10
   1 -12   0  298.77   13.10
   1  12   1   78.89    3.50
   1  12   1   77.89    3.40
  -1 -12  -1   79.29    8.50
   1 -12   1   77.29    3.50
  -1 -12  -1   73.79    3.50
   1 -12   1   79.29    3.50
   1 -12   1   79.39    9.10
   1  12   2   91.49    4.00
   1  12   2   93.69    4.00
   1 -12   2   92.49   10.20
   1 -12   2   93.39    4.10
  -1 -12  -2   83.29    9.40
   1 -12   2   95.49    4.10
   1  12   3   12.50    0.90
   1  12   3   13.10    1.10
   1  12   3   13.60    0.90
  -1 -12  -3   13.10    0.90
   1 -12   3   11.60    4.80
   1 -12   3   12.60    0.90
   1 -12   3   12.50    0.90
   1  12   4   51.79    2.50
   1  12   4   46.70    2.70
   1  12   4   51.19    2.60
   1  12   4   52.89    2.40
   1 -12   4   49.70    2.40
  -1 -12  -4   50.69    2.40
   1 -12   4   51.79    2.50
   1  12   5    1.20    0.70
   1  12   5    1.40    0.60
   1  12   5    1.30    0.60
   1 -12   5    1.60    0.50
  -1 -12  -5    1.90    0.50
   1 -12   5    1.60    0.50
   1  12   6   34.10    1.80
   1  12   6   32.60    2.10
   1 -12   6   32.10    1.80
   1 -12   6   31.30    1.70
  -1 -12  -6   37.30    2.30
  -1  13   7    2.30    0.90
   1 -13  -7    2.90    0.60
  -1 -13   7    2.10    0.60
  -1  13   6   33.60    1.70
  -1  13   6   35.00    2.00
  -1 -13   6   31.00    1.70
  -1 -13   6   28.00    1.90
   1 -13  -6   34.10    1.70
  -1  13   5   33.00    1.70
  -1  13   5   29.00    2.10
  -1  13   5   33.60    2.00
   1  13  -5   31.90    2.20
   1 -13  -5   34.50    1.70
  -1 -13   5   32.80    1.70
  -1 -13   5   35.50    1.80
  -1 -13   5   32.10    6.70
  -1  13   4  254.97   10.90
  -1  13   4  240.48   10.80
  -1  13   4  247.38   10.70
  -1 -13   4  266.67   18.30
  -1 -13   4  245.18   10.80
  -1 -13   4  257.47   10.80
   1 -13  -4  266.57   10.80
   1 -13  -4  230.78   10.70
  -1  13   3  232.68    9.90
  -1  13   3  217.08    9.80
   1 -13  -3  223.78    9.90
   1 -13  -3  237.48    9.90
  -1 -13   3  225.48    9.90
  -1 -13   3  253.27   17.10
  -1  13   2  143.89    6.50
  -1 -13   2  154.38    6.60
  -1 -13   2  139.69    6.50
   1 -13  -2  149.79    6.50
  -1 -13   2  161.98   12.70
   1 -13  -2  153.38    6.50
   1  13  -1    3.00    0.40
  -1  13   1    2.60    0.30
  -1 -13   1    2.90    3.50
   1 -13  -1    2.20    2.80
  -1 -13   1    2.60    0.50
   1  13   0  327.87   14.00
  -1  13   0  330.67   13.90
  -1 -13   0  342.47   21.00
   1 -13   0  327.77   22.30
   1 -13   0  328.57   14.00
  -1 -13   0  329.87   14.00
   1 -13   0  337.57   14.00
   1 -13   0  313.87   13.90
  -1  13  -1  441.96   18.10
   1  13   1  442.56   18.10
   1  13   1  403.66   18.10
   1 -13   1  434.46   18.20
  -1 -13  -1  404.86   18.10
  -1 -13  -1  423.86   25.60
   1 -13   1  449.86   18.20
   1  13   2   15.50    1.00
   1  13   2   17.00    1.00
   1 -13   2   16.50    5.30
   1 -13   2   15.40    1.10
   1 -13   2   15.30    1.10
  -1 -13  -2   16.80    0.90
  -1 -13  -2   14.00    6.80
   1  13   3   20.30    1.20
   1  13   3   19.50    1.20
   1  13   3   22.20    1.40
   1 -13   3   20.30    1.20
   1 -13   3   20.30    1.20
  -1 -13  -3   19.60    1.20
   1 -13   3   19.60    5.80
   1  13   4   16.20    1.10
   1  13   4   16.80    1.40
   1  13   4   16.20    1.50
   1  13   4   14.70    1.20
   1 -13   4   15.70    1.10
  -1 -13  -4   16.80    1.00
   1 -13   4   15.40    1.10
   1  13   5   17.20    1.30
   1  13   5   15.20    1.50
   1  13   5   16.30    1.20
   1 -13   5   15.50    1.20
   1 -13   5   16.20    1.10
  -1 -13  -5   17.40    1.10
   1  13   6    2.00    1.00
   1  13   6    0.70    0.60
  -1 -13  -6    1.30    0.60
   1 -13   6    0.00    0.50
   1 -13   6    1.50    0.50
  -1  14   6    1.40    0.80
  -1  14   6    2.00    0.60
  -1 -14   6    1.30    0.50
  -1 -14   6    0.70    0.50
   1 -14  -6    0.50    0.50
  -1  14   5   66.29    2.90
   1  14  -5   64.19    3.30
  -1  14   5   64.59    3.20
  -1  14   5   60.89    3.10
  -1 -14   5   61.39    2.90
  -1 -14   5   61.59    9.00
  -1 -14   5   60.59    2.90
   1 -14  -5   65.49    2.90
  -1  14   4   10.90    0.90
  -1  14   4   11.20    1.10
  -1  14   4   10.70    1.10
   1 -14  -4   11.50    0.90
  -1 -14   4   10.60    0.90
  -1 -14   4   10.40    4.50
   1 -14  -4    9.00    1.00
  -1 -14   4   11.50    0.90
  -1  14   3    2.30    0.60
  -1  14   3    2.10    0.50
   1 -14  -3    2.00    0.40
   1 -14  -3    2.10    0.40
  -1 -14   3    2.70    0.40
  -1 -14   3    2.30    2.70
  -1  14   2  405.16   17.50
   1  14  -2  424.06   17.50
  -1 -14   2  398.56   17.50
   1 -14  -2  418.46   17.50
  -1 -14   2  429.06   17.70
   1 -14  -2  361.06   26.30
  -1 -14   2  462.05   26.20
   1 -14  -2  409.96   17.50
  -1  14   1  106.69    4.70
   1  14  -1  108.69    4.70
  -1 -14   1  110.69    4.80
   1 -14  -1   99.49   11.70
  -1 -14   1  112.59   11.00
   1 -14  -1  110.79    4.70
   1 -14  -1  106.09    4.70
  -1  14   0  153.38    6.50
   1  14   0  163.08    6.60
  -1 -14   0  151.18    6.60
   1 -14   0  147.39    6.60
   1 -14   0  156.08    6.60
  -1 -14   0  158.18   13.40
   1 -14   0  146.19   14.20
   1 -14   0  145.19    6.50
   1  14   1 1145.49   46.50
  -1  14  -1 1095.89   46.50
   1 -14   1 1101.19   46.60
   1 -14   1 1094.89   57.39
  -1 -14  -1 1063.89   46.50
  -1 -14  -1 1077.29   55.69
   1 -14   1 1160.78   46.60
   1  14   2    2.20    0.50
   1  14   2    1.90    0.40
   1 -14   2    1.00    0.50
  -1 -14  -2    1.30    3.30
   1 -14   2    1.90    0.50
   1 -14   2    1.90    2.90
  -1 -14  -2    1.90    0.40
   1  14   3  193.28    8.20
   1  14   3  188.48    8.10
   1  14   3  195.48    8.30
   1 -14   3  187.28    8.20
   1 -14   3  191.48    8.20
   1 -14   3  176.48   16.20
  -1 -14  -3  188.48    8.20
   1  14   4    3.70    0.70
   1  14   4    4.40    0.60
   1  14   4    4.70    1.00
   1  14   4    4.40    0.70
   1 -14   4    3.90    0.60
   1 -14   4    4.60    0.80
  -1 -14  -4    3.20    0.50
   1  14   5    5.70    0.90
   1  14   5    6.10    0.90
   1  14   5    5.90    0.90
   1 -14   5    6.50    0.90
  -1 -14  -5    6.10    0.80
   1 -14   5    5.40    0.70
   1  14   6    0.20    0.60
  -1 -14  -6   -0.20    0.60
   1 -14   6   -0.20    0.50
   1 -14   6   -0.50    0.70
  -1  15   6    0.50    0.60
  -1  15   6   -0.50    0.80
   1 -15  -6    0.00    0.50
  -1 -15   6   -0.60    0.50
  -1 -15   6    0.30    0.50
  -1  15   5  123.09    5.60
  -1  15   5  122.29    5.40
   1  15  -5  124.09    5.70
  -1 -15   5  121.79    5.40
   1 -15  -5  128.69    5.40
  -1 -15   5  117.19   12.60
  -1 -15   5  120.19    5.40
  -1  15   4    4.80    0.70
  -1  15   4    3.30    0.70
  -1 -15   4    5.20    0.70
   1 -15  -4    3.10    0.60
  -1 -15   4    3.30    0.50
  -1 -15   4    3.80    4.20
   1 -15  -4    4.20    0.60
  -1  15   3  103.09    4.70
  -1 -15   3  100.29    4.70
   1 -15  -3  105.29    4.70
  -1 -15   3  110.69   11.60
   1 -15  -3  109.49    4.70
   1  15  -2  237.28   10.00
  -1  15   2  225.28   10.00
  -1 -15   2  246.38   18.20
   1 -15  -2  231.18   10.10
   1 -15  -2  234.68   10.00
  -1  15   1 2382.06   99.89
  -1 -15   1 2511.85   99.99
   1 -15  -1 2332.97   99.89
   1 -15  -1 2194.38  111.89
   1 -15  -1 2472.55   99.89
  -1  15   0   79.79    3.30
   1  15   0   74.39    3.30
   1 -15   0   70.19   10.10
  -1 -15   0   74.39    3.50
   1 -15   0   77.59    3.40
   1 -15   0   72.59    3.30
  -1 -15   0   74.59    9.60
  -1  15  -1  772.72   32.20
   1  15   1  800.22   32.20
  -1 -15  -1  796.22   32.20
   1 -15   1  700.53   32.50
   1 -15   1  818.52   32.40
   1 -15   1  755.32   43.30
  -1 -15  -1  746.53   41.90
  -1 -15  -1  725.23   32.20
  -1  15  -2  336.97   14.00
   1  15   2  337.07   14.10
   1  15   2  331.47   14.00
   1 -15   2  341.47   14.20
  -1 -15  -2  285.37   22.00
   1 -15   2  311.17   23.40
   1 -15   2  326.47   14.10
  -1 -15  -2  345.87   14.00
   1 -15   2  352.86   14.10
   1  15   3    4.70    0.70
   1  15   3    4.60    0.70
   1  15   3    5.10    0.70
  -1 -15  -3    5.10    0.70
   1 -15   3    4.60    4.90
   1 -15   3    4.40    0.80
   1  15   4   35.70    2.20
   1  15   4   34.70    2.00
   1  15   4   35.20    1.90
   1 -15   4   35.20    1.90
   1 -15   4   37.90    1.90
  -1 -15  -4   36.20    1.80
   1  15   5   12.10    1.50
   1  15   5   11.70    1.10
   1 -15   5   12.60    1.10
   1 -15   5   11.70    1.10
  -1 -15  -5   12.90    0.90
  -1  16   6    0.00    0.70
   1 -16  -6    0.40    0.40
  -1 -16   6    0.50    0.60
  -1  16   5  250.37   10.30
  -1  16   5  236.08   10.10
   1 -16  -5  247.18   10.10
  -1 -16   5  208.38   18.00
  -1 -16   5  229.98   10.10
  -1 -16   5  245.38   10.10
  -1  16   4   36.30    2.00
  -1 -16   4   34.00    1.80
  -1 -16   4   31.50    7.00
  -1 -16   4   32.40    1.80
   1 -16  -4   35.60    1.80
   1  16  -3  148.09    6.30
  -1  16   3  143.89    6.40
  -1 -16   3  148.09   14.20
   1 -16  -3  145.69    6.40
   1 -16  -3  150.68    6.40
   1  16  -2   24.10    1.30
  -1  16   2   22.40    1.50
  -1 -16   2   27.80    6.50
   1 -16  -2   25.80    1.50
   1 -16  -2   25.20    1.40
   1  16  -1  204.98    8.50
  -1  16   1  193.08    8.50
   1 -16  -1  199.28    8.50
   1 -16  -1  211.08    8.60
  -1 -16   1  204.28   17.00
  -1 -16   1  202.88    8.50
  -1 -16   1  196.68    8.80
   1 -16  -1  180.48   17.40
  -1  16   0   96.09    4.20
   1  16   0   98.29    4.20
   1 -16   0  100.09    4.40
   1 -16   0   89.79   11.80
  -1 -16   0   96.79    4.40
  -1 -16   0   94.89   11.30
  -1 -16   0   98.09    4.20
  -1  16  -1  315.97   13.20
   1  16   1  315.67   13.20
  -1 -16  -1  321.47   13.20
  -1 -16  -1  303.97   22.40
  -1 -16  -1  298.97   13.50
   1 -16   1  331.37   13.40
   1 -16   1  296.67   23.10
   1 -16   1  299.37   13.40
  -1  16  -2   79.89    3.60
   1  16   2   83.59    3.70
  -1 -16  -2   87.09    3.60
   1 -16   2   74.89   10.70
   1 -16   2   85.79    3.70
  -1 -16  -2   69.69   10.60
   1 -16   2   80.59    3.70
   1 -16   2   84.89    3.80
   1  16   3   20.80    1.50
   1  16   3   22.50    1.70
  -1  16  -3   17.70    1.20
   1  16   3   20.00    1.30
   1  16   3   20.10    1.40
   1 -16   3   19.70    1.30
  -1 -16  -3   22.00    1.20
   1 -16   3   16.70    6.40
   1 -16   3   18.50    1.20
   1  16   4    2.70    0.70
   1  16   4    2.60    0.80
   1  16   4    3.50    1.00
   1  16   4    2.40    0.90
  -1 -16  -4    2.30    0.50
   1 -16   4    2.70    0.60
   1 -16   4    2.70    0.70
   1  16   5  112.49    4.90
   1 -16   5  117.39    5.00
   1 -16   5  107.69    5.00
  -1  17   5  209.48    9.40
   1 -17  -5  226.08    9.30
  -1 -17   5  211.58    9.30
  -1  17   4    3.00    0.70
   1  17  -4    4.00    0.50
  -1 -17   4    3.80    0.60
  -1 -17   4    3.50    3.80
   1 -17  -4    2.80    0.50
   1  17  -3  209.38    8.80
   1  17  -3  193.88    8.50
   1 -17  -3  192.68    8.60
  -1 -17   3  190.08   16.90
   1 -17  -3  203.58    8.50
   1  17  -2  171.48    7.20
   1 -17  -2  165.58    7.30
   1 -17  -2  164.58    7.20
  -1 -17   2  164.58   15.50
  -1  17   1   50.59    2.50
   1  17  -1   53.79    2.40
   1 -17  -1   48.40    9.30
  -1 -17   1   55.69    9.00
  -1 -17   1   52.39    2.40
   1 -17  -1   51.99    2.40
   1 -17  -1   55.79    2.60
  -1  17   0  355.16   15.70
   1  17   0  383.66   15.70
  -1 -17   0  372.96   15.80
   1 -17   0  394.66   15.80
  -1 -17   0  378.46   15.70
  -1 -17   0  365.46   25.60
   1 -17   0  342.47   26.20
   1  17   1    5.50    0.80
  -1  17  -1    4.60    0.60
   1 -17   1    5.40    0.90
  -1 -17  -1    4.70    4.20
  -1 -17  -1    5.40    0.60
   1 -17   1    4.90    5.00
   1  17   2  279.97   12.00
   1 -17   2  265.67   12.00
  -1 -17  -2  292.57   12.00
   1 -17   2  294.07   12.20
   1 -17   2  296.47   12.00
   1 -17   2  255.17   21.50
   1  17   3  126.49    5.60
   1  17   3  124.69    5.50
   1  17   3  120.39    5.40
   1 -17   3  106.39   12.80
  -1 -17  -3  127.59    5.30
   1 -17   3  123.99    5.30
   1 -17   3  109.39    5.50
   1  17   4   49.00    2.70
   1 -17   4   54.19    2.50
   1 -17   4   48.10    2.60
  -1 -17  -4   54.29    2.40
  -1 -18   5   -0.30    0.50
   1 -18  -5   -0.50    0.50
  -1  18   4  155.68    6.80
   1 -18  -4  156.58    6.60
  -1 -18   4  157.98    6.60
  -1 -18   4  135.99   14.10
   1  18  -3   69.19    3.40
   1  18  -3   61.49    3.00
  -1  18   3   71.39    3.30
   1 -18  -3   67.79    3.10
   1 -18  -3   63.69    3.20
   1  18  -2   43.50    2.00
   1 -18  -2   43.50    2.20
   1 -18  -2   41.90    2.10
  -1 -18   2   42.60    8.30
   1  18  -1   17.00    1.10
   1 -18  -1   18.70    1.30
  -1 -18   1   16.80    1.00
   1 -18  -1   16.10    1.10
  -1 -18   1   17.90    6.30
   1  18   0   99.89    4.40
  -1 -18   0  101.09    4.30
   1 -18   0  102.69    4.50
  -1 -18   0   97.39   12.20
   1 -18   0   89.89   12.30
   1  18   1   11.00    1.00
   1 -18   1   10.10    1.10
  -1 -18  -1    8.80    6.40
   1 -18   1    9.10    5.70
  -1 -18  -1   11.00    0.80
   1  18   2    4.30    0.80
   1  18   2    5.30    0.80
   1 -18   2    5.00    5.50
  -1 -18  -2    5.70    0.70
   1 -18   2    4.40    0.70
   1  18   3   16.30    1.40
   1  18   3   15.10    1.60
   1 -18   3   15.90    1.20
  -1 -18  -3   15.60    1.00
   1  18   4  113.79    5.70
   1 -18   4  130.39    5.50
  -1 -18  -4  132.39    5.50
  -1  19   4  141.29    6.30
   1  19  -4  147.39    6.40
  -1 -19   4  119.09   13.50
   1 -19  -4  148.69    6.10
  -1 -19   4  146.79    6.10
  -1  19   3   12.50    1.30
   1 -19  -3   11.60    0.90
  -1 -19   3   11.80    5.90
  -1 -19   3   13.10    1.10
   1  19  -2    8.90    0.90
   1 -19  -2    6.90    1.10
   1 -19  -2    7.20    0.80
  -1 -19   2    9.10    5.80
   1  19  -1   53.49    2.50
   1 -19  -1   50.69    2.50
  -1 -19   1   51.59    9.30
   1 -19  -1   54.59    2.60
   1  19   0   31.40    1.80
  -1 -19   0   33.00    1.60
  -1 -19   0   29.20    7.90
   1 -19   0   33.90    1.90
   1  19   1    0.40    0.70
   1 -19   1    0.40    0.60
  -1 -19  -1    0.60    4.20
   1 -19   1    0.30    4.90
   1 -19   1    2.70    0.60
  -1 -19  -1    0.90    0.40
   1  19   2    7.80    1.20
   1  19   2    9.90    1.50
   1 -19   2    9.70    1.00
  -1 -19  -2   10.10    0.80
   1  19   3  445.56   20.40
   1  19   3  476.65   20.40
   1 -19   3  493.05   20.30
  -1 -19  -3  495.75   20.20
  -1  20   3  452.85   19.60
  -1 -20   3  413.06   28.50
   1 -20  -3  490.25   19.60
  -1 -20   3  485.05   19.50
   1  20  -2    5.50    1.00
   1 -20  -2    6.20    0.90
   1 -20  -2    5.30    0.70
  -1 -20   2    4.40    4.30
   1 -20  -1    9.50    1.20
  -1 -20   1    6.30    5.80
   1 -20   0  142.99    6.10
  -1 -20   0  122.99   14.20
  -1 -20   0  132.99    5.90
   1 -20   0  144.89    6.00
   1  20   1   28.80    2.00
   1 -20   1   28.90    1.60
  -1 -20  -1   26.80    1.50
   1  20   2   12.70    1.50
   1  20   2   11.40    1.40
   1 -20   2   11.70    1.00
  -1 -20  -2   11.70    0.90
   1  20   3  321.57   14.40
  -1 -20  -3  338.37   14.30
   1 -20   3  348.57   14.30
   1  21  -2    3.00    1.00
  -1 -21   2    1.80    3.90
   1 -21  -2    1.90    0.70
   1  21  -1    2.90    0.90
  -1 -21   1    1.90    4.20
   1 -21  -1    1.80    0.60
   1 -21  -1    3.20    0.70
   1  21   0  448.76   18.00
   1 -21   0  429.56   17.70
  -1 -21   0  390.86   17.60
   1 -21   0  401.76   17.80
   1  21   1   18.60    1.60
   1 -21   1   17.70    1.20
  -1 -21  -1   18.60    1.10
   1  21   2  267.77   11.80
  -1 -21  -2  268.67   11.60
   1 -21   2  281.47   11.60
   1  22  -1   49.80    2.60
   1 -22  -1   48.90    2.30
   1  22   0   34.70    2.10
   1 -22   0   33.90    1.90
  -2   0   9    0.30    0.60
  -2   0   8   26.30    1.60
  -2   0   8   28.10    1.80
   2   0  -7    0.00    0.80
  -2   0   7   -0.30    0.40
  -2   0   7    0.10    0.40
   2   0  -6  242.38   10.30
  -2   0   6  251.37   10.40
   2   0  -6  239.18   10.30
   2   0  -6  231.98   10.30
  -2   0   5    0.00    0.30
   2   0  -5    0.10    0.30
   2   0  -5   -0.10    0.30
   2   0  -5    0.20    0.30
   2   0  -3    0.10    0.30
   2   0  -3   -0.30    0.20
  -2   0   3   -0.10    0.20
  -2   0   2 4974.20  233.58
   2   0  -2 4689.63  231.18
   2   0  -1    2.40    0.30
   2   0   1    0.10    0.20
   2   0   1    0.10    0.20
   2   0   1    0.20    0.10
   2   0   2    3.60    0.40
   2   0   2    3.70    0.40
   2   0   2    3.30    0.40
   2   0   2    3.30    0.40
   2   0   2    3.60    0.40
   2   0   2    4.00    0.40
   2   0   3   -0.10    0.20
   2   0   3    0.20    0.20
   2   0   3    0.60    0.30
   2   0   3    0.10    0.20
   2   0   3    0.30    0.30
   2   0   4  204.58    8.70
   2   0   4  204.98    8.70
   2   0   4  200.18    8.60
   2   0   4  200.28    8.70
   2   0   5    0.20    0.40
   2   0   5   -0.30    0.40
   2   0   5   -0.20    0.30
   2   0   6    2.00    0.40
   2   0   6    2.90    0.60
   2   0   6    1.20    0.50
   2   0   7   -0.40    0.60
  -2   1   9   13.80    1.00
  -2   1   8  144.79    6.40
  -2  -1   8  148.19    6.40
  -2  -1   8  147.59    6.40
  -2   1   7   85.49    4.00
  -2   1   7   91.39    3.90
  -2  -1   7   94.99    3.90
  -2  -1   7   85.49    3.90
   2  -1  -7   82.49    3.90
   2  -1  -7   78.59    4.00
   2   1  -6   99.29    4.30
   2   1  -6   94.99    4.30
   2   1  -6   91.89    4.40
  -2   1   6  103.39    4.40
   2  -1  -6  100.29    4.30
   2  -1  -6   96.79    4.40
  -2  -1   6  100.99    4.40
   2  -1  -6   95.19    4.30
   2   1  -5  133.29    5.60
   2   1  -5  129.89    5.50
   2   1  -5  123.99    5.60
  -2   1   5  136.79    5.60
  -2  -1   5  132.69    5.60
  -2  -1   5  110.99    9.00
   2  -1  -5  123.29    5.60
   2  -1  -5  130.79    5.60
   2  -1  -5  130.59    5.50
   2   1  -4  374.06   15.70
   2   1  -4  362.76   15.70
   2   1  -4  354.66   15.80
  -2   1   4  387.96   15.70
  -2  -1   4  388.46   15.70
   2  -1  -4  375.76   15.70
   2  -1  -4  359.56   15.80
   2  -1  -4  368.76   15.70
   2   1  -3  776.22   30.90
   2   1  -3  734.03   30.90
   2   1  -3  765.12   30.90
   2   1  -3  686.83   31.00
  -2   1   3  764.72   30.90
   2   1  -3  720.63   30.90
   2  -1  -3  676.13   31.00
  -2  -1   3  758.82   30.90
   2  -1  -3  735.33   30.90
   2   1  -2   35.30    1.60
  -2   1   2   34.90    1.60
   2   1  -2   34.10    1.60
   2  -1  -2   38.70    1.60
   2  -1  -2   37.90    1.60
  -2  -1   2   34.30    1.60
   2   1   1  462.35   19.40
   2   1   1  433.36   19.40
   2   1   1  461.25   19.40
   2   1   1  497.55   19.40
   2  -1   1  468.25   19.40
   2  -1   1  448.16   19.40
   2  -1   1  456.25   19.40
   2  -1   1  460.95   19.40
   2   1   2  315.67   15.30
   2   1   2  368.26   15.20
   2   1   2  385.56   15.30
   2   1   2  359.46   15.20
   2   1   2  385.06   15.30
   2   1   2  358.66   15.20
   2   1   2  367.36   15.20
   2  -1   2  334.37   15.20
   2  -1   2  360.66   15.20
   2  -1   2  372.26   15.30
   2  -1   2  351.06   15.20
   2  -1   2  333.77   15.20
   2  -1   2  386.16   15.30
   2  -1   2  364.86   15.30
   2  -1   2  374.86   15.20
   2   1   3  563.54   23.30
   2   1   3  565.14   23.40
   2   1   3  549.85   23.40
   2   1   3  548.45   23.40
   2   1   3  571.14   23.40
   2  -1   3  538.05   23.40
   2  -1   3  560.44   23.40
   2  -1   3  529.35   23.30
   2  -1   3  562.44   23.40
   2  -1   3  555.44   23.30
   2   1   4   25.20    1.30
   2   1   4   25.60    1.40
   2   1   4   25.20    1.30
   2   1   4   25.80    1.30
   2  -1   4   25.30    1.40
   2  -1   4   26.10    1.30
   2  -1   4   25.40    1.30
   2  -1   4   25.30    1.30
   2   1   5   24.30    1.20
   2   1   5   23.30    1.40
   2   1   5   26.10    1.30
   2   1   5   23.40    1.40
   2  -1   5   24.20    1.40
   2  -1   5   22.60    1.40
   2  -1   5   24.00    1.30
   2  -1   5   23.90    1.30
   2   1   6  171.78    7.30
   2   1   6  164.58    7.20
   2   1   6  172.68    7.30
   2  -1   6  165.98    7.20
   2  -1   6  164.58    7.20
   2  -1   6  160.28    7.30
   2  -1   6  171.78    7.30
   2   1   7   42.20    2.40
   2   1   7   42.40    2.20
   2  -1   7   44.00    2.20
  -2   2   8  174.88    7.90
  -2   2   8  180.98    7.90
  -2  -2   8  183.28    7.80
  -2  -2   8  181.68    7.90
  -2  -2   8  190.98    7.90
  -2   2   7   24.10    1.50
  -2   2   7   24.40    1.30
   2  -2  -7   24.40    1.60
  -2  -2   7   23.90    1.40
  -2  -2   7   26.10    1.40
   2   2  -6  117.19    5.10
   2   2  -6  114.09    5.10
   2   2  -6  110.49    5.20
  -2   2   6  120.79    5.20
   2  -2  -6  116.69    5.10
   2  -2  -6  118.99    5.10
   2  -2  -6  116.49    5.20
  -2  -2   6  119.69    5.10
   2   2  -5  176.78    7.50
   2   2  -5  167.58    7.50
  -2   2   5  187.58    7.50
   2  -2  -5  174.48    7.40
   2  -2  -5  174.48    7.50
  -2  -2   5  162.08   11.30
  -2  -2   5  180.18    7.50
   2  -2  -5  170.08    7.50
   2   2  -4  270.57   11.30
   2   2  -4  255.07   11.40
  -2   2   4  274.87   11.40
   2   2  -4  263.17   11.30
   2  -2  -4  255.37   11.40
   2  -2  -4  270.97   11.30
  -2  -2   4  279.87   11.30
   2   2  -3    1.60    0.30
   2   2  -3    1.60    0.30
   2   2  -3    1.30    0.30
   2   2  -3    1.60    0.30
   2   2  -3    1.40    0.40
  -2  -2   3    1.70    0.30
   2  -2  -3    1.30    0.30
   2  -2  -3    1.10    0.30
   2   2  -2  131.69    5.70
  -2   2   2  132.99    5.70
   2   2  -2  133.19    5.70
   2  -2  -2  141.09    5.70
  -2  -2   2  133.59    5.70
  -2   2   1 4582.34  216.88
   2   2  -1 4837.32  219.98
   2   2   1  292.77   12.40
   2   2   1  309.87   12.40
   2   2   1  296.17   12.40
   2   2   1  278.57   12.40
   2   2   1  297.77   12.40
   2  -2   1  281.77   12.40
   2  -2   1  288.47   12.40
   2  -2   1  306.07   12.40
  -2  -2  -1  279.87   13.80
   2  -2   1  286.57   12.40
   2  -2   1  316.97   12.40
   2   2   2  185.68    8.80
   2   2   2  219.58    8.70
   2   2   2  212.18    8.70
   2   2   2  206.68    8.70
   2   2   2  199.78    8.70
   2   2   2  210.88    8.70
   2   2   2  196.28    8.70
   2  -2   2  206.58    8.70
   2  -2   2  189.38    8.70
   2  -2   2  207.18    8.70
   2  -2   2  206.78    8.70
   2  -2   2  206.58    8.70
   2   2   3  522.75   23.10
   2   2   3  536.25   23.10
   2   2   3  560.84   23.10
   2   2   3  560.54   23.10
   2   2   3  567.14   23.20
   2   2   3  546.15   23.10
   2  -2   3  524.65   23.10
   2  -2   3  543.25   23.10
   2  -2   3  554.34   23.10
   2  -2   3  558.24   23.10
   2  -2   3  551.84   23.10
   2   2   4    1.20    0.30
   2   2   4    1.60    0.40
   2   2   4    1.60    0.40
   2   2   4    1.00    0.40
   2  -2   4    1.40    0.40
   2  -2   4    1.80    0.40
   2  -2   4    1.20    0.40
   2  -2   4    1.30    0.40
   2   2   5  383.96   15.80
   2   2   5  379.96   15.90
   2   2   5  360.46   15.80
   2  -2   5  379.06   15.90
   2  -2   5  352.56   15.80
   2  -2   5  371.86   15.90
   2  -2   5  379.66   15.80
   2   2   6  422.46   17.60
   2   2   6  420.26   17.50
   2   2   6  406.66   17.40
   2  -2   6  429.46   17.60
   2  -2   6  402.56   17.40
   2  -2   6  393.56   17.50
   2   2   7    1.80    0.70
   2   2   7    1.30    0.70
   2  -2   7    1.10    0.60
  -2   3   8   75.99    3.60
  -2  -3   8   74.99    3.50
  -2  -3   8   75.89    3.40
  -2  -3   8   78.49    3.70
  -2   3   7  532.05   22.70
  -2   3   7  535.75   22.80
   2  -3  -7  517.45   22.80
   2  -3  -7  511.05   22.80
  -2  -3   7  582.44   22.80
  -2  -3   7  546.65   22.80
   2   3  -6  680.93   30.70
   2   3  -6  709.33   30.60
  -2   3   6  752.12   30.70
   2  -3  -6  722.43   30.60
   2  -3  -6  718.83   30.70
   2  -3  -6  749.73   30.60
  -2  -3   6  744.43   30.60
   2   3  -5   45.40    2.10
   2   3  -5   42.00    2.20
  -2   3   5   47.10    2.10
   2  -3  -5   43.10    2.10
   2  -3  -5   43.30    2.10
  -2  -3   5   46.20    2.10
  -2  -3   5   44.30    5.40
   2  -3  -5   47.00    2.10
   2   3  -4  579.34   24.70
  -2   3   4  627.74   24.80
   2   3  -4  604.94   24.70
   2   3  -4  569.84   24.80
  -2  -3   4  612.24   24.70
  -2  -3   4  524.05   28.70
   2  -3  -4  574.24   24.70
   2  -3  -4  599.34   24.70
  -2   3   3  761.22   31.30
   2   3  -3  700.73   31.40
   2   3  -3  723.13   31.30
   2   3  -3  784.92   31.30
   2   3  -3  785.12   31.30
  -2  -3   3  760.42   31.30
   2  -3  -3  690.03   31.30
   2  -3  -3  744.43   31.30
  -2   3   2  846.92   64.49
   2   3  -2  929.31   62.79
   2   3  -2  881.01   67.19
   2  -3  -2  897.71   62.69
  -2   3   1  939.31   59.39
  -2   3   0 2232.78  111.99
   2  -3   0 2650.43  112.19
  -2  -3   0 2177.38  113.59
   2   3   1 2415.66  127.09
  -2   3  -1 2539.15  118.09
   2   3   2  485.45   21.00
   2   3   2  521.95   21.00
   2   3   2  514.35   21.00
   2   3   2  515.15   21.00
   2   3   2  470.25   21.10
   2   3   2  460.95   20.90
   2   3   2  527.45   21.00
   2  -3   2  497.25   21.00
   2  -3   2  497.45   21.00
   2  -3   2  519.05   21.00
   2  -3   2  506.55   20.90
   2  -3   2  467.55   21.00
   2  -3   2  488.05   21.00
   2   3   3   75.09    3.20
   2   3   3   76.69    3.20
   2   3   3   69.79    3.20
   2   3   3   71.99    3.20
   2   3   3   73.99    3.30
  -2  -3  -3   73.29    3.20
   2  -3   3   76.69    3.30
   2  -3   3   68.39    3.20
   2  -3   3   74.39    3.30
   2  -3   3   73.69    3.30
   2   3   4  207.78    8.50
   2   3   4  200.58    8.50
   2   3   4  201.48    8.60
   2   3   4  196.98    8.50
   2  -3   4  198.48    8.50
   2  -3   4  201.78    8.50
   2  -3   4  196.88    8.50
   2  -3   4  184.48    8.50
   2   3   5  695.33   29.60
   2   3   5  695.53   29.70
   2   3   5  721.73   29.70
   2  -3   5  702.93   29.70
   2  -3   5  694.73   29.60
   2  -3   5  703.83   29.70
   2   3   6   22.90    1.30
   2   3   6   25.70    1.60
   2   3   6   24.00    1.50
   2  -3   6   22.60    1.30
   2  -3   6   25.00    1.50
   2  -3   6   24.40    1.40
   2   3   7  166.58    7.10
   2  -3   7  173.18    7.40
   2  -3   7  152.08    7.20
  -2   4   8   19.20    1.50
  -2   4   8   20.60    1.20
  -2  -4   8   18.80    1.30
  -2  -4   8   21.60    1.70
  -2   4   7  176.78    7.60
  -2   4   7  172.08    7.50
  -2  -4   7  176.58    7.50
   2  -4  -7  165.18    7.60
  -2  -4   7  183.58    7.60
   2  -4  -7  170.58    7.50
   2   4  -6  546.35   23.80
   2   4  -6  529.45   23.90
  -2   4   6  588.44   23.90
   2  -4  -6  549.65   23.90
   2  -4  -6  583.54   23.80
   2  -4  -6  561.64   23.80
  -2  -4   6  589.24   23.90
  -2   4   5  298.47   12.60
   2   4  -5  282.57   12.60
   2   4  -5  292.87   12.50
   2  -4  -5  290.67   12.50
   2  -4  -5  292.77   12.50
  -2  -4   5  307.27   17.10
  -2  -4   5  300.07   12.50
   2   4  -4  164.28    6.90
   2   4  -4  156.38    7.00
  -2   4   4  166.88    6.90
  -2  -4   4  166.28    6.80
  -2  -4   4  153.38   10.70
   2  -4  -4  155.68    6.90
   2   4  -3  411.36   17.00
  -2   4   3  410.76   17.00
  -2   4   3  430.36   16.90
   2   4  -3  413.36   16.90
   2   4  -3  416.86   17.00
  -2  -4   3  351.36   20.40
  -2  -4   3  403.26   16.90
   2  -4  -3  397.86   17.00
   2  -4  -3  385.56   17.00
   2   4  -2  449.46   18.70
  -2   4   2  452.25   18.60
   2   4  -2  422.96   18.70
   2  -4  -2  425.86   18.70
   2  -4  -2  398.06   18.70
   2  -4  -2  481.95   18.80
   2  -4  -2  462.35   18.70
   2   4  -1  614.74   26.10
   2  -4  -1  608.74   26.10
   2  -4  -1  642.94   26.20
   2   4   0  126.09    5.00
   2   4   0  117.69    5.10
   2   4   0  132.29    5.00
   2   4   0  116.79    5.20
   2  -4   0  114.49    5.10
  -2  -4   0  111.69    7.20
   2  -4   0  109.19    5.00
   2  -4   0  120.69    5.10
   2  -4   0  121.99    5.10
   2   4   1  108.59    4.20
   2   4   1   97.39    4.30
   2   4   1   98.69    4.20
   2   4   1   93.59    4.20
   2   4   1   98.99    4.20
   2   4   1   99.29    4.20
   2  -4   1   89.39    4.20
   2  -4   1   92.29    4.20
  -2  -4  -1  103.99    5.80
   2  -4   1   96.59    4.20
   2  -4   1   92.79    4.20
   2  -4   1  100.09    4.20
   2   4   2  214.28    8.80
   2   4   2  224.58    8.80
   2   4   2  195.58    8.90
   2   4   2  207.18    8.80
   2   4   2  215.78    8.80
   2   4   2  204.78    8.80
   2  -4   2  212.88    8.80
   2  -4   2  198.68    8.80
   2  -4   2  199.38    8.80
   2  -4   2  203.08    8.80
   2  -4   2  195.18    8.70
   2  -4   2  208.28    8.80
   2   4   3    3.30    0.50
   2   4   3    2.80    0.40
   2   4   3    2.60    0.40
   2   4   3    2.60    0.60
   2   4   3    2.20    0.40
   2  -4   3    2.40    0.40
   2  -4   3    2.00    0.40
  -2  -4  -3    2.40    0.30
   2   4   4  902.41   37.60
   2   4   4  912.41   37.60
   2   4   4  858.31   37.50
   2   4   4  906.71   37.70
   2  -4   4  866.11   37.60
  -2  -4  -4  885.31   37.50
   2  -4   4  909.61   37.60
   2  -4   4  892.81   37.60
   2   4   5 1035.70   43.20
   2   4   5 1018.10   43.30
   2   4   5  995.80   43.10
   2  -4   5 1054.99   43.20
   2  -4   5 1017.50   43.20
   2  -4   5 1028.00   43.20
   2   4   6    5.10    0.70
   2   4   6    6.00    1.00
   2  -4   6    6.00    1.00
   2  -4   6    4.80    0.60
   2   4   7    7.90    1.10
   2  -4   7    6.50    0.70
  -2   5   8   16.80    1.40
  -2   5   8   17.70    1.20
  -2  -5   8   16.10    1.10
  -2   5   7   34.30    1.90
  -2  -5   7   35.10    1.80
  -2  -5   7   36.10    1.80
   2  -5  -7   34.60    1.80
   2  -5  -7   32.40    2.00
   2   5  -6  801.82   35.60
  -2   5   6  863.41   35.80
   2   5  -6  790.32   35.80
   2  -5  -6  851.61   35.70
   2  -5  -6  876.31   35.70
  -2  -5   6  871.51   35.70
   2  -5  -6  801.32   35.80
  -2  -5   6  917.01   35.70
   2   5  -5  885.01   40.70
   2   5  -5  968.10   40.60
  -2   5   5  983.20   40.70
  -2  -5   5 1042.50   46.10
   2  -5  -5  951.20   40.60
   2  -5  -5  943.81   40.60
  -2  -5   5  979.00   40.60
   2   5  -4    1.10    0.40
  -2   5   4    1.00    0.30
   2   5  -4    0.50    0.20
   2   5  -4    0.80    0.30
  -2   5   4    0.80    0.30
   2   5  -4    0.60    0.30
   2  -5  -4    0.80    0.40
  -2  -5   4    1.00    0.20
  -2   5   3   11.40    0.60
   2   5  -3   10.20    0.60
  -2   5   3   11.30    0.70
   2   5  -3   10.00    0.60
   2   5  -3    8.60    0.60
   2  -5  -3   10.30    0.70
   2  -5  -3   10.40    0.60
  -2  -5   3   10.80    0.60
  -2  -5   3    9.00    2.70
  -2   5   2 1213.48   50.99
   2  -5  -2 1162.28   50.99
   2  -5  -2 1319.07   50.99
   2  -5  -2 1165.38   50.99
   2   5  -1   38.90    1.70
  -2   5   1   36.10    1.60
   2   5  -1   37.20    1.70
   2  -5  -1   37.70    1.70
  -2  -5   1   34.70    3.90
   2  -5  -1   40.10    1.80
   2  -5  -1   40.10    1.70
   2   5   0   46.70    2.10
   2   5   0   47.70    2.10
   2   5   0   50.39    2.10
   2  -5   0   49.70    2.20
  -2  -5   0   49.90    4.20
   2  -5   0   43.40    2.10
   2  -5   0   46.80    2.10
   2  -5   0   49.99    2.10
   2  -5   0   43.20    4.80
   2   5   1   46.50    2.10
   2   5   1   45.70    2.00
   2   5   1   46.00    2.00
   2   5   1   43.80    2.00
   2   5   1   46.50    2.00
   2  -5   1   47.40    2.00
   2  -5   1   45.40    2.00
  -2  -5  -1   46.70    3.80
   2  -5   1   39.20    5.10
   2  -5   1   43.90    2.00
   2  -5   1   46.50    2.00
   2  -5   1   45.00    2.00
   2   5   2  299.57   12.50
   2   5   2  294.77   12.40
   2   5   2  284.47   12.50
   2   5   2  297.97   12.40
   2   5   2  287.77   12.40
   2   5   2  293.67   12.40
   2  -5   2  294.07   12.50
   2  -5   2  320.47   12.40
   2  -5   2  295.57   12.40
   2  -5   2  281.27   12.40
   2  -5   2  270.67   12.50
   2   5   3   69.39    2.90
   2   5   3   66.09    2.90
   2   5   3   65.49    3.00
   2   5   3   68.79    2.90
   2   5   3   66.69    3.00
   2   5   3   59.29    3.00
   2  -5   3   67.59    3.00
  -2  -5  -3   64.29    2.90
   2  -5   3   65.89    3.00
   2  -5   3   64.29    2.90
   2   5   4  151.58    6.50
   2   5   4  142.69    6.40
   2   5   4  148.19    6.50
   2   5   4  150.18    6.40
   2  -5   4  145.59    6.40
   2  -5   4  147.29    6.50
   2  -5   4  151.98    6.40
  -2  -5  -4  149.29    6.40
   2   5   5  137.89    6.20
   2   5   5  143.29    6.10
   2   5   5  143.19    6.20
   2   5   5  135.49    6.00
   2  -5   5  136.79    6.10
   2  -5   5  143.49    6.20
   2  -5   5  139.19    6.10
   2   5   6   49.70    2.40
   2   5   6   50.29    2.50
   2  -5   6   47.70    2.40
   2  -5   6   47.80    2.30
   2  -5   6   49.50    2.40
   2   5   7  206.08    8.30
   2  -5   7  180.58    8.20
  -2   6   8    8.80    1.30
  -2   6   8    8.40    0.90
  -2  -6   8    8.50    0.90
  -2   6   7    0.20    0.50
  -2  -6   7    0.40    0.40
  -2  -6   7    0.00    0.40
   2  -6  -7    0.20    0.50
   2  -6  -7    0.60    0.60
   2  -6  -7    0.10    0.70
   2   6  -6   55.89    2.90
   2   6  -6   54.89    2.70
  -2   6   6   61.09    2.90
  -2  -6   6   62.99    2.70
  -2  -6   6   61.79    2.70
   2  -6  -6   61.19    2.70
   2  -6  -6   59.69    2.80
   2  -6  -6   56.39    2.90
   2   6  -5  903.21   38.20
   2   6  -5  826.52   38.20
   2   6  -5  855.01   38.40
  -2   6   5  899.01   38.30
   2  -6  -5  922.31   38.20
   2  -6  -5  916.11   38.30
  -2  -6   5 1020.80   44.10
  -2  -6   5  923.11   38.20
  -2   6   4   26.90    1.20
   2   6  -4   24.00    1.30
   2   6  -4   24.70    1.20
   2   6  -4   23.80    1.40
   2   6  -4   24.80    1.20
   2   6  -4   24.90    1.30
  -2   6   4   25.90    1.30
   2  -6  -4   25.90    1.30
   2  -6  -4   24.50    1.20
  -2  -6   4   25.60    1.20
  -2  -6   4   26.10    4.20
   2   6  -3   98.99    4.10
   2   6  -3   90.19    4.20
   2   6  -3   90.09    4.10
  -2   6   3   98.89    4.10
   2   6  -3   94.39    4.10
   2  -6  -3   98.69    4.20
   2  -6  -3   95.89    4.10
  -2  -6   3   99.09    7.70
  -2   6   2   74.09    3.50
   2   6  -2   77.39    3.50
   2   6  -2   86.59    3.50
  -2  -6   2   81.89    6.70
   2  -6  -2   79.79    3.50
   2  -6  -2   78.59    3.50
   2  -6  -2   83.29    3.60
   2  -6  -2   90.89    3.50
   2  -6  -2   81.99    3.50
  -2   6   1   10.70    0.50
   2   6  -1    9.70    0.60
   2   6  -1   11.40    0.60
   2  -6  -1    9.60    0.60
  -2  -6   1   10.90    2.50
   2  -6  -1   10.20    0.60
   2  -6  -1   10.40    0.60
   2   6   0  566.94   25.70
   2   6   0  635.24   25.70
   2   6   0  593.24   25.70
   2  -6   0  683.43   25.80
  -2  -6   0  664.63   28.80
   2  -6   0  539.55   30.10
   2  -6   0  594.94   25.80
   2  -6   0  608.94   25.70
   2   6   1 1315.17   55.59
   2   6   1 1255.97   55.59
   2   6   1 1369.16   55.69
   2  -6   1 1236.08   55.59
   2  -6   1 1276.17   55.59
  -2  -6  -1 1350.96   58.39
   2  -6   1 1464.95   55.59
   2   6   2 1171.78   48.90
   2   6   2 1134.89   49.00
   2   6   2 1202.68   48.80
   2  -6   2 1292.07   48.80
   2  -6   2 1067.69   48.90
   2  -6   2 1144.89   48.80
   2  -6   2 1109.49   48.90
   2   6   3  209.78    8.90
   2   6   3  208.78    8.80
   2   6   3  209.38    8.80
   2   6   3  191.38    8.90
   2   6   3  210.58    8.80
   2   6   3  204.18    8.80
  -2  -6  -3  207.68    8.70
   2  -6   3  204.08    8.80
   2  -6   3  200.78    8.80
   2  -6   3  209.18    8.80
   2   6   4   29.80    1.60
   2   6   4   30.90    1.60
   2   6   4   30.00    1.50
   2   6   4   31.20    1.70
  -2  -6  -4   29.70    1.50
   2  -6   4   32.40    1.60
   2  -6   4   30.60    1.60
   2  -6   4   30.20    1.60
   2   6   5   -0.20    0.50
   2   6   5   -0.50    0.50
   2   6   5    0.40    0.40
   2  -6   5    0.40    0.50
   2  -6   5    0.50    0.40
   2  -6   5   -0.30    0.40
   2   6   6    8.80    1.20
   2   6   6    9.70    1.10
   2  -6   6    9.30    0.80
   2  -6   6   10.20    1.10
   2   6   7    1.90    0.60
   2  -6   7    0.20    0.50
  -2   7   8   16.70    1.50
  -2   7   8   18.20    1.20
   2  -7  -8   16.90    1.60
  -2  -7   8   16.70    1.10
  -2   7   7   82.29    3.90
   2  -7  -7   84.49    3.80
  -2  -7   7   87.09    3.80
   2  -7  -7   81.39    3.80
  -2   7   6    2.20    0.60
   2   7  -6    1.50    0.70
  -2  -7   6    1.30    0.40
   2  -7  -6    0.20    0.50
   2  -7  -6    1.50    0.40
   2   7  -5  423.46   19.70
  -2   7   5  458.35   19.60
  -2  -7   5  468.75   19.50
   2  -7  -5  472.75   19.50
  -2  -7   5  500.95   25.00
   2  -7  -5  443.36   19.50
  -2   7   4  627.44   27.70
   2   7  -4  647.44   27.60
  -2   7   4  652.73   27.60
  -2  -7   4  701.93   33.10
   2  -7  -4  657.13   27.60
   2  -7  -4  643.94   27.60
   2   7  -3   61.09    2.90
  -2   7   3   67.49    2.90
   2   7  -3   63.69    3.00
   2   7  -3   68.49    2.90
   2  -7  -3   69.39    2.90
   2  -7  -3   61.79    2.90
  -2  -7   3   72.09    6.50
   2   7  -2   21.80    1.10
  -2   7   2   23.40    1.10
   2   7  -2   24.30    1.10
  -2  -7   2   24.80    3.80
   2  -7  -2   24.20    1.20
   2  -7  -2   23.10    1.20
   2  -7  -2   25.70    1.20
   2   7  -1  112.79    4.60
   2   7  -1  111.39    4.80
   2   7  -1  106.09    4.60
  -2   7   1  100.49    4.50
   2  -7  -1  107.79    4.60
   2  -7  -1   92.29    8.50
   2  -7  -1  111.79    4.70
   2  -7  -1   99.59    4.60
  -2  -7   1  115.29    7.80
   2  -7  -1  110.69    4.60
   2   7   0   26.80    1.40
   2   7   0   28.80    1.30
   2  -7   0   28.30    1.40
  -2  -7   0   32.50    3.70
   2  -7   0   33.70    1.40
   2  -7   0   28.60    1.40
   2  -7   0   25.60    4.40
   2   7   1   27.50    1.30
   2   7   1   28.00    1.30
   2   7   1   28.70    1.30
   2  -7   1   27.00    1.30
   2  -7   1   27.90    1.40
  -2  -7  -1   29.40    3.50
   2  -7   1   28.90    4.50
   2  -7   1   28.10    1.30
   2   7   2   76.19    3.40
   2   7   2   77.39    3.30
   2   7   2   75.99    3.30
   2   7   2   78.89    3.30
   2   7   2   75.99    3.30
   2   7   2   69.59    3.50
   2  -7   2   63.49    7.00
   2  -7   2   71.09    3.30
   2  -7   2   79.19    3.30
   2  -7   2   78.69    3.30
   2   7   3  393.96   16.40
   2   7   3  395.86   16.50
   2   7   3  386.86   16.40
   2   7   3  375.06   16.30
   2   7   3  396.26   16.30
   2   7   3  356.46   16.50
   2  -7   3  386.36   16.40
  -2  -7  -3  393.26   16.30
   2  -7   3  391.06   16.40
   2  -7   3  388.46   16.40
   2   7   4   18.60    1.30
   2   7   4   19.20    1.00
   2   7   4   19.50    1.20
   2   7   4   19.00    1.20
   2  -7   4   20.20    1.10
  -2  -7  -4   19.00    1.10
   2  -7   4   19.10    1.20
   2  -7   4   20.00    1.10
   2   7   5  100.39    4.50
   2   7   5   98.29    4.60
   2   7   5  102.19    4.50
   2  -7   5  101.09    4.50
  -2  -7  -5   98.19    4.40
   2  -7   5   99.59    4.40
   2   7   6  174.08    7.30
   2   7   6  162.78    7.30
   2  -7   6  165.28    7.30
   2  -7   6  163.38    7.20
  -2   8   8   19.30    1.70
  -2   8   8   21.50    1.20
  -2  -8   8   18.70    1.20
   2  -8  -8   21.00    1.40
  -2   8   7  217.68    9.40
  -2  -8   7  219.78    9.20
   2  -8  -7  225.58    9.20
   2  -8  -7  208.48    9.20
   2  -8  -7  200.58    9.40
   2   8  -6    7.70    1.10
  -2   8   6    9.00    1.00
   2  -8  -6    6.30    0.90
   2  -8  -6    7.80    0.80
  -2  -8   6    8.30    0.70
  -2   8   5   77.29    3.60
  -2   8   5   77.79    3.40
   2   8  -5   73.59    3.60
   2   8  -5   78.79    3.40
  -2  -8   5   80.89    8.10
   2  -8  -5   73.79    3.50
  -2  -8   5   72.09    3.40
   2  -8  -5   76.09    3.50
   2  -8  -5   81.89    3.50
  -2   8   3   28.10    1.30
   2   8  -3   29.00    1.30
   2   8  -3   27.20    1.50
  -2  -8   3   29.60    4.40
   2  -8  -3   25.00    1.30
   2  -8  -3   27.80    1.40
   2  -8  -3   30.20    1.40
   2   8  -2  286.67   11.60
  -2   8   2  264.57   11.60
   2  -8  -2  266.27   11.60
   2  -8  -2  280.17   11.60
   2  -8  -2  257.37   11.60
   2  -8  -2  265.47   11.60
  -2  -8   2  297.47   15.90
   2   8  -1 2033.20   81.39
  -2  -8   1 1809.52   81.29
   2  -8  -1 1972.00   81.29
   2   8   0  104.49    4.30
   2   8   0   93.49    4.30
   2   8   0  102.19    4.30
  -2  -8   0   91.39    4.30
   2  -8   0  101.09    4.30
  -2  -8   0  110.09    7.40
   2  -8   0  100.69    4.30
   2  -8   0   90.09    8.70
   2   8   1   68.69    2.90
   2   8   1   67.89    2.90
   2   8   1   65.19    2.90
   2  -8   1   67.49    3.00
   2  -8   1   59.79    7.00
   2  -8   1   66.69    3.00
  -2  -8  -1   70.59    5.90
   2  -8   1   66.99    3.00
   2   8   2   49.40    2.20
   2   8   2   51.49    2.30
   2   8   2   50.09    2.30
   2   8   2   50.59    2.40
   2   8   2   50.39    2.20
   2  -8   2   49.00    2.30
   2  -8   2   50.99    2.30
   2  -8   2   47.90    2.30
   2  -8   2   43.30    6.20
   2   8   3    0.40    0.40
   2   8   3    0.30    0.40
   2   8   3    0.90    0.60
   2   8   3    0.50    0.40
  -2  -8  -3    0.30    0.30
   2  -8   3    1.20    0.40
   2   8   4    5.20    0.70
   2   8   4    3.70    0.60
   2   8   4    3.80    0.60
   2  -8   4    4.70    0.70
   2  -8   4    4.30    0.60
  -2  -8  -4    3.30    0.50
   2   8   5    9.80    1.00
   2   8   5    8.00    1.20
   2   8   5   10.10    1.00
  -2  -8  -5    9.30    1.00
   2  -8   5   10.60    1.00
   2   8   6    5.60    0.80
   2   8   6    4.50    0.80
   2  -8   6    4.90    0.70
   2  -8   6    5.70    0.90
  -2   9   8  169.98    7.10
   2  -9  -8  164.28    7.20
  -2  -9   8  156.78    7.10
  -2   9   7   78.19    3.40
  -2   9   7   73.79    3.70
   2  -9  -7   77.69    3.50
   2  -9  -7   75.09    3.70
  -2  -9   7   80.39    3.50
   2  -9  -7   71.59    3.70
  -2   9   6   93.19    4.20
   2   9  -6   85.59    4.20
  -2  -9   6   94.49    4.10
   2  -9  -6   92.19    4.10
   2  -9  -6   86.89    4.00
  -2   9   5 1310.17   54.19
  -2   9   5 1299.77   54.09
   2   9  -5 1300.57   53.99
   2   9  -5 1236.38   54.29
  -2  -9   5 1219.18   54.09
  -2  -9   5 1309.67   54.09
   2  -9  -5 1224.58   54.09
   2  -9  -5 1284.17   54.09
  -2  -9   5 1390.26   60.89
  -2   9   4 1847.92   76.19
  -2   9   4 1823.32   76.09
   2  -9  -4 1742.63   76.09
  -2  -9   4 1828.92   76.09
   2  -9  -4 1714.73   76.09
   2  -9  -4 1910.91   76.09
  -2   9   3  624.24   26.90
   2   9  -3  627.14   27.00
   2   9  -3  668.43   26.90
  -2  -9   3  601.04   26.90
  -2  -9   3  706.63   32.70
   2  -9  -3  666.83   26.90
   2  -9  -3  612.54   26.90
   2  -9  -3  604.24   26.90
   2   9  -2  427.96   16.30
  -2   9   2  390.76   16.30
   2  -9  -2  390.26   16.30
  -2  -9   2  365.56   16.20
   2  -9  -2  380.96   16.30
   2  -9  -2  359.26   16.30
   2   9  -1  226.18    9.80
  -2   9   1  231.18    9.80
   2   9  -1  246.48    9.80
   2   9  -1  227.88    9.80
   2  -9  -1  232.98    9.80
   2  -9  -1  202.48   15.50
  -2  -9   1  228.58    9.90
   2  -9  -1  221.08    9.80
  -2  -9   1  257.57   14.00
   2  -9  -1  242.28    9.90
   2   9   0  754.72   30.90
   2   9   0  730.33   30.90
  -2  -9   0  798.22   35.40
   2  -9   0  657.23   37.60
   2  -9   0  758.62   31.00
  -2  -9   0  678.83   30.90
   2  -9   0  766.02   30.90
   2   9   1  208.28    8.60
   2   9   1  204.78    8.50
   2   9   1  187.18    8.60
   2  -9   1  203.88    8.60
   2  -9   1  203.48    8.60
  -2  -9  -1  212.58   12.50
   2  -9   1  180.98   14.20
   2  -9   1  207.58    8.60
   2   9   2  454.65   18.90
   2   9   2  449.95   18.80
   2   9   2  459.15   19.10
   2   9   2  469.65   19.00
   2   9   2  459.05   18.90
   2  -9   2  461.05   18.90
   2  -9   2  386.76   25.20
   2  -9   2  466.25   18.90
   2  -9   2  451.45   18.90
  -2  -9  -2  404.06   28.70
   2   9   3  914.51   37.40
   2   9   3  829.82   37.40
   2   9   3  893.41   37.30
   2   9   3  892.51   37.30
   2  -9   3  881.51   37.30
  -2  -9  -3  892.81   37.20
   2   9   4  168.08    7.60
   2   9   4  177.08    7.40
   2   9   4  174.48    7.50
   2  -9   4  165.78    7.40
  -2  -9  -4  170.48    7.30
   2  -9   4  168.58    7.50
   2   9   5    1.40    0.60
   2   9   5    1.80    0.60
   2   9   5    2.20    0.60
   2  -9   5    2.00    0.50
   2  -9   5    1.60    0.50
  -2  -9  -5    1.70    0.50
   2   9   6   21.90    1.70
   2   9   6   23.30    1.50
   2  -9   6   24.00    1.50
   2  -9   6   23.60    1.30
  -2  10   8   12.60    1.20
   2 -10  -8   13.80    1.20
  -2 -10   8   10.10    1.00
  -2  10   7  138.99    6.20
  -2  10   7  142.09    6.00
  -2 -10   7  141.29    6.00
   2 -10  -7  136.99    6.00
   2 -10  -7  125.09    6.20
  -2  10   6  188.48    8.10
   2  10  -6  185.28    8.20
   2 -10  -6  188.38    8.00
  -2 -10   6  188.28    8.00
  -2 -10   6  184.68   13.80
  -2 -10   6  177.28    7.90
   2 -10  -6  175.08    7.90
  -2  10   5 1152.98   49.10
   2  10  -5 1186.58   49.00
  -2  10   5 1173.08   49.30
   2  10  -5 1148.59   49.30
  -2 -10   5 1240.28   56.19
  -2 -10   5 1097.99   49.10
   2 -10  -5 1204.78   49.20
  -2 -10   5 1187.98   49.10
   2 -10  -5 1114.19   49.10
   2  10  -4  152.48    6.20
  -2  10   4  143.89    6.20
  -2  10   4  144.19    6.40
  -2 -10   4  139.19    6.20
   2 -10  -4  146.59    6.30
   2 -10  -4  140.69    6.20
  -2  10   3 1226.08   50.19
  -2 -10   3 1145.19   50.19
   2 -10  -3 1180.98   50.19
   2 -10  -3 1228.08   50.29
  -2  10   2  124.29    5.50
   2  10  -2  140.49    5.50
   2 -10  -2  127.89    5.50
   2 -10  -2  125.69    5.60
   2 -10  -2  124.89    5.50
  -2 -10   2  146.79   10.10
  -2 -10   2  112.99    5.50
   2  10  -1  117.99    4.80
  -2  10   1  110.29    4.80
   2  10  -1  111.29    4.80
   2  10  -1  114.59    4.80
   2 -10  -1  107.49    4.90
  -2 -10   1  125.09    9.00
  -2 -10   1  115.09    5.00
   2 -10  -1  107.09    4.80
   2 -10  -1  115.69    4.90
   2 -10  -1   97.19   10.20
   2  10   0    3.60    0.40
   2  10   0    3.60    0.50
   2  10   0    3.10    0.40
  -2 -10   0    2.90    0.50
   2 -10   0    3.70    0.50
  -2 -10   0    4.20    2.70
   2  10   1   51.89    2.30
   2  10   1   51.19    2.30
   2  10   1   51.29    2.30
   2 -10   1   47.40    6.90
   2 -10   1   50.39    2.30
   2 -10   1   51.39    2.40
  -2 -10  -1   52.49    6.00
   2 -10   1   52.39    2.40
   2  10   2    0.80    0.30
   2  10   2    0.80    0.50
   2  10   2    1.30    0.40
   2  10   2    1.60    0.40
   2  10   2    0.80    0.40
   2 -10   2    0.60    0.40
   2 -10   2    0.90    0.30
   2 -10   2    1.40    2.40
  -2 -10  -2    1.20    2.90
   2 -10   2    1.00    0.40
   2  10   3  616.54   25.30
   2  10   3  598.04   25.20
   2  10   3  596.04   25.10
   2  10   3  562.24   25.30
  -2 -10  -3  597.14   25.10
   2 -10   3  600.84   25.20
   2 -10   3  594.04   25.20
   2  10   4 2860.21  120.09
   2  10   4 2870.41  119.89
   2  10   4 2833.12  119.99
   2 -10   4 2856.81  119.89
   2  10   5   48.50    2.90
   2  10   5   43.10    2.20
   2  10   5   41.80    2.20
   2 -10   5   39.70    2.20
   2 -10   5   42.50    2.10
  -2 -10  -5   42.70    2.10
   2  10   6    4.50    0.90
   2  10   6    5.70    1.00
   2 -10   6    5.50    0.80
   2 -10   6    5.50    0.80
  -2  11   7    8.80    0.90
  -2  11   7   10.30    1.30
   2 -11  -7    8.90    1.20
   2 -11  -7    9.30    0.90
  -2 -11   7    8.30    0.90
  -2  11   6   79.59    3.50
   2  11  -6   78.69    3.80
  -2  11   6   77.19    3.80
  -2 -11   6   80.49    3.60
  -2 -11   6   75.59    8.90
   2 -11  -6   80.89    3.60
   2 -11  -6   74.19    3.50
  -2 -11   6   81.09    3.60
  -2  11   5 2387.16  100.29
  -2  11   5 2343.57  100.19
   2  11  -5 2338.57  100.39
   2 -11  -5 2507.05  100.19
  -2 -11   5 2384.96  100.19
  -2 -11   5 2349.06  100.19
  -2  11   4   29.40    1.50
   2  11  -4   30.70    1.40
  -2  11   4   29.70    1.70
  -2 -11   4   29.60    1.50
   2 -11  -4   31.00    1.60
  -2 -11   4   33.00    5.50
   2 -11  -4   28.30    1.50
   2  11  -3   23.90    1.20
  -2  11   3   23.70    1.30
  -2 -11   3   26.50    4.90
   2 -11  -3   28.20    1.30
  -2 -11   3   21.30    1.20
   2 -11  -3   23.10    1.20
  -2  11   2  262.07   11.10
  -2 -11   2  297.27   16.80
   2 -11  -2  263.37   13.10
  -2 -11   2  233.18   11.10
   2 -11  -2  264.57   11.20
   2 -11  -2  256.67   11.20
   2  11  -1    1.90    0.30
  -2  11   1    2.80    0.30
   2 -11  -1    2.70    0.50
  -2 -11   1    2.40    2.80
   2 -11  -1    2.00    2.60
   2 -11  -1    1.50    0.40
   2  11   0   42.70    1.90
   2  11   0   41.30    1.90
   2  11   0   40.40    1.90
  -2  11   0   39.30    1.80
   2 -11   0   42.30    2.00
   2 -11   0   42.40    1.90
  -2 -11   0   39.30    2.10
  -2 -11   0   46.40    5.60
   2 -11   0   36.70    6.60
   2  11   1  992.60   41.60
   2  11   1  974.60   41.60
   2  11   1 1036.10   41.70
   2 -11   1  895.61   50.29
   2 -11   1 1013.90   41.70
   2 -11   1  994.20   41.70
  -2 -11  -1 1004.10   47.90
   2 -11   1 1004.90   41.70
   2  11   2  546.15   21.80
   2  11   2  524.55   21.60
   2  11   2  531.65   21.70
   2  11   2  505.25   21.50
  -2 -11  -2  465.55   27.70
   2 -11   2  524.95   21.60
   2 -11   2  506.45   21.60
   2 -11   2  527.25   21.60
   2 -11   2  455.65   29.60
   2  11   3   27.10    1.60
   2  11   3   26.30    1.70
   2  11   3   25.80    1.40
   2  11   3   27.20    1.50
   2 -11   3   26.50    1.50
   2 -11   3   26.80    1.50
  -2 -11  -3   27.00    1.40
   2  11   4  689.13   29.50
   2  11   4  682.43   29.40
   2  11   4  704.63   29.30
   2 -11   4  684.33   29.40
  -2 -11  -4  704.03   29.30
   2 -11   4  699.93   29.40
   2  11   5  104.99    4.70
   2  11   5   98.89    4.70
   2  11   5  103.59    4.80
   2 -11   5  107.69    4.70
   2 -11   5  101.59    4.60
  -2 -11  -5  103.99    4.60
   2  11   6  240.08    9.90
   2 -11   6  224.68   10.00
   2 -11   6  230.38    9.90
  -2  12   7  431.26   19.60
  -2  12   7  477.65   19.40
  -2 -12   7  457.75   19.50
   2 -12  -7  471.35   19.50
  -2  12   6   38.00    1.80
   2  12  -6   36.70    2.30
  -2  12   6   37.30    2.10
   2 -12  -6   38.30    1.90
   2 -12  -6   34.00    1.90
  -2 -12   6   37.10    1.90
  -2 -12   6   34.00    7.60
  -2 -12   6   37.20    1.90
   2  12  -5    2.70    0.70
  -2  12   5    2.50    0.70
   2 -12  -5    2.00    0.40
  -2 -12   5    3.10    0.50
  -2 -12   5    2.10    0.40
   2 -12  -5    2.60    0.50
  -2 -12   5    2.10    2.60
  -2  12   4    9.90    0.90
  -2  12   4    7.70    0.90
  -2 -12   4    7.60    0.70
  -2 -12   4    9.80    4.00
   2 -12  -4    7.90    0.80
   2 -12  -3  465.85   20.30
  -2 -12   3  431.96   20.20
   2 -12  -3  477.95   20.30
  -2 -12   3  544.15   27.50
  -2  12   2  174.08    7.60
   2 -12  -2  170.78    7.70
   2 -12  -2  172.58    7.70
  -2 -12   2  198.08   13.40
   2 -12  -2  178.58    7.70
  -2  12   1  280.47   12.00
   2  12  -1  290.67   12.00
   2 -12  -1  248.18   19.70
   2 -12  -1  270.87   12.00
   2 -12  -1  286.67   12.10
  -2 -12   1  311.87   18.00
   2 -12  -1  292.27   12.00
   2  12   0  105.89    4.70
   2  12   0  108.19    4.60
  -2  12   0  105.69    4.60
   2  12   0  105.19    4.60
   2 -12   0   95.39   11.00
  -2 -12   0  117.79    9.80
   2 -12   0  106.69    4.70
  -2 -12   0  102.99    4.70
   2 -12   0  112.19    4.70
   2  12   1  523.25   22.60
   2  12   1  561.54   22.60
   2 -12   1  554.74   22.60
   2 -12   1  462.95   33.60
   2 -12   1  554.74   22.60
   2 -12   1  544.05   22.60
  -2 -12  -1  539.25   29.20
   2  12   2  264.67   11.10
   2  12   2  263.87   11.10
   2  12   2  270.37   11.40
   2  12   2  271.77   11.20
  -2 -12  -2  238.98   18.40
   2 -12   2  267.47   11.10
   2 -12   2  224.18   18.70
   2 -12   2  263.87   11.10
   2 -12   2  268.57   11.20
   2  12   3  296.37   13.40
   2  12   3  306.37   13.10
   2  12   3  306.27   13.20
   2  12   3  315.57   13.30
   2 -12   3  310.57   13.20
   2 -12   3  306.67   13.20
  -2 -12  -3  316.47   13.10
   2  12   4  828.22   39.50
   2  12   4  945.91   39.40
   2  12   4  944.71   39.40
   2  12   4  946.31   39.50
   2 -12   4  945.91   39.40
  -2 -12  -4  972.20   39.40
   2 -12   4  955.40   39.50
   2  12   5  221.58   10.00
   2  12   5  238.68   10.00
   2  12   5  228.18   10.10
   2 -12   5  239.18   10.00
   2 -12   5  227.88   10.10
  -2 -12  -5  235.68    9.90
  -2  13   7   16.30    1.10
  -2 -13   7   15.70    1.10
   2 -13  -7   16.60    1.10
   2  13  -6   18.10    1.70
  -2  13   6   19.60    1.20
  -2  13   6   18.30    1.50
   2 -13  -6   19.40    1.20
  -2 -13   6   18.60    1.20
  -2 -13   6   17.80    1.30
  -2  13   5    1.50    0.60
   2  13  -5    0.90    0.70
  -2  13   5    1.10    0.50
  -2 -13   5    0.80    0.50
  -2 -13   5    1.40    2.70
  -2 -13   5    1.10    0.40
   2 -13  -5    1.00    0.50
  -2  13   4  300.87   12.70
  -2  13   4  276.87   12.50
  -2 -13   4  269.77   12.60
  -2 -13   4  328.27   20.10
   2 -13  -4  301.47   12.60
  -2  13   3    6.00    0.60
   2  13  -3    6.10    1.00
  -2 -13   3    5.50    0.70
  -2 -13   3    7.10    3.90
   2 -13  -3    7.00    0.70
   2 -13  -3    6.00    0.70
   2  13  -2 1027.80   43.70
  -2  13   2  995.60   43.60
   2 -13  -2 1036.60   43.70
  -2 -13   2 1113.89   51.69
   2 -13  -2 1016.50   43.70
   2  13  -1    0.30    0.20
  -2  13   1    0.70    0.40
   2 -13  -1    1.00    0.30
   2 -13  -1    0.50    0.40
   2 -13  -1    1.60    2.80
   2  13   0 1201.28   50.59
  -2  13   0 1212.18   50.59
   2  13   0 1250.37   50.69
   2 -13   0 1246.68   50.69
   2 -13   0 1287.27   50.69
   2 -13   0 1106.79   61.29
  -2 -13   0 1127.89   50.69
   2  13   1 2710.33  107.89
   2  13   1 2467.85  107.89
  -2  13  -1 2503.65  107.79
  -2 -13  -1 2430.06  126.79
   2 -13   1 2734.93  107.89
   2  13   2    2.70    0.70
   2  13   2    3.40    0.50
   2  13   2    3.00    0.50
   2  13   2    2.70    0.60
   2 -13   2    2.50    3.30
   2 -13   2    3.60    0.60
   2 -13   2    2.60    0.50
   2  13   3   70.59    3.30
   2  13   3   68.79    3.50
   2  13   3   70.49    3.30
   2  13   3   69.39    3.40
   2 -13   3   70.19    3.30
  -2 -13  -3   72.59    3.20
   2 -13   3   69.59    3.30
   2  13   4    5.80    0.70
   2  13   4    5.60    0.90
   2  13   4    5.60    0.90
   2  13   4    4.80    1.10
  -2 -13  -4    6.20    0.70
   2 -13   4    4.70    0.70
   2 -13   4    5.70    0.90
   2  13   5  322.07   14.70
   2  13   5  357.26   14.60
   2 -13   5  345.37   14.70
   2 -13   5  340.37   14.60
  -2 -13  -5  345.77   14.50
  -2  14   7  139.39    6.00
   2 -14  -7  138.29    6.00
  -2  14   6   -0.40    0.70
  -2  14   6    0.50    0.50
   2 -14  -6    0.30    0.40
  -2 -14   6    0.10    0.50
  -2 -14   6   -0.60    0.60
  -2  14   5   90.39    4.10
  -2  14   5   96.19    4.40
   2  14  -5   93.39    4.40
   2 -14  -5   98.19    4.20
   2 -14  -5   87.39    4.10
  -2 -14   5   90.39    4.20
  -2 -14   5   95.29    4.20
  -2 -14   5   92.79   10.30
  -2  14   4   93.79    4.30
  -2  14   4   88.59    4.00
  -2 -14   4   84.99    4.10
   2 -14  -4   90.49    4.10
   2 -14  -4   92.89    4.10
  -2 -14   4   99.99   10.40
   2  14  -3    6.20    1.00
  -2 -14   3    5.90    4.10
   2 -14  -3    4.90    0.70
   2 -14  -3    5.60    0.70
   2  14  -2  660.13   28.10
   2 -14  -2  653.93   28.20
  -2 -14   2  717.83   36.60
   2 -14  -2  638.14   28.20
   2  14  -1 1432.36   57.89
   2 -14  -1 1418.16   57.99
   2 -14  -1 1325.17   57.99
   2 -14  -1 1366.66   57.89
  -2 -14   1 1513.55   67.29
   2 -14  -1 1211.88   68.99
   2  14   0  794.02   32.40
   2 -14   0  762.02   32.50
   2 -14   0  790.62   32.50
   2 -14   0  704.13   43.10
  -2 -14   0  794.92   40.80
   2  14   1 1710.53   70.09
   2  14   1 1640.64   69.99
   2 -14   1 1696.13   70.09
   2 -14   1 1767.22   70.09
  -2 -14  -1 1586.04   78.79
   2 -14   1 1753.02   70.09
   2 -14   1 1509.05   81.39
   2  14   2   29.00    1.50
   2  14   2   30.00    1.90
   2  14   2   27.60    1.70
   2  14   2   27.60    1.50
   2 -14   2   23.80    6.60
  -2 -14  -2   31.20    1.50
   2 -14   2   28.70    1.50
   2 -14   2   28.40    1.70
   2 -14   2   28.10    1.60
   2  14   3   21.00    1.60
   2  14   3   21.70    1.30
   2  14   3   18.80    1.60
   2  14   3   22.40    1.40
  -2 -14  -3   22.80    1.20
   2 -14   3   26.10    1.70
   2 -14   3   21.10    1.40
   2  14   4    2.60    1.10
   2  14   4    3.30    0.60
   2  14   4    3.70    0.80
   2  14   4    2.80    0.80
   2 -14   4    3.70    0.60
  -2 -14  -4    2.50    0.50
   2 -14   4    3.10    0.70
   2  14   5   75.09    3.40
   2 -14   5   70.49    3.50
  -2 -14  -5   75.79    3.40
   2 -14   5   74.79    3.40
  -2  15   6    1.10    0.80
  -2  15   6    0.50    0.60
  -2 -15   6   -0.10    0.60
   2 -15  -6   -0.10    0.40
  -2 -15   6    0.80    0.60
   2  15  -5   31.80    2.00
  -2  15   5   34.40    2.10
  -2  15   5   29.30    1.70
   2 -15  -5   32.60    1.60
   2 -15  -5   28.20    1.70
  -2 -15   5   26.90    1.60
  -2 -15   5   30.80    1.60
  -2  15   4    2.00    0.60
   2 -15  -4    1.20    0.50
  -2 -15   4    1.90    2.80
   2 -15  -4    1.80    0.50
   2  15  -3  240.88   10.40
   2  15  -3  252.27   10.70
   2 -15  -3  237.68   10.40
  -2 -15   3  261.07   18.50
   2 -15  -3  224.58   10.60
   2  15  -2  505.15   21.50
   2 -15  -2  490.55   21.60
  -2 -15   2  541.65   30.40
   2 -15  -2  498.25   21.50
   2  15  -1 1989.60   83.29
  -2 -15   1 2060.59   93.39
   2 -15  -1 1900.41   83.29
   2  15   0  532.45   21.90
   2 -15   0  499.15   22.00
   2 -15   0  575.14   22.10
  -2 -15   0  523.25   30.60
   2 -15   0  461.35   32.30
   2  15   1   21.00    1.30
   2  15   1   22.30    1.20
   2 -15   1   19.00    6.30
   2 -15   1   20.50    1.30
   2 -15   1   21.50    1.40
   2 -15   1   22.20    1.20
  -2 -15  -1   20.40    6.20
   2  15   2    1.00    0.60
   2  15   2    1.30    0.70
   2  15   2    0.30    0.50
   2 -15   2    0.90    0.50
  -2 -15  -2    0.50    0.40
   2 -15   2    0.80    0.50
   2 -15   2    0.70    0.50
   2  15   3    0.80    0.80
   2  15   3    0.70    0.70
   2  15   3    1.20    0.50
   2  15   3    1.30    0.60
   2 -15   3    1.20    0.60
   2 -15   3    1.90    0.60
   2  15   4  110.29    4.80
   2  15   4  108.89    5.10
   2  15   4  100.99    4.90
   2 -15   4  113.69    4.90
  -2 -15  -4  111.89    4.80
   2 -15   4  107.19    4.90
   2  15   5   70.29    3.20
   2 -15   5   70.99    3.20
   2 -15   5   67.59    3.30
  -2 -15  -5   69.69    3.20
  -2 -16   6   18.00    1.30
   2 -16  -6   19.90    1.20
  -2  16   5   11.70    1.30
   2  16  -5    9.00    1.40
   2  16  -5    8.20    0.80
  -2 -16   5    8.40    0.80
   2 -16  -5    8.20    1.50
  -2 -16   5    7.90    5.10
   2 -16  -5    8.50    0.80
   2  16  -4   63.79    2.90
  -2  16   4   63.79    3.10
   2 -16  -4   60.89    2.90
  -2 -16   4   63.09    8.90
   2 -16  -4   64.09    2.90
   2  16  -3  103.79    4.80
   2  16  -3   99.69    4.50
   2 -16  -3  101.09    4.50
   2 -16  -3  100.79    4.50
  -2 -16   3  104.39   11.40
   2  16  -2    0.00    0.30
   2 -16  -2    0.50    0.40
  -2 -16   2    0.30    2.50
   2  16  -1 1095.19   45.10
  -2 -16   1 1080.69   55.09
   2 -16  -1 1094.19   45.20
   2 -16  -1 1015.90   45.10
   2  16   0  812.32   33.10
  -2 -16   0  785.52   42.90
   2 -16   0  813.52   33.20
   2 -16   0  728.13   33.10
   2  16   1    1.60    0.50
  -2 -16  -1    0.60    0.30
  -2 -16  -1    1.00    3.40
   2 -16   1    1.10    0.50
   2 -16   1    0.90    0.60
   2 -16   1    0.30    0.50
   2  16   2    3.70    0.60
   2  16   2    2.40    0.70
   2  16   2    3.60    0.60
   2  16   2    3.20    0.90
  -2 -16  -2    4.90    0.60
   2 -16   2    2.40    0.60
   2 -16   2    3.10    0.60
   2 -16   2    2.80    0.60
   2  16   3    1.40    0.70
   2  16   3    0.70    0.70
   2  16   3    1.20    0.90
   2  16   3    1.20    0.60
   2 -16   3    0.80    0.70
  -2 -16  -3    1.00    0.40
   2 -16   3    1.00    0.60
   2  16   4    5.30    0.90
   2  16   4    6.60    1.00
   2 -16   4    5.40    0.70
   2 -16   4    5.50    1.00
  -2 -16  -4    5.70    0.70
  -2  17   5  133.59    6.10
   2  17  -5  142.29    6.20
  -2 -17   5  119.69   12.70
  -2 -17   5  144.29    5.90
   2 -17  -5  141.19    5.90
  -2  17   4    7.50    1.10
   2  17  -4    6.30    0.70
  -2 -17   4    6.90    0.80
  -2 -17   4    6.40    4.90
   2 -17  -4    7.00    1.00
   2 -17  -4    7.40    0.80
   2  17  -3   81.69    3.90
   2  17  -3   77.39    3.50
  -2 -17   3   80.49   10.30
   2 -17  -3   78.39    3.60
   2 -17  -3   78.69    3.60
   2  17  -2   -0.20    0.40
   2  17  -2    0.30    0.70
  -2 -17   2    0.20    2.60
   2 -17  -2    0.40    0.50
   2 -17  -2    0.00    0.40
   2  17  -1   29.50    1.50
   2 -17  -1   31.10    1.70
  -2 -17   1   28.30    6.90
  -2 -17   0  113.79   12.70
   2 -17   0  123.29    5.40
   2 -17   0  127.19    5.40
   2  17   1   69.89    3.40
   2  17   1   66.39    3.10
  -2 -17  -1   60.19   10.00
  -2 -17  -1   66.19    3.00
   2 -17   1   69.99    3.10
   2 -17   1   62.09    3.20
   2 -17   1   67.99    3.20
   2  17   2  261.37   10.90
   2  17   2  244.68   10.80
   2  17   2  254.17   11.10
   2 -17   2  248.98   10.90
  -2 -17  -2  253.97   10.70
   2 -17   2  234.08   10.80
   2 -17   2  257.17   10.80
   2  17   3  155.18    7.10
   2  17   3  155.68    7.20
   2  17   3  157.78    6.90
   2  17   3  160.38    7.10
   2 -17   3  168.58    7.00
  -2 -17  -3  164.08    6.90
   2 -17   3  150.48    7.00
   2  17   4    5.10    0.80
   2 -17   4    3.50    1.00
   2 -17   4    5.10    0.70
  -2 -17  -4    4.60    0.50
   2  18  -5    9.20    1.50
   2 -18  -5    8.50    1.20
  -2 -18   5    6.80    0.80
  -2  18   4   58.89    3.00
   2  18  -4   58.99    2.70
   2 -18  -4   56.19    2.90
  -2 -18   4   60.19    2.70
   2 -18  -4   60.39    2.70
  -2 -18   4   54.39    8.70
   2  18  -3    0.90    0.90
   2  18  -3    0.60    0.40
   2 -18  -3    0.50    0.50
   2 -18  -3    0.40    0.60
   2  18  -2   96.69    4.40
   2  18  -2   89.89    4.10
  -2 -18   2   88.59    4.00
   2 -18  -2   88.89    4.10
  -2 -18   2   91.89   11.40
   2 -18  -2   95.19    4.20
   2  18  -1    8.10    0.80
   2  18  -1   10.20    1.20
   2 -18  -1    7.10    0.90
   2 -18  -1    8.20    1.00
  -2 -18   1    8.00    0.70
  -2 -18   1    8.10    5.40
   2  18   0   19.40    1.30
   2  18   0   23.10    1.70
  -2 -18   0   20.90    7.00
   2 -18   0   21.20    1.50
  -2 -18   0   20.00    1.10
   2 -18   0   21.10    1.30
   2  18   1   34.30    1.90
   2  18   1   35.80    2.20
   2  18   1   29.80    1.80
  -2 -18  -1   28.30    8.90
   2 -18   1   35.30    1.80
  -2 -18  -1   33.70    1.60
   2 -18   1   33.90    2.00
   2  18   2   38.60    2.20
   2  18   2   39.30    2.40
   2  18   2   36.30    2.20
  -2 -18  -2   41.40    1.90
   2 -18   2   40.70    2.10
   2  18   3    1.30    1.00
   2 -18   3    0.00    0.60
  -2 -18  -3    0.20    0.40
   2 -18   3    0.10    0.90
  -2  19   4    2.70    0.80
   2 -19  -4    1.50    0.50
  -2 -19   4    1.40    0.50
  -2 -19   4    1.70    3.70
  -2  19   3    4.40    0.80
   2  19  -3    6.60    1.10
   2 -19  -3    4.10    0.60
  -2 -19   3    4.00    3.90
   2 -19  -3    3.30    0.80
   2  19  -2  258.47   11.80
   2  19  -2  298.87   12.10
  -2 -19   2  274.37   21.00
   2 -19  -2  268.67   11.80
   2 -19  -2  275.07   11.80
   2 -19  -2  283.27   11.90
   2  19  -1  134.39    5.80
   2  19  -1  118.19    5.40
  -2 -19   1  120.29    5.30
  -2 -19   1  117.69   13.20
   2 -19  -1  125.49    5.40
   2 -19  -1  125.29    5.50
   2  19   0  175.98    7.50
   2  19   0  154.28    7.10
   2 -19   0  169.28    7.30
  -2 -19   0  165.58    7.10
  -2 -19   0  149.49   15.40
   2 -19   0  172.18    7.20
   2  19   1   87.19    4.10
   2  19   1   80.79    4.00
   2  19   1   90.99    4.30
  -2 -19  -1   86.99    3.80
   2 -19   1   89.89    4.10
   2 -19   1   90.79    3.90
  -2 -19  -1   75.39   12.50
   2  19   2    0.80    0.90
   2  19   2    0.70    0.90
  -2 -19  -2    1.20    0.40
   2 -19   2    2.00    0.60
   2  19   3   36.00    2.30
   2 -19   3   40.80    2.00
  -2 -19  -3   39.50    1.90
  -2  20   3   51.59    2.70
  -2 -20   3   47.20    8.70
   2 -20  -3   53.29    2.40
   2 -20  -3   49.10    2.60
   2  20  -2  107.59    4.70
  -2 -20   2   90.19   11.50
   2 -20  -2  100.09    4.60
   2  20  -1   83.09    3.90
  -2 -20   1   71.99   10.70
   2 -20  -1   76.79    3.70
   2 -20  -1   82.79    3.50
  -2 -20   1   74.19    3.40
   2  20   0  322.07   13.10
  -2 -20   0  297.87   12.70
   2 -20   0  315.37   12.80
  -2 -20   0  258.47   21.50
   2 -20   0  308.57   12.90
   2  20   1   84.09    4.40
   2  20   1   95.49    4.40
   2 -20   1   95.19    4.40
  -2 -20  -1   90.89    4.00
   2 -20   1   93.79    4.10
   2  20   2   63.39    3.20
   2 -20   2   66.79    3.00
  -2 -20  -2   64.19    2.90
   2  21  -2   64.59    3.10
   2 -21  -2   61.79    3.00
  -2 -21   2   54.49    9.90
   2  21  -1  184.18    8.20
   2 -21  -1  191.98    7.80
  -2 -21   1  158.68   15.90
   2  21   0    3.50    1.00
  -2 -21   0    3.30    0.50
   2 -21   0    3.60    0.70
   2 -21   0    4.00    0.60
   2  21   1    9.30    1.30
  -2 -21  -1    8.50    0.80
   2 -21   1   10.50    0.90
  -3   0   9   -0.10    0.50
  -3   0   8  256.87   11.40
  -3   0   8  277.27   11.40
   3   0  -7   -0.50    0.60
   3   0  -7    0.50    0.50
  -3   0   7    0.10    0.40
   3   0  -7    0.30    0.50
   3   0  -6  161.08    6.80
   3   0  -6  149.69    6.90
   3   0  -6  153.98    6.90
  -3   0   6  168.98    7.20
  -3   0   5   -0.10    0.30
   3   0  -5    0.20    0.30
   3   0  -5    0.40    0.30
   3   0  -5   -0.10    0.30
   3   0  -4  289.77   12.20
  -3   0   4  293.87   12.20
   3   0  -4  275.57   12.30
   3   0  -4  287.67   12.20
   3   0  -3   -0.10    0.20
  -3   0   3    0.00    0.20
   3   0  -3   -0.20    0.20
   3   0  -3    0.50    0.20
   3   0  -3   -0.20    0.20
   3   0  -3   -0.10    0.30
   3   0  -3   -0.20    0.20
   3   0  -2  520.55   22.00
   3   0  -2  519.15   21.90
   3   0  -2  522.25   21.90
   3   0  -2  543.15   21.90
   3   0  -2  479.25   21.90
   3   0  -2  527.25   21.90
   3   0  -2  505.15   21.90
   3   0  -2  531.15   22.00
   3   0  -1   -2.90    0.20
   3   0  -1   -2.80    0.20
   3   0  -1   -2.80    0.20
   3   0  -1   -3.00    0.20
   3   0  -1   -2.80    0.20
   3   0  -1   -2.60    0.20
   3   0  -1   -3.10    0.20
   3   0   0  666.63   28.90
   3   0   0  667.83   28.80
   3   0   0  667.63   28.80
   3   0   0  715.03   28.80
   3   0   0  727.33   28.80
   3   0   0  696.53   28.80
   3   0   0  651.93   28.90
   3   0   1   -0.20    0.20
   3   0   1    0.20    0.20
   3   0   1   -0.10    0.20
   3   0   1   -0.10    0.30
   3   0   1    0.20    0.30
   3   0   2  243.88    9.90
   3   0   2  219.88    9.90
   3   0   2  238.78   10.00
   3   0   2  244.28    9.90
   3   0   2  248.28   10.00
   3   0   2  221.08   10.00
   3   0   2  236.58   10.00
   3   0   2  218.78    9.90
   3   0   2  236.28    9.90
   3   0   3    0.10    0.40
   3   0   3    0.10    0.30
   3   0   3   -0.10    0.30
   3   0   3   -0.10    0.30
   3   0   3    0.00    0.30
   3   0   4  224.18    9.50
   3   0   4  220.58    9.40
   3   0   4  223.08    9.40
   3   0   4  211.58    9.50
   3   0   5    0.20    0.60
   3   0   6  248.18   10.60
   3   0   6  248.68   10.70
  -3   1   9   17.60    1.10
  -3  -1   9   16.60    1.10
  -3   1   8  294.87   13.00
  -3   1   8  305.27   12.90
  -3  -1   8  299.67   13.00
  -3  -1   8  313.87   13.00
   3   1  -7    7.30    0.90
   3   1  -7    8.40    0.90
   3   1  -7    8.30    1.00
  -3   1   7    8.20    0.90
   3  -1  -7    6.40    0.90
   3  -1  -7    7.70    0.80
  -3  -1   7    7.50    0.90
   3  -1  -7    7.90    1.00
   3   1  -6  132.79    5.80
   3   1  -6  131.39    5.70
  -3   1   6  136.49    5.70
   3   1  -6  130.29    5.80
   3  -1  -6  129.99    5.80
  -3  -1   6  110.49   10.20
   3  -1  -6  133.49    5.80
  -3  -1   6  141.89    6.00
   3  -1  -6  133.09    5.70
  -3   1   5   21.70    1.20
   3   1  -5   21.80    1.20
   3   1  -5   22.00    1.10
   3   1  -5   19.90    1.20
   3  -1  -5   20.00    1.20
   3  -1  -5   21.70    1.10
  -3  -1   5   21.40    1.10
   3  -1  -5   21.20    1.20
   3   1  -4  228.68   10.20
   3   1  -4  241.38   10.10
  -3   1   4  247.18   10.10
   3   1  -4  249.97   10.20
   3  -1  -4  242.58   10.20
  -3  -1   4  241.58   10.10
   3  -1  -4  224.08   10.10
   3  -1  -4  231.38   10.20
   3  -1  -4  234.08   10.10
   3   1  -3 2084.49   90.79
  -3   1   3 2199.58   90.69
  -3  -1   3 2188.18   90.69
   3  -1  -3 2178.08   90.79
   3   1  -2 1239.68   50.49
   3   1  -2 1224.68   50.49
   3   1  -2 1173.08   50.59
   3   1  -2 1212.98   50.59
   3  -1  -2 1232.78   50.49
   3  -1  -2 1171.28   50.49
   3  -1  -2 1177.28   50.59
   3  -1  -2 1193.88   50.59
   3   1  -1  164.18    7.10
   3   1  -1  175.68    7.10
   3   1  -1  153.88    7.10
   3   1  -1  163.08    7.10
   3   1  -1  166.48    7.10
   3  -1  -1  179.48    7.10
   3  -1  -1  167.98    7.10
   3  -1  -1  170.38    7.10
   3  -1  -1  159.08    7.10
   3  -1  -1  161.68    7.10
   3  -1  -1  168.88    7.10
   3   1   0   57.89    2.30
   3   1   0   53.09    2.30
   3   1   0   52.79    2.30
   3   1   0   53.29    2.30
   3   1   0   50.59    2.40
   3   1   0   50.99    2.30
   3  -1   0   48.10    2.30
   3  -1   0   50.29    2.30
   3  -1   0   49.10    2.40
   3  -1   0   51.49    2.30
   3  -1   0   52.59    2.30
   3  -1   0   52.59    2.30
   3  -1   0   51.99    2.30
   3   1   1   55.99    2.70
   3   1   1   59.79    2.60
   3   1   1   59.79    2.60
   3   1   1   57.69    2.60
   3   1   1   60.69    2.50
   3   1   1   59.59    2.60
   3  -1   1   59.99    2.60
   3  -1   1   60.09    2.50
   3  -1   1   59.49    2.60
   3  -1   1   56.49    2.50
   3  -1   1   56.49    2.50
   3  -1   1   55.79    2.50
   3  -1   1   59.09    2.60
   3  -1   1   54.89    2.60
   3  -1   1   56.09    2.60
   3   1   2    4.60    0.60
   3   1   2    4.30    0.50
   3   1   2    6.20    0.50
   3   1   2    5.00    0.50
   3   1   2    6.50    0.70
   3  -1   2    6.60    0.50
   3  -1   2    5.20    0.50
   3  -1   2    3.60    0.50
   3  -1   2    5.40    0.60
   3  -1   2    5.20    0.50
   3  -1   2    5.40    0.50
   3  -1   2    5.30    0.50
   3   1   3    3.50    0.40
   3   1   3    4.00    0.60
   3   1   3    4.30    0.50
   3   1   3    4.30    0.50
   3   1   3    4.40    0.70
   3  -1   3    3.70    0.60
   3  -1   3    3.60    0.50
   3  -1   3    3.30    0.50
   3  -1   3    4.20    0.50
   3   1   4    0.10    0.60
   3   1   4    0.10    0.40
   3   1   4    1.00    0.40
   3   1   4    1.20    0.30
   3  -1   4    1.00    0.40
   3  -1   4    0.90    0.50
   3  -1   4    0.80    0.50
   3  -1   4    0.80    0.40
   3   1   5   32.00    1.70
   3   1   5   30.70    1.60
   3   1   5   29.80    1.70
   3  -1   5   30.10    1.80
   3  -1   5   29.20    1.70
   3  -1   5   31.10    1.60
   3  -1   5   30.80    1.70
   3   1   6   32.90    1.80
   3   1   6   31.50    1.60
   3   1   6   31.40    1.80
   3  -1   6   30.70    1.80
   3  -1   6   31.80    1.60
  -3   2   9    7.50    0.90
   3  -2  -9    5.70    1.00
  -3   2   8   13.30    1.40
  -3   2   8   17.40    1.10
   3   2  -8   15.40    1.30
  -3  -2   8   17.00    1.10
  -3  -2   8   13.90    1.30
   3  -2  -8   16.20    1.40
  -3   2   7  221.28    9.40
   3   2  -7  218.58    9.40
   3   2  -7  214.88    9.50
  -3  -2   7  222.88    9.40
   3  -2  -7  206.48    9.50
   3  -2  -7  225.38    9.40
   3  -2  -7  222.28    9.50
  -3   2   6  252.27   10.40
   3   2  -6  245.38   10.30
   3   2  -6  242.68   10.50
   3   2  -6  249.38   10.40
   3  -2  -6  246.08   10.40
  -3  -2   6  218.38   15.50
   3  -2  -6  240.98   10.50
  -3  -2   6  246.28   10.40
   3  -2  -6  244.28   10.40
   3   2  -5   13.90    1.00
  -3   2   5   15.00    1.00
   3   2  -5   15.10    0.80
   3   2  -5   15.20    1.00
   3  -2  -5   15.50    1.00
   3  -2  -5   14.90    0.90
   3  -2  -5   15.60    1.00
  -3  -2   5   15.80    0.90
   3   2  -4  536.25   23.30
   3   2  -4  563.34   23.30
   3   2  -4  529.05   23.20
  -3   2   4  548.05   23.20
   3   2  -4  576.24   23.20
   3   2  -4  575.14   23.20
   3  -2  -4  550.84   23.30
   3  -2  -4  525.85   23.30
  -3  -2   4  545.15   23.20
   3  -2  -4  561.94   23.20
   3   2  -3    0.10    0.30
   3   2  -3   -0.10    0.20
  -3   2   3    1.00    0.20
   3   2  -3    0.30    0.30
   3   2  -3    0.30    0.30
   3   2  -3    0.10    0.20
   3   2  -3    0.50    0.30
   3   2  -3    0.50    0.20
   3  -2  -3    0.40    0.30
   3  -2  -3    0.00    0.30
   3  -2  -3    0.30    0.30
   3  -2  -3    0.50    0.20
   3   2  -2 1087.09   46.00
   3   2  -2 1119.79   46.00
  -3   2   2 1091.49   45.90
   3  -2  -2 1099.09   46.00
   3  -2  -2 1078.09   45.90
   3  -2  -2 1068.59   46.00
   3  -2  -2 1107.59   45.90
   3   2  -1   13.60    0.70
   3   2  -1   13.30    0.60
   3   2  -1   12.80    0.80
   3   2  -1   13.60    0.70
   3   2  -1   13.30    0.70
   3   2  -1   13.20    0.70
   3  -2  -1   13.10    0.70
   3  -2  -1   12.40    0.80
   3  -2  -1   12.20    0.70
   3  -2  -1   13.60    0.70
   3  -2  -1   12.60    0.70
   3  -2  -1   12.80    0.70
   3   2   0   12.90    0.90
   3   2   0   13.90    0.80
   3   2   0   15.30    0.80
   3   2   0   13.50    0.80
   3   2   0   14.80    0.80
   3   2   0   14.50    0.70
   3   2   0   14.40    0.80
   3  -2   0   13.20    0.90
   3  -2   0   14.30    0.80
   3  -2   0   14.30    0.80
   3  -2   0   14.50    0.80
   3  -2   0   15.00    0.80
   3  -2   0   13.20    0.80
   3   2   1 1553.34   62.49
   3   2   1 1517.85   62.49
   3   2   1 1490.35   62.59
   3   2   1 1594.24   62.49
   3  -2   1 1553.64   62.49
   3  -2   1 1466.95   62.39
   3  -2   1 1414.26   62.39
   3  -2   1 1553.04   62.39
   3  -2   1 1312.07   62.39
   3  -2   1 1498.15   62.39
   3  -2   1 1473.35   62.49
  -3  -2  -1 1353.36   64.69
   3  -2   1 1554.74   62.49
   3   2   2 1582.54   67.59
   3   2   2 1644.04   67.69
   3   2   2 1666.83   67.59
   3   2   2 1553.54   67.69
   3   2   2 1595.44   67.69
   3  -2   2 1562.24   67.69
   3  -2   2 1547.65   67.59
   3  -2   2 1666.73   67.69
   3  -2   2 1668.53   67.69
   3  -2   2 1618.54   67.59
   3   2   3  103.19    4.40
   3   2   3  103.89    4.50
   3   2   3  102.79    4.40
   3   2   3   98.29    4.40
   3   2   3   99.09    4.50
   3   2   3  104.69    4.50
   3  -2   3  100.29    4.40
   3  -2   3  102.29    4.50
   3  -2   3   96.69    4.40
   3  -2   3  105.79    4.50
   3  -2   3  102.29    4.50
   3   2   4    0.80    0.40
   3   2   4    1.00    0.50
   3   2   4    1.00    0.30
   3  -2   4    1.10    0.50
   3  -2   4    1.20    0.40
   3  -2   4    0.90    0.50
   3  -2   4    1.30    0.40
   3   2   5  810.22   33.30
   3   2   5  768.82   33.30
   3   2   5  801.02   33.20
   3  -2   5  810.12   33.30
   3  -2   5  748.63   33.30
   3  -2   5  793.12   33.30
   3   2   6  100.49    4.40
   3   2   6   96.99    4.40
   3   2   6   98.09    4.30
   3  -2   6   95.89    4.30
   3  -2   6   98.79    4.40
  -3   3   9  375.26   15.00
  -3  -3   9  328.97   15.00
  -3   3   8   30.30    2.10
  -3   3   8   32.00    2.00
   3  -3  -8   36.80    2.20
  -3  -3   8   36.60    1.70
   3  -3  -8   33.20    1.80
  -3  -3   8   31.90    1.80
  -3   3   7  105.29    4.80
   3   3  -7  103.39    4.80
   3   3  -7  106.49    4.70
   3  -3  -7  103.19    4.80
  -3  -3   7  108.19    4.70
   3  -3  -7  113.69    4.80
   3   3  -6  682.23   28.70
  -3   3   6  684.13   28.70
   3   3  -6  664.73   28.80
  -3  -3   6  658.33   34.70
   3  -3  -6  698.63   28.70
   3  -3  -6  689.63   28.70
  -3  -3   6  697.53   28.70
   3  -3  -6  658.73   28.70
   3   3  -5    3.40    0.60
  -3   3   5    3.20    0.40
   3   3  -5    3.00    0.50
   3   3  -5    3.40    0.50
  -3  -3   5    4.50    0.50
   3  -3  -5    3.50    0.40
   3  -3  -5    3.90    0.60
  -3  -3   5    2.50    2.90
   3   3  -4 1959.50   80.39
  -3   3   4 1925.01   80.49
   3   3  -4 1942.11   80.49
   3  -3  -4 1684.63   80.69
   3  -3  -4 2092.99   80.39
  -3  -3   4 1894.21   80.39
   3   3  -3  555.94   22.30
   3   3  -3  520.55   22.20
   3   3  -3  538.35   22.30
   3   3  -3  505.85   22.40
   3   3  -3  529.45   22.30
   3   3  -3  493.55   22.30
  -3   3   3  536.95   22.20
   3   3  -3  554.44   22.30
   3  -3  -3  530.95   22.30
   3  -3  -3  505.35   22.30
   3  -3  -3  526.65   22.30
   3   3  -2 1092.69   46.30
   3   3  -2 1111.89   46.40
   3  -3  -2 1118.69   46.40
   3  -3  -2 1099.49   46.40
   3  -3  -2 1076.09   46.30
   3  -3  -2 1113.79   46.30
   3   3  -1   24.20    1.10
   3   3  -1   23.20    1.10
   3   3  -1   23.90    1.10
   3   3  -1   22.40    1.20
   3  -3  -1   23.40    1.10
   3  -3  -1   24.00    1.20
   3  -3  -1   23.60    1.10
   3  -3  -1   24.00    1.10
   3  -3  -1   24.20    1.10
   3  -3  -1   22.20    1.20
   3   3   0   23.60    1.00
   3   3   0   22.20    1.10
   3   3   0   22.50    1.10
   3   3   0   22.90    1.00
   3   3   0   22.10    1.00
   3   3   0   23.40    1.10
   3   3   0   22.10    1.10
   3   3   0   20.90    1.20
   3  -3   0   21.80    1.00
   3  -3   0   20.90    1.10
   3  -3   0   20.80    1.10
   3  -3   0   19.90    1.00
   3  -3   0   21.10    1.00
   3  -3   0   24.00    1.10
   3   3   1  353.46   14.10
   3   3   1  329.07   14.20
   3   3   1  338.07   14.10
   3   3   1  333.47   14.10
   3   3   1  344.27   14.10
   3   3   1  338.27   14.10
   3   3   1  337.97   14.10
   3  -3   1  324.27   14.20
   3  -3   1  302.07   14.10
   3  -3   1  300.77   14.10
   3  -3   1  341.37   14.10
   3  -3   1  336.37   14.20
   3  -3   1  342.27   14.10
  -3  -3  -1  343.17   16.30
   3  -3   1  345.27   14.10
   3   3   2   49.20    2.50
   3   3   2   51.69    2.40
   3   3   2   52.29    2.40
   3   3   2   59.09    2.40
   3   3   2   52.49    2.40
   3   3   2   53.59    2.40
   3  -3   2   50.59    2.30
   3  -3   2   51.89    2.40
   3  -3   2   60.19    2.40
   3  -3   2   50.09    2.40
   3  -3   2   48.60    2.40
   3  -3   2   52.49    2.40
   3   3   3  503.65   20.60
   3   3   3  502.95   20.60
   3   3   3  501.25   20.60
   3   3   3  502.05   20.60
   3   3   3  423.06   20.60
   3   3   3  494.45   20.60
   3  -3   3  442.36   20.50
   3  -3   3  491.05   20.50
   3  -3   3  501.05   20.60
   3  -3   3  506.15   20.60
   3  -3   3  485.75   20.60
   3   3   4    4.00    0.60
   3   3   4    4.50    0.50
   3  -3   4    3.40    0.50
   3  -3   4    4.00    0.60
   3   3   5  436.36   18.00
   3   3   5  416.56   18.00
   3   3   5  416.66   18.10
   3  -3   5  431.26   18.00
   3  -3   5  420.76   18.10
   3  -3   5  425.76   18.00
   3   3   6  126.09    5.70
   3   3   6  136.89    5.70
   3   3   6  125.49    5.50
   3  -3   6  127.39    5.60
   3  -3   6  127.79    5.70
  -3   4   9  195.38    8.10
  -3  -4   9  185.18    8.40
  -3   4   8   19.60    1.40
  -3   4   8   23.50    1.60
  -3  -4   8   23.30    1.30
   3  -4  -8   20.80    1.90
   3  -4  -8   22.60    1.40
   3   4  -7  492.95   21.40
   3   4  -7  502.15   21.30
   3   4  -7  424.76   21.60
  -3   4   7  528.85   21.40
   3  -4  -7  507.55   21.40
   3  -4  -7  538.95   21.30
  -3  -4   7  529.25   21.30
   3   4  -6  942.21   41.40
  -3   4   6  973.20   41.30
   3   4  -6  962.60   41.30
   3   4  -6  957.60   41.20
   3  -4  -6  939.11   41.30
  -3  -4   6 1092.49   52.69
   3  -4  -6  980.00   41.20
  -3  -4   6  983.80   41.20
   3  -4  -6  983.00   41.30
  -3   4   5  122.79    5.20
   3   4  -5  118.89    5.30
   3   4  -5  118.59    5.20
   3  -4  -5  121.09    5.20
   3  -4  -5  117.69    5.20
   3  -4  -5  116.09    5.20
  -3  -4   5  121.99    5.10
  -3  -4   5  110.69    9.80
   3   4  -4   10.80    0.70
   3   4  -4   10.50    0.70
   3   4  -4   11.00    0.70
   3   4  -4   10.50    0.80
  -3   4   4   11.00    0.80
   3   4  -4   10.00    0.70
   3  -4  -4   11.60    0.70
  -3  -4   4   10.80    0.60
   3  -4  -4    9.80    0.70
   3  -4  -4   10.70    0.80
   3   4  -3 2333.57   97.99
   3   4  -2  263.57   11.50
   3   4  -2  281.57   11.40
   3   4  -2  257.87   11.40
   3   4  -2  270.77   11.40
   3  -4  -2  261.17   11.40
   3  -4  -2  250.67   11.30
   3  -4  -2  261.87   11.40
   3  -4  -2  274.47   11.40
   3  -4  -2  299.07   11.40
   3   4  -1  217.38    8.90
   3   4  -1  222.98    9.00
   3   4  -1  207.48    9.10
   3   4  -1  205.78    9.00
   3   4  -1  213.78    9.00
   3  -4  -1  205.18    9.00
   3  -4  -1  239.08    9.00
   3  -4  -1  220.08    9.00
   3  -4  -1  195.18    9.00
   3  -4  -1  196.28    9.00
   3  -4  -1  203.78    9.00
   3   4   0   25.30    1.40
   3   4   0   25.00    1.20
   3   4   0   26.70    1.20
   3   4   0   26.60    1.20
   3   4   0   26.10    1.20
   3   4   0   26.00    1.20
   3   4   0   24.20    1.20
   3   4   0   25.40    1.20
   3  -4   0   24.50    1.20
   3  -4   0   25.90    1.30
  -3  -4   0   23.20    3.50
   3  -4   0   26.00    1.20
   3  -4   0   24.80    1.20
   3  -4   0   25.60    1.20
   3   4   1  474.15   23.70
   3   4   1  591.64   23.70
   3   4   1  573.74   23.70
   3   4   1  545.35   23.80
   3   4   1  542.05   23.70
   3   4   1  572.14   23.70
   3   4   1  634.34   23.70
   3  -4   1  570.24   23.70
   3  -4   1  523.45   23.70
   3  -4   1  568.34   23.70
   3  -4   1  563.24   23.70
  -3  -4  -1  604.04   26.10
   3  -4   1  552.94   23.80
   3   4   2  534.85   23.10
   3   4   2  570.84   23.20
   3   4   2  520.95   23.20
   3   4   2  574.94   23.10
   3   4   2  559.64   23.10
   3  -4   2  569.04   23.20
   3  -4   2  546.15   23.10
   3  -4   2  516.75   23.20
   3  -4   2  536.65   23.10
   3  -4   2  538.95   23.20
   3  -4   2  563.84   23.10
   3   4   3  123.79    6.20
   3   4   3  147.19    6.20
   3   4   3  145.89    6.10
   3   4   3  140.89    6.20
   3   4   3  140.59    6.10
   3  -4   3  140.89    6.20
  -3  -4  -3  148.89    6.10
   3  -4   3  142.99    6.20
   3  -4   3  145.29    6.20
   3   4   4  293.07   12.70
   3   4   4  300.17   12.60
   3   4   4  298.37   12.70
   3   4   4  301.77   12.70
   3  -4   4  299.77   12.70
   3  -4   4  285.67   12.70
   3  -4   4  298.57   12.70
   3   4   5  905.81   38.90
   3   4   5  944.51   38.90
   3   4   5  915.71   38.80
   3  -4   5  920.11   38.90
   3  -4   5  938.01   38.80
   3  -4   5  906.41   38.90
   3   4   6  250.57   11.00
   3   4   6  263.77   10.90
   3  -4   6  251.47   10.90
  -3   5   8   13.80    1.50
   3  -5  -8   15.80    1.30
   3  -5  -8   15.20    1.20
   3  -5  -8   16.60    1.80
  -3  -5   8   16.70    1.20
  -3   5   7  236.68   10.40
   3   5  -7  224.08   10.30
   3   5  -7  239.58   10.50
   3  -5  -7  229.08   10.40
  -3  -5   7  251.27   10.30
  -3  -5   7  245.68   10.30
   3  -5  -7  259.27   10.30
   3  -5  -7  242.08   10.30
  -3   5   6  998.00   42.30
   3   5  -6  999.80   42.20
   3   5  -6  994.20   42.20
   3   5  -6  959.50   42.30
   3  -5  -6  961.40   42.30
   3  -5  -6 1018.20   42.20
  -3  -5   6 1042.80   48.60
   3  -5  -6 1035.40   42.20
  -3  -5   6 1007.30   42.20
  -3   5   5  124.79    5.30
   3   5  -5  118.79    5.40
   3   5  -5  118.09    5.30
   3   5  -5  117.79    5.30
  -3  -5   5  125.09    5.20
  -3  -5   5  119.39   10.20
   3  -5  -5  124.89    5.30
   3  -5  -5  120.89    5.30
  -3   5   4  533.75   22.00
   3   5  -4  532.05   22.00
   3   5  -4  530.45   22.00
   3   5  -4  524.45   22.00
   3   5  -4  525.35   22.00
   3   5  -4  506.75   22.10
   3  -5  -4  518.35   22.00
   3  -5  -4  536.85   22.00
  -3  -5   4  483.25   27.40
   3   5  -3  571.84   23.90
   3   5  -3  593.84   23.90
   3   5  -3  568.94   23.90
   3   5  -3  542.45   24.00
   3  -5  -3  631.54   23.90
   3  -5  -3  567.14   23.90
   3  -5  -3  569.34   23.90
  -3  -5   3  485.35   28.30
   3   5  -2  298.17   13.40
   3   5  -2  315.37   13.50
   3   5  -2  321.37   13.40
   3   5  -2  324.37   13.40
   3  -5  -2  327.57   13.40
   3  -5  -2  327.97   13.40
   3  -5  -2  300.67   13.40
   3  -5  -2  327.07   13.40
   3  -5  -2  306.07   13.40
   3   5   0    7.80    0.50
   3   5   0    8.50    0.50
   3   5   0    6.80    0.50
   3   5   0    7.40    0.70
   3   5   0    7.10    0.60
   3   5   0    7.30    0.50
  -3  -5   0    7.10    2.70
   3  -5   0    6.80    0.60
   3  -5   0    7.30    0.50
   3  -5   0    7.90    0.60
   3  -5   0    7.60    0.60
   3  -5   0    7.50    0.60
   3   5   1 1877.41   77.79
   3   5   1 1828.52   77.89
   3  -5   1 1866.71   77.79
   3  -5   1 1756.22   77.69
   3  -5   1 1871.11   77.79
   3  -5   1 1774.72   77.79
  -3  -5  -1 1994.80   80.89
   3   5   2 2755.42  116.99
   3  -5   2 3097.29  116.89
   3  -5   2 2609.24  116.79
   3  -5   2 2676.23  116.89
   3   5   3  265.07   11.40
   3   5   3  269.37   11.40
   3   5   3  277.27   11.40
   3   5   3  230.48   11.50
   3   5   3  273.57   11.40
   3   5   3  274.27   11.50
   3  -5   3  266.87   11.40
   3  -5   3  265.07   11.50
  -3  -5  -3  276.47   11.30
   3  -5   3  272.77   11.40
   3   5   4  713.13   30.10
   3   5   4  719.43   30.20
   3   5   4  725.03   30.20
   3   5   4  711.93   30.30
   3  -5   4  718.83   30.30
   3  -5   4  694.93   30.20
   3  -5   4  718.83   30.20
   3   5   5   16.00    1.40
   3   5   5   17.90    1.20
   3   5   5   13.90    1.00
   3  -5   5   18.10    1.30
   3  -5   5   14.70    1.10
   3  -5   5   17.10    1.00
   3   5   6   78.99    3.40
   3   5   6   72.39    3.60
   3  -5   6   73.09    3.60
   3  -5   6   72.79    3.30
  -3   6   8    0.30    0.80
   3  -6  -8    0.70    0.60
  -3  -6   8    0.40    0.50
   3  -6  -8   -0.40    0.60
   3  -6  -8    1.40    1.10
   3   6  -7    2.00    0.80
  -3   6   7    2.70    0.70
   3  -6  -7    2.80    0.60
  -3  -6   7    2.40    0.50
   3  -6  -7    2.20    0.70
   3  -6  -7    1.90    0.60
   3  -6  -7    2.20    0.60
   3   6  -6 1530.55   64.19
  -3   6   6 1515.55   64.29
   3   6  -6 1462.45   64.39
   3   6  -6 1473.55   64.19
   3  -6  -6 1459.15   64.29
  -3  -6   6 1634.04   70.99
   3  -6  -6 1635.24   64.19
   3  -6  -6 1503.15   64.19
   3   6  -5 1220.18   53.59
   3   6  -5 1235.38   53.49
   3   6  -5 1315.07   53.49
  -3   6   5 1256.07   53.49
   3  -6  -5 1290.17   53.49
   3  -6  -5 1282.37   53.49
  -3  -6   5 1298.77   60.49
   3   6  -4  122.09    5.10
   3   6  -4  113.19    5.10
  -3   6   4  120.79    5.10
   3   6  -4  120.39    5.10
   3   6  -4  112.99    5.30
   3   6  -4  117.99    5.10
  -3  -6   4  116.99    9.80
   3  -6  -4  117.59    5.10
   3  -6  -4  119.49    5.10
   3   6  -3    0.40    0.30
   3   6  -3    0.30    0.30
   3   6  -3    0.60    0.40
   3   6  -3    0.40    0.20
  -3  -6   3    1.10    2.00
   3  -6  -3    0.50    0.30
   3  -6  -3    0.10    0.20
   3   6  -2   59.49    2.70
   3   6  -2   56.99    2.60
   3   6  -2   63.39    2.60
   3   6  -2   60.09    2.60
   3  -6  -2   59.59    2.60
   3  -6  -2   56.09    2.60
   3  -6  -2   57.89    2.60
  -3  -6   2   51.69    5.90
   3  -6  -2   56.99    2.60
   3  -6  -2   62.99    2.60
   3   6  -1  234.28    9.80
   3   6  -1  245.58    9.80
   3   6  -1  231.88   10.00
   3   6  -1  229.48    9.80
   3   6  -1  231.28    9.80
   3  -6  -1  236.78    9.90
  -3  -6   1  225.28   13.70
   3  -6  -1  212.08    9.80
   3  -6  -1  246.98    9.90
   3  -6  -1  222.88    9.80
   3  -6  -1  235.28    9.80
   3   6   0  702.23   30.60
   3   6   0  724.83   30.60
   3   6   0  728.73   30.70
   3   6   0  715.73   30.60
   3   6   0  743.73   30.60
   3   6   0  734.53   30.60
   3   6   0  747.43   30.60
  -3  -6   0  758.02   34.40
   3  -6   0  735.33   30.70
   3  -6   0  689.93   30.60
   3  -6   0  752.92   30.60
   3  -6   0  670.33   30.60
   3   6   1  166.18    6.80
   3   6   1  153.08    6.80
   3   6   1  162.98    6.80
   3   6   1  163.98    6.80
   3   6   1  156.78    7.00
   3   6   1  160.08    6.90
   3  -6   1  162.38    6.80
  -3  -6  -1  164.38    9.50
   3  -6   1  148.29    6.80
   3  -6   1  156.28    6.80
   3  -6   1  156.68    6.90
   3   6   2   47.90    2.20
   3   6   2   44.70    2.40
   3   6   2   48.50    2.20
   3   6   2   49.40    2.20
   3   6   2   48.30    2.30
   3   6   2   48.90    2.20
   3  -6   2   52.49    2.20
   3  -6   2   47.80    2.30
   3  -6   2   44.40    2.20
   3  -6   2   48.60    2.20
   3   6   3   22.70    1.40
   3   6   3   22.90    1.30
   3   6   3   21.20    1.40
   3   6   3   23.80    1.30
   3   6   3   22.50    1.20
   3   6   3   21.40    1.50
  -3  -6  -3   22.30    1.20
   3  -6   3   22.70    1.30
   3  -6   3   25.90    1.40
   3  -6   3   22.90    1.20
   3   6   4   12.10    1.00
   3   6   4   12.00    1.20
   3   6   4   14.50    1.00
   3   6   4   12.40    0.80
   3  -6   4   13.90    1.10
   3  -6   4   11.80    0.90
   3  -6   4   13.20    0.90
   3   6   5   17.60    1.30
   3  -6   5   17.00    1.30
   3  -6   5   16.90    1.10
   3   6   6  220.78    9.20
   3  -6   6  203.08    9.30
   3  -6   6  219.78    9.20
  -3   7   8   10.50    1.50
   3  -7  -8    7.50    1.00
   3  -7  -8    8.10    1.00
  -3  -7   8    9.00    0.80
   3  -7  -8    8.60    1.30
   3   7  -7   65.19    3.20
  -3   7   7   61.19    3.10
   3  -7  -7   63.59    2.90
   3  -7  -7   62.99    3.00
  -3  -7   7   65.49    2.90
   3  -7  -7   60.69    3.10
   3   7  -6   99.89    4.70
  -3   7   6  101.59    4.60
   3   7  -6  100.59    4.50
  -3  -7   6  108.09    9.50
   3  -7  -6   92.89    4.60
   3  -7  -6  100.29    4.50
   3  -7  -6  108.69    4.50
   3   7  -5  623.54   28.20
   3   7  -5  684.43   28.20
   3   7  -5  644.84   28.40
  -3  -7   5  672.33   42.20
   3  -7  -5  704.23   28.20
   3  -7  -5  679.63   28.20
   3   7  -4  228.78    9.60
   3   7  -4  224.08    9.60
   3   7  -4  215.08    9.60
   3   7  -4  234.38    9.60
  -3   7   4  223.68    9.70
   3   7  -4  214.78    9.80
  -3  -7   4  235.48   15.20
   3  -7  -4  230.58    9.60
   3  -7  -4  218.18    9.70
   3  -7  -4  234.18    9.70
   3   7  -3 2425.06  101.29
   3   7  -3 2393.96  101.09
   3   7  -1 1037.70   43.10
   3   7  -1 1029.10   42.90
   3   7  -1 1021.30   43.00
   3  -7  -1 1054.29   42.90
   3  -7  -1 1145.99   43.00
   3  -7  -1 1008.60   42.90
   3  -7  -1 1046.00   43.00
   3  -7  -1  942.61   42.90
   3  -7  -1  944.31   42.90
  -3  -7   1 1054.99   47.90
   3  -7  -1  955.30   42.90
   3   7   0  703.93   31.90
   3   7   0  754.92   31.90
   3   7   0  752.92   32.10
   3   7   0  784.22   31.90
   3  -7   0  773.82   32.00
   3  -7   0  738.23   31.90
  -3  -7   0  830.12   36.10
   3  -7   0  724.33   31.90
   3   7   1  360.16   15.40
   3   7   1  364.56   15.30
   3   7   1  352.96   15.40
   3   7   1  357.46   15.30
   3   7   1  357.26   15.50
   3  -7   1  342.67   15.30
   3  -7   1  404.26   15.30
   3  -7   1  355.06   15.40
   3  -7   1  352.96   15.30
  -3  -7  -1  371.76   18.60
   3   7   2   64.89    2.90
   3   7   2   65.79    2.90
   3   7   2   66.49    3.00
   3   7   2   62.19    3.10
   3   7   2   65.59    3.00
   3  -7   2   59.69    3.00
   3  -7   2   62.89    3.00
   3  -7   2   66.09    3.00
   3  -7   2   71.99    2.90
   3   7   3  328.17   14.00
   3   7   3  290.77   14.10
   3   7   3  336.87   14.00
   3   7   3  326.67   14.10
   3   7   3  331.17   14.00
   3   7   3  343.97   14.00
   3  -7   3  336.07   14.00
   3  -7   3  329.27   14.10
  -3  -7  -3  338.07   13.90
   3   7   4   31.30    1.60
   3   7   4   34.10    1.90
   3   7   4   33.20    1.80
   3  -7   4   32.00    1.70
   3  -7   4   33.80    1.80
   3   7   5   21.70    1.50
   3   7   5   19.30    1.60
   3  -7   5   22.40    1.30
   3  -7   5   22.20    1.50
   3   7   6   52.59    2.50
   3  -7   6   47.30    2.60
   3  -7   6   50.89    2.30
  -3   8   8    0.50    1.00
   3  -8  -8   -0.70    0.60
   3  -8  -8    0.20    0.50
  -3  -8   8   -0.10    0.40
  -3   8   7   28.70    1.80
   3   8  -7   29.60    1.90
  -3  -8   7   29.10    1.50
   3  -8  -7   29.00    1.60
   3  -8  -7   28.90    1.60
   3  -8  -7   26.60    1.90
   3   8  -6   28.10    1.80
  -3   8   6   28.40    1.70
   3   8  -6   29.50    1.50
   3  -8  -6   30.20    1.60
   3  -8  -6   29.60    1.60
  -3  -8   6   30.90    1.50
   3  -8  -6   31.90    1.60
  -3  -8   6   30.50    5.50
  -3   8   5  798.42   34.60
   3   8  -5  829.72   34.50
   3   8  -5  770.22   34.70
   3  -8  -5  813.42   34.50
  -3  -8   5  892.11   41.60
   3  -8  -5  856.01   34.50
   3  -8  -5  772.22   34.50
   3   8  -4    9.90    1.20
   3   8  -4   10.60    0.80
   3   8  -4   10.30    0.80
  -3   8   4   11.10    0.90
   3   8  -4    9.30    0.90
   3   8  -4   11.00    0.80
   3  -8  -4   12.60    0.80
   3  -8  -4   11.00    0.80
  -3  -8   4   12.70    4.10
   3  -8  -4   11.30    0.80
   3   8  -3  393.26   17.50
   3   8  -3  393.56   17.30
   3   8  -3  386.76   17.30
   3   8  -3  433.06   17.30
   3  -8  -3  412.96   17.40
   3  -8  -3  404.56   17.30
   3  -8  -3  425.66   17.40
  -3  -8   3  432.96   23.20
   3  -8  -3  407.16   17.30
   3   8  -2   31.60    1.50
   3   8  -2   29.90    1.70
   3   8  -2   28.90    1.50
   3   8  -2   33.10    1.50
   3  -8  -2   32.10    1.50
   3  -8  -2   30.90    1.60
   3  -8  -2   28.60    1.50
   3  -8  -2   35.50    1.50
   3  -8  -2   35.60    1.50
  -3  -8   2   32.10    4.90
   3   8  -1  166.78    7.20
   3   8  -1  158.58    7.20
   3   8  -1  172.88    7.10
   3   8  -1  176.38    7.10
   3   8  -1  169.98    7.40
   3  -8  -1  152.38    7.20
  -3  -8   1  177.18   11.30
   3  -8  -1  193.68    7.20
   3  -8  -1  153.18    7.10
   3  -8  -1  162.78    7.20
   3  -8  -1  172.18    7.20
   3  -8  -1  155.38    7.20
   3   8   0  246.68   10.90
   3   8   0  246.88   10.70
   3   8   0  247.98   10.70
  -3  -8   0  260.57   14.50
   3  -8   0  244.78   10.70
   3  -8   0  244.78   10.80
   3  -8   0  244.68   10.70
   3  -8   0  282.87   10.70
   3   8   1 1127.39   48.40
   3   8   1 1143.79   48.40
   3   8   1 1127.29   48.40
   3   8   1 1128.09   48.60
   3   8   1 1135.59   48.40
   3  -8   1 1163.28   48.50
  -3  -8  -1 1179.88   52.59
   3  -8   1 1122.29   48.40
   3  -8   1 1088.19   48.40
   3  -8   1 1291.37   48.40
   3   8   2   99.79    4.30
   3   8   2  101.59    4.40
   3   8   2   96.99    4.30
   3   8   2   96.39    4.50
   3   8   2   98.39    4.40
   3  -8   2   92.69    4.40
   3  -8   2  101.59    4.40
   3  -8   2  101.19    4.40
   3   8   3  129.79    6.20
   3   8   3  141.79    6.00
   3   8   3  141.79    6.10
   3   8   3  136.39    6.20
   3   8   3  138.29    6.10
   3  -8   3  138.99    6.10
  -3  -8  -3  141.79    6.00
   3  -8   3  139.79    6.10
   3   8   4   92.09    4.30
   3   8   4   93.79    4.40
   3   8   4   96.59    4.20
   3  -8   4   92.79    4.20
   3  -8   4   96.39    4.30
  -3  -8  -4   90.49    4.10
   3   8   5   17.00    1.40
   3   8   5   17.10    1.50
   3  -8   5   16.50    1.30
   3  -8   5   17.40    1.20
   3   8   6   22.70    1.90
   3  -8   6   21.20    1.20
  -3   9   8   81.69    3.50
  -3  -9   8   74.69    3.50
   3  -9  -8   75.59    3.60
  -3   9   7    3.60    1.00
   3   9  -7    3.70    0.90
   3  -9  -7    3.30    0.80
   3  -9  -7    3.10    0.50
   3  -9  -7    3.70    0.60
  -3  -9   7    3.30    0.50
   3   9  -6   24.90    1.70
  -3   9   6   26.50    1.70
   3   9  -6   27.50    1.40
  -3  -9   6   26.20    1.40
   3  -9  -6   27.50    1.50
  -3  -9   6   28.30    5.50
   3  -9  -6   28.20    1.50
  -3   9   5  766.12   32.50
   3   9  -5  782.32   32.30
   3   9  -5  734.33   32.60
   3  -9  -5  815.32   32.40
  -3  -9   5  856.11   39.70
  -3  -9   5  753.02   32.30
   3  -9  -5  759.92   32.40
  -3  -9   5  681.33   32.30
   3  -9  -5  757.82   32.40
   3   9  -4  132.09    6.30
  -3   9   4  139.99    6.20
   3   9  -4  148.39    6.10
  -3  -9   4  156.88   12.00
   3  -9  -4  150.08    6.20
   3  -9  -4  136.89    6.20
   3  -9  -4  133.29    6.20
   3   9  -3  252.77   11.30
   3   9  -3  268.57   11.30
   3   9  -3  263.07   11.50
   3   9  -3  254.77   11.30
   3  -9  -3  274.17   11.30
   3  -9  -3  257.27   11.30
  -3  -9   3  294.87   17.10
   3  -9  -3  266.47   11.30
   3   9  -2 1197.88   50.89
   3   9  -2 1202.28   50.89
   3   9  -2 1213.98   51.09
   3  -9  -2 1186.38   50.89
  -3  -9   2 1337.17   57.59
   3  -9  -2 1254.37   50.89
   3  -9  -2 1203.88   50.99
   3  -9  -2 1159.58   50.89
   3  -9  -2 1149.78   50.89
   3   9  -1  148.99    6.70
   3   9  -1  145.29    6.50
   3   9  -1  153.08    6.50
   3   9  -1  145.49    6.50
   3   9  -1  145.89    6.50
   3  -9  -1  148.59    6.50
   3  -9  -1  136.59    6.50
   3  -9  -1  166.98    6.60
   3  -9  -1  174.08    6.50
   3  -9  -1  140.69    6.50
  -3  -9   1  160.08   10.70
   3   9   0   29.30    1.40
   3   9   0   27.70    1.40
   3   9   0   27.80    1.60
   3  -9   0   27.80    1.50
   3  -9   0   27.60    1.40
   3  -9   0   32.00    1.40
   3  -9   0   29.30    1.40
  -3  -9   0   31.20    4.50
   3   9   1 1334.27   57.29
   3   9   1 1392.96   57.29
   3   9   1 1345.67   57.29
   3   9   1 1353.06   57.49
   3   9   1 1409.16   57.39
   3  -9   1 1369.76   57.39
   3  -9   1 1325.67   57.29
   3  -9   1 1362.36   57.29
  -3  -9  -1 1377.96   62.19
   3   9   2  203.08    9.20
   3   9   2  210.58    9.10
   3   9   2  204.38    9.00
   3   9   2  210.28    8.90
   3   9   2  213.88    9.00
   3  -9   2  203.98    9.00
   3  -9   2  214.48    9.00
   3  -9   2  215.88    9.20
   3   9   3  727.83   30.80
   3   9   3  665.13   30.80
   3   9   3  723.93   30.70
   3   9   3  741.83   30.70
   3  -9   3  744.33   30.80
   3  -9   3  743.13   30.70
  -3  -9  -3  737.23   30.60
   3   9   4  129.59    5.80
   3   9   4  132.69    5.70
   3   9   4  133.19    5.70
   3  -9   4  109.09    5.80
   3  -9   4  132.39    5.70
  -3  -9  -4  130.99    5.60
   3   9   5   28.80    2.00
   3   9   5   30.10    1.90
   3   9   5   32.10    1.80
   3  -9   5   29.60    1.60
   3  -9   5   30.80    1.80
  -3  10   8   87.39    3.70
   3 -10  -8   85.89    3.70
  -3 -10   8   75.19    3.70
   3  10  -7   18.70    1.70
  -3  10   7   18.30    1.60
   3 -10  -7   16.50    1.60
   3 -10  -7   18.80    1.20
  -3 -10   7   18.90    1.20
   3 -10  -7   19.50    1.20
  -3  10   6   90.69    4.20
   3  10  -6   92.49    4.30
   3  10  -6   90.29    4.00
   3 -10  -6   91.69    4.10
  -3 -10   6   92.59    9.20
  -3 -10   6   88.99    4.00
   3 -10  -6   90.69    4.10
   3  10  -5   44.80    2.50
   3  10  -5   49.00    2.20
  -3  10   5   45.90    2.40
  -3 -10   5   42.20    2.20
  -3 -10   5   52.49    7.00
   3 -10  -5   48.00    2.30
  -3 -10   5   47.10    2.20
   3 -10  -5   45.60    2.30
   3  10  -4  147.79    6.10
   3  10  -4  131.29    6.30
  -3  10   4  140.59    6.20
   3 -10  -4  136.09    6.10
  -3 -10   4  155.88   11.80
   3 -10  -4  137.59    6.10
   3 -10  -4  147.39    6.10
  -3 -10   4  134.09    6.10
   3  10  -3   78.69    3.70
   3  10  -3   91.89    3.70
   3  10  -3   85.59    3.90
  -3 -10   3   95.09    8.70
   3 -10  -3   79.29    3.70
  -3 -10   3   76.49    3.70
   3 -10  -3   81.69    3.70
   3 -10  -3   88.59    3.80
   3  10  -2   30.70    1.70
   3  10  -2   31.00    1.50
   3  10  -2   31.30    1.40
   3  10  -2   31.00    1.50
  -3 -10   2   34.90    5.20
   3 -10  -2   29.20    1.50
   3 -10  -2   29.10    1.50
   3 -10  -2   31.40    1.50
   3 -10  -2   31.30    1.60
   3 -10  -2   30.30    1.50
   3  10  -1    1.70    0.30
   3  10  -1    1.10    0.50
   3  10  -1    1.30    0.40
   3  10  -1    1.10    0.40
  -3 -10   1    1.40    1.90
   3 -10  -1    1.10    0.40
   3 -10  -1    0.90    0.30
   3 -10  -1    1.00    0.40
   3 -10  -1    1.70    0.40
   3  10   0  108.89    4.90
   3  10   0  111.89    4.80
   3  10   0  112.89    5.10
   3  10   0  108.89    4.80
  -3 -10   0  116.59    9.00
   3 -10   0  112.59    4.90
   3 -10   0  110.49    4.90
   3 -10   0  113.79    4.90
   3  10   1  332.97   14.20
   3  10   1  339.07   14.20
   3  10   1  340.77   14.10
   3  10   1  330.47   14.40
   3  10   1  326.87   14.10
   3 -10   1  334.37   14.20
   3 -10   1  332.57   14.20
  -3 -10  -1  329.67   19.10
   3 -10   1  331.37   14.20
   3  10   2   90.49    4.00
   3  10   2   91.19    4.00
   3  10   2   87.69    4.30
   3  10   2   89.99    3.90
   3  10   2   91.79    4.10
   3 -10   2   91.09    4.00
   3 -10   2   89.19    4.10
   3 -10   2   87.79    4.10
   3  10   3    1.10    0.60
   3  10   3    1.70    0.50
   3  10   3    2.00    0.80
   3  10   3    1.70    0.60
  -3 -10  -3    1.90    0.40
   3 -10   3    2.00    0.50
   3 -10   3    1.80    0.50
   3  10   4    3.90    0.70
   3  10   4    3.10    0.70
   3  10   4    2.30    0.80
   3 -10   4    3.20    0.60
   3 -10   4    3.20    0.60
  -3 -10  -4    2.70    0.50
   3  10   5    1.00    0.60
   3  10   5    2.60    0.90
   3 -10   5    0.70    0.60
   3 -10   5    0.80    0.60
  -3  11   8  238.48    9.90
   3 -11  -8  237.68   10.00
  -3 -11   8  224.48   10.10
  -3  11   7   52.89    2.40
  -3  11   7   49.10    2.70
   3  11  -7   48.10    2.80
   3 -11  -7   46.60    2.70
   3 -11  -7   53.29    2.40
  -3 -11   7   50.09    2.40
   3 -11  -7   49.50    2.40
   3  11  -6   -0.10    0.60
  -3  11   6    0.90    0.70
   3 -11  -6    0.30    0.40
  -3 -11   6    0.20    0.40
   3 -11  -6    0.50    0.40
  -3 -11   6    0.10    2.40
   3  11  -5    9.70    1.20
   3  11  -5   11.20    0.80
  -3  11   5    9.80    1.10
   3 -11  -5   11.10    0.90
  -3 -11   5   11.50    0.90
  -3 -11   5   11.40    4.50
  -3 -11   5   10.00    0.80
   3 -11  -5    8.90    0.90
  -3  11   4  242.58   10.50
   3  11  -4  222.38   10.50
   3  11  -4  260.17   10.30
   3 -11  -4  241.48   10.40
  -3 -11   4  226.28   10.30
  -3 -11   4  270.67   16.90
   3 -11  -4  233.18   10.30
   3  11  -3  143.69    5.70
   3  11  -3  130.49    5.90
   3 -11  -3  126.99    5.70
   3 -11  -3  130.99    5.70
  -3 -11   3  146.39   11.30
  -3 -11   3  114.79    5.70
   3  11  -2    0.40    0.20
   3  11  -2    0.30    0.30
   3  11  -2    0.80    0.50
   3  11  -2    0.60    0.70
   3 -11  -2    0.50    0.40
   3 -11  -2    0.80    0.30
   3 -11  -2    0.50    0.30
  -3 -11   2    0.10    1.90
   3 -11  -2    0.30    0.50
   3 -11  -2    0.30    0.40
   3  11  -1   45.70    2.10
   3  11  -1   44.90    2.40
   3  11  -1   44.00    2.10
   3  11  -1   44.80    2.10
  -3 -11   1   50.39    6.20
   3 -11  -1   42.80    2.10
   3 -11  -1   47.40    2.20
   3 -11  -1   46.90    2.10
   3 -11  -1   43.70    2.10
   3  11   0    5.20    0.60
   3  11   0    5.10    0.60
   3  11   0    5.00    0.50
   3  11   0    5.90    0.90
   3 -11   0    4.90    0.70
   3 -11   0    5.70    0.60
  -3 -11   0    5.20    3.40
   3 -11   0    5.10    0.60
   3  11   1  641.44   27.60
   3  11   1  636.14   27.30
   3  11   1  654.93   27.40
   3  11   1  657.43   27.30
   3  11   1  649.14   27.30
   3 -11   1  648.14   27.30
   3 -11   1  651.23   27.30
  -3 -11  -1  634.74   33.30
   3  11   2   81.99    3.60
   3  11   2   78.79    3.50
   3  11   2   78.29    3.90
   3  11   2   77.79    3.70
   3  11   2   76.39    3.60
   3 -11   2   84.79    3.70
   3 -11   2   81.49    3.60
   3 -11   2   77.99    3.70
   3  11   3   20.00    1.60
   3  11   3   20.70    1.40
   3  11   3   19.30    1.60
   3 -11   3   21.90    1.30
   3 -11   3   20.80    1.30
  -3 -11  -3   20.90    1.20
   3  11   4  269.87   11.90
   3  11   4  264.57   12.00
   3  11   4  285.77   11.90
  -3 -11  -4  271.37   11.80
   3 -11   4  287.17   11.90
   3 -11   4  279.77   11.90
   3  11   5  154.28    6.60
   3 -11   5  151.78    6.70
   3 -11   5  150.98    6.60
  -3  12   7   82.49    4.20
  -3  12   7   93.29    3.90
   3 -12  -7   93.39    3.90
   3 -12  -7   80.89    4.20
  -3 -12   7   86.09    3.90
   3 -12  -7   86.59    3.90
   3  12  -6   12.10    1.30
  -3  12   6   11.50    1.40
   3 -12  -6   11.20    1.00
  -3 -12   6   12.90    5.10
  -3 -12   6   11.20    0.90
   3 -12  -6   12.10    1.00
  -3  12   5   85.89    3.90
   3  12  -5   89.59    3.70
   3  12  -5   71.19    4.60
   3 -12  -5   86.69    3.80
  -3 -12   5   93.19    9.40
  -3 -12   5   78.09    3.70
  -3 -12   5   81.09    3.70
   3 -12  -5   82.59    3.80
  -3  12   4  157.08    6.90
   3  12  -4  145.39    6.90
   3  12  -4  164.48    6.70
   3 -12  -4  150.58    6.70
  -3 -12   4  138.99    6.70
   3 -12  -4  157.48    6.80
  -3 -12   4  177.48   13.20
   3  12  -3   10.40    0.70
   3  12  -3    8.80    1.10
   3 -12  -3    9.70    0.80
   3 -12  -3    8.80    0.80
  -3 -12   3   10.60    4.30
  -3 -12   3    7.50    0.70
   3  12  -2  188.28    8.30
   3  12  -2  187.38    8.00
  -3 -12   2  205.28   14.00
   3 -12  -2  192.78    8.10
   3 -12  -2  177.48    8.10
   3 -12  -2  184.18    8.10
   3 -12  -2  183.68    8.10
   3  12  -1   69.29    3.00
   3  12  -1   70.79    3.40
   3  12  -1   67.89    3.00
   3  12  -1   66.79    3.00
   3 -12  -1   69.39    3.10
   3 -12  -1   68.69    3.10
   3 -12  -1   66.39    3.10
   3 -12  -1   65.19    3.10
   3  12   0  230.38   10.20
   3  12   0  240.98   10.50
   3  12   0  241.28   10.20
   3  12   0  238.78   10.10
   3 -12   0  238.38   10.30
   3 -12   0  240.68   10.20
   3 -12   0  241.58   10.20
   3  12   1  318.07   13.40
   3  12   1  314.27   13.50
   3  12   1  319.47   13.40
   3  12   1  309.77   13.70
   3 -12   1  314.57   13.50
   3 -12   1  312.77   13.40
   3 -12   1  314.37   13.50
   3  12   2    8.60    1.10
   3  12   2    7.30    1.10
   3  12   2    8.60    0.80
   3  12   2    9.30    0.90
   3 -12   2    6.90    1.00
   3 -12   2    8.00    0.90
   3 -12   2    9.00    0.80
   3  12   3  154.58    6.50
   3  12   3  140.59    6.50
   3  12   3  131.99    6.50
   3  12   3  147.09    6.30
   3 -12   3  142.29    6.40
   3 -12   3  145.49    6.50
  -3 -12  -3  143.59    6.20
   3  12   4   66.39    3.00
   3  12   4   61.09    3.20
   3  12   4   59.99    3.10
  -3 -12  -4   63.89    2.90
   3 -12   4   62.99    3.00
   3 -12   4   66.59    3.10
   3  12   5   87.59    3.90
   3 -12   5   87.29    3.90
   3 -12   5   84.39    4.00
  -3  13   7  375.56   15.40
  -3 -13   7  333.67   15.40
   3 -13  -7  380.06   15.40
   3  13  -6   24.50    1.70
  -3  13   6   23.20    1.80
  -3  13   6   24.20    1.30
   3 -13  -6   24.10    1.40
  -3 -13   6   24.20    6.00
   3 -13  -6   25.40    1.40
  -3 -13   6   22.00    1.30
  -3  13   5   56.09    2.90
   3  13  -5   57.09    3.00
  -3 -13   5   60.89    7.90
  -3 -13   5   57.59    2.60
  -3 -13   5   52.19    2.60
   3 -13  -5   54.89    2.60
   3 -13  -5   58.59    2.70
   3  13  -4  197.98    9.30
  -3  13   4  216.58    9.30
   3 -13  -4  213.68    9.20
   3 -13  -4  221.48    9.20
  -3 -13   4  187.68    9.10
  -3 -13   4  244.68   16.40
   3  13  -3    5.70    0.50
   3  13  -3    7.00    1.00
  -3 -13   3    6.60    4.00
   3 -13  -3    6.60    0.70
   3 -13  -3    6.10    0.70
   3  13  -2   91.79    4.00
   3  13  -2   94.79    4.40
   3 -13  -2   90.29    4.20
  -3 -13   2  100.09    9.60
   3 -13  -2   90.19    4.10
   3 -13  -2   87.29    4.10
   3 -13  -2   93.99    4.10
   3  13  -1   73.89    3.20
   3  13  -1   68.29    3.20
   3  13  -1   77.29    3.60
  -3 -13   1   77.69    8.40
   3 -13  -1   74.69    3.30
   3 -13  -1   70.79    3.30
   3 -13  -1   73.19    3.30
   3 -13  -1   65.29    3.40
   3  13   0  190.08    8.40
   3  13   0  198.88    8.40
   3  13   0  200.58    8.70
   3  13   0  190.68    8.30
   3 -13   0  194.18    8.50
   3 -13   0  199.08    8.50
   3 -13   0  192.98    8.40
  -3 -13   0  201.18   14.60
   3  13   1  637.64   26.60
   3  13   1  627.24   26.50
   3  13   1  629.24   26.40
   3  13   1  627.34   26.80
   3  13   1  629.24   26.50
   3 -13   1  633.84   26.60
  -3 -13  -1  568.84   33.30
   3 -13   1  647.34   26.60
   3 -13   1  636.34   26.50
   3  13   2    2.10    0.80
   3  13   2    1.80    0.70
   3  13   2    2.40    0.60
   3  13   2    1.30    0.50
   3 -13   2    1.30    0.50
   3 -13   2    1.40    0.60
   3 -13   2    1.90    0.50
   3  13   3   -0.10    0.50
   3  13   3    1.30    0.90
   3  13   3    0.00    0.80
   3  13   3    0.80    0.60
   3 -13   3    0.30    0.50
   3 -13   3    0.10    0.50
  -3 -13  -3    0.30    0.40
   3  13   4    0.40    0.90
   3  13   4    1.90    0.80
   3  13   4    0.90    0.70
   3 -13   4    1.40    0.70
   3 -13   4    1.70    0.60
  -3 -13  -4    1.30    0.50
  -3  14   7   42.50    2.10
   3 -14  -7   43.10    2.10
   3  14  -6   13.00    1.40
  -3  14   6   11.30    1.00
  -3  14   6   13.30    1.50
  -3 -14   6   10.90    1.00
   3 -14  -6   13.10    1.00
  -3 -14   6   12.60    5.60
   3 -14  -6   12.50    1.10
   3  14  -5  174.58    7.70
  -3  14   5  172.38    7.60
  -3  14   5  165.68    7.30
  -3 -14   5  151.58    7.30
   3 -14  -5  179.48    7.40
  -3 -14   5  165.98    7.40
   3 -14  -5  170.28    7.40
  -3 -14   5  183.38   14.40
  -3  14   4   29.10    1.70
   3 -14  -4   27.40    1.60
  -3 -14   4   32.10    6.20
   3 -14  -4   28.00    1.60
   3  14  -3  210.28    9.10
   3  14  -3  212.08    9.40
   3 -14  -3  211.78    9.20
   3 -14  -3  208.78    9.20
  -3 -14   3  225.28   16.10
   3  14  -2 1099.59   44.60
   3  14  -2 1069.69   44.30
  -3 -14   2 1121.99   52.79
   3 -14  -2 1007.10   44.30
   3 -14  -2 1025.60   44.30
   3 -14  -2  991.50   44.30
   3  14  -1  203.48    8.80
   3  14  -1  191.58    8.40
  -3 -14   1  204.78   15.10
   3 -14  -1  183.88    8.50
   3 -14  -1  195.28    8.40
   3  14   0  495.55   21.30
   3  14   0  510.15   21.30
   3  14   0  516.05   21.60
   3 -14   0  504.95   21.30
   3 -14   0  509.95   21.30
   3 -14   0  489.55   21.30
  -3 -14   0  492.25   28.70
   3  14   1  127.69    5.50
   3  14   1  123.89    5.40
   3  14   1  127.59    5.60
   3 -14   1  125.49    5.50
   3 -14   1  127.39    5.50
  -3 -14  -1  111.39   11.80
   3 -14   1  124.69    5.50
   3  14   2   29.80    1.80
   3  14   2   30.00    1.90
   3  14   2   29.70    2.00
   3  14   2   29.00    1.60
   3 -14   2   30.00    1.80
   3 -14   2   29.30    1.70
  -3 -14  -2   30.40    1.50
   3 -14   2   31.60    1.80
   3  14   3   29.90    2.10
   3  14   3   33.60    1.90
   3  14   3   29.20    2.10
   3  14   3   32.90    1.70
   3 -14   3   32.30    1.80
  -3 -14  -3   33.60    1.60
   3 -14   3   34.00    1.80
   3  14   4   11.30    1.10
   3 -14   4   11.00    1.10
   3 -14   4   10.90    1.00
  -3 -14  -4   10.90    0.90
  -3  15   6   16.70    1.80
   3  15  -6   17.00    1.50
   3 -15  -6   18.30    1.10
  -3 -15   6   13.80    6.10
   3 -15  -6   16.00    1.30
   3  15  -5   71.29    3.60
   3  15  -5   72.49    3.30
  -3  15   5   73.29    3.60
   3 -15  -5   76.39    3.40
   3 -15  -5   71.19    3.30
  -3 -15   5   72.69    3.30
  -3  15   4   70.19    3.50
   3  15  -4   73.39    3.30
  -3 -15   4   77.19    9.30
   3 -15  -4   72.99    3.40
   3 -15  -4   75.99    3.40
   3  15  -3  151.68    7.00
   3  15  -3  155.38    6.70
  -3 -15   3  167.58   13.90
   3 -15  -3  152.68    6.80
   3 -15  -3  152.28    6.80
   3  15  -2    3.20    0.50
   3  15  -2    4.10    0.80
   3 -15  -2    3.80    0.60
   3 -15  -2    4.70    0.60
  -3 -15   2    5.30    4.60
   3  15  -1  234.08   10.10
   3  15  -1  247.38   10.50
   3 -15  -1  216.08   10.20
   3 -15  -1  239.88   10.20
  -3 -15   1  246.38   17.70
   3 -15  -1  238.08   10.20
   3  15   0   44.30    2.20
   3  15   0   49.70    2.30
   3  15   0   50.39    2.70
   3 -15   0   47.50    2.40
   3 -15   0   47.80    2.30
   3 -15   0   44.80    2.40
  -3 -15   0   46.80    7.90
   3  15   1    0.60    0.50
   3  15   1    0.10    0.70
   3  15   1    1.20    0.60
   3  15   1    0.70    0.50
  -3 -15  -1    0.20    4.90
   3 -15   1    0.20    0.50
   3 -15   1   -0.20    0.50
   3 -15   1    0.30    0.50
   3  15   2   49.00    2.80
   3  15   2   49.99    2.40
   3  15   2   50.19    2.70
   3  15   2   52.09    2.50
  -3 -15  -2   50.69    2.30
   3 -15   2   53.29    2.50
   3 -15   2   47.70    2.60
   3 -15   2   49.99    2.50
   3  15   3   32.60    2.30
   3  15   3   32.40    2.00
   3  15   3   34.20    1.80
   3  15   3   37.00    2.30
   3 -15   3   34.70    2.00
  -3 -15  -3   36.00    1.70
   3 -15   3   37.80    1.90
   3 -15   4    2.80    0.60
  -3 -15  -4    3.20    0.50
   3 -15   4    3.00    0.70
   3  16  -6  189.08    8.50
   3 -16  -6  198.88    8.30
   3  16  -5  113.69    5.10
  -3  16   5  115.29    5.40
   3  16  -5  120.59    5.50
   3 -16  -5  123.89    5.20
  -3 -16   5  125.19    5.20
   3 -16  -5  112.99    5.20
  -3 -16   5  112.99   11.50
   3  16  -4   24.80    1.30
   3 -16  -4   24.80    1.40
   3 -16  -4   24.30    1.40
  -3 -16   4   24.40    6.30
   3  16  -3  270.47   11.90
   3  16  -3  271.87   11.60
   3 -16  -3  269.27   11.60
  -3 -16   3  280.87   19.70
   3 -16  -3  270.67   11.70
   3  16  -2   63.69    3.20
   3  16  -2   61.09    2.90
  -3 -16   2   63.69    8.90
   3 -16  -2   62.09    2.90
   3 -16  -2   63.79    2.90
   3 -16  -2   60.29    2.90
   3  16  -1 1035.90   43.70
   3  16  -1 1070.19   44.00
   3 -16  -1 1075.79   43.80
   3 -16  -1  918.21   43.70
  -3 -16   1 1061.69   53.29
   3 -16  -1 1063.59   43.70
   3  16   0  175.28    7.70
  -3 -16   0  163.58   14.70
   3 -16   0  173.18    7.30
   3 -16   0  171.38    7.40
   3 -16   0  158.78    7.40
   3  16   1  315.67   13.40
   3  16   1  312.47   13.50
   3  16   1  303.67   13.40
   3  16   1  326.47   13.70
   3 -16   1  325.37   13.40
   3 -16   1  300.67   13.50
   3 -16   1  313.57   13.50
   3  16   2   32.60    2.30
   3  16   2   33.40    1.90
   3  16   2   35.70    2.20
   3  16   2   33.70    1.80
   3 -16   2   32.80    1.90
   3 -16   2   36.50    1.90
   3 -16   2   33.60    2.10
  -3 -16  -2   35.60    1.70
   3  16   3   28.50    2.10
   3  16   3   24.80    2.40
   3  16   3   29.60    1.60
   3 -16   3   32.30    1.70
   3 -16   3   31.00    1.80
  -3 -16  -3   31.90    1.50
  -3  17   5   10.80    1.60
   3  17  -5   10.50    1.40
   3 -17  -5    9.50    1.10
  -3 -17   5   10.40    0.90
   3 -17  -5   10.00    0.90
  -3 -17   5    8.90    5.20
   3  17  -4   85.99    3.80
  -3  17   4   83.09    4.10
  -3 -17   4   85.99   10.30
   3 -17  -4   87.69    3.90
   3 -17  -4   86.19    3.90
   3  17  -3   78.09    3.50
   3  17  -3   79.49    3.90
  -3 -17   3   80.29   10.10
   3 -17  -3   79.19    3.60
   3 -17  -3   77.39    3.60
   3  17  -2   15.70    1.00
   3  17  -2   17.80    1.50
  -3 -17   2   16.20    5.90
   3 -17  -2   17.20    1.20
   3  17  -1  187.38    8.10
   3  17  -1  187.78    8.40
   3 -17  -1  186.48    8.10
  -3 -17   1  187.38   16.10
   3 -17  -1  190.38    8.20
   3  17   0    3.30    1.00
  -3 -17   0    2.70    4.10
   3 -17   0    4.60    0.80
   3 -17   0    3.10    0.60
   3 -17   0    2.30    0.60
   3  17   1  103.19    4.80
   3  17   1  111.79    5.20
   3  17   1  105.19    4.90
   3 -17   1  114.49    4.80
   3 -17   1  107.29    4.90
  -3 -17  -1  107.39    4.70
   3 -17   1  101.09    4.80
   3  17   2  224.28    9.80
   3  17   2  213.78    9.40
   3  17   2  212.18    9.70
   3  17   2  205.08    9.50
   3 -17   2  211.28    9.50
  -3 -17  -2  237.58    9.60
   3 -17   2  237.48    9.50
   3  17   3   67.99    3.60
   3  17   3   69.09    3.30
  -3 -17  -3   84.89    3.50
   3 -17   3   75.49    3.30
   3 -17   3   65.29    3.40
   3  18  -5   24.30    1.70
   3 -18  -5   20.10    1.60
   3 -18  -5   23.40    1.30
  -3  18   4    5.60    0.90
  -3 -18   4    6.20    5.10
   3 -18  -4    6.50    0.70
   3  18  -3    3.10    0.50
   3  18  -3    3.40    0.90
   3 -18  -3    2.40    0.60
   3 -18  -3    3.50    0.60
  -3 -18   3    3.40    3.50
   3  18  -2  130.89    6.00
   3  18  -2  141.79    6.30
   3 -18  -2  139.49    6.10
   3  18  -1   38.70    2.00
   3  18  -1   42.80    2.50
   3 -18  -1   41.10    2.20
   3 -18  -1   39.70    2.00
   3  18   0   61.89    3.00
   3  18   0   60.59    3.20
   3  18   0   69.99    3.50
  -3 -18   0   66.29    2.90
   3 -18   0   65.69    3.20
   3 -18   0   66.69    3.00
  -3 -18   0   56.29   10.10
   3  18   1   20.40    1.50
   3  18   1   21.50    1.90
   3  18   1   19.20    2.00
   3 -18   1   22.30    1.70
  -3 -18  -1   22.70    1.20
   3 -18   1   25.30    1.50
   3  18   2  192.98    8.60
   3 -18   2  209.78    8.40
   3 -18   2  173.18    8.40
  -3 -18  -2  200.88    8.30
   3  19  -4  107.89    4.70
   3 -19  -4   97.29    4.50
  -3 -19   4   90.79   10.90
  -3 -19   4  103.59    4.40
   3 -19  -4   99.69    4.40
   3  19  -3   65.49    3.20
  -3  19   3   62.19    3.10
  -3 -19   3   58.19    8.90
   3 -19  -3   62.29    3.30
   3  19  -2    9.80    1.00
   3  19  -2   12.60    1.40
  -3 -19   2   10.90    0.80
   3 -19  -2   11.90    1.30
  -3 -19   2   10.90    5.70
   3  19  -1    3.10    0.70
   3  19  -1    3.10    1.00
  -3 -19   1    2.80    4.10
   3 -19  -1    3.90    0.70
   3 -19  -1    2.70    0.70
  -3 -19   1    2.60    0.40
   3  19   0  169.98    7.40
  -3 -19   0  163.08    7.00
   3 -19   0  172.58    7.10
  -3 -19   0  137.99   15.40
   3 -19   0  168.18    7.20
   3  19   1   13.00    1.50
   3 -19   1   13.30    1.10
  -3 -19  -1   12.30    0.90
   3 -19   1   12.20    1.40
   3  19   2   32.60    2.10
  -3 -19  -2   35.90    1.70
   3 -19   2   36.40    1.80
   3  20  -3   45.10    2.60
   3 -20  -3   48.50    2.40
  -3 -20   3   42.50    8.30
   3  20  -2   22.20    2.10
  -3 -20   2   20.50    1.30
  -3 -20   2   20.30    7.00
   3 -20  -2   23.10    1.50
   3  20  -1   14.20    1.50
   3 -20  -1   14.40    1.30
   3 -20  -1   14.60    1.60
  -3 -20   1   12.80    7.80
   3  20   0  185.48    8.10
   3 -20   0  178.08    7.80
   3 -20   0  182.98    8.00
   3  20   1   -0.80    0.80
  -3 -20  -1    0.00    0.40
   3 -20   1   -0.10    0.70
   3  21  -1   26.40    1.80
  -3 -21   1   24.70    1.30
   4   0  -9    0.60    1.00
  -4   0   9   -0.20    0.60
   4   0  -8  716.43   29.20
   4   0  -8  659.13   29.20
   4   0  -8  696.83   29.30
   4   0  -7    0.10    0.60
  -4   0   7   -0.10    3.20
   4   0  -7   -0.40    0.50
   4   0  -6  226.18    9.60
   4   0  -6  224.98    9.80
   4   0  -6  223.38    9.70
   4   0  -5    0.30    0.40
   4   0  -5    0.20    0.30
   4   0  -5    0.10    0.40
   4   0  -4 2472.85  103.79
   4   0  -3    0.00    0.30
   4   0  -3    0.00    0.30
   4   0  -3    0.00    0.30
   4   0  -3    0.20    0.20
   4   0  -3    0.10    0.30
   4   0  -3   -0.20    0.20
   4   0  -3   -0.10    0.20
   4   0  -2  108.39    4.20
   4   0  -2   96.99    4.10
   4   0  -2   91.79    4.10
   4   0  -2   97.39    4.10
   4   0  -2   88.09    4.00
   4   0  -2   86.79    4.10
   4   0  -2   89.69    4.00
   4   0  -2   88.89    4.10
   4   0  -2   91.29    4.10
   4   0  -2   97.69    4.10
   4   0  -1    8.80    0.70
   4   0   0   85.09    3.60
   4   0   0   84.49    3.60
   4   0   0   84.49    3.60
   4   0   0   81.49    3.50
   4   0   0   79.29    3.60
   4   0   0   78.99    3.50
   4   0   0   76.09    3.50
   4   0   0   80.49    3.50
   4   0   1    1.40    0.30
   4   0   1    0.20    0.40
   4   0   1    0.40    0.30
   4   0   1    1.00    0.40
   4   0   2    0.40    0.40
   4   0   2    0.00    0.40
   4   0   2   -0.30    0.30
   4   0   2    0.30    0.30
   4   0   2    0.50    0.40
   4   0   3    0.00    0.40
   4   0   4   60.09    2.80
   4   0   4   58.59    2.70
   4   0   4   59.09    2.80
   4   0   5   -0.70    0.80
   4   0   5   -0.30    0.40
  -4   1   9    0.30    0.70
  -4  -1   9    0.60    0.60
   4  -1  -9    0.10    0.90
   4   1  -8   52.09    2.70
   4   1  -8   52.49    2.70
   4   1  -8   53.49    2.70
   4  -1  -8   54.69    2.60
   4  -1  -8   55.39    2.70
   4  -1  -8   53.89    2.70
   4   1  -7   19.00    1.30
   4   1  -7   19.00    1.30
   4   1  -7   18.40    1.30
   4  -1  -7   18.40    1.30
   4  -1  -7   17.50    1.30
  -4  -1   7   16.60    5.80
   4  -1  -7   18.70    1.30
   4   1  -6   25.50    1.30
   4   1  -6   25.00    1.50
   4   1  -6   24.20    1.50
  -4   1   6   26.40    1.40
   4  -1  -6   25.20    1.50
   4  -1  -6   25.10    1.50
   4  -1  -6   26.00    1.40
   4   1  -5   15.70    0.90
   4   1  -5   15.60    1.00
   4   1  -5   15.00    1.00
   4   1  -5   16.90    1.10
   4  -1  -5   14.40    1.00
   4  -1  -5   15.20    1.10
   4  -1  -5   15.80    0.90
   4   1  -4   19.20    1.00
   4   1  -4   18.00    1.00
   4   1  -4   17.90    1.00
   4   1  -4   20.00    1.00
   4   1  -4   19.40    1.10
   4   1  -4   19.40    1.00
   4   1  -4   16.50    1.10
   4   1  -4   16.80    1.10
   4  -1  -4   16.90    1.00
   4  -1  -4   18.50    1.00
   4  -1  -4   18.90    1.10
   4  -1  -4   16.90    1.10
   4  -1  -4   16.70    1.00
   4   1  -3  430.36   19.00
   4   1  -3  418.26   19.00
   4   1  -3  472.25   18.90
   4   1  -3  460.35   18.90
   4   1  -3  445.86   18.90
   4   1  -3  438.26   18.90
   4   1  -3  470.05   18.90
   4  -1  -3  464.95   18.90
   4  -1  -3  446.26   18.90
   4  -1  -3  469.05   18.90
   4  -1  -3  427.86   19.00
   4  -1  -3  446.16   19.00
   4  -1  -3  469.55   18.90
   4  -1  -3  439.16   18.90
   4  -1  -3  412.66   18.90
   4   1  -2  814.92   36.50
   4   1  -2  894.21   36.40
   4   1  -2  870.61   36.50
   4   1  -2  883.11   36.40
   4   1  -2  902.91   36.50
   4   1  -2  863.21   36.40
   4   1  -2  850.61   36.40
   4   1  -2  851.31   36.50
   4  -1  -2  833.32   36.40
   4  -1  -2  851.91   36.50
   4  -1  -2  861.11   36.40
   4  -1  -2  850.81   36.40
   4  -1  -2  921.41   36.50
   4  -1  -2  892.51   36.50
   4  -1  -2  810.42   36.50
   4  -1  -2  908.21   36.40
   4  -1   0 3270.17  137.09
   4   1   1   97.49    4.30
   4   1   1   99.89    4.40
   4   1   1  103.29    4.40
   4   1   1  101.89    4.30
   4   1   1   95.99    4.50
   4   1   1  101.79    4.40
   4   1   1  106.69    4.40
   4  -1   1   96.59    4.30
   4  -1   1   98.89    4.50
   4  -1   1  102.79    4.40
   4  -1   1  100.09    4.30
   4  -1   1  103.99    4.40
   4  -1   1   96.39    4.30
   4  -1   1   99.19    4.50
   4   1   2   28.80    1.50
   4   1   2   34.80    1.50
   4   1   2   31.30    1.50
   4   1   2   26.80    1.60
   4   1   2   29.50    1.60
   4   1   2   30.80    1.50
   4   1   2   30.60    1.50
   4  -1   2   30.70    1.50
   4  -1   2   31.50    1.50
   4  -1   2   31.60    1.60
   4  -1   2   30.60    1.50
   4  -1   2   28.90    1.50
   4  -1   2   28.70    1.60
   4   1   3   15.00    1.00
   4   1   3   14.30    0.90
   4   1   3   15.30    0.90
   4   1   3   13.20    1.00
   4  -1   3   14.10    0.90
   4  -1   3   17.70    1.10
   4  -1   3   13.80    1.00
   4  -1   3   12.50    1.00
   4  -1   3   14.50    0.90
   4   1   4    5.10    0.70
   4   1   4    5.50    0.60
   4   1   4    5.00    0.60
   4  -1   4    4.00    0.60
   4  -1   4    4.60    0.60
   4  -1   4    4.40    0.80
   4  -1   4    5.60    0.90
   4   1   5  221.88    9.30
   4   1   5  209.98    9.40
   4   1   5  224.18    9.40
   4  -1   5  211.58    9.40
   4  -1   5  218.68    9.30
  -4  -2   9   30.80    1.70
   4  -2  -9   31.60    1.90
   4   2  -8    3.30    0.80
   4   2  -8    5.70    0.90
   4   2  -8    4.20    0.80
   4  -2  -8    4.90    0.60
   4  -2  -8    3.50    0.70
   4  -2  -8    4.80    0.90
   4   2  -7  370.26   15.70
   4   2  -7  371.96   15.70
   4  -2  -7  366.76   15.70
  -4  -2   7  334.77   21.80
   4  -2  -7  394.66   15.60
   4   2  -6   15.00    1.00
   4   2  -6   15.50    1.20
   4   2  -6   15.30    1.10
  -4   2   6   16.90    1.20
   4  -2  -6   14.10    1.10
   4  -2  -6   15.20    1.00
   4  -2  -6   15.60    1.10
   4   2  -5  398.46   16.80
   4   2  -5  394.66   16.80
   4   2  -5  400.86   16.70
  -4   2   5  400.76   16.70
   4   2  -5  384.46   16.90
   4  -2  -5  397.86   16.70
   4  -2  -5  384.76   16.80
   4  -2  -5  393.86   16.80
   4   2  -4  364.56   16.20
   4   2  -4  392.76   16.10
   4   2  -4  382.16   16.10
   4   2  -4  386.36   16.00
   4   2  -4  359.06   16.10
   4   2  -4  396.16   16.10
   4   2  -4  397.56   16.00
   4   2  -4  376.06   16.10
   4  -2  -4  375.16   16.10
   4  -2  -4  380.76   16.10
   4  -2  -4  371.56   16.20
   4  -2  -4  373.36   16.10
   4   2  -3  104.89    4.70
   4   2  -3  102.99    4.80
   4   2  -3  106.99    4.70
   4   2  -3  107.49    4.70
   4   2  -3  107.29    4.60
   4   2  -3  110.99    4.70
   4   2  -3  110.29    4.60
   4  -2  -3  105.19    4.70
   4  -2  -3  105.39    4.60
   4  -2  -3  113.69    4.70
   4  -2  -3  110.49    4.70
   4  -2  -3  102.09    4.70
   4   2  -2  174.98    7.50
   4   2  -2  167.28    7.60
   4   2  -2  174.98    7.50
   4   2  -2  179.38    7.50
   4   2  -2  168.18    7.60
   4   2  -2  185.18    7.40
   4  -2  -2  172.48    7.50
   4  -2  -2  185.78    7.50
   4  -2  -2  166.68    7.60
   4  -2  -2  173.88    7.50
   4  -2  -2  172.78    7.60
   4  -2  -2  189.98    7.60
   4  -2  -2  184.28    7.50
   4  -2  -2  168.78    7.50
   4  -2  -2  178.78    7.60
   4   2  -1 2247.08   89.19
   4   2  -1 2022.00   89.29
   4  -2  -1 2123.19   89.19
   4  -2  -1 2032.40   89.19
   4  -2  -1 2200.08   89.19
   4   2   1  378.46   15.70
   4   2   1  367.96   15.70
   4   2   1  352.46   15.70
   4   2   1  367.86   15.80
   4   2   1  372.26   15.70
   4   2   1  388.26   15.70
   4   2   1  393.66   15.70
   4  -2   1  380.86   15.70
   4  -2   1  352.36   15.70
   4  -2   1  348.17   15.60
   4  -2   1  363.76   15.80
   4  -2   1  386.86   15.70
   4  -2   1  391.16   15.80
   4  -2   1  366.16   15.70
   4  -2   1  358.46   15.70
   4   2   2   64.29    2.70
   4   2   2   61.49    2.80
   4   2   2   62.79    2.80
   4   2   2   57.59    2.80
   4   2   2   61.69    2.80
   4   2   2   63.59    2.80
   4   2   2   57.69    2.90
   4  -2   2   61.49    2.70
   4  -2   2   62.29    2.80
   4  -2   2   63.29    2.90
   4  -2   2   63.09    2.80
   4  -2   2   58.79    2.80
   4  -2   2   58.39    2.80
   4   2   3  179.48    7.60
   4   2   3  182.78    7.60
   4   2   3  179.58    7.70
   4   2   3  176.28    7.70
   4   2   3  176.98    7.70
   4  -2   3  171.18    7.60
   4  -2   3  181.68    7.70
   4  -2   3  176.28    7.60
   4  -2   3  177.98    7.70
   4  -2   3  175.48    7.60
   4   2   4    1.50    0.60
   4   2   4    2.80    0.60
   4  -2   4    1.20    0.50
   4  -2   4    2.20    0.70
   4  -2   4    1.80    0.50
   4   2   5  369.26   15.70
   4   2   5  387.06   15.80
   4   2   5  356.86   15.80
   4  -2   5  361.16   15.80
   4  -2   5  379.36   15.70
  -4  -3   9   67.79    3.10
   4  -3  -9   68.29    3.20
   4  -3  -9   66.09    3.30
   4   3  -8   63.79    3.60
   4   3  -8   73.39    3.50
   4   3  -8   68.99    3.50
   4  -3  -8   75.89    3.40
   4  -3  -8   73.19    3.50
  -4  -3   8   78.09    3.30
   4  -3  -8   77.49    3.30
   4   3  -7  302.07   12.90
   4   3  -7  294.07   12.90
   4  -3  -7  292.47   13.00
  -4  -3   7  288.47   19.00
   4  -3  -7  314.77   12.90
   4  -3  -7  319.37   13.00
   4   3  -6  189.78    8.10
   4   3  -6  190.88    8.20
  -4  -3   6  162.78   13.80
   4  -3  -6  192.28    8.10
   4  -3  -6  198.18    8.00
   4  -3  -6  184.48    8.10
   4   3  -5   30.40    1.60
   4   3  -5   30.90    1.60
   4   3  -5   30.80    1.70
  -4   3   5   30.80    1.60
   4  -3  -5   28.50    1.60
   4  -3  -5   31.40    1.60
   4  -3  -5   29.70    1.50
   4   3  -4    8.80    0.70
   4   3  -4    8.70    0.60
   4   3  -4    9.20    0.70
   4   3  -4    7.10    0.70
   4   3  -4    7.90    0.80
   4   3  -4    7.70    0.70
   4  -3  -4    7.70    0.70
   4  -3  -4    9.00    0.70
   4  -3  -4    7.80    0.60
   4  -3  -4    8.20    0.70
   4   3  -3  389.36   16.20
   4   3  -3  385.16   16.20
   4   3  -3  397.96   16.30
   4   3  -3  358.56   16.30
   4   3  -3  393.46   16.20
   4   3  -3  382.16   16.20
   4  -3  -3  389.66   16.30
   4  -3  -3  380.66   16.20
   4  -3  -3  393.06   16.30
   4  -3  -3  373.36   16.20
   4  -3  -3  372.46   16.20
   4   3  -2  304.97   12.20
   4   3  -2  306.17   12.10
   4   3  -2  303.07   12.20
   4   3  -2  276.67   12.30
   4   3  -2  278.57   12.30
   4   3  -2  291.37   12.20
   4  -3  -2  275.67   12.20
   4  -3  -2  286.17   12.20
   4  -3  -2  283.97   12.30
   4  -3  -2  303.87   12.30
   4  -3  -2  272.47   12.20
   4  -3  -2  280.17   12.20
   4  -3  -2  281.67   12.20
   4   3  -1   75.79    3.20
   4   3  -1   65.79    3.40
   4   3  -1   68.49    3.30
   4   3  -1   77.69    3.20
   4   3  -1   76.59    3.10
   4   3  -1   76.79    3.20
   4   3  -1   78.89    3.20
   4  -3  -1   74.69    3.20
   4  -3  -1   74.89    3.20
   4  -3  -1   68.29    3.30
   4  -3  -1   72.09    3.20
   4  -3  -1   75.29    3.20
   4  -3  -1   67.69    3.20
   4  -3  -1   73.99    3.20
   4  -3  -1   67.19    3.20
   4  -3  -1   67.49    3.20
   4  -3  -1   78.59    3.30
   4   3   1   80.39    3.40
   4   3   1   77.49    3.40
   4   3   1   72.29    3.40
   4   3   1   73.59    3.50
   4   3   1   73.29    3.40
   4   3   1   80.89    3.40
   4   3   1   77.19    3.40
   4  -3   1   76.99    3.40
   4  -3   1   70.79    3.40
   4  -3   1   85.19    3.50
   4  -3   1   77.29    3.50
   4  -3   1   77.89    3.40
   4   3   2  115.99    4.90
   4   3   2  106.19    5.10
   4   3   2  113.89    5.00
   4   3   2  117.29    4.90
   4   3   2  114.99    4.90
   4   3   2  117.99    5.00
   4  -3   2  113.69    5.00
   4  -3   2  112.19    4.90
   4  -3   2  116.99    5.00
   4  -3   2  112.99    5.00
   4  -3   2  112.69    4.90
   4  -3   2  105.49    4.90
   4   3   3  238.88   10.00
   4   3   3  237.38    9.90
   4   3   3  231.88   10.00
   4   3   3  229.68   10.00
   4   3   3  232.38    9.90
   4  -3   3  241.28   10.00
   4  -3   3  231.98    9.90
   4  -3   3  216.48   10.00
   4  -3   3  228.48    9.90
   4  -3   3  236.28   10.10
   4   3   4  174.78    7.50
   4   3   4  177.78    7.50
   4  -3   4  175.38    7.50
   4  -3   4  173.58    7.40
   4  -3   4  155.68    7.60
   4   3   5  368.26   16.90
   4   3   5  416.56   16.80
   4   3   5  392.16   16.70
   4  -3   5  402.46   16.70
   4  -4  -9  144.49    6.20
  -4  -4   9  139.29    6.10
   4  -4  -9  137.59    6.20
   4   4  -8   14.60    1.30
  -4  -4   8   15.10    1.00
   4  -4  -8   11.90    1.10
   4  -4  -8   15.70    1.10
   4  -4  -8   14.50    1.40
   4   4  -7  129.29    5.80
   4   4  -7  128.19    5.60
   4   4  -7  124.79    5.70
   4  -4  -7  135.29    5.70
   4  -4  -7  128.79    5.60
   4  -4  -7  123.69    5.70
  -4  -4   7  125.49   11.10
   4   4  -6  222.38   10.10
   4   4  -6  240.98   10.00
  -4   4   6  226.28   10.00
   4   4  -6  235.98   10.10
   4  -4  -6  230.78   10.00
  -4  -4   6  216.78   16.30
   4  -4  -6  238.68    9.90
   4  -4  -6  242.48   10.00
   4   4  -5    4.20    0.60
   4   4  -5    6.20    0.70
  -4   4   5    6.90    0.90
   4   4  -5    6.00    0.80
   4  -4  -5    6.10    0.70
   4  -4  -5    5.50    0.70
   4  -4  -5    5.70    0.70
  -4  -4   5    4.40    3.60
   4   4  -4   42.40    2.00
   4   4  -4   38.10    2.00
   4   4  -4   41.60    2.10
   4   4  -4   42.60    1.90
   4   4  -4   43.20    1.90
   4   4  -4   42.60    2.00
  -4   4   4   41.10    2.00
   4   4  -4   40.60    2.00
   4  -4  -4   39.80    2.00
   4  -4  -4   44.30    1.90
   4  -4  -4   40.00    2.00
   4  -4  -4   41.60    1.90
   4   4  -3   53.49    2.30
   4   4  -3   48.00    2.40
   4   4  -3   52.79    2.40
   4   4  -3   50.29    2.40
   4   4  -3   49.50    2.50
   4  -4  -3   50.39    2.40
   4  -4  -3   51.69    2.40
   4  -4  -3   51.09    2.40
   4  -4  -3   52.99    2.40
   4  -4  -3   55.19    2.40
   4  -4  -3   52.19    2.30
   4   4  -2   22.00    1.10
   4   4  -2   22.80    1.10
   4   4  -2   22.80    1.00
   4   4  -2   20.40    1.20
   4   4  -2   21.70    1.10
   4   4  -2   20.60    1.20
   4  -4  -2   20.00    1.10
   4  -4  -2   23.50    1.10
   4  -4  -2   21.00    1.10
   4  -4  -2   22.50    1.10
   4  -4  -2   22.30    1.20
   4  -4  -2   21.30    1.10
   4  -4  -2   21.50    1.20
   4   4  -1  151.68    6.70
   4   4  -1  157.88    6.60
   4   4  -1  180.18    6.50
   4   4  -1  139.09    6.70
   4   4  -1  161.18    6.60
   4   4  -1  164.58    6.50
   4  -4  -1  148.69    6.60
   4  -4  -1  156.78    6.60
   4  -4  -1  144.89    6.60
   4  -4  -1  147.79    6.60
   4  -4  -1  141.79    6.50
   4  -4  -1  160.28    6.70
   4  -4  -1  153.58    6.60
   4  -4  -1  143.89    6.50
   4   4   0  572.04   24.60
   4   4   0  607.24   24.40
   4   4   0  594.94   24.50
   4   4   0  605.74   24.40
   4   4   0  590.04   24.50
   4   4   0  600.34   24.40
   4   4   0  620.14   24.40
   4  -4   0  601.24   24.50
   4  -4   0  581.44   24.40
   4  -4   0  552.04   24.40
   4  -4   0  579.54   24.50
   4  -4   0  506.35   24.40
  -4  -4   0  518.45   28.30
   4  -4   0  582.44   24.40
   4   4   1    1.20    0.40
   4   4   1    0.80    0.40
   4   4   1    0.20    0.40
   4   4   1    0.20    0.20
   4   4   1   -0.20    0.40
   4   4   1    0.20    0.40
   4  -4   1    0.00    0.40
   4  -4   1    0.30    0.30
   4  -4   1    0.10    0.30
   4  -4   1    0.00    0.40
   4   4   2  230.58    9.80
   4   4   2  235.08    9.80
   4   4   2  224.48    9.80
   4   4   2  236.18    9.80
   4   4   2  237.68    9.80
   4   4   2  214.28    9.90
   4  -4   2  232.58    9.70
   4  -4   2  223.98    9.80
   4  -4   2  217.08    9.70
   4  -4   2  231.68    9.90
   4  -4   2  234.08    9.80
   4   4   3   61.89    2.90
   4   4   3   62.79    2.80
   4   4   3   60.79    2.90
   4   4   3   59.59    2.90
   4   4   3   62.79    2.80
   4  -4   3   61.99    3.00
   4  -4   3   62.49    2.80
   4  -4   3   59.79    2.80
   4   4   4  621.44   26.10
   4   4   4  621.34   26.10
   4   4   4  588.44   26.10
   4  -4   4  638.74   26.10
   4  -4   4  616.04   26.20
   4   4   5   78.19    3.60
   4   4   5   84.79    3.70
   4  -4   5   78.49    3.90
   4  -4   5   80.49    3.60
   4  -5  -9   24.30    1.60
  -4  -5   9   22.00    1.40
   4  -5  -9   23.30    1.60
   4   5  -8   94.59    4.60
   4  -5  -8   92.99    4.60
  -4  -5   8  106.89    4.50
   4  -5  -8  101.29    4.50
   4  -5  -8  102.19    4.50
   4  -5  -8  102.99    4.60
   4   5  -7    0.70    0.60
   4   5  -7    0.50    0.70
   4   5  -7    1.20    0.50
   4  -5  -7    1.20    0.70
   4  -5  -7    0.60    0.50
   4  -5  -7    0.40    0.40
  -4  -5   7    0.70    2.90
  -4   5   6 1590.64   69.69
   4   5  -6 1647.34   69.69
   4   5  -6 1630.24   69.89
   4   5  -6 1723.33   69.69
   4  -5  -6 1723.53   69.69
   4  -5  -6 1615.74   69.79
   4  -5  -6 1702.53   69.69
  -4  -5   6 1621.94   77.59
   4   5  -5  199.58    8.50
   4   5  -5  198.58    8.50
   4   5  -5  194.18    8.70
   4   5  -5  195.68    8.50
  -4   5   5  192.48    8.50
   4   5  -5  200.78    8.40
   4  -5  -5  199.08    8.50
   4  -5  -5  200.28    8.50
   4   5  -4   46.00    2.20
   4   5  -4   45.30    2.30
   4   5  -4   47.60    2.20
   4   5  -4   43.50    2.30
   4   5  -4   46.00    2.10
   4   5  -4   46.50    2.10
  -4   5   4   46.30    2.20
   4  -5  -4   46.10    2.20
   4  -5  -4   46.60    2.20
   4  -5  -4   52.59    2.10
   4   5  -3   20.60    1.30
  -4   5   3   18.10    1.20
   4   5  -3   20.60    1.10
   4   5  -3   22.20    1.10
   4   5  -3   21.50    1.10
   4  -5  -3   22.20    1.20
   4  -5  -3   21.60    1.20
   4  -5  -3   23.20    1.10
   4  -5  -3   20.90    1.20
   4  -5  -3   20.50    1.10
   4  -5  -3   21.30    1.10
   4  -5  -3   20.20    1.10
   4   5  -2  301.17   12.30
   4   5  -2  294.47   12.20
   4   5  -2  296.37   12.30
   4   5  -2  282.47   12.30
   4   5  -2  286.27   12.40
   4  -5  -2  296.27   12.30
   4  -5  -2  294.37   12.30
   4  -5  -2  286.07   12.20
   4  -5  -2  291.87   12.30
   4  -5  -2  297.17   12.30
   4  -5  -2  291.47   12.30
   4  -5  -2  274.87   12.30
   4  -5  -2  269.27   12.20
   4   5  -1   55.89    2.50
   4   5  -1   57.39    2.40
   4   5  -1   56.69    2.40
   4   5  -1   54.19    2.60
   4  -5  -1   53.89    2.40
   4  -5  -1   55.39    2.50
   4  -5  -1   51.59    2.40
   4  -5  -1   52.99    2.40
   4  -5  -1   54.89    2.50
   4  -5  -1   52.79    2.40
   4  -5  -1   55.99    2.50
   4  -5  -1   54.59    2.40
  -4  -5   1   46.90    5.70
   4  -5  -1   56.29    2.40
   4   5   0    1.40    0.40
   4   5   0    1.60    0.50
   4   5   0    1.60    0.30
   4   5   0    1.60    0.60
   4   5   0    1.70    0.30
   4   5   0    1.50    0.40
  -4  -5   0    1.70    2.10
   4  -5   0    1.80    0.30
   4  -5   0    2.70    0.40
   4  -5   0    1.10    0.40
   4  -5   0    1.70    0.40
   4  -5   0    1.30    0.40
   4   5   1  169.38    6.90
   4   5   1  153.48    6.90
   4   5   1  163.98    6.90
   4   5   1  167.48    6.90
   4   5   1  157.48    7.10
   4   5   1  155.18    6.90
   4  -5   1  155.58    6.80
   4  -5   1  146.69    6.90
   4  -5   1  166.28    7.00
   4  -5   1  161.68    6.90
   4  -5   1  163.48    6.90
   4   5   2   18.40    1.00
   4   5   2   18.70    1.20
   4   5   2   19.80    1.30
   4   5   2   18.10    1.20
   4   5   2   18.50    1.30
   4   5   2   20.40    1.10
   4  -5   2   20.00    1.10
   4  -5   2   19.30    1.10
   4  -5   2   16.70    1.00
   4   5   3   -0.10    0.50
   4   5   3   -0.10    0.50
   4   5   3    0.20    0.30
   4   5   3    1.40    0.70
   4   5   3   -0.60    0.40
   4   5   3   -0.40    0.40
   4  -5   3    0.00    0.50
   4  -5   3   -0.20    0.40
   4   5   4   12.10    1.30
   4   5   4   12.80    0.90
   4   5   4   13.60    1.10
   4  -5   4   12.90    1.00
   4  -5   4   13.30    1.20
   4   5   5   15.00    1.30
   4  -5   5   16.40    1.60
   4  -5   5   15.30    1.00
   4   6  -8    5.40    0.90
  -4  -6   8    7.30    0.80
   4  -6  -8    7.90    0.90
   4  -6  -8    7.00    1.00
   4  -6  -8    5.80    1.00
   4   6  -7    6.40    0.80
   4   6  -7    5.80    1.00
  -4  -6   7    6.10    4.60
   4  -6  -7    6.30    0.80
   4  -6  -7    4.90    0.70
   4  -6  -7    5.60    0.80
   4  -6  -7    6.30    0.90
   4   6  -6  332.77   13.90
   4   6  -6  313.47   13.90
   4   6  -6  318.27   14.10
  -4   6   6  307.87   13.90
  -4  -6   6  332.47   20.70
   4  -6  -6  311.37   14.00
   4  -6  -6  350.16   13.90
   4  -6  -6  340.07   13.90
   4   6  -5  453.85   19.70
   4   6  -5  468.95   19.50
  -4   6   5  459.15   19.50
   4   6  -5  456.45   19.50
   4   6  -5  475.45   19.50
   4   6  -5  475.75   19.50
  -4  -6   5  444.36   26.50
   4  -6  -5  455.65   19.50
   4  -6  -5  443.16   19.60
   4  -6  -5  472.15   19.60
  -4   6   4  455.65   19.30
   4   6  -4  463.45   19.30
   4   6  -4  455.95   19.50
   4   6  -4  456.25   19.40
   4   6  -4  479.15   19.30
   4   6  -4  429.96   19.40
   4   6  -4  459.95   19.30
   4  -6  -4  445.56   19.40
   4  -6  -4  465.25   19.40
   4  -6  -4  478.35   19.30
   4  -6  -4  470.45   19.40
  -4  -6   4  421.16   25.70
   4   6  -3   15.10    1.10
   4   6  -3   16.20    0.90
   4   6  -3   15.90    0.90
   4   6  -3   15.90    0.90
  -4  -6   3   16.80    4.30
   4  -6  -3   15.90    0.90
   4  -6  -3   16.80    0.90
   4  -6  -3   16.80    1.00
   4  -6  -3   18.10    0.90
   4  -6  -3   16.60    1.00
   4  -6  -3   16.80    1.00
   4   6  -2   55.59    2.50
   4   6  -2   61.79    2.50
   4   6  -2   56.39    2.50
   4   6  -2   57.09    2.50
   4   6  -2   57.09    2.70
   4  -6  -2   59.79    2.60
   4  -6  -2   56.29    2.60
  -4  -6   2   49.10    6.30
   4  -6  -2   57.79    2.50
   4  -6  -2   54.59    2.50
   4  -6  -2   53.29    2.60
   4  -6  -2   54.09    2.50
   4  -6  -2   56.49    2.60
   4   6  -1  269.57   10.60
   4   6  -1  255.27   10.70
   4   6  -1  265.27   10.60
   4   6  -1  258.77   10.90
   4   6  -1  261.77   10.70
  -4  -6   1  243.88   15.30
   4  -6  -1  229.88   10.60
   4  -6  -1  254.17   10.70
   4  -6  -1  258.97   10.70
   4  -6  -1  248.38   10.70
   4  -6  -1  232.58   10.60
   4  -6  -1  216.48   10.60
   4  -6  -1  260.47   10.80
   4  -6  -1  256.37   10.60
   4  -6  -1  254.17   10.60
   4   6   0  118.79    5.20
   4   6   0  117.89    5.20
   4   6   0  124.99    5.10
   4   6   0  118.99    5.10
   4   6   0  116.19    5.20
   4   6   0  117.29    5.40
   4  -6   0  120.69    5.20
  -4  -6   0  123.59    8.90
   4  -6   0  120.19    5.20
   4  -6   0  113.89    5.10
   4  -6   0  122.59    5.30
   4  -6   0  117.29    5.10
   4   6   1   16.70    1.00
   4   6   1   16.40    1.00
   4   6   1   16.30    1.20
   4   6   1   18.10    0.90
   4   6   1   16.20    1.10
   4  -6   1   17.60    1.00
   4  -6   1   17.80    1.00
   4  -6   1   17.40    1.00
   4  -6   1   17.40    1.10
   4  -6   1   15.20    1.00
   4   6   2  286.57   13.20
   4   6   2  309.87   13.00
   4   6   2  306.37   13.00
   4   6   2  308.07   13.10
   4   6   2  305.87   13.10
   4  -6   2  325.37   13.00
   4  -6   2  311.87   13.10
   4  -6   2  299.97   13.20
   4   6   3   83.19    3.70
   4   6   3   82.69    3.80
   4   6   3   72.29    3.90
   4   6   3   85.79    3.70
   4   6   3   84.09    3.80
   4   6   3   83.39    3.80
   4  -6   3   84.99    3.70
  -4  -6  -3   81.59    3.70
   4  -6   3   82.99    3.80
   4   6   4   46.60    2.40
   4   6   4   49.60    2.40
   4   6   4   47.40    2.20
   4  -6   4   45.30    2.40
   4  -6   4   46.80    2.30
   4   6   5    3.10    0.70
   4  -6   5    3.70    0.90
   4  -6   5    3.50    0.60
   4   7  -8    0.80    0.80
   4  -7  -8    1.30    0.60
   4  -7  -8    0.80    0.50
   4  -7  -8    1.50    1.00
  -4  -7   8    1.10    0.40
   4   7  -7   24.10    1.60
   4  -7  -7   23.80    1.40
   4  -7  -7   21.80    1.40
   4  -7  -7   24.80    1.40
  -4  -7   7   23.00    1.30
   4  -7  -7   22.80    1.70
  -4  -7   7   22.20    5.60
  -4   7   6    1.10    0.60
   4   7  -6    0.80    0.40
   4   7  -6    0.60    0.60
   4   7  -6    0.50    0.60
   4  -7  -6    0.30    0.50
  -4  -7   6    0.00    2.40
   4  -7  -6   -0.10    0.50
   4  -7  -6   -0.10    0.40
   4  -7  -6    1.00    0.50
   4   7  -5   83.79    3.80
   4   7  -5   86.99    3.70
   4   7  -5   80.49    3.90
   4   7  -5   79.39    3.70
   4   7  -5   86.49    3.70
  -4   7   5   83.19    3.80
   4  -7  -5   81.29    3.70
   4  -7  -5   81.69    3.70
   4  -7  -5   78.89    3.80
  -4  -7   5   81.19    9.00
   4  -7  -5   87.19    3.80
   4   7  -4 1953.80   82.79
   4   7  -4 1812.22   82.69
   4   7  -4 1978.50   82.59
   4   7  -4 1998.20   82.59
   4   7  -4 1996.30   82.69
  -4   7   4 1937.51   82.59
   4   7  -4 1976.60   82.59
   4  -7  -4 1959.10   82.59
   4  -7  -4 2025.70   82.69
   4  -7  -4 2028.80   82.69
   4   7  -3   22.40    1.40
   4   7  -3   22.90    1.20
   4   7  -3   23.40    1.20
   4  -7  -3   24.60    1.20
   4  -7  -3   23.10    1.30
   4  -7  -3   25.10    1.20
  -4  -7   3   21.00    4.80
   4  -7  -3   23.60    1.30
   4  -7  -3   24.90    1.20
   4   7  -2  116.99    5.30
   4   7  -2  125.09    5.10
   4   7  -2  115.39    5.10
   4   7  -2  119.49    5.10
   4   7  -2  117.29    5.10
   4  -7  -2  123.49    5.10
  -4  -7   2  110.89    9.70
   4  -7  -2  114.19    5.10
   4  -7  -2  115.29    5.10
   4  -7  -2  118.89    5.20
   4  -7  -2  116.79    5.10
   4  -7  -2  127.19    5.20
   4   7  -1  461.95   18.40
   4   7  -1  446.96   18.50
   4   7  -1  427.56   18.60
   4   7  -1  453.15   18.40
   4   7  -1  450.05   18.40
   4  -7  -1  402.76   18.40
   4  -7  -1  441.56   18.40
   4  -7  -1  420.66   18.40
   4  -7  -1  461.25   18.50
   4  -7  -1  394.86   18.40
   4  -7  -1  453.85   18.50
  -4  -7   1  441.76   23.60
   4  -7  -1  416.86   18.40
   4  -7  -1  431.26   18.40
   4   7   0  321.47   13.30
   4   7   0  311.87   13.50
   4   7   0  309.27   13.30
   4   7   0  301.47   13.30
   4   7   0  317.67   13.30
   4  -7   0  307.77   13.30
   4  -7   0  307.47   13.30
   4  -7   0  327.67   13.30
  -4  -7   0  334.27   17.50
   4  -7   0  290.07   13.20
   4  -7   0  319.27   13.40
   4   7   1  256.77   11.30
   4   7   1  276.57   11.30
   4   7   1  267.47   11.30
   4   7   1  267.77   11.30
   4   7   1  262.17   11.30
   4   7   1  257.57   11.50
   4  -7   1  267.07   11.40
   4  -7   1  245.28   11.30
   4  -7   1  284.87   11.30
   4  -7   1  269.77   11.30
   4   7   2  255.27   11.30
   4   7   2  269.47   11.20
   4   7   2  262.17   11.30
   4   7   2  266.57   11.20
   4   7   2  265.17   11.30
   4   7   2  243.58   11.40
   4  -7   2  256.97   11.40
   4  -7   2  268.57   11.30
   4  -7   2  282.47   11.20
   4   7   3   22.00    1.50
   4   7   3   19.80    1.70
   4   7   3   23.20    1.40
   4   7   3   24.10    1.60
   4   7   3   23.10    1.20
   4   7   3   24.50    1.30
   4  -7   3   23.90    1.30
   4  -7   3   22.70    1.50
   4   7   4    2.40    0.70
   4   7   4    2.10    0.70
   4   7   4    0.60    0.80
   4  -7   4    0.50    0.60
   4  -7   4   -0.20    0.50
   4   7   5    5.00    0.80
   4  -7   5    4.90    0.60
   4  -7   5    5.00    0.90
   4  -8  -8   25.10    1.30
   4  -8  -8   23.60    2.20
   4  -8  -8   20.50    1.40
  -4  -8   8   21.30    1.30
   4   8  -7   44.70    2.20
   4   8  -7   46.60    2.50
   4  -8  -7   48.60    2.30
  -4  -8   7   44.40    7.00
   4  -8  -7   44.40    2.50
  -4  -8   7   46.10    2.20
   4  -8  -7   48.20    2.30
   4  -8  -7   46.10    2.30
   4   8  -6   41.70    1.90
  -4   8   6   36.30    2.20
   4   8  -6   37.80    2.20
  -4  -8   6   41.70    6.70
   4  -8  -6   39.70    2.20
   4  -8  -6   41.50    2.00
   4  -8  -6   38.40    2.00
  -4   8   5 2281.77   99.19
   4   8  -5 2233.38   99.09
   4   8  -5 2503.05   99.09
   4   8  -5 2314.37   99.39
   4  -8  -5 2547.84   99.19
   4  -8  -5 2259.67   99.19
   4  -8  -5 2378.86   99.19
   4   8  -4 1418.16   60.39
  -4   8   4 1387.16   60.39
   4   8  -4 1481.85   60.39
   4   8  -4 1322.87   60.49
   4   8  -4 1443.66   60.39
   4   8  -4 1442.26   60.39
   4   8  -4 1408.06   60.59
   4   8  -4 1477.25   60.39
   4  -8  -4 1441.96   60.39
   4  -8  -4 1513.05   60.39
  -4  -8   4 1430.16   68.49
   4  -8  -4 1470.25   60.39
   4   8  -3   83.79    3.80
   4   8  -3   83.19    4.00
   4   8  -3   82.89    3.80
   4   8  -3   86.29    3.80
  -4  -8   3   81.29    8.50
   4  -8  -3   84.79    3.90
   4  -8  -3   88.29    3.80
   4  -8  -3   84.49    3.80
   4  -8  -3   87.69    3.80
   4  -8  -3   87.39    3.90
   4  -8  -3   96.49    3.80
   4   8  -2   -0.30    0.30
   4   8  -2    0.20    0.20
   4   8  -2    0.00    0.30
   4   8  -2    0.30    0.40
   4  -8  -2   -0.20    0.40
   4  -8  -2    0.30    0.20
   4  -8  -2    0.30    0.40
  -4  -8   2   -0.20    1.80
   4  -8  -2    0.60    0.30
   4  -8  -2    0.90    0.30
   4   8  -1  270.87   11.20
   4   8  -1  265.07   11.40
   4   8  -1  267.77   11.20
   4   8  -1  271.07   11.20
   4  -8  -1  251.27   11.20
  -4  -8   1  278.17   16.30
   4  -8  -1  225.38   11.20
   4  -8  -1  296.47   11.20
   4  -8  -1  271.27   11.20
   4  -8  -1  260.47   11.20
   4  -8  -1  270.27   11.30
   4  -8  -1  233.98   11.20
   4   8   0   -0.30    0.40
   4   8   0   -0.10    0.30
   4   8   0    1.00    0.50
   4   8   0    0.10    0.40
   4   8   0    0.30    0.50
  -4  -8   0    0.00    2.00
   4  -8   0    0.10    0.40
   4  -8   0    0.20    0.30
   4  -8   0    0.50    0.40
   4   8   1    1.00    0.50
   4   8   1    1.10    0.60
   4   8   1    0.80    0.40
   4   8   1    1.20    0.60
   4   8   1    1.10    0.40
   4  -8   1    0.50    0.40
   4  -8   1    1.40    0.40
   4  -8   1    0.90    0.40
   4   8   2  230.78   10.60
   4   8   2  237.58   10.40
   4   8   2  247.28   10.40
   4   8   2  251.67   10.40
   4   8   2  246.18   10.40
   4  -8   2  250.57   10.40
   4  -8   2  249.68   10.50
   4  -8   2  226.28   10.40
   4   8   3    3.70    0.50
   4   8   3    2.60    0.70
   4   8   3    2.90    0.60
   4   8   3    3.70    0.90
   4  -8   3    3.00    0.60
   4  -8   3    2.20    0.60
  -4  -8  -3    2.90    0.50
   4   8   4   57.39    3.50
   4   8   4   61.99    3.10
   4   8   4   65.19    3.10
   4  -8   4   68.09    3.00
   4  -8   4   65.59    3.10
   4   8   5   10.10    1.10
   4  -8   5    7.90    1.10
   4  -8   5    8.50    0.80
   4  -9  -8  136.39    5.50
   4  -9  -8  125.79    5.50
  -4  -9   8  117.09    5.50
   4   9  -7  480.65   20.30
   4   9  -7  434.46   20.00
  -4  -9   7  477.75   20.00
   4  -9  -7  503.85   20.10
   4  -9  -7  456.65   20.20
  -4  -9   7  467.75   27.80
   4  -9  -7  490.35   20.10
   4   9  -6   31.70    2.00
   4   9  -6   32.70    1.60
  -4   9   6   32.20    2.00
  -4  -9   6   33.70    6.20
   4  -9  -6   33.50    1.70
   4  -9  -6   30.60    1.70
  -4  -9   6   32.20    1.60
   4  -9  -6   31.30    1.70
   4  -9  -6   30.50    1.90
  -4   9   5 1964.80   88.69
   4   9  -5 2160.18   88.59
   4   9  -5 2003.00   88.89
   4  -9  -5 2204.48   88.69
   4  -9  -5 2079.59   88.69
  -4  -9   5 2251.07   97.39
   4   9  -4   27.40    1.70
   4   9  -4   27.30    1.40
   4   9  -4   29.20    1.60
   4   9  -4   25.60    1.50
  -4   9   4   26.00    1.60
   4  -9  -4   25.60    1.50
   4  -9  -4   25.90    1.40
  -4  -9   4   28.20    5.70
   4  -9  -4   30.10    1.50
   4   9  -3   37.80    2.10
   4   9  -3   38.40    1.80
   4   9  -3   35.90    1.80
   4   9  -3   37.00    1.80
   4   9  -3   40.00    1.80
   4  -9  -3   39.10    1.90
   4  -9  -3   38.30    1.90
   4  -9  -3   38.00    1.90
   4  -9  -3   39.30    1.90
   4  -9  -3   44.80    1.90
   4   9  -2   20.90    1.10
   4   9  -2   22.30    1.10
   4   9  -2   21.40    1.20
   4   9  -2   20.80    1.40
   4   9  -2   20.20    1.10
   4  -9  -2   20.90    1.30
   4  -9  -2   24.40    1.20
   4  -9  -2   19.70    1.20
   4  -9  -2   21.10    1.30
  -4  -9   2   22.10    4.90
   4  -9  -2   20.90    1.10
   4  -9  -2   23.70    1.20
   4   9  -1    1.60    0.30
   4   9  -1    1.80    0.60
   4   9  -1    2.40    0.30
   4   9  -1    2.30    0.40
   4   9  -1    2.10    0.40
   4  -9  -1    2.90    0.80
  -4  -9   1    2.10    2.30
   4  -9  -1    1.60    0.40
   4  -9  -1    1.60    0.30
   4  -9  -1    1.80    0.50
   4  -9  -1    2.30    0.40
   4   9   0  216.48    9.80
   4   9   0  225.28    9.70
   4   9   0  228.88    9.70
   4   9   0  222.68    9.70
   4   9   0  223.38   10.00
   4  -9   0  233.98    9.90
   4  -9   0  224.18    9.70
   4  -9   0  219.68    9.70
  -4  -9   0  230.28   14.10
   4  -9   0  251.07    9.70
   4   9   1   51.89    2.40
   4   9   1   49.20    2.50
   4   9   1   51.39    2.40
   4   9   1   50.39    2.70
   4   9   1   51.79    2.40
   4  -9   1   48.00    2.40
   4  -9   1   53.19    2.40
   4  -9   1   53.49    2.50
   4   9   2    4.00    0.60
   4   9   2    2.30    0.70
   4   9   2    2.40    0.60
   4   9   2    2.20    0.70
   4  -9   2    2.90    0.80
   4  -9   2    2.20    0.50
   4  -9   2    4.30    0.70
   4   9   3  261.07   12.20
   4   9   3  271.77   12.10
   4   9   3  288.37   12.10
   4   9   3  289.77   12.10
  -4  -9  -3  280.77   11.90
   4  -9   3  295.17   12.20
   4   9   4   59.99    3.10
   4   9   4   63.99    3.00
   4  -9   4   65.89    3.00
   4  -9   5    2.00    0.50
  -4  10   8    1.10    0.50
   4 -10  -8    0.50    0.60
   4 -10  -8    0.30    0.60
  -4 -10   8    0.60    0.50
   4  10  -7   17.50    1.50
   4 -10  -7   18.00    1.20
   4 -10  -7   16.40    1.50
   4 -10  -7   18.20    1.20
  -4 -10   7   16.50    5.80
  -4 -10   7   18.30    1.10
  -4  10   6  207.88    9.40
   4  10  -6  215.08    9.60
   4  10  -6  224.08    9.20
   4 -10  -6  209.38    9.50
   4 -10  -6  212.48    9.30
  -4 -10   6  214.38    9.30
   4 -10  -6  218.98    9.30
  -4 -10   6  228.78   15.80
   4  10  -5 1080.59   43.80
   4  10  -5  992.80   44.10
  -4  10   5  992.00   43.90
  -4 -10   5 1137.39   52.09
   4 -10  -5 1051.59   43.90
  -4 -10   5  972.70   43.80
   4 -10  -5 1015.40   43.80
   4 -10  -5 1079.69   43.80
   4  10  -4    1.90    0.40
  -4  10   4    1.60    0.50
   4  10  -4    2.00    0.70
   4 -10  -4    1.60    0.50
   4 -10  -4    1.40    0.40
   4 -10  -4    2.30    0.40
  -4 -10   4    1.50    2.60
   4  10  -3  190.28    7.80
   4  10  -3  169.88    7.80
   4  10  -3  178.28    7.80
   4  10  -3  187.18    7.80
   4  10  -3  177.98    8.10
  -4 -10   3  195.48   13.90
   4 -10  -3  189.58    7.90
   4 -10  -3  175.98    7.90
   4 -10  -3  178.58    7.80
   4 -10  -3  177.98    7.90
   4 -10  -3  185.78    7.80
   4  10  -2  606.94   23.90
   4  10  -2  568.54   23.90
   4  10  -2  575.34   23.90
   4  10  -2  577.84   23.90
   4  10  -2  568.04   24.20
   4 -10  -2  582.84   23.90
   4 -10  -2  516.55   23.90
   4 -10  -2  570.34   24.00
   4 -10  -2  534.35   23.90
   4  10  -1    0.20    0.30
   4  10  -1    0.10    0.30
   4  10  -1    0.20    0.40
   4  10  -1    0.40    0.60
   4 -10  -1   -0.10    0.30
   4 -10  -1    0.50    0.40
  -4 -10   1    0.40    2.20
   4 -10  -1    0.10    0.50
   4 -10  -1   -0.30    0.40
   4  10   0   92.29    4.40
   4  10   0   91.29    4.10
   4  10   0   90.39    4.10
   4  10   0   96.39    4.10
  -4 -10   0   94.39    8.50
   4 -10   0   92.39    4.30
   4 -10   0   91.09    4.10
   4 -10   0   91.99    4.10
   4  10   1   57.49    2.80
   4  10   1   56.69    3.00
   4  10   1   57.99    2.70
   4  10   1   58.19    2.70
   4  10   1   59.39    2.70
   4 -10   1   58.69    2.80
   4 -10   1   57.19    2.80
   4 -10   1   58.29    2.70
   4  10   2  103.19    5.40
   4  10   2  113.29    5.00
   4  10   2  114.29    5.00
   4  10   2  110.59    5.10
   4  10   2  113.59    4.90
   4 -10   2  112.59    5.10
   4 -10   2  114.99    5.00
   4 -10   2  110.19    5.00
   4  10   3  312.17   14.20
   4  10   3  341.27   14.10
   4  10   3  335.77   14.20
   4  10   3  302.87   14.30
   4 -10   3  340.57   14.20
   4 -10   3  349.57   14.10
  -4 -10  -3  331.77   14.00
   4  10   4  524.35   21.80
   4  10   4  508.75   22.00
   4 -10   4  510.35   21.80
   4 -10   4  514.65   21.90
  -4  11   8  365.46   15.10
   4 -11  -8  373.16   15.20
   4 -11  -8  356.46   15.30
   4 -11  -8  334.07   15.20
   4  11  -7   97.29    4.40
  -4 -11   7   86.79    4.10
   4 -11  -7   95.89    4.10
   4 -11  -7   86.09    4.30
   4 -11  -7   99.99    4.20
  -4 -11   7   89.49   10.00
   4  11  -6  235.28   10.20
  -4  11   6  224.08   10.10
   4  11  -6  244.08   10.00
   4 -11  -6  230.28   10.00
  -4 -11   6  241.98   16.40
  -4 -11   6  211.98    9.90
   4 -11  -6  235.48    9.90
  -4  11   5  339.67   15.10
   4  11  -5  361.66   14.90
  -4 -11   5  325.07   14.90
   4 -11  -5  350.56   15.00
   4 -11  -5  352.66   15.00
  -4 -11   5  383.26   22.30
   4  11  -4   12.60    0.80
   4  11  -4   11.60    1.20
  -4  11   4   11.50    1.10
   4 -11  -4   13.20    1.10
  -4 -11   4   14.10    4.90
  -4 -11   4   11.80    0.80
   4 -11  -4   13.00    1.00
   4  11  -3  611.44   24.10
   4  11  -3  554.04   24.40
   4  11  -3  539.05   24.10
   4  11  -3  571.64   24.10
  -4 -11   3  611.84   31.40
   4 -11  -3  575.94   24.10
   4 -11  -3  543.35   24.10
   4 -11  -3  562.44   24.10
   4  11  -2    3.90    0.50
   4  11  -2    4.70    0.60
   4  11  -2    4.10    0.50
   4  11  -2    4.40    0.70
   4  11  -2    4.10    0.80
  -4 -11   2    5.00    4.00
   4 -11  -2    4.90    0.60
   4 -11  -2    4.50    0.60
   4 -11  -2    4.30    0.70
   4  11  -1  212.18    8.80
   4  11  -1  205.38    8.80
   4  11  -1  198.18    8.80
   4  11  -1  202.58    9.10
   4 -11  -1  205.08    8.80
  -4 -11   1  214.68   14.30
   4 -11  -1  194.88    8.80
   4 -11  -1  211.58    9.00
   4  11   0    2.40    0.60
   4  11   0    2.60    0.70
   4  11   0    2.60    0.40
  -4 -11   0    2.20    2.80
   4 -11   0    2.90    0.60
   4 -11   0    3.90    0.70
   4 -11   0    2.90    0.50
   4  11   1  977.00   43.40
   4  11   1 1057.79   43.40
   4  11   1 1031.70   43.40
   4  11   1 1055.79   43.30
   4  11   1 1040.50   43.70
   4 -11   1  965.80   43.70
   4 -11   1 1048.80   43.40
   4 -11   1 1053.19   43.50
   4  11   2   63.19    3.00
   4  11   2   59.39    3.20
   4  11   2   64.19    2.90
   4  11   2   59.59    3.20
   4  11   2   63.49    3.00
   4 -11   2   63.79    3.00
   4 -11   2   63.29    3.10
   4 -11   2   66.79    3.10
   4  11   3 1128.29   44.70
   4  11   3  938.31   44.80
   4  11   3 1045.30   44.70
  -4 -11  -3 1040.30   44.60
   4 -11   3 1105.19   44.80
   4 -11   3 1106.39   44.70
   4  11   4  341.37   14.20
   4 -11   4  324.97   14.20
   4 -11   4  330.47   14.30
   4  12  -7  138.39    6.10
   4 -12  -7  144.29    5.90
   4 -12  -7  124.39    6.10
   4 -12  -7  145.69    5.90
  -4 -12   7  122.99    5.90
  -4  12   6   -0.40    0.90
   4  12  -6    0.20    0.70
   4  12  -6    0.40    0.50
   4 -12  -6    1.30    0.50
   4 -12  -6    0.20    0.70
  -4 -12   6    0.40    2.70
   4 -12  -6    0.30    0.50
  -4 -12   6    0.20    0.40
   4  12  -5  459.35   18.60
   4  12  -5  446.86   19.00
  -4  12   5  421.56   18.70
  -4 -12   5  482.55   26.40
   4 -12  -5  445.86   18.60
   4 -12  -5  445.96   18.70
  -4 -12   5  374.66   18.60
   4  12  -4    3.30    0.50
   4  12  -4    3.70    0.80
   4  12  -4    3.50    0.40
  -4  12   4    2.40    0.60
   4 -12  -4    2.70    0.50
   4 -12  -4    2.80    0.50
   4 -12  -4    4.30    0.70
  -4 -12   4    2.30    0.50
   4  12  -3    1.50    0.30
   4  12  -3    1.50    0.60
   4  12  -3    1.00    0.50
   4  12  -3    2.40    0.40
   4 -12  -3    1.30    0.50
   4 -12  -3    0.70    0.50
  -4 -12   3    1.30    2.50
   4  12  -2    3.40    0.50
   4  12  -2    3.90    0.80
   4  12  -2    4.20    0.60
   4  12  -2    2.80    0.50
   4 -12  -2    3.20    0.60
   4 -12  -2    3.70    0.70
   4 -12  -2    4.50    0.60
  -4 -12   2    4.10    4.00
   4  12  -1   52.49    2.40
   4  12  -1   52.39    2.80
   4  12  -1   52.79    2.40
   4  12  -1   50.49    2.40
   4 -12  -1   51.49    2.60
   4 -12  -1   53.89    2.50
  -4 -12   1   54.59    7.10
   4 -12  -1   51.59    2.50
   4  12   0  594.64   24.70
   4  12   0  581.04   24.70
   4  12   0  572.44   24.60
   4  12   0  584.94   25.00
   4 -12   0  594.04   24.80
  -4 -12   0  585.34   31.00
   4 -12   0  573.34   24.70
   4  12   1  809.72   34.50
   4  12   1  814.02   34.60
   4  12   1  843.72   34.60
   4 -12   1  822.02   34.70
   4 -12   1  812.52   34.70
   4 -12   1  818.72   34.60
   4  12   2   16.00    1.50
   4  12   2   14.90    1.20
   4  12   2   12.90    1.70
   4  12   2   14.50    1.10
   4 -12   2   16.00    1.10
   4 -12   2   14.90    1.20
   4 -12   2   14.90    1.40
   4  12   3    4.50    0.70
   4  12   3    4.40    1.10
   4  12   3    3.00    0.80
   4 -12   3    4.70    0.80
  -4 -12  -3    2.70    0.50
   4 -12   3    4.00    0.70
   4  12   4 1095.49   44.90
   4 -12   4 1032.80   45.00
   4 -12   4 1069.79   44.90
   4  13  -7    8.80    1.30
   4 -13  -7   10.10    1.30
   4 -13  -7   12.00    1.10
   4 -13  -7   10.50    0.90
   4  13  -6    5.50    0.90
   4 -13  -6    5.90    1.00
   4 -13  -6    5.50    0.80
  -4 -13   6    5.60    4.60
   4 -13  -6    5.90    0.90
  -4 -13   6    4.50    0.80
   4  13  -5   53.99    2.50
   4  13  -5   53.09    2.90
  -4  13   5   50.89    2.80
   4 -13  -5   54.29    2.60
   4 -13  -5   55.09    2.60
   4 -13  -5   52.09    2.70
  -4 -13   5   56.89    7.80
  -4  13   4   28.40    1.80
   4  13  -4   29.50    1.50
   4 -13  -4   33.90    1.70
  -4 -13   4   31.20    6.20
   4 -13  -4   29.20    1.60
   4  13  -3  117.99    5.50
   4  13  -3  115.09    5.20
   4 -13  -3  118.39    5.30
   4 -13  -3  120.19    5.30
  -4 -13   3  127.39   11.30
   4  13  -2  319.47   13.40
   4  13  -2  303.27   13.40
   4  13  -2  312.17   13.80
   4 -13  -2  298.97   13.40
  -4 -13   2  338.17   20.40
   4 -13  -2  328.57   13.50
   4 -13  -2  309.27   13.50
   4  13  -1   -0.60    0.40
   4  13  -1    1.40    0.50
   4  13  -1    0.40    0.70
   4  13  -1    0.30    0.40
  -4 -13   1    0.10    2.40
   4 -13  -1    1.40    0.50
   4 -13  -1    0.70    0.50
   4 -13  -1    0.30    0.50
   4  13   0 1708.03   73.49
   4  13   0 1728.43   73.49
   4  13   0 1828.12   74.09
   4  13   0 1769.42   73.59
  -4 -13   0 1651.53   80.59
   4 -13   0 1754.82   73.59
   4 -13   0 1762.32   73.69
   4 -13   0 1793.42   73.59
   4  13   1  987.20   41.00
   4  13   1  968.30   40.90
   4  13   1  946.31   41.30
   4  13   1  987.40   41.00
   4 -13   1  990.80   41.00
   4 -13   1  952.10   41.10
   4 -13   1  976.90   41.10
   4  13   2   17.40    1.20
   4  13   2   17.70    1.70
   4  13   2   18.00    1.40
   4 -13   2   19.50    1.50
   4 -13   2   18.80    1.40
   4 -13   2   18.90    1.30
  -4 -13  -2   20.00    1.10
   4  13   3    1.80    0.70
   4  13   3    1.20    0.80
   4  13   3    1.40    1.00
  -4 -13  -3    1.60    0.40
   4 -13   3    2.20    0.70
   4  13   4  144.89    6.90
   4 -13   4  166.98    6.70
   4 -13   4  154.78    6.90
  -4  14   7  288.97   12.40
   4  14  -7  291.17   12.60
   4 -14  -7  313.77   12.50
   4 -14  -7  277.47   12.40
  -4  14   6    0.70    0.60
   4  14  -6    1.50    0.80
   4  14  -6    0.80    0.50
   4 -14  -6    1.10    0.50
   4 -14  -6    2.00    0.80
   4 -14  -6    1.00    0.50
  -4 -14   6    1.00    2.90
   4 -14  -6    1.60    0.90
   4  14  -5   24.30    1.30
   4  14  -5   23.90    1.80
  -4  14   5   22.70    1.90
   4 -14  -5   25.50    1.40
   4 -14  -5   24.20    1.40
  -4 -14   5   25.60    5.90
   4  14  -4  241.48   11.20
   4  14  -4  257.37   10.90
  -4  14   4  248.68   11.10
   4 -14  -4  256.87   11.00
   4 -14  -4  257.97   11.00
  -4 -14   4  273.27   18.30
   4  14  -3  372.96   16.40
   4  14  -3  376.56   16.10
   4 -14  -3  374.36   16.20
  -4 -14   3  394.26   23.70
   4 -14  -3  384.26   16.20
   4  14  -2  464.85   19.90
   4  14  -2  448.16   19.00
  -4 -14   2  470.35   26.70
   4 -14  -2  426.26   19.10
   4 -14  -2  438.16   19.10
   4  14  -1   11.20    0.90
   4  14  -1   13.10    1.40
   4  14  -1   11.50    0.90
   4 -14  -1   14.10    1.10
   4 -14  -1   13.40    1.00
  -4 -14   1   13.00    5.30
   4  14   0  403.46   17.30
   4  14   0  376.36   16.90
   4  14   0  411.36   17.00
  -4 -14   0  375.46   24.00
   4 -14   0  410.66   17.00
   4 -14   0  401.26   17.10
   4 -14   0  413.46   17.00
   4  14   1   -0.10    0.80
   4  14   1    1.20    0.50
   4  14   1   -0.20    0.50
   4 -14   1    0.30    0.50
   4 -14   1    0.00    0.50
   4 -14   1    1.60    0.60
   4  14   2    3.70    0.60
   4  14   2    2.80    0.70
   4  14   2    3.00    1.00
   4 -14   2    4.00    0.70
  -4 -14  -2    3.70    0.50
   4 -14   2    3.50    0.80
   4  14   3    0.80    0.60
   4  14   3    1.70    1.10
   4 -14   3    1.20    0.60
   4 -14   3    0.50    0.60
  -4 -14  -3    0.70    0.40
   4  15  -6    8.50    1.30
  -4 -15   6    5.80    5.30
   4 -15  -6    7.90    0.80
   4 -15  -6    7.30    1.00
  -4  15   5    2.30    1.10
   4  15  -5    4.00    0.50
   4  15  -5    4.00    1.10
  -4 -15   5    4.70    4.60
   4 -15  -5    3.40    0.60
   4 -15  -5    4.10    0.60
  -4 -15   5    5.40    0.70
   4  15  -4    8.10    1.40
   4  15  -4    9.70    0.80
   4 -15  -4   10.40    0.90
   4 -15  -4   10.30    1.00
  -4 -15   4   10.50    4.90
   4  15  -3   43.10    2.10
   4  15  -3   42.60    2.50
   4 -15  -3   43.10    2.20
   4 -15  -3   44.00    2.20
  -4 -15   3   45.50    7.30
   4  15  -2 1145.19   47.30
  -4 -15   2 1174.28   55.89
   4 -15  -2 1027.80   47.00
   4 -15  -2 1119.59   47.00
   4  15  -1  755.82   30.70
   4  15  -1  653.03   30.40
   4 -15  -1  747.73   30.40
  -4 -15   1  740.03   38.80
   4 -15  -1  717.33   30.30
   4 -15  -1  698.33   30.40
   4  15   0  473.55   19.70
   4  15   0  468.05   19.30
   4  15   0  449.36   19.30
   4 -15   0  472.65   19.30
   4 -15   0  467.25   19.40
  -4 -15   0  410.56   26.80
   4 -15   0  442.56   19.40
   4  15   1  114.09    5.00
   4  15   1  110.89    5.40
   4  15   1  113.69    5.10
   4 -15   1  114.89    5.20
   4 -15   1  109.79    5.10
   4 -15   1  120.79    5.10
   4  15   2   60.99    3.30
   4  15   2   60.19    2.80
   4  15   2   57.99    3.00
  -4 -15  -2   60.99    2.70
   4 -15   2   58.09    2.90
   4 -15   2   64.69    2.90
   4  15   3   19.50    1.90
   4 -15   3   20.40    1.50
  -4 -15  -3   22.20    1.20
   4 -15   3   23.10    1.30
   4  16  -6    0.00    0.80
   4 -16  -6    1.00    0.50
   4 -16  -6    0.60    0.60
   4  16  -5  115.49    5.20
  -4 -16   5  109.39    4.80
   4 -16  -5  112.69    4.80
   4 -16  -5  110.09    4.90
   4 -16  -5  100.09    5.00
  -4 -16   5  110.99   11.10
   4  16  -4   49.50    2.90
   4  16  -4   49.00    2.40
  -4  16   4   47.80    2.70
   4  16  -4   51.69    2.80
  -4 -16   4   50.99    8.20
   4 -16  -4   50.29    2.40
   4 -16  -4   50.69    2.50
   4  16  -3   23.00    1.30
   4  16  -3   24.50    1.70
  -4 -16   3   25.20    6.30
   4 -16  -3   25.80    1.50
   4 -16  -3   24.40    1.50
   4  16  -2  189.18    8.10
   4  16  -2  195.78    8.50
  -4 -16   2  192.28   15.50
   4 -16  -2  189.28    8.20
   4 -16  -2  174.08    8.60
   4  16  -1  783.82   33.10
   4  16  -1  824.02   33.50
   4 -16  -1  817.72   33.20
   4 -16  -1  800.62   33.10
  -4 -16   1  761.12   41.60
   4 -16  -1  722.23   33.20
   4  16   0    1.80    0.60
   4  16   0    2.10    0.60
   4  16   0    1.20    0.90
   4 -16   0    1.70    0.60
   4 -16   0    1.00    0.60
   4 -16   0    0.80    0.60
   4  16   1   45.30    2.70
   4  16   1   44.40    2.20
   4  16   1   43.30    2.30
   4 -16   1   48.40    2.30
   4 -16   1   44.50    2.50
   4 -16   1   42.00    2.40
  -4 -16  -1   45.50    2.10
   4  16   2   34.60    1.80
   4  16   2   32.90    2.20
   4 -16   2   37.50    1.90
  -4 -16  -2   36.60    1.70
   4 -16   2   32.20    1.90
   4  17  -5    0.20    0.80
   4 -17  -5   -0.20    0.60
  -4 -17   5   -0.20    2.90
   4 -17  -5    0.30    0.60
   4  17  -4    6.10    0.90
   4  17  -4    6.80    1.10
  -4  17   4    6.30    1.60
   4 -17  -4    6.40    1.10
  -4 -17   4    4.80    4.70
   4 -17  -4    5.90    0.70
   4  17  -3   27.90    1.80
   4  17  -3   26.10    1.50
   4 -17  -3   25.30    1.60
   4 -17  -3   29.10    1.70
  -4 -17   3   26.40    6.50
   4  17  -2  267.77   11.50
   4  17  -2  252.87   11.10
   4 -17  -2  262.97   11.20
  -4 -17   2  258.67   19.60
   4  17  -1  400.96   16.10
   4  17  -1  371.26   15.70
   4 -17  -1  331.07   15.90
   4 -17  -1  383.26   15.80
  -4 -17   1  355.46   24.00
   4 -17  -1  371.66   15.70
   4  17   0  200.38    8.70
   4  17   0  185.68    8.30
   4 -17   0  201.58    8.30
   4 -17   0  196.78    8.40
   4 -17   0  177.88    8.40
   4  17   1    4.20    1.00
  -4 -17  -1    3.50    0.50
   4 -17   1    3.80    0.80
   4 -17   1    4.40    0.70
   4 -17   1    3.50    0.80
   4  17   2   50.69    2.50
   4  17   2   51.99    2.80
   4 -17   2   57.69    2.50
  -4 -17  -2   54.09    2.60
   4 -17   2   46.60    2.70
   4  18  -5   10.10    1.30
   4 -18  -5   11.60    0.90
   4 -18  -5    8.20    1.10
  -4 -18   5    9.10    1.20
   4  18  -4   15.60    1.50
   4 -18  -4   12.40    1.20
   4 -18  -4   13.00    1.10
  -4 -18   4   11.10    5.50
   4  18  -3   42.70    2.40
  -4  18   3   38.30    2.70
   4 -18  -3   46.80    2.20
  -4 -18   3   41.20    7.60
   4  18  -2  162.18    7.00
   4  18  -2  146.29    6.70
  -4 -18   2  148.19   14.00
   4 -18  -2  162.08    6.80
   4  18  -1  175.38    7.50
   4  18  -1  156.38    7.20
   4 -18  -1  175.58    7.30
  -4 -18   1  150.48   14.70
   4 -18  -1  169.08    7.20
   4  18   0   57.49    3.10
   4 -18   0   57.69    3.00
  -4 -18   0   57.89    2.60
   4 -18   0   58.69    2.80
   4  18   1   47.50    2.60
   4 -18   1   45.70    2.50
  -4 -18  -1   45.80    2.20
   4 -18   1   48.00    2.30
   4  19  -4   68.79    3.30
   4 -19  -4   64.19    3.10
   4  19  -3   39.50    2.20
   4  19  -3   36.60    2.20
   4 -19  -3   37.20    2.00
  -4 -19   3   33.10    7.60
  -4 -19   3   31.20    1.70
   4  19  -2    7.80    1.30
  -4 -19   2    5.90    6.30
   4 -19  -2    8.20    1.20
   4  19  -1   37.50    2.20
  -4 -19   1   35.10    1.70
   4 -19  -1   35.90    2.00
   4  19   0   69.59    3.80
   4 -19   0   74.69    3.30
   4 -19   0   75.39    3.50
   4  20  -2   89.39    4.00
  -4 -20   2   78.39    3.60
   4 -20  -2   83.89    3.90
   5   0  -9    1.00    0.90
  -5   0   9   -0.20    0.60
   5   0  -8   19.50    1.40
   5   0  -8   17.00    1.30
   5   0  -8   18.10    1.40
   5   0  -7   -0.80    0.50
   5   0  -7   -0.20    0.60
   5   0  -7    0.10    0.40
   5   0  -7    0.10    0.50
   5   0  -6  517.35   22.40
   5   0  -6  516.95   22.30
   5   0  -6  534.25   22.20
   5   0  -6  532.85   22.30
   5   0  -5    0.50    0.50
   5   0  -5    0.20    0.30
   5   0  -5    0.00    0.40
   5   0  -5   -0.10    0.40
   5   0  -5    0.10    0.50
   5   0  -4 1116.29   48.70
   5   0  -4 1133.09   48.70
   5   0  -4 1172.18   48.60
   5   0  -4 1186.58   48.70
   5   0  -4 1171.38   48.60
   5   0  -4 1171.68   48.60
   5   0  -4 1143.69   48.70
   5   0  -3    1.10    0.40
   5   0  -3   -0.20    0.40
   5   0  -3   -0.20    0.30
   5   0  -3    0.50    0.40
   5   0  -3    0.10    0.30
   5   0  -3    0.60    0.30
   5   0  -2  284.27   11.70
   5   0  -2  281.57   11.70
   5   0  -2  257.57   11.70
   5   0  -2  279.77   11.70
   5   0  -2  273.07   11.80
   5   0  -2  272.17   11.70
   5   0  -1    0.30    0.30
   5   0  -1    0.00    0.40
   5   0  -1    0.60    0.30
   5   0  -1   -0.80    0.50
   5   0  -1    0.30    0.30
   5   0   0  146.89    6.40
   5   0   0  144.49    6.40
   5   0   0  150.38    6.30
   5   0   0  146.79    6.50
   5   0   0  144.79    6.30
   5   0   0  152.68    6.40
   5   0   0  143.29    6.30
   5   0   1    0.50    0.50
   5   0   1    0.30    0.50
   5   0   2  115.29    4.80
   5   0   2  109.99    4.90
   5   0   2  103.89    4.90
   5   0   2  109.69    4.90
   5   0   2  113.79    4.80
   5   0   3    0.60    0.50
   5   0   3    0.00    0.60
   5   0   3    0.40    0.50
   5   0   4   23.90    1.30
   5   0   4   21.80    1.50
  -5   1   9    9.60    1.00
  -5  -1   9    9.10    1.00
   5  -1  -9    9.70    1.30
   5   1  -8  109.19    4.90
   5   1  -8  106.89    4.90
   5   1  -8  111.19    4.90
   5  -1  -8  106.79    4.90
   5  -1  -8  107.49    4.90
   5  -1  -8  112.89    4.90
   5   1  -7   79.19    3.70
   5   1  -7   79.09    3.70
   5   1  -7   76.09    3.70
   5  -1  -7   82.99    3.70
   5  -1  -7   78.39    3.60
   5  -1  -7   79.39    3.70
   5  -1  -7   77.09    3.70
   5   1  -6   89.19    4.00
   5   1  -6   84.39    3.90
   5   1  -6   84.99    4.10
   5   1  -6   86.49    4.00
   5  -1  -6   84.99    4.00
   5  -1  -6   86.99    4.00
   5  -1  -6   87.29    3.90
   5  -1  -6   87.59    4.00
   5   1  -5    3.60    0.60
   5   1  -5    2.70    0.50
   5   1  -5    3.30    0.60
   5   1  -5    2.40    0.50
   5   1  -5    3.00    0.50
   5  -1  -5    3.40    0.50
   5  -1  -5    3.00    0.60
   5  -1  -5    3.10    0.60
   5  -1  -5    3.50    0.50
   5  -1  -5    2.40    0.50
   5   1  -4  393.96   16.40
   5   1  -4  390.16   16.40
   5   1  -4  384.76   16.50
   5   1  -4  379.36   16.60
   5   1  -4  388.86   16.50
   5   1  -4  395.86   16.50
   5   1  -4  378.46   16.50
   5  -1  -4  403.96   16.40
   5  -1  -4  391.66   16.50
   5  -1  -4  377.46   16.50
   5  -1  -4  389.56   16.40
   5  -1  -4  378.86   16.50
   5  -1  -4  385.96   16.50
   5   1  -3  211.88    9.70
   5   1  -3  221.78    9.70
   5   1  -3  228.98    9.60
   5   1  -3  218.98    9.60
   5   1  -3  242.08    9.70
   5   1  -3  219.48    9.60
   5   1  -3  237.38    9.60
   5  -1  -3  224.48    9.60
   5  -1  -3  223.48    9.60
   5  -1  -3  232.18    9.60
   5  -1  -3  231.68    9.60
   5  -1  -3  216.08    9.70
   5  -1  -3  232.18    9.60
   5  -1  -3  211.58    9.70
   5  -1  -3  218.88    9.60
   5   1  -2   85.79    3.90
   5   1  -2   90.39    4.10
   5   1  -2   80.19    4.10
   5   1  -2   88.19    3.90
   5   1  -2   94.29    3.90
   5   1  -2   90.69    4.00
   5   1  -2   86.39    4.10
   5   1  -2   93.19    3.90
   5  -1  -2   93.49    4.00
   5  -1  -2   92.19    3.90
   5  -1  -2   90.19    3.90
   5  -1  -2   90.09    4.10
   5  -1  -2   86.59    3.90
   5  -1  -2   95.29    4.00
   5   1  -1   50.79    2.30
   5   1  -1   48.90    2.40
   5   1  -1   48.70    2.20
   5   1  -1   49.50    2.20
   5   1  -1   47.30    2.30
   5   1  -1   43.40    2.30
   5   1  -1   42.50    2.50
   5   1  -1   50.39    2.20
   5   1  -1   51.79    2.20
   5  -1  -1   47.10    2.20
   5  -1  -1   50.39    2.40
   5  -1  -1   47.90    2.20
   5  -1  -1   49.10    2.20
   5  -1  -1   44.30    2.40
   5  -1  -1   49.90    2.30
   5  -1  -1   49.30    2.30
   5  -1  -1   45.30    2.30
   5   1   0  151.08    6.30
   5   1   0  142.89    6.10
   5   1   0  126.69    6.10
   5   1   0  153.38    6.20
   5   1   0  146.39    6.20
   5   1   0  141.09    6.20
   5   1   0  147.09    6.10
   5   1   0  138.39    6.20
   5  -1   0  143.29    6.20
   5  -1   0  131.49    6.30
   5  -1   0  153.28    6.20
   5  -1   0  145.49    6.10
   5  -1   0  144.49    6.30
   5  -1   0  138.69    6.10
   5  -1   0  131.29    6.30
   5   1   1  174.68    7.50
   5   1   1  163.38    7.50
   5   1   1  168.18    7.50
   5   1   1  169.58    7.40
   5   1   1  185.58    7.50
   5   1   1  178.78    7.40
   5   1   1  166.58    7.40
   5   1   1  171.58    7.60
   5  -1   1  181.18    7.50
   5  -1   1  171.58    7.40
   5  -1   1  166.38    7.40
   5  -1   1  173.18    7.60
   5  -1   1  175.88    7.50
   5  -1   1  164.28    7.40
   5  -1   1  182.98    7.40
   5   1   2  107.89    5.20
   5   1   2  119.79    5.20
   5   1   2  118.19    5.10
   5   1   2  121.49    5.10
   5  -1   2  123.69    5.10
   5  -1   2  116.29    5.20
   5  -1   2  111.59    5.20
   5  -1   2  115.79    5.10
   5  -1   2  119.59    5.10
   5   1   3    7.00    0.90
   5   1   3    8.00    0.80
   5  -1   3    7.70    0.80
   5  -1   3    6.30    0.90
   5  -1   3    5.80    1.00
   5   1   4    0.00    0.70
   5   1   4    0.40    0.50
   5  -1   4   -0.50    0.50
   5  -2  -9  228.28   10.10
   5  -2  -9  245.18   10.00
  -5  -2   9  224.58    9.90
   5   2  -8  134.69    6.20
   5   2  -8  142.09    6.30
   5   2  -8  137.29    6.30
   5  -2  -8  151.08    6.20
   5  -2  -8  145.69    6.30
   5  -2  -8  135.89    6.30
   5   2  -7  549.35   23.10
   5   2  -7  555.94   23.20
   5   2  -7  555.94   23.10
   5  -2  -7  539.15   23.10
   5  -2  -7  573.04   23.20
   5  -2  -7  563.54   23.10
  -5  -2   7  469.45   30.30
   5  -2  -7  550.94   23.20
   5   2  -6   43.30    2.20
   5   2  -6   46.40    2.20
   5   2  -6   43.20    2.40
   5  -2  -6   45.40    2.10
   5  -2  -6   45.30    2.30
   5  -2  -6   44.20    2.30
   5  -2  -6   42.40    2.20
   5   2  -5   32.70    1.70
   5   2  -5   33.10    1.90
   5   2  -5   35.10    1.80
   5   2  -5   32.70    1.80
   5  -2  -5   34.70    1.80
   5  -2  -5   35.60    1.70
   5  -2  -5   34.10    1.80
   5  -2  -5   34.00    1.70
   5  -2  -5   32.10    1.80
   5   2  -4  530.45   22.20
   5   2  -4  537.95   22.10
   5   2  -4  505.95   22.30
   5   2  -4  541.55   22.10
   5   2  -4  541.65   22.20
   5   2  -4  512.95   22.20
   5   2  -4  501.75   22.20
   5  -2  -4  510.15   22.20
   5  -2  -4  508.35   22.20
   5  -2  -4  517.65   22.30
   5  -2  -4  540.85   22.20
   5  -2  -4  539.65   22.10
   5   2  -3  866.41   35.40
   5   2  -3  828.22   35.20
   5   2  -3  785.22   35.40
   5   2  -3  880.31   35.30
   5   2  -3  848.92   35.30
   5   2  -3  822.32   35.30
   5   2  -3  847.42   35.30
   5   2  -3  841.52   35.40
   5  -2  -3  828.42   35.30
   5  -2  -3  821.42   35.30
   5  -2  -3  847.32   35.40
   5  -2  -3  837.62   35.30
   5  -2  -3  799.72   35.40
   5  -2  -3  882.71   35.40
   5   2  -2  238.38   10.40
   5   2  -2  230.68   10.50
   5   2  -2  246.88   10.40
   5   2  -2  239.38   10.40
   5   2  -2  262.47   10.50
   5   2  -2  249.58   10.50
   5   2  -2  234.88   10.60
   5   2  -2  257.77   10.50
   5   2  -2  256.27   10.50
   5  -2  -2  252.37   10.50
   5  -2  -2  241.68   10.50
   5  -2  -2  246.18   10.50
   5  -2  -2  244.48   10.40
   5  -2  -2  239.58   10.40
   5  -2  -2  236.88   10.40
   5  -2  -2  244.48   10.60
   5  -2  -2  250.37   10.60
   5   2  -1   43.30    1.90
   5   2  -1   42.70    2.00
   5   2  -1   43.20    2.10
   5   2  -1   42.90    2.00
   5   2  -1   41.50    2.00
   5   2  -1   45.70    1.90
   5   2  -1   42.20    2.20
   5   2  -1   41.60    1.90
   5   2  -1   41.70    2.00
   5   2  -1   40.60    2.10
   5  -2  -1   45.50    2.10
   5  -2  -1   41.30    1.90
   5  -2  -1   41.80    2.10
   5  -2  -1   41.20    2.00
   5  -2  -1   43.70    2.00
   5  -2  -1   42.90    1.90
   5  -2  -1   37.80    2.00
   5  -2  -1   41.50    2.20
   5   2   0   43.40    2.00
   5   2   0   42.20    2.10
   5   2   0   44.90    2.30
   5   2   0   44.60    2.10
   5   2   0   42.80    2.10
   5   2   0   43.10    2.10
   5   2   0   44.00    2.00
   5   2   0   44.20    2.10
   5  -2   0   43.00    2.20
   5  -2   0   45.00    2.00
   5  -2   0   45.20    2.10
   5  -2   0   45.70    2.20
   5  -2   0   41.50    2.00
   5   2   1   97.59    4.40
   5   2   1  102.19    4.30
   5   2   1  102.39    4.40
   5   2   1   92.19    4.40
   5   2   1   96.29    4.50
   5   2   1   95.39    4.30
   5   2   1  101.09    4.40
   5   2   1   98.99    4.40
   5  -2   1   98.19    4.50
   5  -2   1  101.39    4.50
   5  -2   1   92.49    4.30
   5  -2   1  106.29    4.30
   5  -2   1  100.59    4.40
   5   2   2  211.18   10.00
   5   2   2  240.98    9.90
   5   2   2  239.48    9.80
   5   2   2  237.88    9.80
   5  -2   2  241.28    9.90
   5  -2   2  225.98    9.80
   5  -2   2  234.38   10.00
   5  -2   2  221.98    9.90
   5  -2   2  217.78    9.80
   5   2   3    0.00    0.50
   5   2   3    0.50    0.50
   5   2   3    0.40    0.50
   5  -2   3    0.40    0.70
   5  -2   3    0.20    0.40
   5  -2   3   -0.90    0.70
   5   2   4   99.69    4.50
   5   2   4  104.99    4.60
   5  -2   4   99.39    4.50
   5  -3  -9  145.19    6.50
  -5  -3   9  141.89    6.40
   5  -3  -9  157.38    6.50
   5   3  -8    1.70    0.70
   5   3  -8    2.10    0.60
   5   3  -8    1.30    1.00
   5  -3  -8    1.30    0.80
   5  -3  -8    2.10    0.70
   5  -3  -8    2.60    0.50
   5  -3  -8    1.40    0.60
   5   3  -7   75.49    3.60
   5   3  -7   72.89    3.40
   5   3  -7   74.49    3.40
  -5  -3   7   64.69    9.00
   5  -3  -7   76.39    3.50
   5  -3  -7   75.29    3.40
   5  -3  -7   70.79    3.50
   5  -3  -7   78.29    3.50
   5   3  -6    4.40    0.70
   5   3  -6    3.80    0.70
   5   3  -6    3.90    0.60
   5  -3  -6    5.30    0.80
   5  -3  -6    3.50    0.60
   5  -3  -6    4.00    0.50
   5  -3  -6    4.90    0.80
   5   3  -5   24.70    1.40
   5   3  -5   21.70    1.50
   5   3  -5   24.30    1.30
   5   3  -5   23.00    1.50
   5   3  -5   23.90    1.30
   5   3  -5   24.00    1.30
   5  -3  -5   21.60    1.40
   5  -3  -5   24.50    1.40
   5  -3  -5   25.30    1.30
   5  -3  -5   22.50    1.40
   5   3  -4    2.50    0.50
   5   3  -4    1.50    0.50
   5   3  -4    1.30    0.40
   5   3  -4    1.80    0.50
   5   3  -4    1.50    0.40
   5  -3  -4    2.40    0.40
   5  -3  -4    2.00    0.50
   5  -3  -4    1.80    0.50
   5  -3  -4    1.90    0.50
   5  -3  -4    2.10    0.50
   5   3  -3  281.07   12.10
   5   3  -3  291.37   12.00
   5   3  -3  271.07   12.20
   5   3  -3  270.77   12.20
   5   3  -3  281.67   12.10
   5   3  -3  285.97   12.10
   5   3  -3  285.87   12.10
   5   3  -3  291.37   12.10
   5  -3  -3  287.87   12.10
   5  -3  -3  284.77   12.10
   5  -3  -3  276.17   12.10
   5  -3  -3  284.77   12.10
   5  -3  -3  310.47   12.20
   5  -3  -3  275.37   12.10
   5  -3  -3  279.57   12.00
   5  -3  -3  282.17   12.00
   5   3  -2  565.84   23.40
   5   3  -2  509.05   23.50
   5   3  -2  583.44   23.50
   5   3  -2  588.04   23.40
   5   3  -2  540.65   23.30
   5   3  -2  536.05   23.60
   5   3  -2  577.74   23.40
   5   3  -2  577.84   23.40
   5  -3  -2  533.15   23.40
   5  -3  -2  532.05   23.40
   5  -3  -2  573.54   23.50
   5  -3  -2  559.94   23.40
   5  -3  -2  530.55   23.40
   5  -3  -2  560.64   23.50
   5  -3  -2  550.54   23.40
   5   3  -1  132.49    5.90
   5   3  -1  133.59    5.70
   5   3  -1  134.79    5.60
   5   3  -1  130.29    5.60
   5   3  -1  121.69    5.70
   5   3  -1  142.09    5.70
   5   3  -1  120.19    5.70
   5  -3  -1  125.89    5.60
   5  -3  -1  124.59    5.60
   5  -3  -1  136.19    5.70
   5  -3  -1  126.59    5.60
   5  -3  -1  137.09    5.80
   5  -3  -1  136.49    5.80
   5  -3  -1  130.99    5.60
   5   3   0   25.30    1.30
   5   3   0   27.60    1.40
   5   3   0   25.20    1.50
   5   3   0   24.10    1.30
   5   3   0   26.60    1.30
   5   3   0   25.60    1.40
   5  -3   0   25.90    1.40
  -5  -3   0   24.90    5.50
   5  -3   0   25.60    1.40
   5  -3   0   26.50    1.30
   5  -3   0   25.60    1.40
   5  -3   0   22.90    1.30
   5   3   1  406.06   17.70
   5   3   1  428.06   17.60
   5   3   1  407.46   17.50
   5   3   1  427.06   17.70
   5   3   1  426.06   17.50
   5  -3   1  404.26   17.60
   5  -3   1  430.46   17.50
   5  -3   1  371.96   17.50
   5  -3   1  424.56   17.50
   5   3   2    9.00    0.90
   5   3   2    6.80    1.00
   5   3   2    6.80    0.70
   5   3   2    9.60    0.80
   5   3   2    6.80    0.90
   5  -3   2   10.30    0.80
   5  -3   2   12.00    1.00
   5  -3   2    9.30    0.90
   5  -3   2   10.20    0.80
   5   3   3   57.79    2.70
   5   3   3   55.09    2.60
   5   3   3   57.79    2.60
   5  -3   3   58.09    2.60
   5  -3   3   54.89    2.80
   5   3   4  275.67   12.00
   5   3   4  288.47   12.10
   5  -3   4  282.47   12.00
  -5  -4   9    0.50    0.50
   5  -4  -9   -0.30    0.60
   5  -4  -9    0.80    0.80
   5   4  -8  127.89    6.00
   5   4  -8  131.49    6.10
   5   4  -8  136.69    6.10
   5  -4  -8  127.39    6.10
   5  -4  -8  143.19    6.00
   5  -4  -8  138.09    6.10
   5  -4  -8  147.49    6.00
   5  -4  -8  140.09    6.10
   5   4  -7  720.63   30.00
   5   4  -7  689.63   30.00
   5   4  -7  720.83   30.20
   5  -4  -7  692.13   30.10
   5  -4  -7  741.63   30.00
  -5  -4   7  657.43   37.40
   5  -4  -7  718.83   30.10
   5  -4  -7  738.53   30.10
   5   4  -6  351.26   14.50
   5   4  -6  336.57   14.60
   5   4  -6  349.37   14.50
  -5  -4   6  298.27   21.70
   5  -4  -6  326.87   14.50
   5  -4  -6  351.46   14.50
   5  -4  -6  356.66   14.50
   5   4  -5   10.40    0.80
   5   4  -5    9.00    1.10
   5   4  -5    9.20    1.00
   5   4  -5    9.50    0.90
   5   4  -5    9.10    0.90
   5   4  -5    8.90    0.80
   5  -4  -5    8.70    0.90
   5  -4  -5   10.20    0.90
   5  -4  -5    9.70    0.80
   5  -4  -5    9.90    1.30
   5   4  -4  344.17   15.40
   5   4  -4  359.16   15.30
   5   4  -4  368.26   15.30
   5   4  -4  369.56   15.40
   5   4  -4  370.26   15.30
   5   4  -4  372.36   15.30
   5   4  -4  342.87   15.50
   5  -4  -4  355.66   15.40
   5  -4  -4  363.46   15.30
   5  -4  -4  358.66   15.30
   5  -4  -4  375.26   15.40
   5  -4  -4  346.87   15.40
   5   4  -3    8.20    0.70
   5   4  -3    8.70    0.90
   5   4  -3    8.70    0.90
   5   4  -3    9.20    0.80
   5   4  -3    9.90    0.80
   5   4  -3    9.40    0.70
   5   4  -3    9.90    0.60
   5  -4  -3    9.10    0.80
   5  -4  -3   11.20    0.80
   5  -4  -3   10.30    0.80
   5  -4  -3    9.50    0.70
   5  -4  -3    8.80    0.80
   5  -4  -3    9.40    0.80
   5  -4  -3    9.40    0.70
   5  -4  -3    9.90    0.80
   5   4  -2  116.89    4.80
   5   4  -2  113.59    4.90
   5   4  -2  105.89    5.00
   5   4  -2  110.59    4.90
   5   4  -2  108.09    5.00
   5   4  -2  113.59    4.80
   5  -4  -2  112.49    4.90
   5  -4  -2  109.09    4.80
   5  -4  -2  113.59    4.90
   5  -4  -2  105.69    4.80
   5  -4  -2  114.39    4.80
   5  -4  -2  108.39    4.90
   5  -4  -2  114.59    4.90
   5  -4  -2  111.69    4.80
   5   4  -1  440.26   18.00
   5   4  -1  424.86   18.10
   5   4  -1  439.26   18.10
   5   4  -1  438.76   18.10
   5   4  -1  444.56   18.10
   5   4  -1  425.66   18.30
   5  -4  -1  400.56   18.10
   5  -4  -1  417.36   18.10
   5  -4  -1  445.56   18.20
   5  -4  -1  439.46   18.10
   5  -4  -1  416.76   18.10
   5  -4  -1  429.16   18.20
   5  -4  -1  398.36   18.10
   5   4   0   19.30    1.00
   5   4   0   17.90    1.30
   5   4   0   18.40    1.10
   5   4   0   18.50    1.10
   5   4   0   18.50    1.10
   5  -4   0   18.40    1.10
   5  -4   0   17.00    1.00
   5  -4   0   19.30    1.00
   5  -4   0   18.80    1.10
   5  -4   0   18.20    1.20
  -5  -4   0   19.10    5.20
   5   4   1  644.64   27.00
   5   4   1  665.93   27.00
   5   4   1  624.84   27.20
   5   4   1  679.83   27.00
   5   4   1  658.33   27.00
   5  -4   1  644.54   27.10
   5  -4   1  633.94   26.90
   5  -4   1  661.23   27.00
   5  -4   1  627.04   27.00
   5  -4   1  548.55   26.90
   5   4   2  931.91   39.90
   5   4   2  983.00   39.90
   5   4   2  889.61   40.10
   5   4   2  988.20   40.00
   5  -4   2  996.00   39.90
   5  -4   2  964.40   40.10
   5  -4   2  878.81   39.80
   5  -4   2  949.01   39.90
   5   4   3   97.59    4.20
   5   4   3   92.19    4.20
   5   4   3   93.29    4.30
   5  -4   3   97.09    4.20
   5  -4   3   92.59    4.40
   5   4   4  337.67   13.90
   5   4   4  316.37   13.80
   5  -4   4  318.77   13.80
   5  -4   4  325.47   14.00
   5   5  -8    0.20    0.60
   5   5  -8    1.30    0.70
   5  -5  -8    0.80    0.70
   5  -5  -8    0.70    0.60
   5  -5  -8    1.10    0.80
   5  -5  -8    1.40    0.50
   5   5  -7   37.10    2.10
   5   5  -7   39.90    2.00
   5   5  -7   40.30    2.20
  -5  -5   7   36.70    7.00
   5  -5  -7   35.70    2.10
   5  -5  -7   37.00    2.10
   5  -5  -7   41.20    2.00
   5  -5  -7   41.40    2.10
   5   5  -6  257.97   10.80
   5   5  -6  247.38   10.80
  -5  -5   6  239.58   18.20
   5  -5  -6  254.17   10.80
   5  -5  -6  245.28   10.90
   5  -5  -6  257.07   11.00
   5  -5  -6  266.87   10.90
   5   5  -5   56.49    3.00
   5   5  -5   56.19    3.30
   5   5  -5   61.89    3.10
   5   5  -5   61.79    2.80
   5   5  -5   63.69    2.80
   5   5  -5   62.29    2.90
  -5  -5   5   53.29    8.00
   5  -5  -5   58.29    2.90
   5  -5  -5   62.09    2.90
   5  -5  -5   63.79    2.90
   5  -5  -5   64.69    2.80
   5  -5  -5   68.69    2.80
   5   5  -4    1.80    0.60
   5   5  -4    1.60    0.40
   5   5  -4    1.50    0.40
   5   5  -4    1.70    0.40
   5   5  -4    2.30    0.60
   5   5  -4    2.10    0.40
   5   5  -4    1.70    0.50
   5  -5  -4    1.90    0.60
   5  -5  -4    1.00    0.50
   5  -5  -4    1.60    0.40
   5  -5  -4    1.90    0.40
   5  -5  -4    1.50    0.40
   5   5  -3 1123.69   46.50
   5   5  -3 1106.19   46.40
   5   5  -3 1061.49   46.60
   5   5  -3 1111.19   46.40
   5   5  -3 1055.39   46.60
   5   5  -3 1097.99   46.40
   5   5  -3 1124.79   46.30
   5   5  -3 1123.49   46.40
   5  -5  -3 1036.00   46.50
   5  -5  -3 1136.49   46.50
   5  -5  -3 1102.19   46.40
   5  -5  -3 1134.99   46.40
   5  -5  -3 1132.29   46.50
   5  -5  -3 1123.39   46.50
   5  -5  -3 1079.49   46.50
   5   5  -2   42.60    2.00
   5   5  -2   42.70    1.90
   5   5  -2   39.10    2.10
   5   5  -2   38.70    2.10
   5  -5  -2   42.00    2.00
   5  -5  -2   45.40    1.90
   5  -5  -2   41.90    2.00
   5  -5  -2   41.80    1.90
   5  -5  -2   40.40    2.00
   5  -5  -2   39.00    1.90
   5  -5  -2   39.90    2.00
   5  -5  -2   41.50    2.00
   5   5  -1  325.07   13.50
   5   5  -1  328.97   13.40
   5   5  -1  324.87   13.50
   5   5  -1  294.07   13.60
   5   5  -1  336.97   13.50
   5  -5  -1  294.07   13.40
   5  -5  -1  319.97   13.50
  -5  -5   1  291.77   18.80
   5  -5  -1  326.97   13.50
   5  -5  -1  331.67   13.60
   5  -5  -1  325.47   13.60
   5  -5  -1  317.37   13.50
   5   5   0   15.00    0.90
   5   5   0   15.10    0.90
   5   5   0   15.40    1.00
   5   5   0   14.20    1.00
   5   5   0   14.00    1.20
   5  -5   0   14.90    1.00
   5  -5   0   12.20    1.00
   5  -5   0   14.00    1.00
   5  -5   0   15.10    0.90
  -5  -5   0   16.20    4.90
   5  -5   0   15.20    1.10
   5  -5   0   15.40    1.00
   5   5   1  207.98    8.90
   5   5   1  198.38    9.10
   5   5   1  213.48    9.00
   5   5   1  216.78    8.90
   5   5   1  213.38    8.90
   5  -5   1  195.78    8.90
   5  -5   1  207.58    9.00
   5  -5   1  206.08    8.90
   5  -5   1  209.38    8.90
   5   5   2  133.99    5.60
   5   5   2  131.79    5.70
   5   5   2  129.29    5.60
   5   5   2  116.29    5.80
   5   5   2  124.49    5.60
   5  -5   2  132.99    5.80
   5  -5   2  127.79    5.60
   5  -5   2  129.89    5.60
   5   5   3   13.90    1.30
   5   5   3   13.30    1.00
   5   5   3   12.10    0.90
   5   5   3   12.80    1.10
   5  -5   3   12.80    1.30
   5  -5   3   12.50    1.00
   5   5   4   42.40    2.20
   5  -5   4   42.20    2.10
   5  -5   4   41.10    2.50
   5   6  -8   24.30    1.60
   5  -6  -8   23.20    1.60
   5  -6  -8   23.50    1.60
   5  -6  -8   20.30    1.70
  -5  -6   8   21.50    1.30
   5  -6  -8   23.50    1.30
   5  -6  -8   23.80    1.40
   5   6  -7    1.30    0.70
   5   6  -7    1.30    1.00
   5   6  -7    1.00    0.70
   5  -6  -7    0.30    0.60
   5  -6  -7    1.60    0.60
   5  -6  -7    1.70    0.60
  -5  -6   7    1.10    3.20
   5   6  -6 2313.67   93.99
   5   6  -6 2189.58   94.19
   5   6  -6 2118.69   93.99
   5  -6  -6 2314.77   94.09
   5  -6  -6 2390.66   94.09
  -5  -6   6 2175.68  102.89
   5  -6  -6 2253.67   94.09
   5  -6  -6 2144.19   94.09
   5  -6  -6 2231.08   94.19
   5   6  -5   68.19    3.10
   5   6  -5   66.29    3.30
   5   6  -5   69.59    3.00
   5   6  -5   61.19    3.10
   5   6  -5   67.39    3.00
   5  -6  -5   68.79    3.10
   5  -6  -5   67.79    3.20
   5  -6  -5   63.39    3.10
   5  -6  -5   68.29    3.10
   5  -6  -5   67.29    3.00
  -5  -6   5   58.29    8.40
   5   6  -4  529.25   21.90
   5   6  -4  497.15   21.90
   5   6  -4  492.75   22.00
   5   6  -4  525.55   21.80
   5   6  -4  527.05   22.00
   5   6  -4  518.85   21.90
   5   6  -4  525.45   21.90
   5   6  -4  493.25   22.10
   5  -6  -4  532.45   22.00
   5  -6  -4  530.65   22.00
   5  -6  -4  524.25   21.90
  -5  -6   4  456.05   29.00
   5  -6  -4  539.35   21.90
   5  -6  -4  499.35   22.00
   5  -6  -4  576.74   21.90
   5   6  -3  118.89    5.00
   5   6  -3  114.09    5.30
   5   6  -3  117.59    5.10
   5   6  -3  120.39    5.10
   5   6  -3  118.29    5.10
   5   6  -3  113.39    5.30
   5  -6  -3  122.09    5.10
   5  -6  -3  118.09    5.10
   5  -6  -3  120.99    5.10
  -5  -6   3  100.29   11.10
   5  -6  -3  116.79    5.10
   5  -6  -3  120.49    5.20
   5  -6  -3  120.59    5.20
   5  -6  -3  110.39    5.10
   5   6  -2 1351.36   57.59
   5   6  -2 1442.46   57.39
   5   6  -2 1369.36   57.39
   5   6  -2 1305.47   57.49
   5   6  -2 1300.97   57.39
   5   6  -2 1429.06   57.29
   5  -6  -2 1336.87   57.39
   5  -6  -2 1396.76   57.39
   5  -6  -2 1325.37   57.29
   5  -6  -2 1385.66   57.39
  -5  -6   2 1257.57   64.39
   5  -6  -2 1390.06   57.39
   5  -6  -2 1425.76   57.39
   5  -6  -2 1388.26   57.49
   5   6  -1   14.20    0.80
   5   6  -1   14.50    0.80
   5   6  -1   16.00    0.90
   5   6  -1   13.90    1.10
   5   6  -1   13.70    1.10
   5   6  -1   13.40    0.90
   5  -6  -1   11.60    0.90
   5  -6  -1   11.70    0.90
   5  -6  -1   15.30    0.90
  -5  -6   1   15.00    4.80
   5  -6  -1   13.60    0.90
   5  -6  -1   13.20    1.00
   5  -6  -1   14.30    0.90
   5  -6  -1   13.10    1.00
   5   6   0    9.00    0.80
   5   6   0    9.30    0.70
   5   6   0    9.40    0.80
   5   6   0    8.20    1.00
   5   6   0   10.10    0.90
   5  -6   0    9.40    1.10
   5  -6   0    9.00    0.90
  -5  -6   0   10.50    4.50
   5  -6   0    8.90    0.90
   5  -6   0    8.60    0.80
   5  -6   0    9.10    0.70
   5   6   1  188.98    8.30
   5   6   1  195.48    8.20
   5   6   1  190.78    8.30
   5   6   1  183.48    8.50
   5   6   1  193.68    8.30
   5  -6   1  192.18    8.30
   5  -6   1  204.48    8.30
   5  -6   1  186.88    8.40
   5   6   2   85.19    4.10
   5   6   2   84.29    4.30
   5   6   2   94.69    4.00
   5   6   2   89.69    4.00
   5  -6   2   89.69    4.20
   5  -6   2   94.09    4.00
   5   6   3  186.28    7.80
   5   6   3  179.08    7.80
   5   6   3  175.98    7.90
   5   6   3  180.88    7.90
   5  -6   3  178.58    8.00
   5  -6   3  183.68    7.80
   5   6   4   15.10    1.30
   5  -6   4   14.40    1.10
   5  -6   4   14.50    1.60
   5   7  -8   25.20    1.70
   5  -7  -8   27.80    1.70
   5  -7  -8   26.50    1.90
   5  -7  -8   27.80    1.50
   5  -7  -8   25.50    1.80
  -5  -7   8   25.50    1.50
   5  -7  -8   29.00    1.50
   5   7  -7    1.90    0.70
   5   7  -7    2.80    0.60
  -5  -7   7    2.40    3.20
   5  -7  -7    1.90    0.70
   5  -7  -7    2.30    0.70
   5  -7  -7    2.50    0.60
   5  -7  -7    1.80    0.60
   5  -7  -7    3.10    0.60
   5   7  -6  564.64   26.00
   5   7  -6  628.54   26.00
   5   7  -6  602.04   26.20
   5  -7  -6  632.34   26.00
  -5  -7   6  616.24   34.10
   5  -7  -6  622.04   26.10
   5  -7  -6  661.23   26.00
   5  -7  -6  577.14   26.10
   5  -7  -6  627.64   26.00
   5   7  -5   41.20    2.00
   5   7  -5   41.20    2.10
   5   7  -5   37.50    2.20
   5   7  -5   42.30    2.10
   5   7  -5   41.30    2.00
   5  -7  -5   43.10    2.10
   5  -7  -5   40.50    2.10
  -5  -7   5   38.70    7.20
   5  -7  -5   38.90    2.10
   5  -7  -5   40.80    2.00
   5   7  -4    0.20    0.50
   5   7  -4    1.20    0.40
   5   7  -4    0.40    0.30
   5   7  -4    1.40    0.50
   5   7  -4    0.60    0.60
   5   7  -4    0.30    0.50
   5   7  -4    0.00    0.40
   5   7  -4    0.20    0.40
   5  -7  -4    0.10    0.40
   5  -7  -4   -0.30    0.50
   5  -7  -4    0.80    0.40
  -5  -7   4    0.20    2.30
   5  -7  -4    0.50    0.50
   5  -7  -4    0.40    0.40
   5   7  -3  161.18    7.50
   5   7  -3  168.08    7.30
   5   7  -3  173.18    7.20
   5   7  -3  164.48    7.50
   5   7  -3  171.58    7.30
   5   7  -3  176.18    7.30
   5  -7  -3  172.88    7.40
   5  -7  -3  183.28    7.30
   5  -7  -3  155.88    7.30
  -5  -7   3  153.08   13.20
   5  -7  -3  171.68    7.40
   5  -7  -3  175.08    7.30
   5  -7  -3  176.68    7.30
   5  -7  -3  166.28    7.30
   5   7  -2 1217.28   48.60
   5   7  -2 1204.78   48.50
   5   7  -2 1166.08   48.50
   5   7  -2 1091.89   48.70
   5   7  -2 1138.89   48.80
   5   7  -2 1186.58   48.60
   5  -7  -2 1160.78   48.60
   5  -7  -2 1111.59   48.50
   5  -7  -2 1163.78   48.50
   5  -7  -2 1172.38   48.70
  -5  -7   2 1104.09   55.69
   5  -7  -2 1177.28   48.50
   5  -7  -2 1220.28   48.60
   5  -7  -2 1043.20   48.50
   5   7  -1   83.29    3.60
   5   7  -1   82.69    3.70
   5   7  -1   76.79    3.80
   5   7  -1   78.49    3.90
   5   7  -1   82.59    3.60
   5   7  -1   82.39    3.70
   5  -7  -1   82.99    3.80
   5  -7  -1   78.09    3.60
   5  -7  -1   84.79    3.70
  -5  -7   1   84.19    8.40
   5  -7  -1   81.59    3.60
   5  -7  -1   82.49    3.60
   5   7   0  279.77   11.70
   5   7   0  274.17   11.60
   5   7   0  264.17   11.90
   5   7   0  272.67   11.60
   5  -7   0  288.37   11.60
  -5  -7   0  266.57   16.60
   5  -7   0  276.77   11.70
   5  -7   0  255.57   11.60
   5  -7   0  269.97   11.60
   5   7   1  344.27   15.00
   5   7   1  359.36   15.10
   5   7   1  359.46   15.10
   5   7   1  334.57   15.30
   5  -7   1  344.17   15.20
   5  -7   1  356.56   15.10
   5  -7   1  378.46   15.00
   5   7   2   11.10    1.30
   5   7   2   10.60    1.00
   5   7   2    9.90    0.90
   5   7   2   11.90    1.10
   5  -7   2    9.10    1.00
   5  -7   2   10.50    0.90
   5   7   3   54.79    2.60
   5   7   3   47.60    2.70
   5  -7   3   53.99    2.50
   5  -7   3   53.69    2.70
   5   7   4    4.40    0.70
   5  -7   4    4.30    0.90
   5  -7   4    5.20    0.70
   5   8  -8    1.00    0.80
   5  -8  -8    1.50    0.50
  -5  -8   8    0.70    0.50
   5  -8  -8    1.50    0.80
   5  -8  -8    0.90    0.60
   5   8  -7   86.59    3.90
   5   8  -7   85.69    4.10
   5  -8  -7   80.19    4.10
   5  -8  -7   92.89    3.90
  -5  -8   7   81.19   13.70
  -5  -8   7   84.09    3.80
   5  -8  -7   89.39    3.90
   5  -8  -7   88.09    4.00
   5  -8  -7   89.99    4.10
   5   8  -6   30.00    1.60
   5   8  -6   29.10    1.90
   5  -8  -6   30.60    1.80
   5  -8  -6   26.80    1.60
  -5  -8   6   30.20    6.50
   5  -8  -6   30.70    1.70
   5  -8  -6   29.00    1.80
   5  -8  -6   30.60    1.70
   5   8  -5 1829.82   79.09
   5   8  -5 1920.81   79.09
   5   8  -5 1852.41   79.39
   5   8  -5 1808.92   79.19
   5   8  -5 1851.21   79.09
   5  -8  -5 1890.51   79.19
   5  -8  -5 1897.91   79.19
   5  -8  -5 1919.81   79.19
   5  -8  -5 2012.30   79.19
   5  -8  -5 1806.42   79.19
  -5  -8   5 1920.51   88.39
   5   8  -4   63.89    2.90
   5   8  -4   61.49    2.90
   5   8  -4   57.89    3.00
   5   8  -4   61.79    2.80
   5   8  -4   63.29    3.00
   5   8  -4   63.29    2.80
   5   8  -4   65.59    2.80
   5   8  -4   60.89    3.10
  -5  -8   4   60.29    8.20
   5  -8  -4   62.89    2.90
   5  -8  -4   58.09    3.20
   5  -8  -4   65.29    2.90
   5  -8  -4   67.49    2.90
   5  -8  -4   60.19    3.00
   5   8  -3 1252.17   55.59
   5   8  -3 1366.96   55.39
   5   8  -3 1329.47   55.29
   5   8  -3 1260.67   55.59
   5   8  -3 1278.07   55.39
   5   8  -3 1323.47   55.39
   5  -8  -3 1273.47   55.39
   5  -8  -3 1328.77   55.39
   5  -8  -3 1361.16   55.39
   5  -8  -3 1427.96   55.39
   5  -8  -3 1225.08   55.39
   5  -8  -3 1306.77   55.39
   5  -8  -3 1446.56   55.69
  -5  -8   3 1252.07   63.19
   5   8  -2  108.99    4.60
   5   8  -2  102.49    4.60
   5   8  -2   99.79    4.80
   5   8  -2  103.09    4.90
   5   8  -2  109.29    4.50
   5   8  -2  104.99    4.60
   5  -8  -2  101.69    4.60
   5  -8  -2  114.79    4.60
   5  -8  -2   93.09    4.60
   5  -8  -2  104.49    4.60
   5  -8  -2  105.29    4.60
  -5  -8   2  105.99   10.00
   5  -8  -2  106.89    4.60
   5   8  -1   80.29    3.50
   5   8  -1   75.89    3.40
   5   8  -1   69.89    3.60
   5   8  -1   79.59    3.70
   5   8  -1   76.29    3.50
   5  -8  -1   76.99    3.40
   5  -8  -1   81.09    3.50
   5  -8  -1   78.69    3.40
   5  -8  -1   75.99    3.60
   5  -8  -1   70.69    3.40
   5   8   0  537.75   23.00
   5   8   0  557.44   23.00
   5   8   0  543.15   23.00
   5   8   0  530.35   23.30
   5  -8   0  542.45   23.10
   5  -8   0  522.65   23.00
   5  -8   0  578.74   23.00
   5  -8   0  535.25   23.00
   5   8   1   12.50    1.30
   5   8   1   12.80    1.10
   5   8   1   12.70    1.10
   5   8   1   14.00    1.00
   5  -8   1   13.30    1.10
   5  -8   1   13.80    0.90
   5  -8   1   12.40    1.30
   5  -8   1   13.20    1.00
   5   8   2    0.00    0.70
   5   8   2    1.10    0.50
   5   8   2    0.80    0.70
   5   8   2    0.50    0.60
   5  -8   2    0.40    0.60
   5   8   3  268.87   11.10
   5   8   3  233.18   11.10
   5  -8   3  264.07   11.10
   5  -8   3  265.27   11.20
   5   8   4   23.20    1.40
   5  -8   4   21.40    1.20
   5  -8   4   20.50    1.70
   5   9  -8   15.50    1.40
   5  -9  -8   16.40    1.20
   5  -9  -8   18.80    1.20
  -5  -9   8   14.00    1.10
   5  -9  -8   15.20    1.40
   5   9  -7   12.50    1.30
   5   9  -7   10.90    1.00
   5  -9  -7   12.50    1.20
   5  -9  -7   11.30    1.20
  -5  -9   7    9.30    1.00
  -5  -9   7   10.80    5.10
   5  -9  -7   11.40    1.30
   5  -9  -7   13.10    1.10
   5  -9  -7   11.70    1.00
   5   9  -6   25.90    1.80
   5   9  -6   26.40    1.40
   5  -9  -6   26.00    1.60
  -5  -9   6   27.20    6.10
   5  -9  -6   27.10    1.50
   5  -9  -6   24.90    1.50
   5  -9  -6   27.90    1.50
   5  -9  -6   24.10    1.70
   5   9  -5   10.00    1.00
   5   9  -5    8.10    1.20
   5   9  -5    7.70    1.10
   5   9  -5   10.20    0.80
   5   9  -5    9.00    1.10
  -5  -9   5    9.70    5.20
   5  -9  -5    6.80    1.10
   5  -9  -5    8.50    1.00
   5  -9  -5    9.00    0.90
   5  -9  -5    8.40    0.90
   5   9  -4   21.40    1.50
   5   9  -4   21.70    1.50
   5   9  -4   22.20    1.60
   5   9  -4   23.50    1.20
   5   9  -4   22.90    1.40
   5   9  -4   22.10    1.20
   5   9  -4   21.80    1.30
   5   9  -4   23.20    1.10
   5  -9  -4   20.00    1.40
   5  -9  -4   20.30    1.30
   5  -9  -4   20.50    1.40
   5  -9  -4   22.80    1.40
  -5  -9   4   22.50    5.80
   5  -9  -4   22.90    1.30
   5   9  -3  128.49    6.00
   5   9  -3  139.89    5.70
   5   9  -3  128.19    5.80
   5   9  -3  132.99    5.80
   5   9  -3  134.49    6.00
   5   9  -3  132.09    5.70
   5  -9  -3  129.79    5.90
   5  -9  -3  145.49    5.80
   5  -9  -3  132.69    5.80
   5  -9  -3  128.79    5.80
   5  -9  -3  132.29    5.80
   5  -9  -3  137.09    5.80
  -5  -9   3  135.49   11.90
   5  -9  -3  119.29    5.80
   5   9  -2  882.21   36.50
   5   9  -2  875.51   36.50
   5   9  -2  913.61   36.50
   5   9  -2  830.52   36.70
   5   9  -2  874.81   36.80
   5   9  -2  867.51   36.50
   5  -9  -2  905.71   36.50
  -5  -9   2  936.61   44.00
   5  -9  -2  845.92   36.60
   5  -9  -2  937.51   36.60
   5  -9  -2  761.22   36.50
   5  -9  -2  810.02   36.50
   5  -9  -2  828.22   36.50
   5   9  -1   53.39    2.50
   5   9  -1   51.89    2.50
   5   9  -1   50.79    2.70
   5   9  -1   51.39    2.80
   5   9  -1   52.89    2.50
   5  -9  -1   55.19    2.50
   5  -9  -1   53.09    2.50
   5  -9  -1   58.49    2.50
  -5  -9   1   55.39    6.90
   5  -9  -1   53.49    2.60
   5   9   0  125.99    5.60
   5   9   0  129.39    5.60
   5   9   0  128.89    5.60
   5   9   0  122.99    5.90
   5  -9   0  137.29    5.60
   5  -9   0  125.89    5.60
   5  -9   0  122.79    5.60
   5  -9   0  128.39    5.70
   5   9   1  406.86   17.80
   5   9   1  416.66   17.40
   5   9   1  406.36   17.50
   5   9   1  434.16   17.50
   5  -9   1  413.86   17.60
   5  -9   1  422.16   17.50
   5  -9   1  378.96   17.50
   5   9   2   60.49    2.90
   5   9   2   61.09    2.90
   5   9   2   56.79    2.70
   5   9   2   56.89    3.10
   5  -9   2   58.89    2.80
   5  -9   2   60.19    2.90
   5   9   3   19.50    1.90
   5   9   3   25.20    1.60
   5  -9   3   24.60    1.60
   5  -9   3   25.30    1.50
   5  -9   4   79.49    3.50
   5  -9   4   79.39    4.20
   5  10  -8    0.10    0.80
   5 -10  -8    0.80    0.50
   5 -10  -8    0.60    0.80
   5 -10  -8    1.40    0.60
   5  10  -7    1.40    0.80
   5  10  -7    1.20    0.60
   5 -10  -7    0.60    0.50
   5 -10  -7    1.90    0.80
   5 -10  -7    1.60    0.60
  -5 -10   7    0.50    0.50
  -5 -10   7    0.50    3.10
   5 -10  -7    1.30    0.80
   5  10  -6   72.09    3.70
   5  10  -6   71.29    3.40
  -5 -10   6   68.69    3.30
  -5 -10   6   77.29    9.00
   5 -10  -6   66.89    3.80
   5 -10  -6   73.69    3.40
   5 -10  -6   75.09    3.40
   5 -10  -6   75.99    3.50
   5 -10  -6   76.79    3.40
   5  10  -5   17.70    1.00
   5  10  -5   17.10    1.50
   5  10  -5   16.30    2.20
   5  10  -5   14.80    2.30
   5  10  -5   17.70    1.10
   5 -10  -5   16.60    1.20
   5 -10  -5   16.00    1.20
   5 -10  -5   14.70    1.40
   5 -10  -5   17.00    1.30
   5 -10  -5   16.60    1.20
  -5 -10   5   19.40    5.60
   5  10  -4    1.50    0.70
   5  10  -4    1.50    0.30
   5  10  -4    1.80    0.60
   5  10  -4    0.90    0.60
   5  10  -4    1.00    0.60
   5  10  -4    1.30    0.40
   5  10  -4    1.20    0.40
   5  10  -4    0.50    0.80
   5 -10  -4    1.00    0.60
   5 -10  -4    0.80    0.60
   5 -10  -4    1.30    0.40
   5 -10  -4    1.50    0.50
   5 -10  -4    1.00    0.50
   5  10  -3   33.60    2.00
   5  10  -3   35.00    1.80
   5  10  -3   35.60    1.70
   5  10  -3   35.40    1.70
   5  10  -3   37.90    1.70
   5  10  -3   35.90    2.10
   5 -10  -3   33.60    1.80
   5 -10  -3   34.50    1.90
   5 -10  -3   35.20    1.90
   5 -10  -3   36.00    1.80
  -5 -10   3   37.60    6.60
   5  10  -2   59.09    2.80
   5  10  -2   63.19    3.10
   5  10  -2   61.59    2.70
   5  10  -2   59.49    2.80
   5  10  -2   61.19    2.70
  -5 -10   2   63.69    7.80
   5 -10  -2   61.69    2.80
   5 -10  -2   60.89    2.80
   5 -10  -2   53.99    2.80
   5 -10  -2   56.99    2.90
   5  10  -1   10.20    0.90
   5  10  -1   10.90    0.90
   5  10  -1   11.20    1.20
   5  10  -1   11.50    0.90
  -5 -10   1   10.20    4.40
   5 -10  -1   13.60    1.00
   5 -10  -1   12.20    0.90
   5 -10  -1   12.40    0.90
   5 -10  -1    9.60    1.00
   5  10   0   37.80    1.90
   5  10   0   37.80    1.90
   5  10   0   37.70    2.00
   5  10   0   37.60    2.30
   5 -10   0   40.40    2.00
   5 -10   0   40.20    2.10
   5 -10   0   37.10    1.90
   5  10   1   57.89    2.70
   5  10   1   58.69    2.80
   5  10   1   58.19    2.80
   5  10   1   55.49    3.00
   5 -10   1   56.39    2.90
   5 -10   1   58.29    2.70
   5 -10   1   57.29    2.90
   5  10   2   98.99    4.40
   5  10   2   91.79    4.70
   5  10   2  101.59    4.50
   5  10   2  101.49    4.50
   5 -10   2   99.29    4.60
   5 -10   2  100.29    4.40
   5  10   3  102.49    4.60
   5 -10   3  101.39    4.70
   5 -10   3  101.79    4.50
   5  11  -7   10.90    1.40
   5 -11  -7   11.30    1.10
  -5 -11   7    9.80    1.00
   5 -11  -7   11.20    0.90
   5 -11  -7   11.40    1.20
   5 -11  -7   11.30    1.50
  -5 -11   7    8.40    5.30
   5  11  -6   18.10    1.60
   5  11  -6   17.60    1.10
   5  11  -6   18.20    1.10
  -5 -11   6   19.10    5.50
   5 -11  -6   15.40    1.50
   5 -11  -6   16.30    1.40
  -5 -11   6   15.70    1.10
   5 -11  -6   18.90    1.20
   5 -11  -6   16.10    1.20
   5  11  -5   33.40    1.80
   5  11  -5   32.60    2.10
   5  11  -5   33.50    1.60
  -5 -11   5   34.10    6.60
  -5 -11   5   27.10    1.60
   5 -11  -5   32.00    1.70
   5 -11  -5   31.00    1.70
   5 -11  -5   32.90    1.80
   5 -11  -5   29.10    1.90
   5  11  -4    1.10    0.90
   5  11  -4    0.60    0.70
   5  11  -4   -0.40    0.60
   5  11  -4    0.80    0.40
  -5 -11   4    1.10    2.80
   5 -11  -4    1.80    0.70
   5 -11  -4    0.40    0.40
   5 -11  -4    1.40    0.70
   5  11  -3    7.70    1.20
   5  11  -3    9.40    0.70
   5  11  -3    9.20    0.70
   5  11  -3   10.70    0.80
   5  11  -3    9.20    0.90
   5  11  -3    9.60    1.20
  -5 -11   3    9.80    4.70
   5 -11  -3    9.40    1.10
   5 -11  -3    9.20    1.00
   5 -11  -3   10.00    0.90
   5 -11  -3   11.00    0.90
   5  11  -2    9.80    0.80
   5  11  -2    9.20    0.90
   5  11  -2    8.60    0.80
   5  11  -2    8.60    1.20
  -5 -11   2   10.10    4.70
   5 -11  -2    7.80    0.90
   5 -11  -2    8.20    0.90
   5  11  -1   28.70    1.50
   5  11  -1   29.40    1.90
   5  11  -1   29.70    1.60
   5  11  -1   28.40    1.50
   5 -11  -1   30.20    1.70
  -5 -11   1   29.60    5.80
   5 -11  -1   29.60    1.60
   5 -11  -1   28.10    1.60
   5  11   0    4.10    0.60
   5  11   0    4.90    0.80
   5  11   0    5.10    0.70
   5  11   0    4.10    0.90
   5 -11   0    3.90    0.60
   5 -11   0    4.60    0.70
   5 -11   0    5.20    1.00
   5  11   1  926.51   39.30
   5  11   1  938.41   39.40
   5  11   1  959.30   39.40
   5  11   1  916.31   39.70
   5 -11   1  898.11   39.40
   5 -11   1  956.40   39.40
   5 -11   1  946.31   39.50
   5  11   2    3.80    1.10
   5  11   2    3.70    0.70
   5  11   2    4.60    0.70
   5  11   2    5.20    0.90
   5 -11   2    4.20    0.70
  -5 -11  -2    3.30    0.50
   5 -11   2    3.50    0.70
   5  11   3    0.70    0.70
   5 -11   3    1.50    0.70
   5 -11   3    1.10    0.60
   5  12  -7    4.90    0.90
   5 -12  -7    5.60    0.90
  -5 -12   7    3.30    4.00
  -5 -12   7    3.00    0.70
   5 -12  -7    5.10    0.90
   5 -12  -7    5.60    0.70
   5  12  -6   12.40    1.00
   5  12  -6   14.30    1.00
   5  12  -6   14.90    1.60
   5 -12  -6   16.70    1.20
   5 -12  -6   14.80    1.90
  -5 -12   6   15.10    5.20
  -5 -12   6   11.60    1.10
   5 -12  -6   13.00    1.40
   5 -12  -6   13.10    1.00
   5  12  -5    1.20    0.70
   5  12  -5    1.10    0.40
   5 -12  -5    0.60    0.40
  -5 -12   5    1.30    2.90
   5 -12  -5    0.30    0.50
   5 -12  -5    1.60    0.70
   5  12  -4  410.86   18.00
   5  12  -4  446.66   17.80
   5  12  -4  415.36   18.10
   5  12  -4  423.96   17.70
   5 -12  -4  418.76   17.80
   5 -12  -4  388.36   17.90
  -5 -12   4  462.45   25.60
   5 -12  -4  356.86   17.80
   5 -12  -4  450.35   17.80
   5  12  -3    1.00    0.40
   5  12  -3    1.10    1.00
   5  12  -3    1.40    0.40
   5 -12  -3    0.70    0.90
   5 -12  -3    1.10    0.40
  -5 -12   3    0.60    2.80
   5 -12  -3    1.40    0.50
   5 -12  -3    0.50    0.70
   5  12  -2   52.49    2.50
   5  12  -2   51.29    2.50
   5  12  -2   51.69    2.50
   5 -12  -2   54.89    2.50
   5 -12  -2   50.99    2.60
  -5 -12   2   54.99    7.60
   5  12  -1   13.20    1.00
   5  12  -1   14.20    1.00
   5  12  -1   14.40    1.00
   5  12  -1   13.90    1.40
   5 -12  -1   14.90    1.10
   5 -12  -1   15.10    1.20
   5 -12  -1   14.70    1.10
  -5 -12   1   14.70    5.30
   5  12   0  119.89    5.80
   5  12   0  123.39    5.40
   5  12   0  121.69    5.40
   5  12   0  130.79    5.70
   5 -12   0  123.19    5.40
   5 -12   0  124.89    5.60
   5 -12   0  120.09    5.50
   5  12   1   42.30    2.10
   5  12   1   40.60    2.00
   5  12   1   35.60    2.40
   5  12   1   41.40    2.20
   5 -12   1   39.90    2.10
   5 -12   1   41.30    2.20
   5 -12   1   40.60    2.20
   5  12   2    1.70    1.00
   5  12   2    3.00    0.90
   5  12   2    1.60    0.70
   5 -12   2    2.20    0.70
  -5 -12  -2    1.80    0.40
   5 -12   2    3.10    1.00
   5  12   3   99.59    4.40
   5 -12   3   95.19    4.50
   5 -12   3   99.99    4.40
  -5  13   7  186.48    8.40
   5  13  -7  195.48    8.70
   5 -13  -7  196.88    8.50
   5 -13  -7  210.28    8.50
   5  13  -6    7.70    1.40
   5 -13  -6    7.80    1.30
   5 -13  -6    7.50    1.10
   5 -13  -6    7.00    0.80
  -5 -13   6    7.90    4.80
   5 -13  -6    8.10    1.00
   5  13  -5  204.08    8.90
   5  13  -5  208.38    9.30
   5 -13  -5  216.68    9.00
   5 -13  -5  186.08    9.20
   5 -13  -5  223.88    9.00
   5 -13  -5  197.48    9.20
  -5 -13   5  226.78   15.90
   5  13  -4    2.30    1.20
   5  13  -4    2.00    0.80
   5  13  -4    1.90    0.50
   5  13  -4    2.50    0.80
   5  13  -4    1.40    0.90
   5 -13  -4    2.30    0.60
  -5 -13   4    2.30    3.20
   5 -13  -4    2.70    0.80
   5 -13  -4    1.60    0.50
   5  13  -3  168.68    7.60
   5  13  -3  165.38    7.50
   5  13  -3  164.98    7.20
   5  13  -3  159.28    7.30
   5 -13  -3  179.28    7.30
   5 -13  -3  155.38    7.40
  -5 -13   3  179.78   13.80
   5 -13  -3  162.58    7.20
   5  13  -2    6.70    1.20
   5  13  -2    8.20    1.10
   5  13  -2    7.90    0.90
   5  13  -2    7.80    0.80
   5 -13  -2    8.60    1.00
   5 -13  -2    8.70    1.00
  -5 -13   2    8.00    4.90
   5  13  -1  127.59    5.70
   5  13  -1  130.19    6.10
   5  13  -1  125.09    5.70
  -5 -13   1  132.39   11.80
   5 -13  -1  135.89    5.80
   5 -13  -1  130.49    5.70
   5 -13  -1  133.39    5.90
   5  13   0  479.75   20.80
   5  13   0  500.55   20.90
   5  13   0  481.65   21.20
   5  13   0  494.15   20.90
   5 -13   0  507.05   20.90
   5 -13   0  490.75   20.90
   5 -13   0  490.85   21.00
   5  13   1   77.59    3.50
   5  13   1   72.49    4.00
   5  13   1   79.69    3.70
   5  13   1   81.19    3.60
   5 -13   1   76.79    3.80
   5 -13   1   85.69    3.70
   5 -13   1   79.09    3.70
   5  13   2    3.90    1.10
   5  13   2    5.20    0.80
   5 -13   2    4.70    0.70
  -5 -13  -2    4.80    0.70
   5 -13   2    5.20    0.80
   5  14  -6   69.89    3.60
  -5 -14   6   68.19    8.60
   5 -14  -6   70.69    3.30
   5 -14  -6   81.49    3.50
   5  14  -5    5.30    1.10
   5  14  -5    6.20    0.80
   5 -14  -5    6.50    1.00
   5 -14  -5    5.50    1.00
   5 -14  -5    6.60    0.80
  -5 -14   5    6.30    4.60
   5  14  -4    4.40    0.90
   5  14  -4    4.60    1.00
   5  14  -4    4.20    0.60
   5 -14  -4    4.80    0.90
   5 -14  -4    3.50    0.60
  -5 -14   4    5.30    4.60
   5 -14  -4    4.90    0.60
   5  14  -3  142.69    6.70
   5  14  -3  142.79    6.30
   5  14  -3  143.39    6.70
   5 -14  -3  148.69    6.40
  -5 -14   3  153.58   12.80
   5  14  -2  583.54   24.20
   5  14  -2  552.64   24.20
   5  14  -2  570.94   24.60
  -5 -14   2  585.14   31.80
   5 -14  -2  590.24   24.30
   5 -14  -2  552.64   24.30
   5  14  -1    0.00    0.60
   5  14  -1    0.50    0.60
   5  14  -1    0.40    0.50
   5  14  -1    0.30    0.80
   5 -14  -1    0.90    0.60
   5 -14  -1    1.30    0.70
  -5 -14   1    0.50    3.60
   5 -14  -1    1.00    0.60
   5  14   0  109.39    4.70
   5  14   0  106.89    4.80
   5  14   0  106.59    5.20
   5  14   0  100.79    4.70
   5 -14   0  105.19    4.90
   5 -14   0  110.79    4.80
   5 -14   0  107.89    4.90
   5  14   1   29.40    1.60
   5  14   1   30.10    1.90
   5  14   1   27.10    2.10
   5 -14   1   29.80    1.70
   5 -14   1   29.00    2.00
   5 -14   1   28.30    1.80
   5  14   2   15.20    1.10
   5  14   2   13.10    1.60
   5 -14   2   15.40    1.30
   5 -14   2   16.40    1.10
  -5 -14  -2   14.90    1.10
   5  15  -6  196.18    8.70
   5 -15  -6  182.88    8.10
   5 -15  -6  187.88    8.10
   5  15  -5   21.60    1.90
  -5 -15   5   21.70    5.90
   5 -15  -5   20.00    1.90
   5 -15  -5   23.10    1.30
   5 -15  -5   22.30    1.50
   5  15  -4    0.30    0.90
   5  15  -4    0.80    0.50
   5  15  -4   -0.50    0.90
  -5 -15   4    0.00    2.70
   5 -15  -4    0.30    0.50
   5 -15  -4    2.20    1.00
   5 -15  -4    0.20    0.60
   5  15  -3  161.68    7.30
   5  15  -3  166.98    7.60
   5  15  -3  163.48    7.60
   5 -15  -3  172.58    7.30
  -5 -15   3  175.98   15.20
   5  15  -2  159.78    7.00
   5  15  -2  163.88    7.30
   5 -15  -2  148.69    7.00
  -5 -15   2  164.48   14.20
   5 -15  -2  166.48    7.00
   5  15  -1  105.89    5.00
   5  15  -1  100.39    4.60
   5  15  -1   99.89    4.50
   5 -15  -1   98.69    4.60
   5 -15  -1  107.79    4.70
   5 -15  -1  101.19    4.60
  -5 -15   1  100.89   11.40
   5  15   0    0.70    0.70
   5  15   0    1.10    0.50
   5  15   0    0.70    1.00
   5 -15   0    0.10    1.20
   5 -15   0    0.00    0.70
   5 -15   0    0.30    0.60
   5  15   1   12.40    1.00
   5  15   1   10.80    1.60
   5 -15   1   11.70    1.20
  -5 -15  -1   13.10    0.80
   5 -15   1   12.60    1.10
   5 -15   1   10.50    1.50
   5  15   2    0.70    1.00
   5  15   2    0.10    0.50
  -5 -15  -2   -0.10    0.40
   5 -15   2    0.60    0.70
   5 -15   2    0.40    0.50
   5  16  -5   12.90    1.50
  -5 -16   5   11.80    5.40
   5 -16  -5   11.00    1.10
   5 -16  -5   12.80    1.00
   5  16  -4  180.18    8.20
   5  16  -4  189.38    8.30
   5 -16  -4  192.58    8.00
   5 -16  -4  175.48    7.90
  -5 -16   4  180.78   14.50
   5  16  -3  144.29    6.50
   5  16  -3  130.89    6.20
   5  16  -3  147.19    6.60
   5 -16  -3  147.49    6.30
  -5 -16   3  140.49   12.70
   5  16  -2  154.48    6.90
   5  16  -2  154.78    6.90
   5  16  -2  143.89    6.60
   5 -16  -2  155.98    6.60
  -5 -16   2  148.79   13.40
   5 -16  -2  142.89    6.60
   5  16  -1   83.59    4.20
   5  16  -1   83.49    3.90
   5  16  -1   89.99    4.30
   5 -16  -1   87.79    4.00
   5 -16  -1   82.29    4.00
   5  16   0   32.60    2.20
   5  16   0   30.10    1.70
   5 -16   0   29.70    1.90
   5 -16   0   33.90    1.80
   5 -16   0   32.40    2.80
   5  16   1   47.50    3.00
   5  16   1   46.00    2.30
   5 -16   1   46.10    2.50
   5 -16   1   53.39    2.40
  -5 -16  -1   52.89    2.30
   5  17  -5    7.10    1.30
   5 -17  -5    7.20    1.00
   5 -17  -5    8.20    1.10
   5  17  -4    4.40    0.90
   5 -17  -4    4.00    0.70
  -5 -17   4    3.30    3.60
   5  17  -3   23.40    1.90
   5  17  -3   22.50    1.70
   5 -17  -3   23.40    1.50
  -5 -17   3   20.70    6.40
   5  17  -2   53.29    2.90
   5  17  -2   57.19    2.90
  -5 -17   2   44.70    8.60
   5 -17  -2   54.59    2.70
   5  17  -1  446.26   17.70
   5  17  -1  404.26   17.60
   5 -17  -1  378.96   17.40
   5  17   0   48.90    2.60
   5 -17   0   46.40    2.50
   5 -17   0   41.10    2.40
   5 -17   0   47.00    2.40
   5  18  -4    6.20    0.90
   5 -18  -4    6.90    1.10
   5  18  -3   27.50    1.90
   5  18  -3   28.20    2.10
   5 -18  -3   28.80    1.70
   5  18  -2    7.40    1.80
   5  18  -2    5.20    1.70
   5 -18  -2    4.70    0.80
   5  18  -1   55.09    3.00
   5 -18  -1   56.39    2.80
   6   0  -8  389.76   15.90
   6   0  -8  377.76   15.90
   6   0  -8  344.77   15.80
   6   0  -7    0.30    0.60
   6   0  -7    0.30    0.60
   6   0  -6    4.70    0.70
   6   0  -6    5.10    0.80
   6   0  -5    0.10    0.50
   6   0  -5   -0.10    0.50
   6   0  -5    0.50    0.50
   6   0  -5    0.50    0.50
   6   0  -4  579.14   25.30
   6   0  -4  614.54   25.40
   6   0  -4  587.84   25.40
   6   0  -4  620.24   25.30
   6   0  -4  593.14   25.40
   6   0  -3    2.20    0.60
   6   0  -3    2.60    0.60
   6   0  -2 2016.60   78.69
   6   0  -2 1856.21   78.69
   6   0  -2 1876.91   78.69
   6   0  -2 1875.91   78.69
   6   0  -2 1932.21   78.69
   6   0  -2 1738.63   78.69
   6   0  -2 1807.32   78.59
   6   0  -1    0.90    0.50
   6   0  -1    1.10    0.60
   6   0  -1    1.40    0.80
   6   0   0  106.19    4.70
   6   0   0  108.99    4.70
   6   0   0  106.69    4.80
   6   0   0  111.89    4.80
   6   0   0  105.39    4.80
   6   0   0  107.39    4.90
   6   0   0  105.59    4.70
   6   0   1    0.50    0.60
   6   0   1    0.80    0.50
   6   0   1    0.00    0.30
   6   0   1    0.10    0.50
   6   0   2    1.50    0.50
   6   0   2    1.90    0.60
   6   0   2    2.10    0.60
   6   0   2    2.00    0.70
   6   0   3    0.60    0.70
   6   0   3    0.30    0.50
   6   1  -8  183.98    8.40
   6   1  -8  206.38    8.50
   6   1  -8  199.58    8.50
   6  -1  -8  209.18    8.50
   6  -1  -8  214.18    8.50
   6  -1  -8  185.88    8.50
  -6  -1   8  165.08   15.10
   6   1  -7  249.08   10.70
   6   1  -7  242.28   10.70
   6  -1  -7  245.78   10.70
   6  -1  -7  247.78   10.70
   6   1  -6   63.79    3.10
   6   1  -6   65.09    3.10
   6  -1  -6   66.79    3.10
   6  -1  -6   65.39    3.10
   6   1  -5  187.68    8.30
   6   1  -5  192.68    8.30
   6   1  -5  187.58    8.30
   6   1  -5  192.98    8.40
   6  -1  -5  193.48    8.40
   6  -1  -5  190.68    8.30
   6  -1  -5  193.98    8.30
   6  -1  -5  189.08    8.30
   6   1  -4   24.80    1.30
   6   1  -4   23.10    1.30
   6   1  -4   23.50    1.50
   6   1  -4   23.30    1.30
   6   1  -4   22.10    1.40
   6   1  -4   24.10    1.40
   6   1  -4   24.90    1.40
   6  -1  -4   22.00    1.40
   6  -1  -4   25.10    1.50
   6  -1  -4   21.80    1.40
   6  -1  -4   25.40    1.30
   6  -1  -4   21.30    1.40
   6   1  -3  312.37   13.60
   6   1  -3  328.27   13.60
   6   1  -3  317.07   13.60
   6   1  -3  323.27   13.70
   6   1  -3  316.97   13.60
   6   1  -3  317.27   13.80
   6   1  -3  331.77   13.70
   6   1  -3  307.27   13.70
   6  -1  -3  308.67   13.70
   6  -1  -3  325.67   13.70
   6  -1  -3  327.77   13.70
   6  -1  -3  305.37   13.60
   6  -1  -3  323.77   13.60
   6  -1  -3  314.87   13.60
   6  -1  -3  329.87   13.60
   6  -1  -3  323.97   13.70
   6   1  -2   20.90    1.10
   6   1  -2   22.30    1.40
   6   1  -2   19.10    1.20
   6   1  -2   18.30    1.30
   6   1  -2   19.80    1.20
   6   1  -2   19.50    1.30
   6   1  -2   21.00    1.30
   6  -1  -2   17.40    1.20
   6  -1  -2   20.60    1.10
   6  -1  -2   19.60    1.20
   6  -1  -2   19.30    1.30
   6  -1  -2   19.70    1.30
   6  -1  -2   21.80    1.30
   6  -1  -2   18.30    1.20
   6   1  -1 2363.46   98.49
   6   1  -1 2373.46   98.59
   6   1  -1 2425.36   98.69
   6   1  -1 2260.27   98.49
   6   1  -1 2310.27   98.49
   6   1  -1 2486.55   98.59
   6   1  -1 2309.57   98.49
   6  -1  -1 2360.66   98.69
   6  -1  -1 2345.57   98.49
   6  -1  -1 2354.26   98.49
   6  -1  -1 2299.17   98.49
   6  -1  -1 2258.77   98.39
   6   1   0    1.30    0.50
   6   1   0    1.10    0.50
   6   1   0    0.10    0.50
   6   1   0    0.20    0.30
   6   1   0    0.20    0.70
   6   1   0    1.10    0.50
   6   1   0    0.60    0.50
   6  -1   0    0.60    0.50
   6  -1   0    1.60    0.60
   6  -1   0    0.70    0.50
   6  -1   0    1.50    0.50
   6  -1   0   -0.10    0.40
   6  -1   0    1.20    0.40
   6  -1   0    1.50    0.70
   6   1   1    1.50    0.80
   6   1   1    0.20    0.50
   6   1   1    0.40    0.40
   6   1   1    0.00    0.50
   6  -1   1    1.40    0.60
   6  -1   1    0.00    0.50
   6  -1   1    0.80    0.50
   6  -1   1    0.40    0.30
   6   1   2    1.90    0.60
   6   1   2    1.40    0.60
   6   1   2    1.20    0.50
   6   1   2    1.20    0.70
   6  -1   2    1.10    0.50
   6  -1   2    1.70    0.60
   6  -1   2    1.50    0.70
   6  -1   2    1.40    0.40
   6   1   3    1.20    0.70
   6   1   3    2.10    0.50
   6  -1   3    2.30    0.60
   6   2  -8   22.10    1.50
   6   2  -8   21.50    1.60
   6   2  -8   20.50    1.50
  -6  -2   8   20.10    7.60
   6  -2  -8   21.50    1.50
   6  -2  -8   24.10    1.50
   6  -2  -8   21.10    1.60
   6   2  -7   81.49    4.00
   6   2  -7   81.99    3.80
   6   2  -7   81.79    3.90
   6  -2  -7   76.19    3.90
   6  -2  -7   84.39    3.70
   6  -2  -7   81.89    3.80
   6  -2  -7   82.89    3.80
   6   2  -6    0.60    0.60
   6   2  -6   -0.60    0.50
   6   2  -6    0.40    0.80
   6  -2  -6    0.60    0.70
   6  -2  -6   -0.20    0.40
   6  -2  -6    0.60    0.50
   6  -2  -6    1.00    0.60
   6   2  -5   58.69    2.90
   6   2  -5   59.09    2.80
   6   2  -5   58.19    2.80
   6   2  -5   59.09    2.80
   6  -2  -5   56.59    2.80
   6  -2  -5   59.69    2.90
   6  -2  -5   59.79    2.90
   6  -2  -5   59.29    2.70
   6  -2  -5   58.29    2.70
   6   2  -4  302.47   13.40
   6   2  -4  311.77   13.30
   6   2  -4  317.07   13.30
   6   2  -4  312.17   13.40
   6   2  -4  305.07   13.50
   6   2  -4  316.17   13.30
   6   2  -4  317.77   13.40
   6  -2  -4  311.57   13.40
   6  -2  -4  305.47   13.40
   6  -2  -4  320.27   13.40
   6  -2  -4  317.67   13.40
   6  -2  -4  317.27   13.30
   6   2  -3   12.70    1.10
   6   2  -3   13.20    0.90
   6   2  -3   13.20    1.00
   6   2  -3   13.50    1.00
   6   2  -3   12.90    1.10
   6   2  -3   12.70    1.10
   6   2  -3   12.40    0.90
   6  -2  -3   12.20    1.00
   6  -2  -3   14.10    0.90
   6  -2  -3   13.60    1.00
   6  -2  -3   12.80    1.00
   6  -2  -3   13.10    1.10
   6  -2  -3   12.30    0.80
   6   2  -2   48.30    2.50
   6   2  -2   53.59    2.40
   6   2  -2   52.29    2.50
   6   2  -2   53.29    2.50
   6   2  -2   53.89    2.40
   6   2  -2   52.39    2.50
   6   2  -2   52.69    2.60
   6  -2  -2   52.09    2.60
   6  -2  -2   48.30    2.40
   6  -2  -2   48.60    2.40
   6  -2  -2   52.09    2.50
   6   2  -1 3346.67  138.69
   6   2  -1 3331.27  138.59
   6   2  -1 3327.77  138.59
   6  -2  -1 3199.78  138.59
   6  -2  -1 3239.68  138.59
   6  -2  -1 3370.16  138.79
   6   2   0  408.96   16.60
   6   2   0  404.96   16.60
   6   2   0  380.56   16.80
   6   2   0  383.06   16.60
   6   2   0  400.56   16.60
   6   2   0  382.36   16.60
   6  -2   0  363.56   16.60
   6  -2   0  396.76   16.60
   6  -2   0  397.66   16.70
   6  -2   0  388.86   16.50
   6  -2   0  390.26   16.70
   6   2   1  157.18    6.40
   6   2   1  143.09    6.50
   6   2   1  142.59    6.60
   6   2   1  153.58    6.40
   6  -2   1  139.69    6.40
   6  -2   1  140.09    6.50
   6  -2   1  146.89    6.50
   6  -2   1  146.19    6.40
   6  -2   1  151.38    6.40
   6   2   2   27.50    1.40
   6   2   2   25.70    1.40
   6   2   2   27.80    1.50
   6   2   2   23.00    1.60
   6  -2   2   24.60    1.40
   6  -2   2   23.90    1.80
   6  -2   2   23.40    1.50
   6  -2   2   26.50    1.40
   6  -2   2   20.30    1.50
   6   2   3    1.60    0.50
   6   2   3    1.70    0.70
   6  -2   3    2.60    0.60
   6   3  -8   11.60    1.30
   6   3  -8   11.30    1.20
   6   3  -8    9.50    1.20
  -6  -3   8   10.40    7.00
   6  -3  -8   10.60    1.20
   6  -3  -8    8.90    1.30
   6  -3  -8   11.30    1.30
   6  -3  -8   11.40    1.20
   6   3  -7    2.50    0.70
   6   3  -7    2.30    0.70
   6   3  -7    1.80    0.70
   6  -3  -7    3.00    0.70
  -6  -3   7    3.00    3.90
   6  -3  -7    3.60    0.80
   6  -3  -7    3.70    0.60
   6  -3  -7    2.90    0.70
   6   3  -6   17.30    1.40
   6   3  -6   16.30    1.30
   6   3  -6   18.50    1.30
   6  -3  -6   19.30    1.20
   6  -3  -6   18.70    1.30
   6  -3  -6   19.60    1.30
   6  -3  -6   17.60    1.30
   6   3  -5   16.90    1.20
   6   3  -5   18.30    1.20
   6   3  -5   17.70    1.20
   6   3  -5   18.10    1.10
   6   3  -5   16.10    1.30
   6   3  -5   16.70    1.30
   6  -3  -5   16.90    1.20
   6  -3  -5   15.80    1.10
   6  -3  -5   17.40    1.10
   6  -3  -5   17.10    1.20
   6  -3  -5   18.30    1.30
   6   3  -4   20.60    1.10
   6   3  -4   17.90    1.40
   6   3  -4   21.20    1.30
   6   3  -4   20.10    1.40
   6   3  -4   21.30    1.30
   6   3  -4   21.20    1.20
   6   3  -4   20.40    1.20
   6  -3  -4   19.80    1.30
   6  -3  -4   22.10    1.40
   6  -3  -4   20.00    1.20
   6  -3  -4   18.20    1.20
   6  -3  -4   19.90    1.20
   6  -3  -4   19.80    1.30
   6   3  -3   77.49    3.70
   6   3  -3   78.19    3.50
   6   3  -3   73.19    3.60
   6   3  -3   77.89    3.40
   6   3  -3   77.99    3.50
   6   3  -3   79.29    3.60
   6  -3  -3   77.09    3.60
   6  -3  -3   79.19    3.60
   6  -3  -3   74.39    3.40
   6  -3  -3   78.29    3.40
   6  -3  -3   74.49    3.50
   6  -3  -3   77.89    3.50
   6   3  -2    6.90    0.80
   6   3  -2    7.90    0.70
   6   3  -2    7.60    1.00
   6   3  -2    7.60    0.90
   6   3  -2    8.90    0.70
   6   3  -2    8.30    1.00
   6  -3  -2    6.80    0.90
   6  -3  -2    7.70    0.80
   6  -3  -2    7.00    0.80
   6  -3  -2    7.80    0.80
   6  -3  -2    5.90    0.80
   6  -3  -2    6.20    0.70
   6   3  -1 1149.58   48.00
   6   3  -1 1097.79   47.70
   6   3  -1 1189.68   47.90
   6   3  -1 1152.58   47.80
   6   3  -1 1141.19   47.90
   6   3  -1 1131.29   47.80
   6   3  -1 1132.79   47.80
   6  -3  -1 1114.59   47.70
   6  -3  -1 1123.99   47.90
   6  -3  -1 1085.39   47.80
   6  -3  -1 1175.38   48.00
   6   3   0 1350.36   56.09
   6   3   0 1371.06   56.19
   6   3   0 1378.76   56.09
   6   3   0 1339.97   56.29
   6   3   0 1288.17   56.09
   6   3   0 1290.77   56.19
   6  -3   0 1329.27   56.19
   6  -3   0 1323.17   56.09
   6  -3   0 1248.98   56.09
   6  -3   0 1387.66   56.19
   6  -3   0 1361.66   56.09
   6   3   1   22.40    1.60
   6   3   1   24.60    1.30
   6   3   1   23.80    1.40
   6  -3   1   23.40    1.40
   6  -3   1   25.10    1.60
   6  -3   1   24.20    1.40
   6  -3   1   21.60    1.40
   6  -3   1   24.20    1.30
   6   3   2   22.00    1.60
   6   3   2   26.10    1.40
   6   3   2   25.80    1.40
   6   3   2   24.50    1.50
   6  -3   2   21.50    1.50
   6  -3   2   26.50    1.40
   6  -3   2   22.90    1.40
   6  -3   2   27.10    1.70
   6   3   3   64.19    3.00
   6   3   3   63.79    2.90
   6  -3   3   64.89    2.90
   6   4  -8    7.70    1.20
   6   4  -8    7.30    1.30
   6   4  -8    9.30    1.10
   6  -4  -8    6.40    1.00
  -6  -4   8    4.90    5.00
   6  -4  -8    6.30    1.20
   6  -4  -8    7.60    1.00
   6  -4  -8    6.50    1.20
   6   4  -7  208.48    8.90
   6   4  -7  200.58    8.90
   6   4  -7  209.48    9.10
  -6  -4   7  188.08   15.90
   6  -4  -7  202.68    9.00
   6  -4  -7  221.28    9.00
   6  -4  -7  211.98    9.10
   6  -4  -7  211.68    9.00
   6   4  -6   -0.70    0.50
   6   4  -6   -0.60    0.60
   6   4  -6    0.80    0.60
   6  -4  -6    0.00    0.60
   6  -4  -6    1.20    0.60
   6  -4  -6    0.20    0.40
   6  -4  -6    0.50    0.60
  -6  -4   6   -0.60    3.10
   6   4  -5  100.89    4.30
   6   4  -5   98.19    4.30
   6   4  -5   93.49    4.40
   6   4  -5   97.29    4.50
   6   4  -5   94.19    4.40
   6   4  -5   97.29    4.40
   6  -4  -5   96.59    4.40
   6  -4  -5   94.19    4.40
   6  -4  -5   97.89    4.40
   6  -4  -5   95.09    4.30
   6  -4  -5   99.49    4.40
   6  -4  -5   96.79    4.30
   6   4  -4    0.70    0.50
   6   4  -4    0.90    0.50
   6   4  -4    1.00    0.60
   6   4  -4    1.00    0.50
   6   4  -4    1.20    0.60
   6   4  -4    0.70    0.50
   6   4  -4    1.30    0.40
   6  -4  -4    1.50    0.50
   6  -4  -4    0.90    0.40
   6  -4  -4    1.50    0.50
   6  -4  -4    1.50    0.50
   6  -4  -4    1.40    0.50
   6   4  -3   74.29    3.40
   6   4  -3   73.39    3.40
   6   4  -3   74.49    3.30
   6   4  -3   71.39    3.50
   6   4  -3   71.29    3.50
   6   4  -3   73.19    3.30
   6   4  -3   74.69    3.40
   6  -4  -3   72.69    3.20
   6  -4  -3   69.39    3.30
   6  -4  -3   74.89    3.40
   6  -4  -3   73.09    3.30
   6  -4  -3   73.69    3.30
   6  -4  -3   74.19    3.40
   6   4  -2   18.00    1.10
   6   4  -2   18.00    1.30
   6   4  -2   19.40    1.20
   6   4  -2   18.20    1.30
   6   4  -2   18.60    1.00
   6   4  -2   17.00    1.30
   6   4  -2   17.30    1.20
   6  -4  -2   15.40    1.20
   6  -4  -2   20.00    1.10
   6  -4  -2   15.70    1.00
   6  -4  -2   17.80    1.20
   6  -4  -2   18.60    1.10
   6  -4  -2   17.80    1.20
   6   4  -1   95.99    4.50
   6   4  -1   96.39    4.40
   6   4  -1   94.89    4.20
   6   4  -1   96.29    4.30
   6   4  -1  102.49    4.30
   6   4  -1   97.99    4.30
   6  -4  -1   94.49    4.20
   6  -4  -1   99.39    4.40
  -6  -4   1   89.69    9.80
   6  -4  -1   97.39    4.40
   6  -4  -1   97.09    4.30
   6  -4  -1   89.89    4.20
   6   4   0 1002.30   42.10
   6   4   0 1006.60   41.90
   6   4   0  977.10   41.90
   6   4   0  988.20   41.90
   6   4   0 1035.20   41.80
   6   4   0 1036.80   41.90
   6  -4   0 1001.50   42.00
   6  -4   0  899.21   41.80
   6  -4   0 1006.10   41.80
   6  -4   0  960.90   41.80
   6  -4   0 1018.30   42.00
   6   4   1   64.39    3.00
   6   4   1   63.49    3.20
   6   4   1   59.79    3.10
   6   4   1   60.99    3.50
   6   4   1   65.79    2.90
   6   4   1   66.99    3.00
   6  -4   1   65.79    2.90
   6  -4   1   63.79    3.00
   6  -4   1   59.49    2.90
   6  -4   1   63.39    3.10
   6   4   2  132.59    5.70
   6   4   2  128.39    5.60
   6   4   2  129.99    5.60
   6   4   2  119.19    5.80
   6  -4   2  128.49    5.60
   6  -4   2  132.19    5.80
   6   4   3   50.59    2.50
   6   4   3   50.29    2.40
   6  -4   3   53.09    2.40
   6   5  -8   69.69    3.40
  -6  -5   8   62.99    9.30
   6  -5  -8   74.39    3.30
   6  -5  -8   62.89    3.40
   6  -5  -8   70.39    3.40
   6  -5  -8   78.69    3.50
   6  -5  -8   75.89    3.20
   6   5  -7   91.39    4.30
   6   5  -7   91.69    4.10
   6   5  -7   85.59    4.10
   6  -5  -7   89.59    4.20
  -6  -5   7   83.49   11.40
   6  -5  -7   88.79    4.20
   6  -5  -7   90.29    4.10
   6  -5  -7   93.39    4.00
   6  -5  -7   93.79    4.10
   6   5  -6  473.95   19.80
   6   5  -6  456.05   20.00
   6   5  -6  462.45   19.80
   6  -5  -6  467.75   19.90
  -6  -5   6  423.06   28.10
   6  -5  -6  458.15   19.80
   6  -5  -6  480.75   19.70
   6  -5  -6  478.05   19.80
   6  -5  -6  487.65   19.80
   6   5  -5   20.80    1.50
   6   5  -5   21.50    1.40
   6   5  -5   22.10    1.50
   6   5  -5   21.80    1.30
   6   5  -5   22.00    1.30
   6   5  -5   21.10    1.30
   6  -5  -5   22.10    1.40
   6  -5  -5   24.70    1.50
  -6  -5   5   17.50    6.00
   6  -5  -5   23.40    1.40
   6  -5  -5   21.60    1.40
   6  -5  -5   21.30    1.20
   6  -5  -5   21.30    1.30
   6   5  -4   73.39    3.60
   6   5  -4   77.09    3.50
   6   5  -4   76.19    3.40
   6   5  -4   72.39    3.60
   6   5  -4   77.19    3.50
   6   5  -4   74.89    3.50
   6   5  -4   73.89    3.40
   6  -5  -4   77.19    3.40
   6  -5  -4   80.19    3.40
   6  -5  -4   72.49    3.40
   6  -5  -4   72.99    3.50
   6  -5  -4   74.79    3.50
   6  -5  -4   76.29    3.50
   6   5  -3   39.20    2.10
   6   5  -3   41.70    2.00
   6   5  -3   39.70    2.00
   6   5  -3   41.10    1.90
   6   5  -3   39.00    2.20
   6   5  -3   39.70    1.90
   6   5  -3   37.70    2.10
   6  -5  -3   38.40    2.00
   6  -5  -3   41.00    2.00
   6  -5  -3   41.70    2.10
   6  -5  -3   40.10    1.90
   6  -5  -3   41.00    2.10
   6  -5  -3   41.10    2.00
  -6  -5   3   34.10    6.80
   6   5  -2   47.00    2.20
   6   5  -2   46.70    2.50
   6   5  -2   48.00    2.10
   6   5  -2   47.00    2.30
   6   5  -2   47.80    2.30
   6   5  -2   48.10    2.40
   6   5  -2   43.10    2.40
   6  -5  -2   46.80    2.20
   6  -5  -2   47.90    2.30
   6  -5  -2   47.30    2.30
  -6  -5   2   43.20    7.30
   6  -5  -2   45.80    2.20
   6  -5  -2   45.60    2.10
   6   5  -1  259.57   11.30
   6   5  -1  266.67   11.00
   6   5  -1  264.47   11.00
   6   5  -1  261.17   11.10
   6   5  -1  258.97   11.10
  -6  -5   1  247.88   16.90
   6  -5  -1  252.07   10.90
   6  -5  -1  265.67   11.10
   6  -5  -1  263.27   11.00
   6  -5  -1  258.57   11.10
   6  -5  -1  233.38   10.90
   6   5   0  130.49    5.80
   6   5   0  132.39    6.00
   6   5   0  134.09    5.80
   6   5   0  132.99    5.80
   6   5   0  132.69    5.90
   6   5   0  132.69    5.70
   6  -5   0  131.29    5.70
   6  -5   0  135.29    5.90
   6  -5   0  126.19    5.70
   6  -5   0  130.19    5.80
   6   5   1    4.60    0.90
   6   5   1    5.20    0.60
   6   5   1    2.30    1.10
   6   5   1    3.00    0.60
   6   5   1    3.50    0.60
   6   5   1    2.30    0.80
   6  -5   1    3.00    0.60
   6  -5   1    3.00    0.50
   6   5   2   50.39    2.80
   6   5   2   57.39    2.60
   6   5   2   56.39    2.80
   6   5   2   56.19    2.60
   6  -5   2   58.29    2.60
   6  -5   2   58.69    2.90
   6   5   3   41.60    2.10
   6  -5   3   42.40    2.00
   6  -5   3   41.00    2.60
   6   6  -8    7.60    1.20
   6  -6  -8    7.30    1.10
   6  -6  -8    8.00    1.00
   6  -6  -8    8.20    1.20
   6  -6  -8    7.40    0.90
   6   6  -7   94.59    4.60
   6   6  -7  102.19    4.80
   6   6  -7  102.49    4.60
   6  -6  -7  105.59    4.60
  -6  -6   7   94.89   11.50
   6  -6  -7  103.29    4.70
   6  -6  -7  111.09    4.60
   6  -6  -7   99.49    4.70
   6  -6  -7  106.19    4.60
   6   6  -6  844.32   36.80
   6   6  -6  856.51   37.00
   6   6  -6  889.21   36.80
   6  -6  -6  923.11   36.90
   6  -6  -6  839.52   36.90
  -6  -6   6  814.92   45.60
   6  -6  -6  890.21   36.80
   6  -6  -6  918.71   36.90
   6  -6  -6  876.31   36.90
   6   6  -5  496.65   20.50
   6   6  -5  489.55   20.40
   6   6  -5  458.95   20.50
   6   6  -5  474.05   20.70
   6   6  -5  484.75   20.50
   6   6  -5  483.25   20.40
   6  -6  -5  504.55   20.40
   6  -6  -5  465.45   20.50
   6  -6  -5  482.85   20.50
   6  -6  -5  502.65   20.50
   6  -6  -5  502.65   20.50
  -6  -6   5  439.76   28.90
   6   6  -4  899.71   36.40
   6   6  -4  848.82   36.70
   6   6  -4  884.21   36.50
   6   6  -4  880.31   36.50
   6   6  -4  873.21   36.50
   6   6  -4  901.71   36.40
   6   6  -4  832.12   36.60
   6  -6  -4  873.91   36.50
   6  -6  -4  835.92   36.50
   6  -6  -4  865.81   36.40
  -6  -6   4  776.32   44.90
   6  -6  -4  900.21   36.50
   6  -6  -4  863.81   36.50
   6   6  -3   13.10    1.20
   6   6  -3   13.40    0.90
   6   6  -3   13.10    1.20
   6   6  -3   12.40    1.00
   6   6  -3   13.20    1.10
   6   6  -3   12.70    0.90
   6   6  -3   13.80    1.20
   6  -6  -3   13.50    1.10
   6  -6  -3   13.30    0.90
   6  -6  -3   13.10    0.90
  -6  -6   3   11.00    5.20
   6  -6  -3   12.00    1.00
   6  -6  -3   13.20    1.10
   6  -6  -3   13.20    0.90
   6  -6  -3   12.20    1.00
   6   6  -2    1.30    0.60
   6   6  -2    1.70    0.50
   6   6  -2    1.00    0.50
   6   6  -2    1.90    0.40
   6   6  -2    1.00    0.50
   6   6  -2    1.40    0.60
   6   6  -2    2.90    0.80
   6   6  -2    1.30    0.40
  -6  -6   2    1.80    3.20
   6  -6  -2    1.60    0.40
   6  -6  -2    1.90    0.50
   6  -6  -2    1.10    0.60
   6  -6  -2    1.20    0.40
   6  -6  -2    2.00    0.50
   6   6  -1   40.50    2.30
   6   6  -1   41.30    2.10
   6  -6  -1   43.80    2.10
   6  -6  -1   41.30    2.10
   6  -6  -1   41.00    2.00
  -6  -6   1   43.90    6.90
   6  -6  -1   43.40    2.20
   6   6   0   46.30    2.50
   6   6   0   47.70    2.30
   6   6   0   48.70    2.30
   6  -6   0   44.60    2.20
   6  -6   0   45.80    2.40
   6  -6   0   42.60    2.40
   6   6   1   12.70    1.40
   6   6   1   12.10    1.00
   6   6   1   12.70    1.30
   6   6   1   13.90    1.10
   6   6   1   11.90    1.60
   6  -6   1   12.00    1.00
   6  -6   1   12.30    1.00
   6   6   2    1.20    0.50
   6   6   2    1.10    0.70
   6   6   2    0.70    0.80
   6  -6   2    1.30    0.70
   6  -6   2    1.80    0.60
   6   6   3   16.30    1.20
   6  -6   3   16.20    1.00
   6  -6   3   15.10    1.90
   6   7  -8    2.30    0.80
   6  -7  -8    4.10    0.90
   6  -7  -8    3.50    0.70
   6  -7  -8    3.00    0.60
   6  -7  -8    2.90    0.60
   6   7  -7    1.40    0.90
   6   7  -7    1.30    0.60
   6  -7  -7    1.50    0.70
   6  -7  -7    2.10    0.70
  -6  -7   7    0.70    3.30
   6  -7  -7    1.70    0.80
   6  -7  -7    3.40    0.60
   6  -7  -7    1.30    0.70
   6   7  -6  234.08    9.90
   6   7  -6  220.58   10.00
   6   7  -6  223.68   10.20
   6  -7  -6  222.98   10.10
   6  -7  -6  233.78   10.00
  -6  -7   6  226.28   17.50
   6  -7  -6  247.18   10.00
   6  -7  -6  236.88   10.10
   6  -7  -6  238.38   10.00
   6   7  -5  419.76   18.10
   6   7  -5  439.56   18.10
   6   7  -5  416.86   18.20
   6   7  -5  421.76   18.10
   6   7  -5  381.46   18.30
   6   7  -5  426.46   18.40
   6  -7  -5  454.85   18.10
  -6  -7   5  411.76   26.60
   6  -7  -5  457.35   18.20
   6  -7  -5  436.66   18.20
   6  -7  -5  404.66   18.20
   6  -7  -5  443.66   18.10
   6   7  -4  349.17   14.70
   6   7  -4  363.96   14.60
   6   7  -4  334.87   14.80
   6   7  -4  350.66   14.60
   6   7  -4  348.97   14.60
   6   7  -4  322.47   14.50
   6   7  -4  328.87   14.80
   6   7  -4  340.57   14.60
   6  -7  -4  320.27   14.60
   6  -7  -4  356.66   14.60
   6  -7  -4  348.87   14.60
  -6  -7   4  332.27   22.60
   6  -7  -4  345.27   14.60
   6  -7  -4  346.17   14.70
   6  -7  -4  352.86   14.60
   6   7  -3    0.80    0.50
   6   7  -3    0.00    0.40
   6   7  -3    0.30    0.60
   6   7  -3    0.30    0.50
   6   7  -3    0.90    0.70
   6   7  -3    0.20    0.50
   6   7  -3   -0.20    0.60
   6   7  -3    0.40    0.40
   6  -7  -3    0.70    0.60
   6  -7  -3   -0.10    0.50
   6  -7  -3    0.20    0.40
   6  -7  -3    0.00    0.60
   6  -7  -3    0.70    0.40
  -6  -7   3    0.30    2.80
   6  -7  -3    0.40    0.40
   6  -7  -3   -0.10    0.40
   6   7  -2  143.39    6.10
   6   7  -2  141.59    6.10
   6   7  -2  137.19    6.40
   6   7  -2  137.19    6.10
   6   7  -2  130.69    6.20
   6   7  -2  144.69    6.00
   6  -7  -2  142.49    6.10
   6  -7  -2  142.29    6.10
   6  -7  -2  137.59    6.20
   6  -7  -2  138.09    6.10
  -6  -7   2  141.19   12.30
   6  -7  -2  137.69    6.00
   6   7  -1   61.09    2.90
   6   7  -1   61.99    2.90
   6   7  -1   61.69    3.20
   6   7  -1   62.79    2.90
   6  -7  -1   59.79    3.00
   6  -7  -1   59.39    2.90
   6  -7  -1   61.09    2.80
  -6  -7   1   62.79    7.70
   6  -7  -1   62.09    2.90
   6  -7  -1   58.59    2.90
   6   7   0  125.49    5.80
   6   7   0  121.79    5.60
   6   7   0  128.09    5.60
   6  -7   0  131.69    5.60
   6  -7   0  124.59    5.50
   6  -7   0  124.79    5.70
   6   7   1   25.40    1.90
   6   7   1   23.40    2.00
   6   7   1   28.00    1.50
   6   7   1   27.90    1.60
   6   7   1   26.70    1.90
   6  -7   1   27.40    1.50
   6  -7   1   28.60    1.50
   6   7   2  278.57   11.50
   6   7   2  276.07   11.40
   6   7   2  241.98   11.60
   6  -7   2  275.07   11.50
   6   7   3    1.80    0.60
   6  -7   3    1.40    1.10
   6  -7   3    1.10    0.50
   6   8  -8  100.89    4.50
  -6  -8   8   84.49    4.40
   6  -8  -8  108.19    4.50
   6  -8  -8   98.09    4.60
   6  -8  -8  104.09    4.40
   6   8  -7   91.79    4.50
   6   8  -7   89.79    4.10
  -6  -8   7   93.79    9.90
   6  -8  -7   95.39    4.20
   6  -8  -7   95.29    4.20
   6  -8  -7   87.99    4.40
   6  -8  -7   98.19    4.20
   6   8  -6    3.50    0.60
   6   8  -6    4.10    0.80
   6   8  -6    2.70    0.80
   6  -8  -6    3.20    0.70
   6  -8  -6    2.80    0.80
   6  -8  -6    2.70    0.60
  -6  -8   6    3.50    3.90
   6  -8  -6    3.70    0.80
   6  -8  -6    3.70    0.60
   6   8  -5 2911.11  116.49
   6   8  -5 2566.54  116.49
   6   8  -5 2781.82  116.79
   6   8  -5 2708.83  116.49
   6   8  -5 2684.83  116.69
   6  -8  -5 2926.21  116.59
  -6  -8   5 2808.22  126.19
   6  -8  -5 2588.84  116.59
   6  -8  -5 2822.12  116.59
   6  -8  -5 2846.62  116.59
   6  -8  -5 2885.01  116.59
   6   8  -4    0.40    0.50
   6   8  -4    0.60    0.40
   6   8  -4    0.60    0.50
   6   8  -4   -0.10    0.60
   6   8  -4    0.20    0.40
   6   8  -4    0.20    0.60
   6   8  -4    0.30    0.60
   6   8  -4    0.30    0.80
  -6  -8   4    0.10    3.00
   6  -8  -4    0.50    0.50
   6  -8  -4   -0.10    0.50
   6  -8  -4   -0.20    0.60
   6  -8  -4    0.90    0.60
   6   8  -3    0.80    0.50
   6   8  -3    0.70    0.40
   6   8  -3    0.90    0.60
   6   8  -3    0.90    0.60
   6   8  -3    0.70    0.50
   6   8  -3    1.70    0.80
   6   8  -3    0.80    0.40
   6   8  -3    0.70    0.60
   6  -8  -3    0.50    0.50
   6  -8  -3    0.30    0.40
   6  -8  -3    0.60    0.50
   6  -8  -3    0.80    0.50
   6  -8  -3    0.60    0.50
   6  -8  -3    0.70    0.60
   6  -8  -3    0.50    0.70
  -6  -8   3    0.40    2.90
   6   8  -2    8.50    1.10
   6   8  -2    8.70    0.90
   6   8  -2    9.10    1.20
   6   8  -2    8.50    0.90
   6   8  -2    9.40    0.80
   6   8  -2    9.50    0.80
   6  -8  -2    8.40    1.00
  -6  -8   2    8.90    5.10
   6  -8  -2    9.10    1.10
   6  -8  -2   10.30    0.80
   6  -8  -2    9.80    0.90
   6   8  -1   16.70    1.20
   6   8  -1   15.80    1.10
   6   8  -1   16.20    1.10
  -6  -8   1   15.50    5.50
   6  -8  -1   15.40    1.20
   6  -8  -1   16.40    1.10
   6  -8  -1   16.40    1.30
   6   8   0   55.79    2.70
   6   8   0   53.39    3.00
   6   8   0   51.69    2.80
   6  -8   0   56.29    2.60
   6  -8   0   62.19    2.90
   6  -8   0   60.19    2.70
   6   8   1   11.40    0.90
   6   8   1   10.50    1.60
   6   8   1    9.40    1.40
   6   8   1   11.40    1.10
   6  -8   1   10.70    0.90
   6  -8   1   11.60    1.30
   6   8   2   -1.10    0.90
   6   8   2    0.20    0.70
   6  -8   2    0.60    0.60
   6  -8   2    1.20    0.70
   6   8   3    9.80    1.50
   6  -8   3   10.60    0.80
   6   9  -7  241.58   10.30
   6   9  -7  228.88   10.10
   6  -9  -7  241.58   10.10
  -6  -9   7  214.08   10.00
   6  -9  -7  248.58   10.10
  -6  -9   7  233.58   16.30
   6  -9  -7  239.18   10.20
   6  -9  -7  219.18   10.20
   6  -9  -7  252.57   10.10
   6   9  -6  369.86   15.50
   6   9  -6  365.46   15.80
  -6  -9   6  380.76   23.20
   6  -9  -6  337.37   15.60
   6  -9  -6  375.96   15.50
   6  -9  -6  375.36   15.60
   6  -9  -6  356.06   15.50
   6  -9  -6  357.26   15.60
   6   9  -5  419.46   18.50
   6   9  -5  404.56   18.20
   6   9  -5  428.56   18.20
   6   9  -5  453.15   18.20
   6   9  -5  426.96   18.30
   6   9  -5  408.86   18.30
   6   9  -5  410.66   18.10
   6  -9  -5  445.96   18.20
  -6  -9   5  455.95   26.80
   6  -9  -5  397.06   18.30
   6  -9  -5  451.95   18.20
   6  -9  -5  431.06   18.20
   6  -9  -5  439.56   18.30
   6   9  -4  103.39    5.00
   6   9  -4  102.49    4.70
   6   9  -4  113.19    4.70
   6   9  -4  105.29    4.70
   6   9  -4  107.19    4.90
   6   9  -4  108.19    4.80
   6   9  -4  107.29    5.00
   6  -9  -4   96.19    4.80
   6  -9  -4  105.99    4.80
  -6  -9   4  111.89   11.30
   6  -9  -4  111.49    4.70
   6  -9  -4  110.69    4.80
   6  -9  -4  105.09    4.70
   6   9  -3   56.29    2.60
   6   9  -3   55.09    2.60
   6   9  -3   57.79    2.70
   6   9  -3   52.89    2.60
   6   9  -3   55.19    2.90
   6   9  -3   54.89    2.80
   6   9  -3   58.99    2.50
   6  -9  -3   53.19    2.60
   6  -9  -3   47.10    2.70
   6  -9  -3   53.49    2.70
   6  -9  -3   56.49    2.60
   6  -9  -3   53.39    2.70
  -6  -9   3   57.89    8.20
   6   9  -2  155.48    6.70
   6   9  -2  161.68    7.60
   6   9  -2  148.99    6.70
   6   9  -2  144.49    6.90
   6   9  -2  155.98    6.70
   6  -9  -2  157.68    6.80
   6  -9  -2  150.18    6.90
   6  -9  -2  158.08    6.70
  -6  -9   2  161.28   12.90
   6   9  -1    9.30    1.00
   6   9  -1    7.60    1.10
   6   9  -1    9.90    1.20
   6  -9  -1   10.70    1.10
  -6  -9   1    8.20    5.20
   6  -9  -1   10.70    0.90
   6  -9  -1   10.90    0.90
   6  -9  -1   10.60    1.10
   6   9   0   29.10    1.60
   6   9   0   29.20    1.90
   6   9   0   28.70    2.00
   6  -9   0   31.10    1.80
   6  -9   0   32.60    1.60
   6  -9   0   30.30    1.60
   6   9   1  110.79    5.40
   6   9   1  117.99    5.30
   6   9   1  112.09    5.50
   6   9   1  117.39    5.20
   6  -9   1  128.79    5.40
   6  -9   1  118.59    5.20
   6   9   2   94.39    4.10
   6   9   2   95.79    4.30
   6   9   2   83.49    4.40
   6  -9   2   97.09    4.40
   6  -9   2   97.59    4.20
   6  10  -7    4.50    1.00
   6 -10  -7    5.60    0.90
  -6 -10   7    4.10    0.60
   6 -10  -7    5.40    0.60
  -6 -10   7    4.10    3.70
   6 -10  -7    6.20    1.40
   6  10  -6  549.35   23.10
   6  10  -6  557.94   22.70
  -6 -10   6  472.25   22.70
   6 -10  -6  551.24   22.80
   6 -10  -6  541.35   22.80
   6 -10  -6  570.14   22.80
   6 -10  -6  498.35   22.90
   6 -10  -6  563.04   22.80
   6  10  -5   63.19    3.00
   6  10  -5   72.09    3.20
   6  10  -5   62.29    3.30
   6  10  -5   60.79    3.30
   6  10  -5   70.99    3.30
   6  10  -5   63.29    3.40
   6 -10  -5   64.59    3.20
   6 -10  -5   61.09    3.20
   6 -10  -5   65.69    3.10
   6 -10  -5   62.69    3.00
  -6 -10   5   70.29    9.00
   6 -10  -5   66.99    3.10
   6  10  -4   86.79    4.30
   6  10  -4   87.79    4.10
   6  10  -4   85.69    4.00
   6  10  -4   87.49    4.20
   6  10  -4   88.89    3.90
   6  10  -4   86.99    4.20
   6  10  -4   95.59    3.90
   6 -10  -4   85.89    4.00
   6 -10  -4   89.29    4.00
   6 -10  -4   86.79    4.00
  -6 -10   4   95.59   10.20
   6 -10  -4   82.59    4.10
   6  10  -3   30.50    1.60
   6  10  -3   29.40    2.00
   6  10  -3   29.50    1.60
   6  10  -3   31.50    1.60
   6  10  -3   30.20    1.90
   6 -10  -3   29.40    1.70
   6 -10  -3   30.00    1.80
   6 -10  -3   31.10    1.60
  -6 -10   3   31.40    6.60
   6  10  -2   13.50    1.40
   6  10  -2   12.90    1.10
   6  10  -2   13.40    1.10
   6  10  -2   13.30    1.10
   6  10  -2   12.60    1.30
   6 -10  -2   13.90    1.00
  -6 -10   2   14.00    5.50
   6 -10  -2   14.20    1.10
   6 -10  -2   13.10    1.10
   6  10  -1   20.50    1.20
   6  10  -1   18.60    1.20
   6  10  -1   18.60    1.50
   6 -10  -1   18.90    1.40
   6 -10  -1   19.10    1.30
  -6 -10   1   16.00    9.80
   6 -10  -1   20.00    1.40
   6  10   0  203.78    8.90
   6  10   0  202.28    9.20
   6  10   0  203.58    8.80
   6  10   0  206.38    8.90
   6 -10   0  203.38    8.80
   6 -10   0  209.08    9.00
   6  10   1  203.28    8.80
   6  10   1  201.88    9.20
   6  10   1  187.18    9.00
   6  10   1  216.68    8.90
   6 -10   1  222.68    9.10
   6 -10   1  205.48    8.90
   6  10   2   27.20    2.00
   6  10   2   29.70    1.70
   6 -10   2   29.10    1.80
   6 -10   2   31.10    1.60
   6  11  -7   99.69    4.60
   6 -11  -7  103.89    4.40
  -6 -11   7   90.29   10.50
   6 -11  -7   96.19    4.50
   6 -11  -7  102.99    4.40
   6  11  -6    1.40    1.00
   6  11  -6    1.50    0.50
   6 -11  -6    1.80    0.90
   6 -11  -6    1.80    0.50
   6 -11  -6    3.90    0.90
   6 -11  -6    0.60    0.60
  -6 -11   6    0.90    3.30
   6  11  -5   16.50    1.00
   6  11  -5   12.30    1.10
   6  11  -5   15.50    1.60
  -6 -11   5   15.60    5.60
   6 -11  -5   13.90    1.40
   6 -11  -5   16.30    1.10
   6 -11  -5   13.90    1.20
   6 -11  -5   16.40    1.40
   6  11  -4   43.60    2.40
   6  11  -4   53.19    2.50
   6  11  -4   42.90    2.50
   6  11  -4   42.10    2.10
   6  11  -4   43.10    2.60
   6  11  -4   44.10    2.50
   6  11  -4   43.90    2.20
   6  11  -4   48.40    2.20
  -6 -11   4   46.20    7.40
   6 -11  -4   45.10    2.20
   6 -11  -4   42.90    2.20
   6 -11  -4   44.00    2.40
   6  11  -3   52.79    2.50
   6  11  -3   51.19    2.50
   6  11  -3   50.09    2.80
   6  11  -3   51.89    2.40
   6  11  -3   52.29    2.80
   6 -11  -3   54.79    2.50
  -6 -11   3   55.79    7.90
   6 -11  -3   50.19    2.60
   6  11  -2   84.49    3.80
   6  11  -2   80.39    4.10
   6  11  -2   83.09    3.80
   6  11  -2   86.29    3.80
   6  11  -2   81.39    4.10
  -6 -11   2   85.79    9.30
   6 -11  -2   87.69    3.80
   6 -11  -2   85.59    4.00
   6  11  -1   35.80    2.30
   6  11  -1   36.10    1.80
   6  11  -1   37.00    1.90
   6  11  -1   35.30    2.00
   6 -11  -1   36.30    2.00
   6 -11  -1   36.90    2.00
   6  11   0  197.98    8.60
   6  11   0  201.28    9.00
   6  11   0  207.98    8.70
   6  11   0  197.38    8.80
   6 -11   0  193.88    8.80
   6 -11   0  200.38    8.60
   6 -11   0  206.88    8.80
   6  11   1  634.74   27.30
   6  11   1  612.84   27.60
   6  11   1  683.63   27.40
   6 -11   1  655.63   27.40
   6 -11   1  654.53   27.50
   6  11   2    3.90    1.10
   6  11   2    3.10    0.60
   6 -11   2    4.50    0.60
   6 -11   2    4.30    0.80
   6  12  -7    3.20    0.80
   6 -12  -7    2.70    0.50
   6 -12  -7    3.40    0.60
   6  12  -6    3.20    0.90
   6  12  -6    1.10    0.60
   6 -12  -6    1.50    0.50
   6 -12  -6    2.30    1.00
   6 -12  -6    1.40    0.60
   6 -12  -6    3.30    1.10
  -6 -12   6    2.00    3.20
   6  12  -5  109.29    5.30
   6  12  -5  115.79    4.90
   6  12  -5  101.19    5.00
   6 -12  -5  121.19    5.00
   6 -12  -5  116.99    5.00
   6 -12  -5  104.89    5.20
  -6 -12   5  116.39   11.00
   6  12  -4    3.20    1.20
   6  12  -4    1.30    0.80
   6  12  -4    1.90    0.90
   6  12  -4    1.30    0.60
   6  12  -4    1.70    0.50
   6  12  -4    2.00    0.90
   6 -12  -4    3.30    1.00
   6 -12  -4    1.50    0.60
  -6 -12   4    1.80    3.20
   6 -12  -4    1.60    0.50
   6  12  -3   46.10    2.20
   6  12  -3   43.40    2.60
   6  12  -3   47.70    2.30
   6  12  -3   45.50    2.30
   6  12  -3   44.50    2.60
   6 -12  -3   48.30    2.30
  -6 -12   3   47.80    7.50
   6  12  -2    1.20    0.80
   6  12  -2    1.60    0.60
   6  12  -2    1.10    0.70
   6  12  -2    1.70    0.50
   6  12  -2    0.90    0.80
   6 -12  -2    1.30    0.60
   6 -12  -2    1.40    0.60
  -6 -12   2    0.80    3.50
   6  12  -1   25.00    1.70
   6  12  -1   24.70    1.90
   6  12  -1   28.60    1.40
   6  12  -1   24.50    1.40
   6 -12  -1   25.70    1.60
   6 -12  -1   23.80    1.60
   6  12   0 1233.58   51.99
   6  12   0 1150.18   51.79
   6  12   0 1294.27   51.69
   6  12   0 1231.58   51.69
   6 -12   0 1237.88   51.69
   6 -12   0 1260.07   51.89
   6 -12   0 1194.08   51.79
   6  12   1  128.39    6.30
   6  12   1  135.69    5.90
   6  12   1  140.09    6.00
   6 -12   1  138.39    6.10
   6 -12   1  140.19    5.90
   6  12   2   32.70    2.30
   6  12   2   41.50    2.00
   6 -12   2   39.00    2.20
   6 -12   2   41.30    2.00
   6  13  -6    2.70    0.90
  -6 -13   6    1.10    3.10
   6 -13  -6    2.80    0.60
   6 -13  -6    1.40    0.60
   6  13  -5  202.58    9.10
   6 -13  -5  177.08    8.90
  -6 -13   5  208.28   15.20
   6 -13  -5  220.18    8.80
   6 -13  -5  209.58    8.80
   6  13  -4   28.80    2.20
   6  13  -4   31.00    2.30
   6  13  -4   28.20    1.80
   6  13  -4   28.30    1.90
   6  13  -4   30.60    2.10
   6 -13  -4   32.90    1.80
   6 -13  -4   30.00    1.70
  -6 -13   4   31.50    6.40
   6  13  -3   11.60    1.60
   6  13  -3   13.20    1.40
   6  13  -3   11.70    1.20
   6  13  -3   13.60    1.00
   6 -13  -3   15.00    1.20
   6  13  -2   63.49    3.50
   6  13  -2   63.39    3.10
   6  13  -2   67.29    3.40
   6  13  -2   67.29    3.20
   6  13  -2   65.79    3.00
   6 -13  -2   72.99    3.20
   6 -13  -2   68.19    3.20
  -6 -13   2   67.49    9.10
   6  13  -1   45.30    2.80
   6  13  -1   49.00    2.30
   6  13  -1   43.30    2.50
   6 -13  -1   44.80    2.40
   6 -13  -1   49.40    2.50
   6  13   0  489.95   21.70
   6  13   0  523.35   22.10
   6  13   0  526.75   21.80
   6 -13   0  502.65   21.90
   6 -13   0  516.15   21.80
   6 -13   0  530.85   21.90
   6  13   1    3.90    0.60
   6  13   1    7.00    1.40
  -6 -13  -1    3.20    0.60
   6 -13   1    4.30    0.80
   6 -13   1    3.70    0.60
   6  14  -6    0.40    0.90
   6 -14  -6    0.40    0.50
   6 -14  -6    0.40    0.50
   6  14  -5  171.98    7.70
   6 -14  -5  169.48    7.50
  -6 -14   5  170.38   13.40
   6  14  -4   81.99    4.10
   6  14  -4   77.99    4.00
  -6 -14   4   80.89    9.20
   6 -14  -4   85.49    3.80
   6  14  -3  351.26   14.90
   6  14  -3  346.47   14.80
   6  14  -3  339.57   14.90
   6  14  -3  319.47   14.60
   6  14  -3  332.27   14.60
   6 -14  -3  364.66   14.70
  -6 -14   3  353.66   21.60
   6  14  -2   55.39    3.00
   6  14  -2   53.49    2.50
   6  14  -2   54.89    2.90
   6  14  -2   46.70    2.70
   6 -14  -2   52.59    2.60
   6 -14  -2   56.69    2.70
  -6 -14   2   51.69    8.50
   6  14  -1  119.69    5.20
   6  14  -1  118.49    5.60
   6 -14  -1  115.29    5.30
   6 -14  -1  118.79    5.30
   6  14   0   82.89    3.70
   6  14   0   82.09    4.10
   6 -14   0   80.99    4.00
   6 -14   0   82.99    3.80
   6 -14   0   80.69    3.70
   6  14   1   50.59    2.40
   6  14   1   49.80    2.70
  -6 -14  -1   50.89    2.30
   6 -14   1   50.89    2.30
   6 -14   1   48.00    2.60
   6  15  -5    3.40    0.90
   6 -15  -5    5.00    0.70
   6 -15  -5    3.50    0.60
  -6 -15   5    2.20    3.50
   6  15  -4    7.60    1.40
   6  15  -4    7.30    1.10
   6 -15  -4    6.70    1.20
  -6 -15   4    6.10    5.10
   6  15  -3  149.99    6.90
   6  15  -3  151.88    6.90
  -6 -15   3  146.29   12.90
   6 -15  -3  157.48    6.60
   6  15  -2  607.24   25.70
   6  15  -2  657.43   26.00
   6  15  -2  613.24   25.90
   6 -15  -2  601.64   26.00
   6 -15  -2  594.04   25.70
  -6 -15   2  571.94   33.00
   6  15  -1   96.39    4.40
   6  15  -1  105.69    4.80
   6 -15  -1   99.79    4.50
   6 -15  -1   93.09    4.50
   6  15   0   39.30    1.90
   6 -15   0   35.40    2.10
   6 -15   0   34.80    2.80
   6  16  -4   73.79    3.80
   6 -16  -4   83.99    3.60
   6  16  -3   13.60    2.10
   6 -16  -3   14.90    1.30
  -6 -16   3   12.50   10.50
   6  16  -2  227.18    9.80
   6  16  -2  212.58    9.70
   6 -16  -2  223.88    9.60
   6  16  -1  155.38    7.60
   6 -16  -1  165.78    7.00
   6 -16  -1  157.78    7.20
   7   0  -8   12.20    1.30
   7   0  -8   13.00    1.20
   7   0  -8    9.40    1.30
   7   0  -7    0.30    0.80
   7   0  -7   -0.30    0.60
   7   0  -7    0.00    0.70
   7   0  -6  241.28   12.00
   7   0  -6  285.87   11.70
   7   0  -6  285.37   11.80
   7   0  -5   -0.10    0.60
   7   0  -5    0.00    0.50
   7   0  -5    0.80    0.60
   7   0  -5    0.20    0.60
   7   0  -5   -0.20    0.60
   7   0  -4 1174.68   48.30
   7   0  -4 1202.58   48.10
   7   0  -4 1147.89   48.20
   7   0  -4  992.50   48.00
   7   0  -4 1206.78   48.20
   7   0  -4 1126.79   48.10
   7   0  -3    0.90    0.70
   7   0  -3   -0.70    0.60
   7   0  -3    0.00    0.40
   7   0  -3   -0.10    0.60
   7   0  -3    0.70    0.60
   7   0  -3    0.10    0.60
   7   0  -3   -0.20    0.40
   7   0  -1    0.60    0.60
   7   0  -1    0.50    0.80
   7   0  -1    0.40    0.60
   7   0  -1    0.10    0.60
   7   0  -1    0.40    0.40
   7   0  -1   -0.30    0.80
   7   0   0   70.19    3.60
   7   0   0   73.39    3.50
   7   0   0   83.09    3.50
   7   0   1    0.00    0.70
   7   0   1    0.30    0.60
   7   0   1   -0.40    0.50
   7   0   1    0.20    0.60
   7   0   2  125.39    5.30
   7   0   2  117.29    5.30
   7   1  -8   24.10    1.70
   7   1  -8   29.40    1.70
   7  -1  -8   28.00    1.70
   7  -1  -8   28.50    1.70
   7  -1  -8   26.00    1.70
   7   1  -7  385.66   16.40
   7   1  -7  373.36   16.30
   7   1  -7  380.16   16.30
   7  -1  -7  369.76   16.30
   7  -1  -7  384.86   16.40
   7  -1  -7  398.56   16.40
   7  -1  -7  388.26   16.40
   7   1  -6   31.60    1.80
   7   1  -6   27.30    1.80
   7  -1  -6   33.80    1.80
   7  -1  -6   28.70    1.80
   7  -1  -6   29.20    1.80
   7   1  -5   14.30    1.20
   7   1  -5   15.60    1.20
   7   1  -5   17.20    1.30
   7   1  -5   15.30    1.20
   7   1  -5   16.10    1.30
   7  -1  -5   15.60    1.20
   7  -1  -5   15.60    1.20
   7  -1  -5   15.10    1.30
   7  -1  -5   15.50    1.20
   7  -1  -5   15.40    1.30
   7   1  -4    1.50    0.70
   7   1  -4    1.40    0.60
   7  -1  -4    1.40    0.60
   7  -1  -4    0.60    0.50
   7  -1  -4    2.20    0.90
   7   1  -3   19.30    1.20
   7   1  -3   19.90    1.30
   7   1  -3   19.90    1.40
   7   1  -3   17.70    1.40
   7   1  -3   18.40    1.20
   7   1  -3   20.90    1.20
   7   1  -3   17.30    1.40
   7  -1  -3   19.90    1.30
   7  -1  -3   17.50    1.30
   7  -1  -3   17.30    1.30
   7  -1  -3   19.10    1.30
   7  -1  -3   19.40    1.10
   7   1  -2   59.69    2.90
   7   1  -2   63.69    3.00
   7   1  -2   62.59    2.90
   7   1  -2   63.99    3.00
   7  -1  -2   63.79    3.00
   7  -1  -2   59.59    2.80
   7   1  -1   -0.10    1.00
   7   1  -1    1.30    0.60
   7   1  -1    0.60    0.60
   7   1  -1    0.70    0.60
   7   1  -1    0.90    0.60
   7  -1  -1    1.50    0.60
   7  -1  -1    0.60    0.60
   7  -1  -1    0.70    0.70
   7   1   0   97.09    4.10
   7   1   0   95.79    4.20
   7   1   0   88.29    4.30
   7   1   0   91.99    4.10
   7  -1   0   91.89    4.10
   7  -1   0   88.59    4.20
   7  -1   0   91.49    4.10
   7  -1   0   87.79    4.20
   7  -1   0   93.29    4.20
   7   1   1    6.90    0.90
   7   1   1    6.20    1.10
   7  -1   1    7.70    0.90
   7  -1   1    6.10    1.00
   7   1   2    4.10    0.70
   7  -1   2    4.10    0.60
   7   2  -8  132.79    6.40
   7   2  -8  152.18    6.50
   7  -2  -8  151.78    6.40
   7  -2  -8  142.99    6.50
   7  -2  -8  150.88    6.40
   7   2  -7  249.97   10.80
   7   2  -7  253.17   10.80
   7   2  -7  257.37   10.90
   7  -2  -7  261.67   10.90
  -7  -2   7  212.68   18.10
   7  -2  -7  266.77   10.90
   7  -2  -7  242.88   10.80
   7  -2  -7  264.77   10.80
   7   2  -6    6.50    1.00
   7   2  -6    6.10    1.10
   7  -2  -6    6.20    1.40
   7  -2  -6    4.20    0.70
   7  -2  -6    6.10    1.10
   7  -2  -6    6.60    1.00
   7  -2  -6    4.60    0.80
   7   2  -5   42.60    2.00
   7   2  -5   32.60    2.00
   7   2  -5   38.50    1.90
   7   2  -5   34.20    2.10
   7  -2  -5   36.90    1.90
   7  -2  -5   41.10    2.10
   7  -2  -5   34.20    1.90
   7  -2  -5   35.80    2.00
   7  -2  -5   34.70    2.00
   7   2  -4    9.60    1.00
   7   2  -4    9.60    1.10
   7   2  -4   13.80    1.00
   7   2  -4    8.30    1.10
   7  -2  -4   13.70    1.10
   7  -2  -4   11.30    1.20
   7   2  -3  218.68    9.00
   7   2  -3  198.58    9.10
   7   2  -3  216.78    9.10
   7   2  -3  210.98    9.20
   7   2  -3  220.98    9.10
   7   2  -3  210.48    9.10
   7   2  -3  193.78    9.20
   7  -2  -3  212.38    9.00
   7  -2  -3  223.18    9.10
   7  -2  -3  207.98    9.20
   7  -2  -3  212.68    9.00
   7  -2  -3  197.58    9.10
   7   2  -2   74.59    3.30
   7   2  -2   71.89    3.60
   7   2  -2   71.29    3.30
   7   2  -2   69.49    3.40
   7   2  -2   73.69    3.30
   7  -2  -2   66.99    3.50
   7  -2  -2   73.89    3.30
   7  -2  -2   66.99    3.20
   7   2  -1   92.89    3.70
   7   2  -1   82.59    4.00
   7   2  -1   83.99    3.90
   7   2  -1   86.09    3.80
   7  -2  -1   84.09    3.90
   7  -2  -1   76.39    3.80
   7  -2  -1   82.99    3.70
   7  -2  -1   84.99    3.90
   7  -2  -1   82.79    3.90
   7   2   0    1.60    0.70
   7   2   0    1.70    0.70
   7   2   0    2.20    0.60
   7  -2   0    2.60    0.60
   7  -2   0    1.50    0.50
   7  -2   0    2.00    0.70
   7  -2   0    2.30    0.70
   7  -2   0    2.10    0.70
   7   2   1   89.79    4.00
   7   2   1   85.89    4.20
   7   2   1   92.89    4.00
   7  -2   1   91.59    4.00
   7  -2   1   86.49    4.10
   7   2   2   83.19    3.80
   7   2   2   89.39    3.80
   7   2   2   83.19    4.20
   7  -2   2   88.99    3.80
   7   3  -8   19.30    1.40
   7   3  -8   19.30    1.60
   7  -3  -8   19.30    1.40
   7  -3  -8   19.10    1.30
   7  -3  -8   18.60    1.50
   7   3  -7   11.30    1.50
   7   3  -7   11.60    1.10
   7  -3  -7   12.20    1.30
   7  -3  -7   11.50    1.30
  -7  -3   7   10.10    6.30
   7  -3  -7   11.60    1.30
   7   3  -6   28.10    1.80
   7   3  -6   27.00    1.60
   7   3  -6   27.60    1.60
   7  -3  -6   27.80    1.70
   7  -3  -6   27.90    1.70
  -7  -3   6   22.00    7.00
   7  -3  -6   28.50    1.70
   7  -3  -6   24.60    1.50
   7  -3  -6   28.40    1.70
   7   3  -5    0.90    0.60
   7   3  -5    0.90    0.50
   7   3  -5    0.00    0.60
   7   3  -5    0.10    0.60
   7  -3  -5    1.10    0.70
   7  -3  -5    0.60    0.50
   7  -3  -5    0.20    0.50
   7  -3  -5   -0.10    0.50
   7  -3  -5    1.20    0.60
   7   3  -4  187.98    8.30
   7   3  -4  205.58    8.30
   7   3  -4  189.68    8.40
   7   3  -4  188.98    8.30
   7   3  -4  186.88    8.20
   7   3  -4  192.58    8.20
   7  -3  -4  190.18    8.30
   7  -3  -4  177.98    8.20
   7  -3  -4  187.18    8.20
   7  -3  -4  192.18    8.30
   7   3  -3   98.09    4.10
   7   3  -3   85.79    4.30
   7   3  -3   95.39    4.20
   7   3  -3   94.09    4.30
   7   3  -3   96.19    4.20
   7   3  -3   95.19    4.20
   7  -3  -3   91.79    4.10
   7  -3  -3  100.29    4.30
   7  -3  -3   87.69    4.20
   7  -3  -3   92.89    4.20
   7   3  -2    8.70    1.10
   7   3  -2    7.90    1.00
   7   3  -2    6.10    1.00
   7  -3  -2    6.90    0.90
   7   3  -1   36.80    2.10
   7   3  -1   40.60    2.20
   7   3  -1   41.30    2.00
   7   3  -1   37.40    2.20
   7   3  -1   40.90    2.00
   7  -3  -1   38.80    2.10
   7  -3  -1   39.90    2.10
   7  -3  -1   36.20    1.90
   7  -3  -1   37.20    1.90
   7  -3  -1   39.20    2.10
   7   3   0    5.60    1.20
   7   3   0    6.20    0.90
   7   3   0    7.70    1.20
   7   3   0    7.90    1.00
   7  -3   0    6.70    0.90
   7  -3   0   10.70    1.20
   7  -3   0    6.90    1.00
   7  -3   0    8.40    0.90
   7   3   1  364.86   16.30
   7   3   1  387.16   16.10
   7   3   1  393.76   16.10
   7   3   1  386.06   16.20
   7  -3   1  349.96   16.10
   7  -3   1  386.06   16.20
   7  -3   1  400.06   16.10
   7  -3   1  373.96   16.30
   7   3   2   48.80    2.30
   7   3   2   46.70    2.50
   7  -3   2   49.40    2.30
   7   4  -8   94.89    4.40
   7  -4  -8   96.99    4.20
   7  -4  -8   88.29    4.30
   7  -4  -8   96.29    4.20
   7   4  -7  150.28    6.90
   7   4  -7  158.48    7.00
   7   4  -7  152.58    6.80
   7  -4  -7  163.58    6.90
   7  -4  -7  151.48    6.90
   7  -4  -7  167.88    7.30
  -7  -4   7  144.89   13.90
   7  -4  -7  166.98    6.90
   7   4  -6   54.89    2.70
   7   4  -6   55.59    2.90
   7   4  -6   54.09    2.70
   7  -4  -6   57.29    2.80
  -7  -4   6   47.80    8.90
   7  -4  -6   54.39    2.80
   7  -4  -6   58.19    2.80
   7  -4  -6   63.59    2.70
   7   4  -5   37.60    1.90
   7   4  -5   35.70    2.20
   7   4  -5   35.60    2.10
   7   4  -5   38.60    2.00
   7   4  -5   38.60    2.00
   7   4  -5   37.80    2.10
   7  -4  -5   38.10    2.00
   7  -4  -5   36.70    2.00
   7  -4  -5   42.80    2.10
   7  -4  -5   40.30    2.10
   7  -4  -5   36.30    1.90
   7   4  -4   11.40    1.10
   7   4  -4   13.50    1.20
   7   4  -3  126.69    5.90
   7   4  -3  136.19    5.80
   7   4  -3  126.99    6.00
   7   4  -3  133.79    5.90
   7   4  -3  130.89    5.80
   7   4  -3  139.99    5.70
   7   4  -3  135.79    5.80
   7  -4  -3  140.79    5.80
   7  -4  -3  127.49    5.70
   7  -4  -3  130.99    5.80
  -7  -4   3  113.09   12.40
   7   4  -2  403.26   16.70
   7   4  -2  400.16   17.00
   7   4  -2  403.26   16.80
   7   4  -2  379.06   16.60
   7   4  -2  405.46   16.80
   7  -4  -2  359.26   16.70
  -7  -4   2  370.66   24.10
   7  -4  -2  396.76   16.80
   7  -4  -2  409.76   16.70
   7  -4  -2  404.16   16.80
   7   4  -1   42.50    2.40
   7   4  -1   43.40    2.40
   7   4  -1   45.70    2.20
   7   4  -1   43.50    2.30
   7   4  -1   41.90    2.20
   7  -4  -1   41.60    2.20
   7  -4  -1   41.40    2.20
   7  -4  -1   40.50    2.00
   7  -4  -1   41.10    2.10
   7  -4  -1   49.60    2.30
   7   4   0    0.60    0.60
   7   4   0    0.90    1.20
   7   4   0   -0.40    0.80
   7   4   0    0.40    0.80
   7   4   0    0.70    0.60
   7  -4   0    0.40    0.40
   7  -4   0    0.70    0.70
   7  -4   0    1.00    0.60
   7   4   1   90.89    3.90
   7   4   1   79.29    4.10
   7   4   1   84.29    3.90
   7  -4   1   95.99    4.10
   7  -4   1   84.99    3.80
   7  -4   1   81.09    3.90
   7   4   2  202.48    9.00
   7   4   2  209.68    9.10
   7  -4   2  217.88    9.00
   7   5  -8    2.40    0.80
   7  -5  -8    2.40    0.90
   7  -5  -8    1.10    1.00
   7  -5  -8    2.30    0.60
   7   5  -7  395.06   16.70
   7   5  -7  377.36   16.50
   7   5  -7  368.36   16.50
   7  -5  -7  406.16   16.50
  -7  -5   7  368.76   24.10
   7  -5  -7  418.16   16.50
   7  -5  -7  367.06   16.50
   7  -5  -7  399.56   16.60
   7   5  -6    0.70    0.80
   7   5  -6    1.00    0.60
   7   5  -6    3.20    0.80
   7  -5  -6    1.70    0.80
   7  -5  -6    1.90    0.70
   7  -5  -6    1.90    0.60
   7  -5  -6    3.00    0.80
   7   5  -5    5.40    0.80
   7   5  -5    5.80    1.00
   7   5  -5    3.80    0.80
   7   5  -5    6.20    0.90
   7   5  -5    4.40    0.80
   7   5  -5    4.70    0.70
   7  -5  -5    6.00    0.80
   7  -5  -5    5.50    0.90
   7  -5  -5    7.00    0.90
   7  -5  -5    6.50    1.10
  -7  -5   5    3.60    4.10
   7  -5  -5    5.90    0.90
   7   5  -4   85.79    4.40
   7   5  -4   86.79    4.40
   7   5  -4  107.39    4.20
   7   5  -4  102.99    4.20
   7   5  -4   96.79    4.20
   7   5  -4   83.99    4.40
   7   5  -4   98.19    4.50
   7  -5  -4   90.89    4.20
  -7  -5   4   82.49   10.80
   7  -5  -4   90.79    4.20
   7  -5  -4   95.09    4.20
   7  -5  -4   97.99    4.30
   7   5  -3    1.30    0.90
   7   5  -3    1.10    0.80
   7   5  -3    2.70    0.80
   7   5  -3    1.90    0.80
   7   5  -3    1.30    0.60
   7   5  -3    1.90    0.50
  -7  -5   3    1.70    3.80
   7  -5  -3    0.90    0.60
   7  -5  -3    1.50    0.70
   7  -5  -3    1.70    0.70
   7   5  -2  210.28    9.10
   7   5  -2  219.58    9.10
   7   5  -2  211.68    9.60
   7   5  -2  206.58    9.30
   7   5  -2  200.78    9.00
   7  -5  -2  213.98    9.10
  -7  -5   2  201.18   15.80
   7  -5  -2  220.78    9.20
   7   5  -1   18.30    1.20
   7   5  -1   18.10    1.20
   7   5  -1   15.60    1.40
   7   5  -1   16.30    1.50
   7   5  -1   17.00    1.60
   7  -5  -1   18.90    1.20
   7  -5  -1   17.10    1.10
   7  -5  -1   18.80    1.40
   7  -5  -1   18.60    1.30
   7   5   0   31.90    2.00
   7   5   0   27.30    2.20
   7   5   0   32.10    1.70
   7   5   0   32.10    1.70
   7   5   0   28.60    2.10
   7  -5   0   29.60    1.90
   7  -5   0   30.70    1.60
   7  -5   0   32.80    1.70
   7   5   1  123.69    5.90
   7   5   1  138.49    6.00
   7   5   1  134.19    5.80
   7  -5   1  130.09    5.70
   7  -5   1  131.69    5.70
   7   5   2   72.69    3.30
   7  -5   2   73.09    3.30
   7   6  -8   62.39    3.00
   7  -6  -8   64.99    2.90
   7  -6  -8   62.29    2.90
   7  -6  -8   55.99    3.00
   7   6  -7   91.79    4.60
   7   6  -7   99.79    4.50
   7   6  -7  103.69    4.80
  -7  -6   7   98.69   10.80
   7  -6  -7  108.29    4.60
   7  -6  -7   98.99    4.70
   7  -6  -7  106.89    4.60
   7   6  -6  356.66   16.10
   7   6  -6  371.46   16.30
   7   6  -6  383.26   16.00
   7  -6  -6  380.66   16.20
   7  -6  -6  387.06   16.10
   7  -6  -6  359.06   16.20
   7  -6  -6  397.26   16.10
   7  -6  -6  385.46   16.10
   7   6  -5   26.60    1.80
   7   6  -5   26.80    1.80
   7   6  -5   27.50    1.70
   7   6  -5   26.80    1.60
   7   6  -5   27.60    1.80
   7   6  -5   25.10    1.80
   7  -6  -5   28.80    1.60
   7  -6  -5   26.90    1.50
   7  -6  -5   27.30    1.70
  -7  -6   5   25.10    7.20
   7  -6  -5   30.70    1.60
   7   6  -4  175.88    8.60
   7   6  -4  226.78    8.40
   7   6  -4  193.98    8.50
   7   6  -4  195.88    8.40
   7   6  -4  209.48    8.40
   7   6  -4  180.18    8.60
   7   6  -4  191.08    8.40
   7  -6  -4  207.18    8.50
   7  -6  -4  191.78    8.40
   7  -6  -4  193.58    8.40
   7  -6  -4  187.58    8.40
  -7  -6   4  175.58   15.80
   7   6  -3  308.27   14.00
   7   6  -3  330.17   13.80
   7   6  -3  308.27   13.90
   7   6  -3  341.37   13.70
   7   6  -3  324.57   13.90
   7   6  -3  328.77   13.90
   7   6  -3  325.67   13.80
   7  -6  -3  328.47   13.80
   7  -6  -3  326.37   13.80
   7  -6  -3  335.37   13.80
  -7  -6   3  308.87   21.50
   7  -6  -3  314.27   13.70
   7   6  -2  494.05   21.80
   7   6  -2  536.95   21.90
   7   6  -2  517.75   22.00
   7   6  -2  521.05   21.90
   7   6  -2  511.85   22.10
   7  -6  -2  542.85   22.00
  -7  -6   2  504.15   29.00
   7  -6  -2  500.55   21.80
   7  -6  -2  511.25   21.90
   7   6  -1    0.60    1.00
   7   6  -1    0.10    0.70
   7   6  -1   -0.50    0.70
   7   6  -1    0.00    0.60
   7  -6  -1    1.80    0.80
   7  -6  -1   -0.40    0.50
   7  -6  -1    0.30    0.50
   7   6   0   75.19    3.70
   7   6   0   77.89    3.50
   7   6   0   71.99    3.90
   7   6   0   78.09    3.80
   7  -6   0   80.19    3.50
   7  -6   0   77.79    3.40
   7   6   1  129.89    6.20
   7   6   1  138.39    5.90
   7   6   1  135.39    6.00
   7  -6   1  144.69    6.10
   7  -6   1  133.49    5.90
   7  -6   1  136.89    5.90
   7   6   2    0.70    0.60
   7  -6   2    1.00    0.50
   7   7  -7   62.79    3.00
   7   7  -7   67.59    3.30
  -7  -7   7   65.19    8.80
   7  -7  -7   66.09    3.20
   7  -7  -7   63.59    3.70
   7  -7  -7   68.99    3.10
   7   7  -6 1375.36   57.69
   7   7  -6 1369.76   57.99
   7  -7  -6 1398.06   57.79
   7  -7  -6 1252.37   57.79
   7  -7  -6 1449.85   57.79
   7  -7  -6 1389.96   57.79
   7  -7  -6 1363.96   57.79
  -7  -7   6 1383.96   66.89
   7   7  -5  208.28    9.20
   7   7  -5  214.08    9.40
   7   7  -5  204.68    9.30
   7   7  -5  204.18    9.30
   7   7  -5  211.18    9.20
   7   7  -5  223.88    9.20
   7  -7  -5  201.18    9.30
   7  -7  -5  225.28    9.20
  -7  -7   5  214.18   17.20
   7  -7  -5  217.08    9.30
   7  -7  -5  219.98    9.20
   7   7  -4   83.69    3.60
   7   7  -4   80.59    3.90
   7   7  -4   81.59    3.80
   7   7  -4   78.79    3.70
   7   7  -4   80.99    3.90
   7   7  -4   80.89    3.70
   7   7  -4   82.79    4.00
   7  -7  -4   74.59    3.90
  -7  -7   4   80.39   10.30
   7  -7  -4   81.29    3.80
   7  -7  -4   82.19    3.70
   7  -7  -4   84.79    3.70
   7  -7  -4   81.49    3.70
   7   7  -3    0.30    0.60
   7   7  -3    1.00    0.70
   7   7  -3    0.80    0.50
   7   7  -3    0.70    0.90
   7   7  -3    0.80    0.80
   7   7  -3    0.20    0.70
   7  -7  -3    0.00    0.70
   7  -7  -3    0.10    0.60
   7  -7  -3   -0.10    0.50
  -7  -7   3    0.40    3.60
   7  -7  -3    0.50    0.50
   7   7  -2    2.70    0.70
   7   7  -2    2.10    0.80
   7   7  -2    1.40    0.60
   7   7  -2    2.60    0.90
   7  -7  -2    1.90    0.60
   7  -7  -2    2.40    0.80
  -7  -7   2    1.80    4.00
   7   7  -1   22.40    1.50
   7   7  -1   24.10    1.80
   7   7  -1   26.50    1.70
   7   7  -1   26.20    1.80
   7  -7  -1   24.00    1.40
   7   7   1    2.20    0.70
   7   7   1    1.80    0.90
   7   7   1    1.50    0.60
   7  -7   1    1.40    0.50
   7  -7   1    3.60    0.90
   7   8  -7   10.50    1.40
   7  -8  -7   12.40    1.30
   7  -8  -7   11.80    1.10
   7  -8  -7   10.00    1.10
  -7  -8   7    9.40    5.60
   7   8  -6   93.89    4.00
   7   8  -6   88.69    4.30
   7   8  -6   81.89    4.10
  -7  -8   6   91.09   10.50
   7  -8  -6   90.19    4.00
   7  -8  -6   93.29    4.00
   7  -8  -6   89.99    4.40
   7  -8  -6   79.19    4.20
   7  -8  -6   93.29    4.10
   7   8  -5  372.56   16.50
   7   8  -5  377.96   16.70
   7   8  -5  391.36   16.80
   7   8  -5  376.86   16.60
   7   8  -5  412.56   16.50
   7   8  -5  376.46   16.60
   7  -8  -5  361.26   16.60
   7  -8  -5  409.56   16.50
   7  -8  -5  411.76   16.50
   7  -8  -5  382.56   16.60
  -7  -8   5  409.56   25.10
   7  -8  -5  379.56   16.50
   7   8  -4   84.69    4.20
   7   8  -4   95.89    4.00
   7   8  -4   86.89    4.30
   7   8  -4   87.09    4.30
   7   8  -4   89.09    4.10
   7   8  -4   85.49    4.00
   7   8  -4   89.59    4.00
   7  -8  -4   88.19    4.10
  -7  -8   4   91.09   10.60
   7  -8  -4   87.79    4.00
   7  -8  -4   91.79    4.00
   7  -8  -4   90.99    4.00
   7   8  -3  437.16   17.90
   7   8  -3  409.66   18.20
   7   8  -3  424.96   18.00
   7   8  -3  428.26   18.10
   7   8  -3  411.66   18.10
   7   8  -3  402.26   17.90
   7  -8  -3  429.76   17.90
  -7  -8   3  432.86   25.50
   7  -8  -3  435.16   18.00
   7  -8  -3  414.66   17.90
   7   8  -2    7.40    0.90
   7   8  -2    8.80    1.20
   7   8  -2    9.20    1.40
   7   8  -2    5.70    1.00
  -7  -8   2    8.40    6.00
   7  -8  -2    6.30    0.80
   7   8  -1   22.80    1.80
   7   8  -1   18.10    1.30
   7   8  -1   17.90    1.70
   7   8  -1   23.40    1.60
   7  -8  -1   19.40    1.30
   7   8   0   94.19    4.00
   7   8   0   84.99    4.20
   7   8   0   84.49    3.90
   7  -8   0   81.59    3.80
   7  -8   0   86.59    3.90
   7   8   1  102.99    5.70
   7   8   1  119.29    5.10
   7   8   1  123.79    5.20
   7  -8   1  120.59    5.30
   7  -8   1  118.09    5.10
   7   9  -7   49.10    2.60
   7  -9  -7   50.49    2.30
  -7  -9   7   44.60   10.00
   7  -9  -7   47.50    2.60
   7   9  -6  161.48    6.90
   7   9  -6  157.98    7.20
   7  -9  -6  162.98    7.00
   7  -9  -6  160.38    6.90
   7  -9  -6  162.28    7.00
  -7  -9   6  164.98   13.60
   7  -9  -6  165.48    7.00
   7  -9  -6  142.69    7.10
   7   9  -5  146.89    6.10
   7   9  -5  141.69    6.50
   7   9  -5  129.69    6.30
   7   9  -5  136.09    6.30
   7   9  -5  132.89    6.30
  -7  -9   5  151.38   13.20
   7  -9  -5  125.69    6.30
   7  -9  -5  149.29    6.20
   7  -9  -5  145.19    6.30
   7  -9  -5  144.09    6.20
   7  -9  -5  141.49    6.10
   7   9  -4   13.90    1.40
   7   9  -4   17.30    1.60
   7   9  -4   16.10    1.60
   7   9  -4   15.50    1.20
  -7  -9   4   14.50    6.10
   7  -9  -4   17.00    1.30
   7   9  -3  359.36   14.50
   7   9  -3  341.67   14.70
   7   9  -3  326.97   14.50
   7   9  -3  331.27   14.80
   7   9  -3  322.67   14.70
   7   9  -3  346.27   14.60
   7  -9  -3  341.17   14.60
   7  -9  -3  355.16   14.50
  -7  -9   3  348.77   21.70
   7   9  -2  152.28    6.90
   7   9  -2  151.88    7.00
   7   9  -2  156.88    6.80
   7   9  -2  147.99    6.70
   7   9  -2  158.18    6.70
   7  -9  -2  148.09    6.80
   7  -9  -2  154.38    6.80
   7  -9  -2  157.48    6.70
   7   9  -1   15.40    1.70
   7   9  -1   14.80    1.80
   7   9  -1   16.90    1.60
   7   9  -1   14.40    1.10
   7  -9  -1   15.90    1.20
   7   9   0  138.59    6.40
   7   9   0  160.18    6.50
   7   9   0  141.89    6.70
   7  -9   0  165.98    6.60
   7  -9   0  133.89    6.40
   7   9   1   25.80    1.40
   7   9   1   25.10    1.80
   7   9   1   29.80    1.60
   7  -9   1   26.70    1.40
   7  -9   1   29.30    1.90
   7  10  -7    8.20    1.20
   7 -10  -7    9.50    1.00
   7 -10  -7   10.20    1.00
   7  10  -6   71.79    3.30
   7  10  -6   68.99    3.60
   7 -10  -6   69.59    3.80
   7 -10  -6   76.09    3.30
   7 -10  -6   80.59    3.50
  -7 -10   6   68.09    8.70
   7  10  -5   28.40    2.10
   7  10  -5   23.50    1.90
   7  10  -5   27.30    1.50
   7 -10  -5   28.20    1.70
   7 -10  -5   28.30    1.80
  -7 -10   5   28.80    6.70
   7  10  -4   33.10    2.10
   7  10  -4   32.20    2.20
   7  10  -4   32.60    1.90
   7  10  -4   37.90    1.70
   7  10  -4   32.90    2.20
   7  10  -4   28.90    2.00
   7 -10  -4   37.80    1.90
  -7 -10   4   34.60    7.10
   7  10  -3  116.39    5.60
   7  10  -3  118.49    5.70
   7  10  -3  119.29    5.50
   7  10  -3  120.39    5.60
   7  10  -3  116.29    5.40
   7  10  -3  128.79    5.40
  -7 -10   3  125.39   12.00
   7 -10  -3  130.09    5.40
   7  10  -2  155.08    7.00
   7  10  -2  150.88    6.70
   7  10  -2  157.58    7.30
   7  10  -2  149.99    7.10
   7  10  -2  159.28    6.80
   7 -10  -2  160.08    6.90
   7 -10  -2  152.08    6.80
   7  10  -1    6.50    1.60
   7  10  -1    6.50    1.30
   7  10  -1    8.50    1.00
   7  10   0  295.57   12.00
   7  10   0  282.77   12.30
   7  10   0  275.37   12.00
   7 -10   0  266.67   11.90
   7 -10   0  286.07   12.10
   7  10   1    8.60    0.90
   7  10   1    7.00    1.30
   7 -10   1    9.30    0.80
   7 -10   1    8.00    1.00
   7  11  -6    0.10    0.80
   7 -11  -6    0.20    0.60
   7 -11  -6    0.90    0.60
  -7 -11   6    0.30    3.30
   7  11  -5   14.00    1.10
   7  11  -5   15.50    1.70
  -7 -11   5   16.10    5.70
   7 -11  -5   16.00    1.30
   7  11  -4   64.49    3.50
   7  11  -4   75.19    3.50
   7  11  -4   67.39    3.60
   7  11  -4   71.39    3.20
  -7 -11   4   69.29    8.80
   7 -11  -4   72.99    3.30
   7  11  -3   25.50    1.30
   7  11  -3   22.30    1.50
   7  11  -3   24.10    1.90
   7  11  -3   21.90    1.80
   7  11  -3   21.90    1.80
   7  11  -3   24.40    2.10
   7 -11  -3   23.10    1.60
  -7 -11   3   21.60    6.50
   7  11  -2   71.89    3.60
   7  11  -2   79.29    4.10
   7  11  -2   75.79    4.00
   7  11  -2   82.59    3.60
   7  11  -2   80.99    3.90
   7 -11  -2   78.19    3.90
   7 -11  -2   84.19    4.10
   7  11  -1    0.60    0.50
   7  11  -1    0.20    1.00
   7  11  -1    0.50    0.60
   7 -11  -1    0.60    0.60
   7  11   0   17.60    1.70
   7  11   0   17.60    1.10
   7  11   0   19.60    1.30
   7 -11   0   17.50    1.50
   7  12  -6    7.30    1.30
   7 -12  -6    9.40    1.00
   7  12  -5   54.19    3.00
  -7 -12   5   53.29    7.80
   7 -12  -5   58.89    2.70
   7  12  -4   22.70    1.50
   7  12  -4   23.70    1.80
   7  12  -4   24.60    1.90
   7 -12  -4   27.30    1.90
  -7 -12   4   24.50    6.40
   7  12  -3   26.40    2.00
   7  12  -3   26.20    1.70
   7  12  -3   29.70    2.00
   7  12  -3   30.10    1.50
  -7 -12   3   26.20    7.20
   7 -12  -3   30.00    2.50
   7  12  -2   34.60    2.30
   7  12  -2   35.40    1.70
   7  12  -2   31.80    1.80
   7 -12  -2   37.70    1.90
   7 -12  -2   31.40    2.10
   7  12  -1   13.90    1.60
   7  12  -1   11.90    1.00
   7  12   0  258.07   11.70
   7  12   0  288.97   12.00
   7 -12   0  280.17   11.90
  -7 -13   5   11.70    8.10
   7 -13  -5   12.30    1.20
   7  13  -4   59.09    3.10
   7  13  -4   60.89    3.40
   7 -13  -4   62.19    2.90
  -7 -13   4   56.49    8.30
   7  13  -3  237.68   10.40
   7  13  -3  239.78   10.10
  -7 -13   3  219.18   16.60
   7 -13  -3  250.27   10.20
   7  13  -2   37.00    1.80
   7  13  -2   32.80    2.20
   7 -13  -2   33.40    2.20
   7  13  -1    6.10    1.30
   7  13  -1    8.90    1.60
   7 -13  -1    9.60    1.20
   7  14  -4    7.90    1.40
   7  14  -4    4.20    1.00
   7 -14  -4    6.40    1.20
   7  14  -3   25.10    1.40
   7  14  -3   25.10    1.90
   7  14  -3   26.10    1.80
   7 -14  -3   26.60    1.70
   7  14  -2   57.49    2.90
   7  14  -2   52.99    2.50
   7 -14  -2   49.00    2.80
   8   0  -7    1.20    0.80
  -8   0   7    0.10    4.40
   8   0  -7    0.20    0.70
   8   0  -7   -0.20    0.70
   8   0  -6   14.20    1.80
   8   0  -6   13.40    1.40
   8   0  -6   19.60    1.50
   8   0  -6   19.80    1.50
   8   0  -4  323.17   13.50
   8   0  -4  309.97   13.40
   8   0  -4  316.77   13.50
   8   0  -4  307.57   13.40
   8   0  -2  506.95   21.90
   8   0  -2  518.65   22.00
   8   0  -2  520.35   21.80
   8   0  -1    1.20    0.90
   8   0  -1    0.30    0.60
   8   0   0    1.20    0.60
   8   0   0    0.30    0.70
   8   0   0    1.10    0.70
   8   1  -7  120.09    5.30
   8   1  -7  115.39    5.20
   8   1  -7  123.99    5.30
   8  -1  -7  120.09    5.20
   8  -1  -7  125.59    5.30
   8  -1  -7  116.49    5.30
  -8  -1   7  100.19   12.10
   8   1  -6   -0.40    0.70
   8   1  -6    0.40    0.80
   8  -1  -6    0.90    0.80
   8  -1  -6    0.20    0.80
   8  -1  -6   -0.10    0.70
  -8  -1   6    1.10    4.10
   8   1  -5  192.98    8.10
   8   1  -5  173.68    8.10
   8   1  -5  185.38    8.00
   8   1  -5  169.78    8.00
   8  -1  -5  184.28    8.10
   8  -1  -5  199.38    8.10
   8  -1  -5  166.28    8.00
   8  -1  -5  210.08    8.10
   8   1  -4    6.40    1.10
   8   1  -4    4.40    0.80
   8   1  -4    5.00    0.80
   8   1  -4    3.40    0.80
   8  -1  -4    3.30    0.80
   8  -1  -4    5.40    0.90
   8   1  -3   52.19    2.70
   8   1  -3   55.29    2.60
   8   1  -3   53.39    2.50
   8  -1  -3   52.99    2.70
   8  -1  -3   53.39    2.70
   8  -1  -3   51.79    2.50
   8   1  -2  456.55   19.40
   8   1  -2  468.45   19.30
   8   1  -2  460.65   19.50
   8  -1  -2  448.16   19.50
   8  -1  -2  450.95   19.40
   8  -1  -2  448.56   19.30
   8   1  -1  140.79    5.90
   8   1  -1  135.89    6.10
   8   1  -1  131.99    6.00
   8  -1  -1  135.29    5.90
   8  -1  -1  134.99    6.10
   8   1   0   15.00    1.10
   8   1   0   15.60    1.20
   8   1   0   15.60    1.30
   8  -1   0   13.60    1.20
   8  -1   0   14.40    1.20
   8   2  -7   31.80    2.50
   8   2  -7   35.40    2.00
   8   2  -7   37.50    2.10
   8  -2  -7   39.80    2.00
   8  -2  -7   37.10    2.00
   8  -2  -7   35.20    2.00
  -8  -2   7   32.40    8.10
   8   2  -6    1.40    0.90
   8   2  -6    0.80    0.70
   8   2  -6    1.10    0.80
  -8  -2   6    0.50    4.20
   8  -2  -6   -0.50    0.70
   8   2  -5    1.70    0.80
   8   2  -5    1.50    0.70
   8   2  -5   -0.40    0.60
   8  -2  -5    0.10    0.50
   8  -2  -5    0.80    0.70
  -8  -2   5   -0.20    4.50
   8   2  -4  103.39    4.60
   8   2  -4  102.49    4.70
   8   2  -4  107.59    4.70
   8   2  -4  106.59    4.70
   8   2  -4  110.69    4.60
  -8  -2   4   88.49   11.60
   8  -2  -4  100.39    4.60
   8  -2  -4  102.49    4.70
   8  -2  -4  104.59    4.70
   8   2  -3    2.40    0.60
   8   2  -3    1.20    0.80
   8  -2  -3    1.90    0.60
   8  -2  -3    1.30    0.70
  -8  -2   3    2.50    6.30
   8   2  -2  128.59    5.90
   8   2  -2  129.39    5.70
   8   2  -2  132.09    5.70
   8  -2  -2  128.79    5.80
   8  -2  -2  129.19    5.70
   8  -2  -2  128.39    5.60
   8   2  -1  744.23   31.30
   8   2  -1  750.32   31.20
   8   2  -1  762.52   31.10
   8  -2  -1  718.53   31.10
   8  -2  -1  736.53   31.20
   8  -2  -1  709.13   31.00
   8   2   0    4.60    0.70
   8   2   0    5.90    1.00
   8   2   0    3.80    0.90
   8  -2   0    4.30    0.70
   8  -2   0    3.80    0.90
   8  -2   0    4.80    0.70
   8   3  -7   12.80    1.30
   8   3  -7   16.40    1.40
  -8  -3   7   13.00    7.10
   8  -3  -7   13.20    1.30
   8  -3  -7   14.80    1.40
   8  -3  -7   15.00    1.30
   8   3  -6   10.50    1.10
   8   3  -6   10.70    1.40
   8  -3  -6    5.80    1.20
   8  -3  -6    6.80    1.00
  -8  -3   6    8.60    6.60
   8   3  -5    7.10    1.00
   8   3  -5    7.70    1.00
   8   3  -5    5.10    1.00
   8   3  -5    5.40    1.00
   8  -3  -5    8.60    1.10
   8  -3  -5    6.60    1.10
  -8  -3   5    5.10    4.90
   8  -3  -5    6.70    0.80
   8   3  -4   38.90    2.20
   8   3  -4   45.20    2.10
   8   3  -4   39.50    2.00
   8   3  -4   37.20    2.20
   8   3  -4   43.00    2.10
   8  -3  -4   45.20    2.20
   8  -3  -4   37.20    2.10
   8  -3  -4   38.00    2.10
   8   3  -3  111.19    4.70
   8   3  -3  105.19    4.80
   8   3  -3  106.59    4.80
   8   3  -3  103.59    4.90
   8   3  -3  107.39    4.90
   8  -3  -3  106.79    4.80
  -8  -3   3  100.29   18.10
   8  -3  -3  108.89    4.80
   8   3  -2   49.40    2.80
   8   3  -2   49.80    2.60
   8   3  -2   52.89    2.80
   8   3  -2   52.09    2.50
   8   3  -2   52.19    2.50
   8  -3  -2   51.29    2.60
   8  -3  -2   48.50    2.40
   8  -3  -2   51.59    2.60
   8   3  -1  987.40   38.30
   8   3  -1  923.61   38.50
   8  -3  -1  956.00   38.40
   8  -3  -1  815.92   38.20
   8  -3  -1  858.31   38.30
   8   3   0   37.80    2.10
   8   3   0   38.00    1.90
   8   3   0   41.00    2.00
   8  -3   0   35.20    2.00
   8  -3   0   35.20    1.90
   8   4  -7   41.20    2.20
   8   4  -7   35.10    2.20
  -8  -4   7   37.70    8.30
   8  -4  -7   39.30    2.10
   8  -4  -7   43.60    2.10
   8  -4  -7   47.40    2.30
   8   4  -6    2.40    0.70
   8   4  -6    1.10    0.80
   8  -4  -6    1.90    0.70
  -8  -4   6    1.00    4.20
   8   4  -5   -0.30    0.90
   8   4  -5   -0.20    0.60
   8   4  -5   -1.00    0.60
   8   4  -5    0.00    0.60
   8  -4  -5    1.60    0.80
   8  -4  -5    1.50    1.10
   8  -4  -5   -0.20    0.50
   8  -4  -5    0.20    0.70
  -8  -4   5    0.00    4.20
   8   4  -4    1.70    0.70
   8   4  -4    1.90    0.60
   8   4  -4    2.70    0.70
   8   4  -4    0.40    0.70
   8   4  -4    2.70    0.70
   8   4  -4    0.10    1.00
   8   4  -4    1.20    0.80
   8  -4  -4    0.90    0.60
  -8  -4   4    2.20    4.90
   8  -4  -4    3.80    0.80
   8  -4  -4    1.20    0.70
   8   4  -3   44.70    2.50
   8   4  -3   48.80    2.60
   8   4  -3   49.00    2.40
   8   4  -3   46.60    2.60
   8   4  -3   52.49    2.40
   8  -4  -3   47.60    2.40
  -8  -4   3   47.50    9.10
   8  -4  -3   46.90    2.50
   8   4  -2    7.60    1.00
   8   4  -2    7.90    1.00
   8   4  -2   10.50    1.50
   8   4  -2    9.20    1.40
   8   4  -2    9.20    1.10
   8  -4  -2    7.80    1.20
   8  -4  -2    8.00    1.10
   8   4  -1  924.91   37.70
   8   4  -1  955.00   37.70
   8   4  -1  887.21   37.80
   8  -4  -1  788.02   37.60
   8  -4  -1  909.01   37.70
   8   4   0  312.17   13.50
   8   4   0  315.57   13.70
   8   4   0  343.97   13.50
   8  -4   0  274.57   13.50
   8  -4   0  339.97   13.60
   8   5  -7   33.70    2.30
   8  -5  -7   45.10    2.40
   8  -5  -7   40.40    2.10
   8  -5  -7   40.30    2.20
   8   5  -6   10.50    1.10
   8   5  -6    8.90    1.10
   8   5  -6    8.70    1.40
   8  -5  -6   10.10    1.20
  -8  -5   6    7.80    6.30
   8  -5  -6   11.40    1.10
   8  -5  -6    9.50    1.20
   8   5  -5  391.06   16.40
   8   5  -5  382.56   16.20
   8   5  -5  377.26   16.30
   8  -5  -5  369.36   16.20
  -8  -5   5  375.46   24.80
   8  -5  -5  405.26   16.30
   8  -5  -5  372.46   16.30
   8   5  -4  168.98    7.30
   8   5  -4  171.08    7.20
   8   5  -4  163.28    7.40
   8   5  -4  164.18    7.40
   8   5  -4  169.38    7.20
   8   5  -4  164.78    7.20
   8   5  -4  162.38    7.40
   8  -5  -4  166.08    7.20
  -8  -5   4  162.18   14.80
   8  -5  -4  166.08    7.30
   8  -5  -4  165.88    7.20
   8   5  -3    5.70    1.20
   8   5  -3    8.30    1.00
  -8  -5   3    7.40    7.00
   8   5  -2   19.60    1.80
   8   5  -2   23.50    1.40
   8   5  -2   20.00    2.10
   8   5  -2   22.40    1.80
   8   5  -2   27.80    1.50
   8  -5  -2   24.30    1.60
   8  -5  -2   21.20    1.50
   8   5  -1    8.30    1.40
   8   5  -1   10.10    1.00
   8   5  -1   10.80    1.10
   8  -5  -1    9.00    1.00
   8   5   0  115.19    5.20
   8   5   0  105.39    4.90
   8   5   0  117.59    5.00
   8  -5   0  110.79    4.90
   8   6  -7  156.08    6.60
   8  -6  -7  159.38    6.50
   8  -6  -7  132.99    6.60
   8  -6  -7  151.28    6.50
   8   6  -6  129.39    5.60
   8   6  -6  114.99    5.40
   8  -6  -6  123.79    5.40
   8  -6  -6  130.09    5.40
  -8  -6   6  120.19   12.40
   8  -6  -6  120.99    5.50
   8   6  -5  520.55   22.30
   8   6  -5  512.05   22.40
   8   6  -5  517.95   22.30
   8   6  -5  544.35   22.50
   8  -6  -5  551.14   22.30
   8  -6  -5  519.35   22.50
   8  -6  -5  506.75   22.30
  -8  -6   5  540.65   31.00
   8  -6  -5  535.35   22.40
   8   6  -4  104.69    4.70
   8   6  -4  103.79    4.70
   8   6  -4  111.39    4.70
   8   6  -4  105.39    4.90
   8   6  -4  105.29    4.80
   8   6  -4  108.99    4.90
   8   6  -4  104.69    4.90
  -8  -6   4  109.29   11.70
   8  -6  -4  103.29    4.70
   8  -6  -4  101.79    4.70
   8   6  -3    8.20    1.40
   8   6  -3    7.70    1.30
   8   6  -3    9.70    1.00
   8   6  -3    9.40    1.00
  -8  -6   3    9.00    6.90
   8  -6  -3    7.60    1.00
   8   6  -2   32.40    1.60
   8   6  -2   26.30    2.00
   8  -6  -2   25.10    1.60
   8   6  -1    1.90    0.90
   8   6  -1    1.40    0.60
   8   6  -1    1.90    0.60
   8  -6  -1    1.20    0.60
   8   6   0  102.59    4.80
   8   6   0  112.99    4.70
   8   6   0  102.89    4.60
   8  -6   0  101.29    4.60
   8   7  -6  682.73   32.80
   8   7  -6  808.92   32.90
   8  -7  -6  828.22   32.80
   8  -7  -6  807.62   32.80
  -8  -7   6  792.42   40.50
   8  -7  -6  743.73   32.80
   8   7  -5  602.54   25.50
   8   7  -5  592.94   25.30
   8   7  -5  573.54   25.40
   8   7  -5  577.04   25.50
   8  -7  -5  626.64   25.40
   8  -7  -5  575.94   25.40
  -8  -7   5  633.64   33.90
   8  -7  -5  620.24   25.40
   8   7  -4    8.30    1.00
   8   7  -4    9.90    1.50
   8   7  -4    8.10    0.90
   8   7  -4    6.60    0.80
   8   7  -4    8.40    1.20
   8  -7  -4    8.10    1.00
   8  -7  -4    8.40    1.30
  -8  -7   4    8.40    6.40
   8   7  -3    3.20    0.60
   8   7  -3    2.70    1.00
   8   7  -3    2.30    0.80
   8  -7  -3    4.00    1.00
   8  -7  -3    3.00    0.70
   8   7  -2   70.29    3.00
   8   7  -2   63.89    3.00
   8   7  -2   61.09    3.30
   8  -7  -2   62.19    3.00
   8   7  -1    2.80    0.60
   8   7  -1    2.40    0.90
   8   7  -1    2.70    0.60
   8  -7  -1    2.20    0.60
   8   7   0    2.30    0.70
   8   7   0    1.80    0.60
   8   7   0    1.30    0.80
   8  -8  -6   35.80    2.20
  -8  -8   6   36.70    7.70
   8  -8  -6   39.20    2.00
   8   8  -5  550.14   23.20
   8   8  -5  502.05   22.80
   8   8  -5  545.95   23.00
  -8  -8   5  569.94   30.50
   8  -8  -5  500.15   22.80
   8  -8  -5  569.54   22.80
   8   8  -4   16.70    1.50
   8   8  -4   18.10    1.70
   8   8  -4   16.80    1.20
   8   8  -4   18.10    1.20
   8  -8  -4   13.70    1.60
  -8  -8   4   16.70    6.80
   8   8  -3   18.40    1.20
   8   8  -3   18.10    1.70
   8   8  -3   17.30    1.20
   8  -8  -3   16.90    1.20
   8   8  -2    6.10    0.90
   8   8  -1   42.20    2.10
   8   8  -1   43.80    2.50
   8   8  -1   47.20    2.20
   8   9  -6  682.13   28.70
   8  -9  -6  672.53   28.60
   8   9  -5    2.30    0.90
   8   9  -5    0.10    0.90
  -8  -9   5    0.70    4.10
   8  -9  -5    0.80    0.70
   8   9  -4    1.20    0.70
   8   9  -4   -0.10    0.50
   8   9  -4   -0.20    1.20
   8   9  -4    0.10    0.80
  -8  -9   4   -1.00    4.20
   8   9  -3    0.60    0.50
   8   9  -3    0.50    0.70
   8   9  -3    0.10    0.90
   8   9  -2   15.40    1.10
   8   9  -2   15.50    1.50
   8   9  -2   14.60    1.10
   8   9  -1    1.40    0.60
   8   9  -1    1.50    0.90
   8  10  -5    2.60    0.90
   8  10  -5    2.50    1.30
   8 -10  -5    4.00    0.80
   8  10  -4   23.70    1.60
   8  10  -4   24.90    1.30
   8  10  -4   20.60    1.80
   8  10  -4   23.70    1.70
   8  10  -3   15.10    1.20
   8  10  -3   16.40    1.50
   8  10  -3   18.10    1.10
   8  10  -2   24.60    1.50
   8  10  -2   29.10    1.50
   8  10  -2   25.20    2.30
   8  11  -4   34.90    2.30
   8  11  -4   41.80    2.20
   8  11  -3    3.40    0.90
   8  11  -3    4.80    0.70
   9   0  -6   -1.00    0.70
   9   0  -6    1.40    0.80
   9   0  -5   -1.20    0.60
   9   0  -5   -0.60    0.70
  -9   0   5    1.50    5.70
   9   0  -4  108.89    4.80
   9   0  -4  106.49    4.80
   9   0  -3    0.50    0.70
   9   0  -3    0.20    0.70
   9   0  -2   48.20    2.60
   9   0  -2   55.09    2.60
   9   0  -2   54.89    2.50
   9   1  -6   48.40    2.50
   9   1  -6   53.89    2.50
   9  -1  -6   49.70    2.50
   9  -1  -6   49.40    2.50
   9   1  -5   50.99    2.50
  -9   1   5   44.80   10.90
   9   1  -5   52.89    2.50
  -9  -1   5   54.29   13.50
   9  -1  -5   51.99    2.40
   9  -1  -5   49.70    2.50
   9   1  -4  137.79    6.00
   9   1  -4  139.79    6.00
   9  -1  -4  137.99    6.00
   9  -1  -4  131.19    6.00
   9   1  -3    8.10    1.10
   9   1  -3   10.40    1.10
   9   1  -3    8.20    0.90
   9  -1  -3    8.50    1.00
   9  -1  -3    9.20    1.10
   9   1  -2    0.10    0.70
   9   1  -2    1.30    0.50
   9   1  -2    1.20    0.80
   9  -1  -2    0.60    0.90
   9  -1  -2   -0.10    0.60
   9   2  -5    2.20    0.80
   9   2  -5    1.50    0.70
   9  -2  -5    1.20    0.80
   9  -2  -5    1.80    0.60
   9   2  -4    1.60    0.70
   9  -2  -4    2.10    0.70
   9  -2  -4    3.70    0.80
   9   2  -3    6.00    1.00
   9   2  -3    4.80    0.80
   9   2  -3    6.70    0.90
   9  -2  -3    7.50    1.10
   9  -2  -3    5.90    0.90
   9   2  -2    7.30    0.90
   9   2  -2    7.70    1.00
   9   2  -2    7.80    1.00
   9  -2  -2    6.10    0.90
   9   3  -5   -0.50    0.70
   9   3  -5    0.40    0.70
   9  -3  -5    0.40    0.60
   9  -3  -5    1.70    0.80
   9   3  -4   23.10    1.50
   9   3  -4   23.80    1.90
   9  -3  -4   22.30    1.50
   9  -3  -4   20.90    1.40
   9   3  -3   47.50    2.40
   9   3  -3   43.30    2.30
   9   3  -3   49.60    2.20
   9  -3  -3   43.00    2.40
   9  -3  -3   45.90    2.30
   9   3  -2  111.09    4.70
   9   3  -2  108.19    4.80
   9   3  -2  100.09    4.70
   9  -3  -2  105.69    4.70
   9   4  -5    6.70    1.00
   9   4  -5    8.20    1.10
   9  -4  -5    7.20    1.00
   9  -4  -5    6.60    0.80
   9   4  -4   85.49    3.70
   9   4  -4   78.29    3.60
   9  -4  -4   76.19    3.70
   9  -4  -4   74.89    3.70
   9   4  -3   18.70    1.60
   9   4  -3   17.00    1.30
   9   4  -3   19.80    1.20
   9  -4  -3   17.40    1.80
   9   5  -5   17.80    1.40
   9   5  -5   18.40    1.30
   9   5  -4    8.70    1.00
   9   5  -4    8.50    1.10
   9  -5  -4    8.30    0.90
   9   5  -3  120.29    5.30
   9   5  -3  110.39    5.20
   9  -5  -3  121.69    5.20
   9   6  -4    1.30    0.80
   9   6  -4    2.80    0.70
   9  -6  -4    2.00    0.60

_computing_structure_solution     'SHELXT 2014/4 (Sheldrick, 2014)'
;
_shelx_hkl_checksum              57577
_shelx_shelxl_version_number     2014/7
_olex2_exptl_crystal_mounting_method 'mounted on a cryoloop'
_olex2_submission_original_sample_id CNPHCO
_olex2_submission_special_instructions 'No special instructions were received'
loop_
_space_group_symop_operation_xyz
'x, y, z'
'-x, y+1/2, -z+1/2'
'-x, -y, -z'
'x, -y-1/2, z-1/2'
loop_
_atom_site_label
_atom_site_type_symbol
_atom_site_fract_x
_atom_site_fract_y
_atom_site_fract_z
_atom_site_U_iso_or_equiv
_atom_site_adp_type
_atom_site_occupancy
_atom_site_site_symmetry_order
_atom_site_calc_flag
_atom_site_refinement_flags_posn
_atom_site_refinement_flags_adp
_atom_site_refinement_flags_occupancy
_atom_site_disorder_assembly
_atom_site_disorder_group
O1 O 0.16433(11) 0.33274(4) 0.32534(10) 0.0236(2) Uani 1 1 d . . . . .
O2 O 0.17353(11) 0.41216(4) 0.07757(10) 0.0253(2) Uani 1 1 d . . . . .
N1 N 0.38466(14) 0.69736(5) 0.96462(15) 0.0343(2) Uani 1 1 d . . . . .
C1 C 0.35020(14) 0.64945(6) 0.84063(15) 0.0247(2) Uani 1 1 d . . . . .
C2 C 0.30668(13) 0.58757(5) 0.68963(14) 0.0196(2) Uani 1 1 d . . . . .
C3 C 0.28601(13) 0.51096(5) 0.74875(14) 0.0196(2) Uani 1 1 d . . . . .
C4 C 0.24673(13) 0.45070(5) 0.60689(13) 0.0181(2) Uani 1 1 d . . . . .
C5 C 0.22522(12) 0.46650(5) 0.40618(13) 0.0168(2) Uani 1 1 d . . . . .
C6 C 0.24389(13) 0.54321(5) 0.34781(13) 0.0196(2) Uani 1 1 d . . . . .
C7 C 0.28571(13) 0.60405(5) 0.48928(15) 0.0212(2) Uani 1 1 d . . . . .
C8 C 0.18501(12) 0.40259(5) 0.25042(13) 0.0178(2) Uani 1 1 d . . . . .
C9 C 0.13678(16) 0.26692(6) 0.18754(15) 0.0264(2) Uani 1 1 d . . . . .
H9A H 0.2577(19) 0.2632(8) 0.1570(19) 0.027(3) Uiso 1 1 d . . . . .
H9B H 0.129(2) 0.2206(9) 0.270(2) 0.037(3) Uiso 1 1 d . . . . .
H3 H 0.2959(19) 0.4995(7) 0.887(2) 0.024(3) Uiso 1 1 d . . . . .
H9C H 0.011(2) 0.2741(8) 0.059(2) 0.032(3) Uiso 1 1 d . . . . .
H6 H 0.2260(19) 0.5524(8) 0.206(2) 0.029(3) Uiso 1 1 d . . . . .
H7 H 0.3020(19) 0.6578(8) 0.451(2) 0.029(3) Uiso 1 1 d . . . . .
H4 H 0.2336(19) 0.3985(8) 0.650(2) 0.030(3) Uiso 1 1 d . . . . .
loop_
_atom_site_aniso_label
_atom_site_aniso_U_11
_atom_site_aniso_U_22
_atom_site_aniso_U_33
_atom_site_aniso_U_23
_atom_site_aniso_U_13
_atom_site_aniso_U_12
O1 0.0375(4) 0.0156(3) 0.0208(3) -0.0023(2) 0.0153(3) -0.0027(2)
O2 0.0321(4) 0.0254(4) 0.0185(3) 0.0010(2) 0.0109(3) -0.0016(3)
N1 0.0358(5) 0.0242(5) 0.0408(5) -0.0099(4) 0.0143(4) -0.0007(3)
C1 0.0222(4) 0.0200(4) 0.0314(5) -0.0018(4) 0.0108(4) 0.0005(3)
C2 0.0163(4) 0.0168(4) 0.0249(4) -0.0021(3) 0.0080(3) 0.0002(3)
C3 0.0195(4) 0.0195(4) 0.0202(4) 0.0002(3) 0.0086(3) 0.0001(3)
C4 0.0192(4) 0.0158(4) 0.0196(4) 0.0017(3) 0.0084(3) -0.0003(3)
C5 0.0146(4) 0.0168(4) 0.0185(4) 0.0009(3) 0.0064(3) 0.0005(3)
C6 0.0181(4) 0.0193(4) 0.0209(4) 0.0046(3) 0.0078(3) 0.0014(3)
C7 0.0193(4) 0.0155(4) 0.0277(5) 0.0034(3) 0.0090(3) 0.0009(3)
C8 0.0161(4) 0.0187(4) 0.0181(4) 0.0014(3) 0.0068(3) 0.0009(3)
C9 0.0383(5) 0.0192(5) 0.0247(5) -0.0065(3) 0.0163(4) -0.0027(4)
loop_
_atom_type_symbol
_atom_type_description
_atom_type_scat_dispersion_real
_atom_type_scat_dispersion_imag
_atom_type_scat_source
C C 0.0140 0.0070 'International Tables Vol C Tables 4.2.6.8 and 6.1.1.4'
H H 0.0000 0.0000 'International Tables Vol C Tables 4.2.6.8 and 6.1.1.4'
N N 0.0250 0.0140 'International Tables Vol C Tables 4.2.6.8 and 6.1.1.4'
O O 0.0390 0.0250 'International Tables Vol C Tables 4.2.6.8 and 6.1.1.4'
loop_
_geom_angle_atom_site_label_1
_geom_angle_atom_site_label_2
_geom_angle_atom_site_label_3
_geom_angle
_geom_angle_site_symmetry_1
_geom_angle_site_symmetry_3
C8 O1 C9 115.25(7) . .
N1 C1 C2 178.22(11) . .
C3 C2 C1 118.44(8) . .
C7 C2 C1 120.54(8) . .
C7 C2 C3 121.03(8) . .
C2 C3 H3 121.3(7) . .
C4 C3 C2 119.28(8) . .
C4 C3 H3 119.4(7) . .
C3 C4 C5 120.19(8) . .
C3 C4 H4 118.4(8) . .
C5 C4 H4 121.4(8) . .
C4 C5 C6 120.16(8) . .
C4 C5 C8 121.40(7) . .
C6 C5 C8 118.43(8) . .
C5 C6 H6 118.1(8) . .
C7 C6 C5 120.24(8) . .
C7 C6 H6 121.6(8) . .
C2 C7 H7 119.8(8) . .
C6 C7 C2 119.09(8) . .
C6 C7 H7 121.1(8) . .
O1 C8 C5 111.92(7) . .
O2 C8 O1 123.67(8) . .
O2 C8 C5 124.42(8) . .
O1 C9 H9A 108.7(8) . .
O1 C9 H9B 103.9(8) . .
O1 C9 H9C 109.9(8) . .
H9A C9 H9B 110.7(11) . .
H9A C9 H9C 110.6(11) . .
H9B C9 H9C 112.8(11) . .
loop_
_geom_bond_atom_site_label_1
_geom_bond_atom_site_label_2
_geom_bond_distance
_geom_bond_site_symmetry_2
O1 C8 1.3402(10) .
O1 C9 1.4487(10) .
O2 C8 1.2092(11) .
N1 C1 1.1504(14) .
C1 C2 1.4433(12) .
C2 C3 1.4010(12) .
C2 C7 1.3981(13) .
C3 C4 1.3839(12) .
C3 H3 0.975(13) .
C4 C5 1.3969(12) .
C4 H4 0.959(14) .
C5 C6 1.3974(12) .
C5 C8 1.4935(11) .
C6 C7 1.3877(13) .
C6 H6 0.976(14) .
C7 H7 0.977(13) .
C9 H9A 0.985(13) .
C9 H9B 1.000(15) .
C9 H9C 0.980(13) .
loop_
_geom_torsion_atom_site_label_1
_geom_torsion_atom_site_label_2
_geom_torsion_atom_site_label_3
_geom_torsion_atom_site_label_4
_geom_torsion
_geom_torsion_site_symmetry_1
_geom_torsion_site_symmetry_2
_geom_torsion_site_symmetry_3
_geom_torsion_site_symmetry_4
C1 C2 C3 C4 -179.22(8) . . . .
C1 C2 C7 C6 179.99(8) . . . .
C2 C3 C4 C5 -0.88(13) . . . .
C3 C2 C7 C6 -0.03(13) . . . .
C3 C4 C5 C6 0.20(13) . . . .
C3 C4 C5 C8 179.34(7) . . . .
C4 C5 C6 C7 0.58(13) . . . .
C4 C5 C8 O1 2.81(11) . . . .
C4 C5 C8 O2 -176.76(8) . . . .
C5 C6 C7 C2 -0.65(13) . . . .
C6 C5 C8 O1 -178.03(7) . . . .
C6 C5 C8 O2 2.39(13) . . . .
C7 C2 C3 C4 0.80(13) . . . .
C8 C5 C6 C7 -178.59(7) . . . .
C9 O1 C8 O2 3.00(13) . . . .
C9 O1 C8 C5 -176.57(7) . . . .

_cod_database_fobs_code 3500034
