#------------------------------------------------------------------------------
#$Date: 2016-09-21 22:55:27 +0300 (Wed, 21 Sep 2016) $
#$Revision: 186684 $
#$URL: file:///home/coder/svn-repositories/cod/cif/3/50/00/3500041.cif $
#------------------------------------------------------------------------------
#
# This file is available in the Crystallography Open Database (COD),
# http://www.crystallography.net/
#
# All data on this site have been placed in the public domain by the
# contributors.
#
data_3500041
loop_
_publ_author_name
'Thierry Maris'
_publ_section_references
;
Dolomanov, O.V., Bourhis, L.J., Gildea, R.J, Howard, J.A.K. & Puschmann, H.
 (2009), J. Appl. Cryst. 42, 339-341.

Sheldrick, G.M. (2008). Acta Cryst. A64, 112-122.

Sheldrick, G.M. (2015). Acta Cryst. A71, 3-8.
;
_publ_section_title
;
 2-Naphthylsulfonyl chloride
;
_journal_name_full               'Personal communication to COD'
_journal_year                    2016
_chemical_formula_moiety         'C7 H6 Br N O2'
_chemical_formula_sum            'C7 H6 Br N O2'
_chemical_formula_weight         216.04
_chemical_name_common            1-Bromomethyl-3-nitrobenzene
_chemical_name_systematic        'Benzene, 1-(bromomethyl)-3-?nitro-'
_space_group_crystal_system      monoclinic
_space_group_IT_number           14
_space_group_name_Hall           '-P 2ybc'
_space_group_name_H-M_alt        'P 1 21/c 1'
_symmetry_space_group_name_Hall  '-P 2ybc'
_symmetry_space_group_name_H-M   'P 1 21/c 1'
_atom_sites_solution_hydrogens   geom
_atom_sites_solution_primary     direct
_audit_creation_date             2016-04-26
_audit_creation_method
;
Olex2 1.2
(compiled 2016.02.19 svn.r3266 for OlexSys, GUI svn.r5155)
;
_cell_angle_alpha                90
_cell_angle_beta                 112.566(5)
_cell_angle_gamma                90
_cell_formula_units_Z            4
_cell_length_a                   12.1448(15)
_cell_length_b                   4.4764(6)
_cell_length_c                   15.0812(19)
_cell_measurement_reflns_used    9807
_cell_measurement_temperature    100
_cell_measurement_theta_max      60.773
_cell_measurement_theta_min      3.482
_cell_volume                     757.12(17)
_computing_cell_refinement
;
SAINT (2013) V8.37A; Integration Software for Single Crystal Data.
Bruker AXS Inc., Madison, WI 53719-1173.
;
_computing_data_collection
;
APEX 2 (2013) Bruker AXS Inc., Madison, WI 53719-1173.
;
_computing_data_reduction
;
SAINT (2013) V8.37A; Integration Software for Single Crystal Data.
Bruker AXS Inc., Madison, WI 53719-1173.
;
_computing_molecular_graphics    'Olex2 (Dolomanov et al., 2009)'
_computing_publication_material  'Olex2 (Dolomanov et al., 2009)'
_computing_structure_refinement  'XL (Sheldrick, 2008)'
_computing_structure_solution    'XT (Sheldrick, 2015)'
_diffrn_ambient_temperature      100
_diffrn_detector                 'CMOS Area detector'
_diffrn_detector_area_resol_mean 10.24
_diffrn_detector_type            'Bruker Photon 100 CMOS Detector'
_diffrn_measured_fraction_theta_full 0.997
_diffrn_measured_fraction_theta_max 0.997
_diffrn_measurement_device       'k-geometry diffractometer'
_diffrn_measurement_device_type  'Bruker Venture Metaljet'
_diffrn_measurement_method       '\w and \f scans'
_diffrn_radiation_collimation    'Focusing mirrors'
_diffrn_radiation_monochromator  'Helios MX Mirror Optics'
_diffrn_radiation_probe          x-ray
_diffrn_radiation_type           GaK\a
_diffrn_radiation_wavelength     1.34139
_diffrn_reflns_av_R_equivalents  0.0574
_diffrn_reflns_av_unetI/netI     0.0248
_diffrn_reflns_Laue_measured_fraction_full 0.997
_diffrn_reflns_Laue_measured_fraction_max 0.997
_diffrn_reflns_limit_h_max       14
_diffrn_reflns_limit_h_min       -15
_diffrn_reflns_limit_k_max       5
_diffrn_reflns_limit_k_min       -5
_diffrn_reflns_limit_l_max       19
_diffrn_reflns_limit_l_min       -19
_diffrn_reflns_number            22671
_diffrn_reflns_point_group_measured_fraction_full 0.997
_diffrn_reflns_point_group_measured_fraction_max 0.997
_diffrn_reflns_theta_full        53.594
_diffrn_reflns_theta_max         60.741
_diffrn_reflns_theta_min         5.269
_diffrn_source                   'Metal Jet'
_diffrn_source_target            Ga
_diffrn_source_type              'Gallium Liquid Metal Jet Source'
_exptl_absorpt_coefficient_mu    4.807
_exptl_absorpt_correction_T_max  0.3107
_exptl_absorpt_correction_T_min  0.1884
_exptl_absorpt_correction_type   multi-scan
_exptl_absorpt_process_details
;
SADABS-2014/5 (Bruker,2014/5) was used for absorption correction.
wR2(int) was 0.1150 before and 0.0852 after correction.
The Ratio of minimum to maximum transmission is 0.6064.
The \l/2 correction factor is 0.00150.
;
_exptl_crystal_colour            'clear light colourless'
_exptl_crystal_colour_lustre     clear
_exptl_crystal_colour_modifier   light
_exptl_crystal_colour_primary    colourless
_exptl_crystal_density_diffrn    1.895
_exptl_crystal_description       Block
_exptl_crystal_F_000             424
_exptl_crystal_size_max          0.35
_exptl_crystal_size_mid          0.18
_exptl_crystal_size_min          0.15
_exptl_special_details
;
X-ray crystallographic data for I were collected from a single crystal
sample, which was mounted on a loop fiber. Data were collected using
a Bruker Venture diffractometer equipped with a Photon 100 CMOS Detector,
a Helios MX optics and a Kappa goniometer. The crystal-to-detector distance 
was 4.0 cm, and the data collection was carried out in 1024 x 1024 pixel mode.
;
_geom_special_details
;
 All esds (except the esd in the dihedral angle between two l.s. planes)
 are estimated using the full covariance matrix.  The cell esds are taken
 into account individually in the estimation of esds in distances, angles
 and torsion angles; correlations between esds in cell parameters are only
 used when they are defined by crystal symmetry.  An approximate (isotropic)
 treatment of cell esds is used for estimating esds involving l.s. planes.
;
_refine_diff_density_max         1.206
_refine_diff_density_min         -0.356
_refine_diff_density_rms         0.131
_refine_ls_extinction_coef       .
_refine_ls_extinction_method     none
_refine_ls_goodness_of_fit_ref   1.125
_refine_ls_hydrogen_treatment    constr
_refine_ls_matrix_type           full
_refine_ls_number_parameters     100
_refine_ls_number_reflns         1740
_refine_ls_number_restraints     0
_refine_ls_restrained_S_all      1.125
_refine_ls_R_factor_all          0.0422
_refine_ls_R_factor_gt           0.0400
_refine_ls_shift/su_max          0.001
_refine_ls_shift/su_mean         0.000
_refine_ls_structure_factor_coef Fsqd
_refine_ls_weighting_details
'w=1/[\s^2^(Fo^2^)+(0.0627P)^2^+0.4062P] where P=(Fo^2^+2Fc^2^)/3'
_refine_ls_weighting_scheme      calc
_refine_ls_wR_factor_gt          0.1015
_refine_ls_wR_factor_ref         0.1050
_reflns_Friedel_coverage         0.000
_reflns_Friedel_fraction_full    .
_reflns_Friedel_fraction_max     .
_reflns_number_gt                1611
_reflns_number_total             1740
_reflns_special_details
;
 Reflections were merged by SHELXL according to the crystal
 class for the calculation of statistics and refinement.
 
 _reflns_Friedel_fraction is defined as the number of unique
 Friedel pairs measured divided by the number that would be
 possible theoretically, ignoring centric projections and
 systematic absences.
;
_reflns_threshold_expression     'I > 2\s(I)'
_cod_data_source_file            BrNit1.cif
_cod_data_source_block           brnit1
_cod_depositor_comments
;
The following automatic conversions were performed:

'_diffrn_radiation_probe' value 'X-ray' changed to 'x-ray' according
to the built-in table from CIF Core dictionary named 'cif_core.dic'
version 2.4.1 from 2010-06-29.

Automatic conversion script
Id: cif_fix_values 4624 2016-04-14 12:54:50Z antanas 
;
_cod_database_code               3500041
_shelx_space_group_comment
;
The symmetry employed for this shelxl refinement is uniquely defined
by the following loop, which should always be used as a source of
symmetry information in preference to the above space-group names.
They are only intended as comments.
;
_shelx_estimated_absorpt_t_max   0.533
_shelx_estimated_absorpt_t_min   0.284
_olex2_refinement_description
;
1. Fixed Uiso
 At 1.2 times of:
  All C(H) groups, All C(H,H) groups
2.a Secondary CH2 refined with riding coordinates:
 C7(H7A,H7B)
2.b Aromatic/amide H refined with riding coordinates:
 C1(H1), C2(H2), C4(H4), C6(H6)
;
_shelx_res_file
;
    brnit1.res created by SHELXL-2014/7

TITL brnit1_a.res in P2(1)/c
REM Old TITL BrNit1 in P21/c #14
REM SHELXT solution in P2(1)/c
REM R1 0.121, Rweak 0.001, Alpha 0.027, Orientation as input
REM Formula found by SHELXT: C8 N O Br
CELL 1.34139 12.1448 4.4764 15.0812 90 112.566 90
ZERR 4 0.0015 0.0006 0.0019 0 0.005 0
LATT 1
SYMM -X,0.5+Y,0.5-Z
SFAC C H N O Br
DISP Br -0.934 1.041 8191.512
DISP C 0.014 0.007 57.748
DISP H -0 0 0.648
DISP N 0.025 0.014 110.512
DISP O 0.039 0.025 193.954
UNIT 28 24 4 8 4
EQIV $1 -X,2-Y,1-Z
EQIV $2 1-X,-0.5+Y,1.5-Z

L.S. 30
PLAN  8
SIZE 0.15 0.18 0.35
TEMP 0
HTAB C2 O1_$1
HTAB C4 Br1_$2
BOND $H
LIST 4
HTAB
MORE -1
CONF
fmap 2
acta
REM <olex2.extras>
REM <HklSrc "%.\\BrNit1.hkl">
REM </olex2.extras>

WGHT    0.062700    0.406200
FVAR       0.74309
BR1   5    0.544961    0.388924    0.896346    11.00000    0.03804    0.05535 =
         0.06058    0.00548    0.01367    0.00190
O1    4    0.082624    0.748452    0.485939    11.00000    0.05931    0.06496 =
         0.05114    0.00814    0.01663    0.00097
O2    4    0.208345    0.389159    0.506332    11.00000    0.05606    0.07028 =
         0.05515   -0.01318    0.02133   -0.00141
N1    3    0.154395    0.565899    0.536438    11.00000    0.04298    0.05372 =
         0.05145   -0.00518    0.01616   -0.00850
C1    1    0.127654    0.716270    0.770661    11.00000    0.03940    0.04702 =
         0.05302   -0.00169    0.01603    0.00061
AFIX  43
H1    2    0.080814    0.826503    0.795159    11.00000   -1.20000
AFIX   0
C2    1    0.104478    0.728393    0.672867    11.00000    0.03688    0.04431 =
         0.05112    0.00103    0.01124   -0.00060
AFIX  43
H2    2    0.043029    0.845257    0.631264    11.00000   -1.20000
AFIX   0
C3    1    0.176932    0.558685    0.639922    11.00000    0.04132    0.04664 =
         0.04697   -0.00309    0.01436   -0.00586
C4    1    0.269132    0.383507    0.699435    11.00000    0.04003    0.04295 =
         0.05443   -0.00435    0.01656   -0.00354
AFIX  43
H4    2    0.315629    0.272946    0.674686    11.00000   -1.20000
AFIX   0
C5    1    0.291507    0.374764    0.797112    11.00000    0.03840    0.04265 =
         0.05146   -0.00016    0.01205   -0.00588
C6    1    0.220034    0.541232    0.832116    11.00000    0.04143    0.04626 =
         0.04767   -0.00130    0.01348   -0.00393
AFIX  43
H6    2    0.234223    0.535283    0.897232    11.00000   -1.20000
AFIX   0
C7    1    0.390446    0.182660    0.862256    11.00000    0.04008    0.04441 =
         0.06652    0.00674    0.01687   -0.00278
AFIX  23
H7A   2    0.392059   -0.004727    0.830476    11.00000   -1.20000
H7B   2    0.376701    0.138452    0.920139    11.00000   -1.20000
AFIX   0
HKLF 4

REM  brnit1_a.res in P2(1)/c
REM R1 =  0.0400 for    1611 Fo > 4sig(Fo)  and  0.0422 for all    1740 data
REM    100 parameters refined using      0 restraints

END

WGHT      0.0627      0.4062

REM Instructions for potential hydrogen bonds
HTAB C2 O1_$1
HTAB C4 Br1_$2

REM Highest difference peak  1.206,  deepest hole -0.356,  1-sigma level  0.131
Q1    1   0.5587  0.3842  0.8469  11.00000  0.05    1.21
Q2    1   0.5173  0.3895  0.9394  11.00000  0.05    1.11
Q3    1   0.2874  0.3725  0.7587  11.00000  0.05    0.45
Q4    1   0.1059  0.6968  0.7192  11.00000  0.05    0.38
Q5    1   0.3608  0.1175  0.8053  11.00000  0.05    0.37
Q6    1   0.2567  0.4167  0.8172  11.00000  0.05    0.36
Q7    1   0.1254  0.6124  0.6625  11.00000  0.05    0.35
Q8    1   0.5445 -0.1681  0.8962  11.00000  0.05    0.28
;
_shelx_res_checksum              72402
_shelx_hkl_file
;
   2   0   0  497.65   32.20
  -2   0   0  414.76   32.20
   2   0   0  464.95   32.20
  -4   0   0  127.29    9.90
  -4   0   0  152.28   10.00
   4   0   0  134.19   10.00
  -4   0   0  153.68   10.00
  -4   0   0  143.09    9.90
  -4   0   0  137.99   10.00
  -4   0   0  142.29   10.00
  -4   0   0  141.99    9.90
  -4   0   0  124.19   10.00
  -4   0   0  145.39   10.00
  -5   0   0  140.69   11.30
  -5   0   0  153.38   11.20
  -5   0   0  160.88   11.30
  -5   0   0  168.78   11.30
  -5   0   0  169.48   11.30
  -5   0   0  141.09   11.20
  -5   0   0  160.68   11.30
  -5   0   0  178.28   11.30
  -5   0   0  157.38   11.30
  -5   0   0  150.88   11.30
  -5   0   0  170.48   11.30
  -6   0   0  355.76   29.30
  -6   0   0  445.46   29.30
  -6   0   0  447.86   29.30
  -6   0   0  380.06   29.30
  -6   0   0  395.06   29.30
  -6   0   0  437.86   29.30
  -6   0   0  459.55   29.30
  -6   0   0  414.86   29.30
  -6   0   0  415.96   29.40
  -6   0   0  351.26   29.40
  -6   0   0  413.86   29.30
  -6   0   0  460.55   29.30
  -6   0   0  473.95   29.30
  -6   0   0  390.76   29.30
  -6   0   0  425.96   29.30
  -6   0   0  390.26   29.30
  -7   0   0  352.96   22.70
  -7   0   0  327.97   22.70
  -7   0   0  322.77   22.70
  -7   0   0  305.37   22.60
  -7   0   0  323.97   22.60
  -7   0   0  320.47   22.60
  -7   0   0  285.07   22.60
  -7   0   0  320.97   22.60
  -7   0   0  360.26   22.60
  -7   0   0  333.57   22.70
  -7   0   0  295.87   22.60
  -7   0   0  303.77   22.60
  -7   0   0  288.37   22.70
  -7   0   0  360.46   22.80
  -7   0   0  321.47   22.70
  -8   0   0  710.63   48.60
  -8   0   0  708.43   48.70
  -8   0   0  741.03   48.60
  -8   0   0  639.04   48.60
  -8   0   0  658.43   48.70
  -8   0   0  637.44   48.70
  -8   0   0  606.24   48.60
  -8   0   0  598.04   48.60
  -8   0   0  728.33   48.70
  -8   0   0  737.23   48.80
  -8   0   0  761.82   48.70
  -8   0   0  703.73   48.60
  -8   0   0  700.63   48.70
  -8   0   0  680.53   48.70
  -8   0   0  785.82   48.90
  -9   0   0  707.43   49.60
  -9   0   0  641.24   49.60
  -9   0   0  765.52   49.70
  -9   0   0  668.23   49.60
  -9   0   0  687.03   49.60
  -9   0   0  673.73   49.50
  -9   0   0  763.82   49.70
  -9   0   0  656.03   49.60
  -9   0   0  776.42   49.60
  -9   0   0  741.33   49.60
  -9   0   0  684.33   49.50
 -10   0   0  414.76   30.30
 -10   0   0  472.85   30.30
 -10   0   0  392.36   30.20
 -10   0   0  450.55   30.30
 -10   0   0  408.36   30.20
 -10   0   0  437.16   30.40
 -10   0   0  474.15   30.30
 -10   0   0  392.96   30.20
 -10   0   0  448.96   30.30
 -10   0   0  400.06   30.20
 -11   0   0  881.81   59.89
 -11   0   0  898.31   59.79
 -11   0   0  840.12   59.69
 -11   0   0  866.01   59.69
 -11   0   0  818.72   59.79
 -11   0   0  735.13   59.69
 -11   0   0  913.71   59.79
 -12   0   0  658.43   44.50
 -12   0   0  652.63   44.50
 -12   0   0  650.53   44.60
 -12   0   0  576.74   44.70
 -12   0   0  630.44   44.50
 -12   0   0  629.94   44.50
 -12   0   0  625.94   44.50
 -13   0   0  282.77   21.20
 -13   0   0  308.77   20.90
 -13   0   0  292.17   20.90
 -13   0   0  299.77   20.90
 -13   0   0  305.77   21.00
 -13   0   0  279.87   20.90
 -14   0   0   86.59    5.80
 -14   0   0   83.49    5.90
 -14   0   0   71.19    6.10
 -14   0   0   73.29    6.20
 -14   0   0   76.79    5.70
 -14   0   0   74.09    5.70
  -1  -1   0  260.47   20.70
  -1  -1   0  271.27   20.70
  -1  -1   0  285.27   20.70
  -1   1   0  342.67   20.70
  -1   1   0  319.47   20.80
   1   1   0  292.67   20.70
   1   1   0  294.47   20.70
  -2  -1   0 1798.02  142.79
  -2  -1   0 2217.08  142.69
  -2  -1   0 1860.71  142.79
  -2  -1   0 1964.20  142.69
  -2  -1   0 1895.41  142.79
  -2  -1   0 1983.70  142.79
   2   1   0 2143.59  142.79
  -2   1   0 2251.67  142.79
  -2   1   0 1964.40  142.79
   2   1   0 2297.57  142.79
  -3  -1   0 7122.29  541.75
   3  -1   0 7183.98  541.75
  -3   1   0 8778.92  541.75
   3   1   0 8243.68  541.85
  -3   1   0 7363.16  541.75
  -4  -1   0  794.12   63.39
  -4  -1   0  970.00   63.29
  -4  -1   0  907.21   63.39
  -4  -1   0  919.11   63.29
  -4  -1   0  901.71   63.39
   4  -1   0  826.82   63.29
  -4  -1   0  885.71   63.29
  -4  -1   0  923.51   63.39
  -4  -1   0  909.61   63.39
  -4  -1   0  872.71   63.29
  -4   1   0 1017.60   63.29
  -4   1   0  942.71   63.39
  -4   1   0  908.01   63.39
   4   1   0  803.02   63.29
  -4   1   0  917.41   63.49
  -4   1   0  894.11   63.29
   4   1   0  885.81   63.29
  -4   1   0  985.70   63.39
  -5  -1   0  811.52   64.39
  -5  -1   0 1000.10   64.29
  -5  -1   0  806.72   64.29
  -5  -1   0 1007.40   64.29
  -5  -1   0 1005.70   64.29
  -5  -1   0  971.20   64.29
  -5  -1   0  956.20   64.29
  -5  -1   0  962.80   64.29
  -5  -1   0  873.41   64.29
  -5  -1   0  786.22   64.29
   5  -1   0  801.52   64.29
  -5  -1   0  947.81   64.29
  -5  -1   0  976.20   64.29
  -5   1   0  891.31   64.29
  -5   1   0  998.90   64.29
  -5   1   0  886.41   64.29
  -5   1   0  984.70   64.29
  -5   1   0  937.61   64.29
  -5   1   0  779.12   64.29
  -5   1   0  875.41   64.39
  -5   1   0  837.92   64.39
   5   1   0  963.30   64.29
  -5   1   0 1029.30   64.29
  -6  -1   0 2113.89  151.28
  -6  -1   0 2049.49  151.18
  -6  -1   0 1904.71  151.18
  -6  -1   0 2303.57  151.08
  -6  -1   0 2109.49  151.18
  -6  -1   0 2166.18  151.18
  -6  -1   0 2110.19  151.18
  -6  -1   0 2291.17  151.18
   6  -1   0 1912.31  151.08
  -6  -1   0 2265.77  151.18
  -6  -1   0 2216.58  151.18
  -6  -1   0 1975.00  151.18
  -6  -1   0 1943.11  151.18
  -6  -1   0 1888.91  151.08
  -6  -1   0 2035.90  151.18
  -6  -1   0 2196.68  151.08
  -6  -1   0 2365.16  151.18
  -6   1   0 2198.88  151.08
  -6   1   0 2481.25  151.08
  -6   1   0 2147.29  151.28
  -6   1   0 2441.06  151.18
  -6   1   0 2368.56  151.18
  -6   1   0 2163.88  151.18
  -6   1   0 2365.06  151.18
  -6   1   0 1880.31  151.28
  -6   1   0 2189.38  151.18
  -6   1   0 2140.99  151.18
  -6   1   0 2270.77  151.18
  -6   1   0 2073.09  151.08
  -7  -1   0  548.35   35.90
  -7  -1   0  480.35   35.90
  -7  -1   0  528.15   35.90
  -7  -1   0  464.25   35.90
   7  -1   0  469.15   35.90
  -7  -1   0  539.45   35.90
  -7  -1   0  575.04   35.90
  -7  -1   0  475.85   35.80
  -7  -1   0  430.96   35.80
  -7  -1   0  528.45   35.80
  -7  -1   0  514.35   35.90
  -7  -1   0  554.94   36.00
  -7  -1   0  561.54   36.10
  -7  -1   0  530.25   35.90
  -7  -1   0  514.05   35.90
  -7  -1   0  528.25   35.90
  -7   1   0  494.35   35.80
  -7   1   0  438.76   36.00
  -7   1   0  482.65   35.80
  -7   1   0  538.25   35.90
  -7   1   0  530.05   35.90
  -7   1   0  523.55   35.90
  -7   1   0  506.25   35.90
  -7   1   0  503.15   35.90
  -7   1   0  543.55   36.00
  -7   1   0  515.55   35.90
  -7   1   0  439.96   35.90
  -7   1   0  533.05   35.90
  -8  -1   0  874.31   60.79
  -8  -1   0  873.81   60.89
  -8  -1   0  782.42   60.79
  -8  -1   0  888.61   60.69
  -8  -1   0  824.92   60.69
  -8  -1   0  771.22   60.79
  -8  -1   0  811.62   60.69
  -8  -1   0  947.31   60.79
  -8  -1   0  859.01   60.69
  -8  -1   0  724.53   60.69
  -8  -1   0  834.82   60.79
  -8  -1   0  901.51   60.79
  -8  -1   0  899.21   60.79
  -8  -1   0  956.60   60.79
  -8  -1   0  909.11   60.79
  -8  -1   0  868.41   60.79
  -8   1   0  966.00   60.79
  -8   1   0  851.71   60.69
  -8   1   0  935.91   60.89
  -8   1   0  841.42   60.79
  -8   1   0  833.22   60.69
  -8   1   0  892.91   60.79
  -8   1   0  965.50   60.79
  -8   1   0  858.01   60.69
  -8   1   0  903.11   60.79
  -8   1   0  731.23   60.89
  -9  -1   0  185.58   12.30
  -9  -1   0  192.28   12.30
  -9  -1   0  148.09   12.30
  -9  -1   0  153.18   12.30
  -9  -1   0  168.38   12.20
  -9  -1   0  181.18   12.30
  -9  -1   0  160.88   12.40
  -9  -1   0  160.98   12.40
  -9  -1   0  163.58   12.60
  -9  -1   0  170.88   12.20
  -9  -1   0  177.18   12.40
  -9  -1   0  164.28   12.30
  -9  -1   0  173.28   12.30
  -9  -1   0  182.98   12.30
  -9   1   0  194.38   12.30
  -9   1   0  178.48   12.40
  -9   1   0  149.59   12.60
  -9   1   0  185.38   12.30
  -9   1   0  193.38   12.30
  -9   1   0  171.68   12.30
  -9   1   0  167.18   12.20
  -9   1   0  172.38   12.50
  -9   1   0  179.38   12.30
  -9   1   0  172.68   12.30
 -10  -1   0    8.10    1.10
 -10  -1   0    6.50    1.10
 -10  -1   0    5.10    1.50
 -10  -1   0    3.80    1.00
 -10  -1   0    6.70    1.00
 -10  -1   0    6.30    1.30
 -10  -1   0    7.40    1.20
 -10  -1   0    5.40    1.10
 -10  -1   0    5.20    1.20
 -10   1   0    6.80    1.10
 -10   1   0    7.30    1.80
 -10   1   0    4.30    0.90
 -10   1   0    5.60    1.10
 -10   1   0    6.00    1.10
 -10   1   0    5.10    0.90
 -10   1   0    6.30    1.10
 -10   1   0    4.50    1.00
 -11  -1   0   10.20    1.20
 -11  -1   0    9.50    1.70
 -11  -1   0    8.30    1.30
 -11  -1   0    8.10    1.20
 -11  -1   0    7.00    1.30
 -11  -1   0    6.00    1.40
 -11  -1   0   10.00    1.80
 -11  -1   0    5.70    1.30
 -11  -1   0    9.50    1.40
 -11  -1   0    6.10    1.20
 -11   1   0    8.50    2.10
 -11   1   0    9.10    1.50
 -11   1   0    6.90    1.20
 -11   1   0    6.10    1.50
 -11   1   0    5.00    1.50
 -11   1   0    9.10    1.60
 -11   1   0    8.00    1.30
 -11   1   0    7.80    1.50
 -12  -1   0   13.30    1.70
 -12  -1   0   17.40    2.20
 -12  -1   0   15.60    2.10
 -12  -1   0   11.80    1.70
 -12  -1   0   14.80    1.60
 -12  -1   0   14.20    1.60
 -12  -1   0   15.10    1.60
 -12   1   0   10.40    1.70
 -12   1   0   15.40    1.90
 -12   1   0   15.70    1.90
 -12   1   0   14.30    1.80
 -12   1   0   14.60    1.90
 -12   1   0   14.80    1.60
 -12   1   0   12.30    1.60
 -13  -1   0    7.30    1.30
 -13  -1   0    7.80    1.30
 -13  -1   0    6.00    1.30
 -13  -1   0    9.60    1.80
  13  -1   0    5.90    1.20
 -13  -1   0    8.80    1.30
 -13  -1   0    9.10    2.00
 -13   1   0    7.60    1.70
 -13   1   0    7.70    1.40
 -13   1   0    8.10    1.60
 -13   1   0    9.50    1.30
 -14  -1   0   48.30    3.80
 -14  -1   0   50.09    3.80
 -14  -1   0   45.40    3.60
 -14  -1   0   43.50    4.20
 -14  -1   0   43.80    3.70
 -14   1   0   44.20    3.60
 -14   1   0   53.19    4.30
   0  -2   0    1.80    0.50
   1  -2   0  405.56   32.90
   1  -2   0  505.15   32.90
  -1  -2   0  503.15   32.90
  -1  -2   0  454.35   33.00
  -1  -2   0  449.66   32.90
  -1  -2   0  414.76   32.90
  -1  -2   0  506.75   32.90
   1  -2   0  493.65   32.90
  -1  -2   0  437.66   32.90
  -1  -2   0  506.05   33.00
   1   2   0  458.35   32.90
   1   2   0  487.55   32.90
  -1   2   0  486.55   32.90
  -1   2   0  449.06   32.90
   2  -2   0  224.08   16.80
  -2  -2   0  246.68   16.70
  -2  -2   0  214.38   16.70
  -2  -2   0  276.57   16.80
  -2  -2   0  216.78   16.80
  -2  -2   0  219.38   16.80
  -2  -2   0  252.77   16.80
  -2  -2   0  255.47   16.80
  -2  -2   0  205.08   16.70
  -2  -2   0  229.58   16.80
  -2  -2   0  235.58   16.80
  -2  -2   0  227.38   16.80
  -2  -2   0  215.78   16.80
  -2  -2   0  220.08   16.90
   2   2   0  247.98   16.80
   2   2   0  257.27   16.80
  -2   2   0  250.87   16.80
  -2   2   0  246.18   16.80
  -2   2   0  275.47   16.80
  -3  -2   0  269.67   22.60
  -3  -2   0  312.87   22.60
   3  -2   0  306.87   22.50
  -3  -2   0  348.37   22.50
   3  -2   0  333.77   22.60
  -3  -2   0  317.57   22.50
  -3  -2   0  273.87   22.50
  -3  -2   0  283.47   22.60
  -3  -2   0  316.07   22.60
  -3  -2   0  303.17   22.60
  -3  -2   0  293.97   22.60
   3  -2   0  354.36   22.70
  -3  -2   0  305.47   22.50
  -3  -2   0  334.57   22.60
  -3  -2   0  331.77   22.60
  -3   2   0  328.77   22.60
  -3   2   0  330.47   22.60
  -3   2   0  360.66   22.60
   3   2   0  336.77   22.50
   3   2   0  343.47   22.60
   3   2   0  308.87   22.50
  -3   2   0  356.46   22.60
  -4  -2   0  590.54   36.90
   4  -2   0  523.45   37.00
  -4  -2   0  544.35   37.00
  -4  -2   0  513.85   37.00
  -4  -2   0  564.04   37.00
  -4  -2   0  514.85   37.10
  -4  -2   0  530.65   36.90
  -4  -2   0  531.85   37.00
  -4  -2   0  444.86   37.00
  -4  -2   0  476.75   37.00
  -4  -2   0  512.65   37.00
  -4  -2   0  540.35   37.00
  -4  -2   0  572.64   37.00
  -4   2   0  510.05   36.90
  -4   2   0  509.45   36.90
  -4   2   0  527.35   37.00
  -4   2   0  550.24   37.00
  -4   2   0  459.05   37.10
  -4   2   0  581.64   37.00
  -5  -2   0  360.66   29.50
  -5  -2   0  408.76   29.50
  -5  -2   0  410.36   29.50
  -5  -2   0  422.86   29.50
  -5  -2   0  435.96   29.50
  -5  -2   0  449.56   29.50
  -5  -2   0  437.16   29.60
   5  -2   0  444.56   29.50
  -5  -2   0  384.16   29.50
  -5  -2   0  372.06   29.60
  -5  -2   0  458.75   29.50
  -5  -2   0  440.46   29.40
  -5  -2   0  398.66   29.50
  -5  -2   0  380.66   29.50
  -5  -2   0  400.46   29.50
  -5  -2   0  442.96   29.60
  -5   2   0  483.25   29.50
  -5   2   0  397.46   29.50
  -5   2   0  413.56   29.60
  -5   2   0  403.96   29.40
  -5   2   0  423.26   29.60
  -5   2   0  420.26   29.50
  -5   2   0  456.55   29.50
  -6  -2   0  112.79    9.60
  -6  -2   0  127.39    9.70
  -6  -2   0  128.89    9.60
  -6  -2   0  135.39    9.50
  -6  -2   0  140.09    9.60
  -6  -2   0  134.29    9.50
  -6  -2   0  135.49    9.50
  -6  -2   0  125.09    9.50
   6  -2   0  130.29    9.50
  -6  -2   0  138.39    9.60
  -6  -2   0  142.29    9.60
  -6  -2   0  131.49    9.50
  -6  -2   0  129.59    9.60
  -6  -2   0  139.09    9.60
  -6  -2   0  132.39    9.60
  -6  -2   0  138.99    9.50
  -6   2   0  139.69    9.60
  -6   2   0  146.89    9.70
  -6   2   0  137.89    9.60
  -6   2   0  129.99    9.60
  -6   2   0  124.09    9.50
  -6   2   0  139.59    9.50
  -7  -2   0   17.20    1.70
  -7  -2   0   17.10    1.80
  -7  -2   0   15.40    2.00
  -7  -2   0   18.90    1.70
  -7  -2   0   18.50    1.70
  -7  -2   0   16.70    2.00
  -7  -2   0   19.50    1.70
  -7  -2   0   18.40    1.70
  -7  -2   0   19.20    1.90
  -7  -2   0   20.20    1.80
  -7  -2   0   17.30    1.70
  -7  -2   0   18.30    2.30
  -7  -2   0   19.50    1.50
  -7  -2   0   17.90    2.30
  -7   2   0   20.80    1.80
  -7   2   0   15.40    2.20
  -7   2   0   17.20    2.00
  -7   2   0   18.00    1.70
  -7   2   0   19.30    1.80
  -7   2   0   17.60    1.80
  -7   2   0   17.80    1.80
  -7   2   0   20.00    1.70
  -8  -2   0   71.79    6.00
  -8  -2   0   84.29    6.00
  -8  -2   0   80.59    6.00
  -8  -2   0   80.19    5.90
  -8  -2   0   78.19    5.90
  -8  -2   0   78.89    5.90
  -8  -2   0   82.79    6.00
   8  -2   0   68.79    6.40
  -8  -2   0   78.59    6.30
  -8  -2   0   81.09    5.80
  -8  -2   0   79.79    5.90
  -8  -2   0   82.79    6.10
  -8   2   0   79.99    5.90
  -8   2   0   84.69    6.20
  -8   2   0   88.59    5.90
  -8   2   0   80.69    6.00
  -8   2   0   91.49    5.90
  -8   2   0   83.79    6.00
  -8   2   0   79.59    5.90
  -9  -2   0    0.20    0.70
  -9  -2   0    1.70    0.70
  -9  -2   0    0.90    0.90
  -9  -2   0    2.40    0.80
  -9  -2   0    0.50    0.40
  -9  -2   0    1.20    0.80
  -9  -2   0    2.00    0.90
  -9  -2   0    1.20    1.40
  -9  -2   0    1.10    1.10
  -9  -2   0    1.30    0.90
  -9  -2   0    0.90    0.50
  -9  -2   0    2.00    0.90
  -9  -2   0    2.00    1.10
  -9  -2   0    1.90    1.30
  -9  -2   0    2.60    0.90
  -9   2   0    1.70    0.80
  -9   2   0   -0.20    0.50
  -9   2   0    2.40    1.00
  -9   2   0    1.00    0.90
  -9   2   0    0.70    0.90
  -9   2   0    0.60    0.80
 -10  -2   0   61.99    5.20
 -10  -2   0   65.99    5.30
 -10  -2   0   72.09    5.00
 -10  -2   0   71.79    5.10
 -10  -2   0   68.89    5.20
 -10  -2   0   68.89    5.20
 -10  -2   0   68.89    5.10
 -10  -2   0   74.49    5.30
 -10  -2   0   69.99    5.20
 -10  -2   0   68.49    5.20
 -10  -2   0   68.99    5.20
 -10  -2   0   68.59    5.60
 -10   2   0   61.49    5.10
 -10   2   0   65.59    5.10
 -10   2   0   70.49    5.30
 -10   2   0   74.59    5.20
 -10   2   0   66.29    5.10
 -10   2   0   71.69    5.20
 -11  -2   0    5.20    0.90
 -11  -2   0    6.50    1.40
 -11  -2   0    5.70    1.00
 -11  -2   0    4.20    1.10
 -11  -2   0    6.00    1.30
 -11  -2   0    5.70    1.00
 -11  -2   0    5.00    1.00
 -11   2   0    2.90    0.90
 -11   2   0    3.80    1.00
 -11   2   0    7.00    1.20
 -11   2   0    4.90    1.10
 -12  -2   0   -0.10    1.50
 -12  -2   0    3.10    1.70
 -12  -2   0    2.20    1.80
 -12  -2   0    2.80    1.30
 -12  -2   0    0.90    0.70
 -12  -2   0    2.40    1.00
 -12  -2   0    1.60    1.30
 -12  -2   0    0.40    0.40
 -12   2   0   -1.10    1.20
 -12   2   0    1.30    0.80
 -12   2   0    0.30    0.80
 -12   2   0    1.10    0.90
 -13  -2   0    6.60    1.10
 -13  -2   0    6.50    1.20
 -13  -2   0    5.70    1.20
 -13  -2   0    6.40    1.20
 -13  -2   0    9.80    2.60
 -13   2   0    4.10    0.90
 -13   2   0    4.90    0.90
   0  -3   0   -0.50    0.70
   0  -3   0   -1.40    0.90
   0   3   0   -1.10    0.70
  -1  -3   0    3.20    0.80
   1  -3   0    2.30    1.00
   1  -3   0    2.70    1.00
   1  -3   0    2.70    0.80
   1  -3   0    2.20    1.00
  -1  -3   0    3.70    0.80
  -1  -3   0    5.50    1.10
  -1   3   0    3.30    1.00
   1   3   0    3.90    1.00
   1   3   0    2.10    0.80
  -1   3   0    3.20    0.80
   2  -3   0  545.05   36.60
  -2  -3   0  490.25   36.50
  -2  -3   0  558.94   36.60
  -2  -3   0  467.55   36.60
   2  -3   0  478.15   36.60
  -2  -3   0  563.34   36.60
  -2  -3   0  488.15   36.60
  -2  -3   0  535.05   36.60
  -2  -3   0  529.95   36.60
  -2  -3   0  507.15   36.70
  -2  -3   0  539.35   36.50
   2  -3   0  446.16   36.90
  -2  -3   0  492.05   36.70
   2  -3   0  540.55   36.60
  -2   3   0  497.95   36.60
   2   3   0  575.74   36.70
  -2   3   0  576.04   36.60
   2   3   0  527.05   36.60
  -2   3   0  526.45   36.60
  -3  -3   0  345.47   28.20
  -3  -3   0  375.16   28.10
  -3  -3   0  377.96   28.10
  -3  -3   0  438.66   28.20
   3  -3   0  454.75   28.20
  -3  -3   0  424.96   28.20
  -3  -3   0  380.66   28.20
  -3  -3   0  362.36   28.20
   3  -3   0  354.96   28.10
   3  -3   0  453.15   28.20
  -3  -3   0  377.56   28.20
   3  -3   0  428.86   28.10
  -3  -3   0  390.16   28.20
  -3  -3   0  367.76   28.20
   3   3   0  395.46   28.20
  -3   3   0  417.36   28.10
  -3   3   0  454.95   28.10
  -3   3   0  403.06   28.20
  -3   3   0  386.76   28.20
  -4  -3   0 1653.33  114.79
  -4  -3   0 1402.26  114.79
  -4  -3   0 1804.42  114.79
  -4  -3   0 1650.13  114.79
  -4  -3   0 1674.73  114.69
   4  -3   0 1858.61  114.69
  -4  -3   0 1429.06  114.69
  -4  -3   0 1779.52  114.69
  -4  -3   0 1559.64  114.69
  -4  -3   0 1606.34  114.69
  -4  -3   0 1628.74  114.69
  -4  -3   0 1649.13  114.79
   4  -3   0 1394.46  114.69
  -4  -3   0 1538.05  114.59
  -4   3   0 1739.53  114.79
  -4   3   0 1776.72  114.69
   4   3   0 1667.83  114.79
   5  -3   0  382.46   24.20
  -5  -3   0  355.96   24.20
  -5  -3   0  324.27   24.10
  -5  -3   0  319.77   24.10
  -5  -3   0  342.57   24.20
  -5  -3   0  348.77   24.20
  -5  -3   0  303.97   24.20
  -5  -3   0  357.96   24.10
  -5  -3   0  306.87   24.30
  -5  -3   0  335.67   24.30
  -5  -3   0  349.96   24.20
  -5  -3   0  353.96   24.20
  -5  -3   0  370.96   24.20
   5  -3   0  380.46   24.10
  -5   3   0  291.07   24.20
  -5   3   0  363.86   24.20
  -5   3   0  344.77   24.10
   5   3   0  323.07   24.20
  -6  -3   0  329.87   20.60
  -6  -3   0  261.47   20.50
  -6  -3   0  308.27   20.60
  -6  -3   0  279.87   20.40
  -6  -3   0  266.07   20.60
  -6  -3   0  247.68   20.50
   6  -3   0  309.57   20.40
  -6  -3   0  316.77   20.50
  -6  -3   0  303.87   20.50
   6  -3   0  273.67   20.70
  -6  -3   0  303.97   20.50
  -6  -3   0  315.47   20.50
  -6   3   0  291.07   20.40
  -6   3   0  254.97   20.50
   6   3   0  275.67   20.50
  -6   3   0  283.67   20.70
  -7  -3   0  854.51   56.19
   7  -3   0  822.42   56.19
  -7  -3   0  840.02   56.29
  -7  -3   0  800.22   56.09
  -7  -3   0  805.62   56.19
  -7  -3   0  812.92   56.19
  -7  -3   0  744.13   56.39
  -7  -3   0  810.42   56.29
  -7  -3   0  673.43   56.19
  -7  -3   0  761.62   56.19
   7   3   0  770.62   56.19
  -7   3   0  787.22   56.29
  -7   3   0  774.72   56.29
  -7   3   0  924.51   56.19
  -7   3   0  810.62   56.19
  -8  -3   0  101.79    7.40
  -8  -3   0  102.09    7.30
  -8  -3   0   84.89    7.40
  -8  -3   0   97.69    7.70
  -8  -3   0  110.99    7.40
  -8  -3   0  105.19    7.50
  -8  -3   0   90.49    7.40
   8  -3   0  102.39    7.30
  -8  -3   0  104.79    7.30
  -8   3   0  109.59    7.60
  -8   3   0   96.39    7.50
   8   3   0   98.89    7.40
  -8   3   0  103.79    7.40
  -8   3   0   98.99    7.30
  -9  -3   0  139.49    9.50
  -9  -3   0  116.09    9.50
   9  -3   0  124.69    9.40
  -9  -3   0  130.89    9.40
  -9  -3   0  147.09    9.60
  -9  -3   0  130.39    9.50
  -9  -3   0  142.69    9.40
  -9  -3   0  130.49    9.80
  -9  -3   0  111.29    9.50
  -9  -3   0  140.19    9.60
  -9   3   0  133.29    9.60
  -9   3   0  133.99    9.40
   9   3   0  122.39    9.50
 -10  -3   0   14.10    1.60
 -10  -3   0   11.70    1.80
 -10  -3   0   11.80    2.00
 -10  -3   0   14.30    1.60
 -10  -3   0   16.90    1.70
 -10  -3   0   14.70    1.90
 -10  -3   0   15.90    2.20
 -10  -3   0   17.40    2.00
 -10  -3   0   16.50    1.80
 -10   3   0   13.00    1.60
 -10   3   0   11.60    2.00
 -10   3   0   13.10    1.80
 -10   3   0   13.00    1.50
 -11  -3   0    8.70    1.90
 -11  -3   0    9.40    1.40
 -11  -3   0   11.00    1.60
 -11  -3   0   12.10    1.40
 -11  -3   0    8.00    1.50
 -11   3   0    9.60    1.80
 -11   3   0    9.10    1.20
 -11   3   0   11.20    1.40
 -12  -3   0    0.90    1.00
 -12  -3   0   -0.40    0.50
 -12  -3   0    0.10    1.10
 -12   3   0    0.50    0.90
 -12   3   0   -0.20    0.70
 -12   3   0   -0.90    0.80
   0  -4   0  562.84   35.40
   0  -4   0  494.55   35.60
   0  -4   0  509.85   35.50
   0  -4   0  474.15   35.50
   0  -4   0  548.55   35.40
   0  -4   0  482.15   35.40
   0   4   0  475.65   35.40
   0   4   0  466.25   35.40
   1  -4   0  810.42   53.59
   1  -4   0  819.32   53.69
  -1  -4   0  673.83   53.69
  -1  -4   0  823.72   53.59
  -1  -4   0  794.52   53.69
   1  -4   0  726.23   53.79
  -1  -4   0  724.43   53.69
  -1  -4   0  803.92   53.59
  -1  -4   0  801.32   53.59
   1  -4   0  772.02   53.69
   1  -4   0  767.82   53.69
  -1  -4   0  723.73   53.69
   1  -4   0  849.02   53.59
  -1   4   0  728.93   53.69
   1   4   0  710.83   53.69
  -1   4   0  669.93   53.59
  -2  -4   0  135.89    8.90
  -2  -4   0  122.69    9.00
   2  -4   0  127.49    8.90
   2  -4   0  128.29    9.00
  -2  -4   0  133.99    8.90
   2  -4   0  134.29    8.80
   2  -4   0  120.69    9.00
   2  -4   0  135.99    9.00
  -2  -4   0  115.99    9.10
  -2  -4   0  107.89    9.00
  -2  -4   0  101.39    9.00
   2  -4   0  134.19    9.10
  -2  -4   0  118.09    8.90
  -2   4   0  111.39    8.90
  -2   4   0  116.19    8.90
  -3  -4   0   77.99    6.90
   3  -4   0   96.39    6.80
  -3  -4   0  100.79    6.80
  -3  -4   0   98.79    6.80
  -3  -4   0   89.69    6.80
  -3  -4   0   80.39    6.90
   3  -4   0  103.89    6.70
   3  -4   0  101.89    6.90
  -3  -4   0   84.29    6.90
  -3  -4   0   96.79    6.90
  -3   4   0   88.29    6.80
  -3   4   0   94.49    6.70
   3   4   0   84.79    6.90
  -3   4   0   90.09    6.80
  -4  -4   0  264.97   17.50
  -4  -4   0  251.07   17.50
  -4  -4   0  223.88   17.50
  -4  -4   0  237.48   17.50
  -4  -4   0  240.68   17.60
   4  -4   0  266.07   17.40
  -4  -4   0  206.58   17.60
   4  -4   0  277.67   17.60
   4  -4   0  247.38   17.50
  -4   4   0  263.87   17.40
   4   4   0  229.58   17.50
  -4   4   0  236.78   17.40
  -4   4   0  247.98   17.50
   5  -4   0   -0.70    1.20
  -5  -4   0    2.20    1.20
  -5  -4   0   -1.80    1.30
  -5  -4   0    2.00    1.30
  -5  -4   0    0.60    1.10
   5  -4   0    1.80    1.00
   5  -4   0    0.90    0.70
   5  -4   0    0.70    1.40
  -5  -4   0    2.60    0.90
  -5  -4   0   -1.50    1.00
   5   4   0    0.40    1.30
  -5   4   0    1.80    0.90
  -5   4   0    2.20    0.90
  -5   4   0    1.00    1.10
   6  -4   0   -1.20    0.70
  -6  -4   0   -0.50    0.90
  -6  -4   0   -1.10    1.10
  -6  -4   0   -0.80    1.40
  -6  -4   0    0.90    0.80
  -6  -4   0   -0.20    1.10
   6  -4   0   -0.80    1.50
  -6  -4   0   -0.50    1.10
  -6  -4   0   -0.90    1.10
   6  -4   0    1.50    1.10
  -6   4   0   -0.40    1.00
   6   4   0   -0.50    1.60
  -6   4   0    0.20    0.80
  -6   4   0   -0.60    0.90
  -7  -4   0   83.99    5.90
  -7  -4   0   86.59    6.00
   7  -4   0   80.69    6.00
  -7  -4   0   74.99    6.00
  -7  -4   0   82.39    5.90
  -7  -4   0   68.39    5.90
  -7  -4   0   66.69    5.90
   7  -4   0   90.69    5.90
  -7   4   0   71.79    5.80
  -7   4   0   82.59    5.90
  -8  -4   0   86.29    5.70
  -8  -4   0   62.19    5.70
  -8  -4   0   74.29    5.50
  -8  -4   0   68.59    5.60
  -8  -4   0   64.19    5.50
   8  -4   0   80.69    5.50
   8  -4   0   75.49    5.70
  -8  -4   0   62.39    5.60
  -8  -4   0   82.59    5.50
  -8   4   0   71.29    5.50
  -8   4   0   82.99    5.70
   9  -4   0   19.80    2.70
  -9  -4   0   17.70    2.00
  -9  -4   0   17.20    2.10
  -9  -4   0   18.30    2.10
  -9  -4   0   20.40    2.40
   9  -4   0   18.80    2.10
  -9  -4   0   23.60    2.00
  -9   4   0   20.90    2.10
  -9   4   0   24.80    1.90
 -10  -4   0   83.19    5.60
 -10  -4   0   65.59    5.50
 -10  -4   0   78.89    5.60
 -10   4   0   67.19    5.60
 -10   4   0   79.19    5.50
   0  -5   0    3.20    1.20
   1  -5   0   58.19    4.60
  -1  -5   0   61.49    4.70
   1  -5   0   56.69    4.40
  -1  -5   0   60.79    4.70
  -1  -5   0   52.29    4.80
  -1  -5   0   64.09    4.60
   1  -5   0   58.19    4.80
   1  -5   0   65.89    4.60
  -1  -5   0   52.99    4.50
   1  -5   0   59.89    4.70
  -1  -5   0   64.19    4.60
  -1   5   0   57.49    4.50
   1   5   0   51.09    4.50
  -2  -5   0   42.30    3.40
  -2  -5   0   31.20    3.20
   2  -5   0   39.20    3.30
   2  -5   0   42.90    3.30
  -2  -5   0   36.70    3.20
   2  -5   0   39.50    3.40
  -2  -5   0   41.00    3.40
  -2  -5   0   36.80    3.60
  -2  -5   0   42.30    3.30
   2  -5   0   38.60    3.10
  -2  -5   0   36.30    3.30
   2  -5   0   42.30    3.50
   2   5   0   35.60    3.30
  -2   5   0   36.70    3.10
  -3  -5   0    6.50    1.30
   3  -5   0    3.30    1.20
   3  -5   0    3.80    1.30
   3  -5   0    5.10    1.10
  -3  -5   0    4.80    1.20
   3  -5   0    4.60    0.80
   3  -5   0    5.80    1.40
  -3  -5   0    4.50    1.30
  -3   5   0    4.30    1.20
  -3   5   0    3.00    1.00
   3   5   0    4.50    1.10
   4  -5   0    4.30    1.30
  -4  -5   0    4.00    1.20
   4  -5   0    3.40    1.10
   4  -5   0    3.60    1.30
  -4  -5   0    5.50    1.30
  -4  -5   0    6.20    1.90
   4  -5   0    5.60    1.10
  -4  -5   0    4.90    1.10
  -4   5   0    4.30    1.00
  -4   5   0    3.50    1.10
   4   5   0    3.50    1.00
  -5  -5   0   13.00    1.70
   5  -5   0   10.90    1.80
  -5  -5   0   16.80    1.80
   5  -5   0   15.70    1.90
   5  -5   0   13.20    1.60
  -5  -5   0   15.10    1.70
   5  -5   0   12.80    2.50
  -5  -5   0   12.50    1.80
   5   5   0   14.20    1.70
  -5   5   0   14.30    2.10
  -6  -5   0    7.00    1.50
   6  -5   0    4.90    0.90
  -6  -5   0    4.00    1.10
   6  -5   0    4.70    1.20
  -6  -5   0    5.00    1.00
  -6  -5   0    3.80    1.00
  -6   5   0    3.80    1.10
   6   5   0    4.60    1.00
  -7  -5   0   11.80    1.50
   7  -5   0   11.90    1.70
  -7  -5   0   14.40    1.60
  -7  -5   0    9.50    1.50
  -7  -5   0   10.20    1.60
  -7   5   0   14.50    1.30
   7   5   0   14.10    1.60
 -14   0   1    0.90    0.80
 -14   0   1    0.20    0.90
 -14   0   1   -0.10    0.70
 -14   0   1   -0.90    0.80
 -14   0   1    0.50    1.70
 -13   0   1   -0.20    0.80
 -13   0   1   -0.50    0.80
 -13   0   1   -0.20    0.50
 -13   0   1    1.70    1.90
 -13   0   1    1.20    0.80
 -13   0   1    0.30    0.90
 -12   0   1    1.20    0.80
 -12   0   1    0.10    0.90
 -12   0   1    3.70    1.70
 -12   0   1    2.80    0.90
 -12   0   1    1.30    0.80
 -11   0   1   -0.90    0.80
 -11   0   1    2.40    1.40
 -11   0   1    0.80    0.80
 -11   0   1   -0.40    0.40
 -11   0   1   -0.50    0.40
 -11   0   1    0.70    0.70
 -11   0   1   -0.10    0.80
 -10   0   1   -0.40    0.40
 -10   0   1    0.50    1.10
 -10   0   1   -0.50    1.00
 -10   0   1   -0.20    1.60
 -10   0   1    0.90    1.20
 -10   0   1    0.50    0.70
 -10   0   1    0.20    0.70
 -10   0   1    0.00    0.40
 -10   0   1   -0.10    0.70
  -9   0   1    0.10    0.60
  -9   0   1    0.40    0.70
  -9   0   1   -0.30    0.80
  -9   0   1   -0.50    0.50
  -9   0   1    0.00    0.30
  -9   0   1    0.10    0.70
  -9   0   1    0.20    1.00
  -9   0   1   -0.10    0.80
  -9   0   1   -0.20    0.70
  -9   0   1    1.00    0.70
  -9   0   1    0.10    0.30
  -9   0   1   -1.60    1.40
  -9   0   1   -0.20    0.60
  -9   0   1   -1.60    1.10
  -8   0   1    0.10    0.60
  -8   0   1   -0.40    0.60
  -8   0   1    0.90    0.50
  -8   0   1    0.60    0.60
  -8   0   1   -0.20    0.70
  -8   0   1    0.20    0.80
  -8   0   1    0.50    0.60
  -8   0   1   -0.60    0.90
  -8   0   1    0.60    0.60
  -8   0   1   -0.40    0.50
  -8   0   1   -0.10    0.30
  -8   0   1    0.90    0.90
  -8   0   1   -0.90    0.60
  -7   0   1    0.60    0.40
  -7   0   1    0.00    0.50
  -7   0   1    0.10    0.40
  -7   0   1    0.70    0.60
  -7   0   1   -0.10    0.30
  -7   0   1    1.50    0.70
  -7   0   1    0.30    0.50
  -7   0   1    0.10    0.50
  -7   0   1    0.20    0.50
  -7   0   1    1.30    0.70
  -7   0   1    0.60    0.70
  -7   0   1    0.50    0.80
  -7   0   1   -0.50    0.70
  -7   0   1    0.30    0.50
  -7   0   1    0.50    0.60
  -7   0   1    0.10    0.30
  -7   0   1   -1.00    1.20
  -7   0   1   -0.20    0.60
  -6   0   1    0.10    0.50
  -6   0   1    0.00    0.50
  -6   0   1    1.50    0.90
  -6   0   1    0.50    0.30
  -6   0   1   -0.50    0.50
  -6   0   1    0.90    0.70
  -6   0   1    0.00    0.50
  -6   0   1    0.90    0.60
  -6   0   1    0.30    0.50
  -6   0   1    0.00    0.40
  -6   0   1    0.40    0.20
  -6   0   1   -0.20    0.30
  -6   0   1   -0.50    0.40
  -6   0   1    0.40    0.30
  -5   0   1    0.60    0.30
  -5   0   1   -1.20    0.40
   5   0  -1    0.70    0.50
  -5   0   1   -0.60    0.70
  -5   0   1    0.30    0.50
  -5   0   1   -0.20    0.40
  -5   0   1   -0.90    0.40
  -5   0   1   -0.40    0.30
  -5   0   1    0.70    0.50
  -5   0   1   -0.40    0.40
   5   0  -1   -0.20    0.40
  -5   0   1    0.30    0.40
   4   0  -1   -3.40    0.30
  -4   0   1   -3.50    0.40
  -4   0   1   -2.80    0.40
  -4   0   1   -3.10    0.40
  -4   0   1   -2.60    0.30
  -4   0   1   -2.10    0.40
  -3   0   1   -7.40    0.20
   3   0  -1   -7.10    0.20
  -3   0   1   -7.00    0.20
  -3   0   1   -7.70    0.30
  -3   0   1   -7.60    0.30
   3   0  -1   -7.10    0.20
  -3   0   1   -6.70    0.30
  -3   0   1   -6.90    0.20
  -2   0   1   -5.90    0.30
  -2   0   1   -6.40    0.20
   0   0  -1    0.30    0.10
   0   0  -1    0.20    0.10
   0   0   1    0.30    0.10
   0   0   1    0.20    0.10
   1   0   1   -1.20    0.20
  -1   0  -1   -0.90    0.20
   2   0   1   -6.40    0.20
   3   0   1   -6.00    0.30
  -3   0  -1   -6.60    0.10
  -3   0  -1   -6.80    0.30
  -3   0  -1   -5.90    0.30
  -3   0  -1   -5.90    0.20
  -3   0  -1   -6.30    0.30
  -3   0  -1   -5.70    0.30
  -4   0  -1    0.50    0.40
  -4   0  -1    0.30    0.20
  -4   0  -1    0.80    0.40
  -4   0  -1    0.30    0.40
  -4   0  -1    0.00    0.20
  -4   0  -1    0.90    0.40
   4   0   1    0.00    0.40
  -4   0  -1    0.30    0.40
  -5   0  -1    0.10    0.50
  -5   0  -1    0.20    0.40
  -5   0  -1    0.70    0.40
  -5   0  -1    0.70    0.40
  -5   0  -1    0.70    0.80
  -5   0  -1   -0.10    0.70
  -5   0  -1    0.90    0.40
  -5   0  -1    0.60    0.30
  -5   0  -1    1.10    0.70
  -5   0  -1    0.40    0.40
  -6   0  -1    1.30    0.50
  -6   0  -1    0.80    0.60
  -6   0  -1    1.50    0.40
  -6   0  -1   -1.10    1.20
  -6   0  -1    0.50    0.30
  -6   0  -1    0.30    0.50
  -6   0  -1    0.40    0.30
  -6   0  -1    0.50    0.80
  -6   0  -1    1.20    0.60
  -6   0  -1    1.20    0.60
  -6   0  -1    1.20    0.50
  -6   0  -1   -0.10    0.70
  -7   0  -1    0.50    0.90
  -7   0  -1    0.70    0.30
  -7   0  -1    1.50    0.70
  -7   0  -1    2.90    1.30
  -7   0  -1    1.50    0.90
  -7   0  -1    0.60    0.60
  -7   0  -1    1.90    0.60
  -7   0  -1    1.20    0.60
  -7   0  -1    1.50    0.40
  -7   0  -1    2.40    0.60
  -7   0  -1    0.90    0.60
  -7   0  -1    1.10    0.70
  -8   0  -1    1.70    0.70
  -8   0  -1    0.10    0.70
  -8   0  -1   -0.50    0.70
  -8   0  -1    0.30    0.70
  -8   0  -1    0.20    0.30
  -8   0  -1    1.80    0.70
  -8   0  -1    1.30    0.80
  -8   0  -1    0.40    0.50
  -8   0  -1    0.10    0.30
  -8   0  -1    0.50    0.90
  -8   0  -1    0.10    0.60
  -8   0  -1   -0.40    0.70
  -8   0  -1    1.10    0.90
  -8   0  -1    0.80    0.70
  -9   0  -1   -0.30    0.70
  -9   0  -1    2.40    0.80
  -9   0  -1    0.90    0.70
  -9   0  -1   -0.10    0.30
  -9   0  -1    0.30    0.60
  -9   0  -1    0.60    0.80
  -9   0  -1    0.60    0.80
  -9   0  -1    2.00    1.10
  -9   0  -1    0.20    0.70
  -9   0  -1   -0.20    1.10
  -9   0  -1    0.70    0.70
  -9   0  -1    0.00    0.40
  -9   0  -1   -0.20    1.20
 -10   0  -1   -1.20    0.80
 -10   0  -1    0.70    1.20
 -10   0  -1    1.00    0.80
 -10   0  -1    0.40    0.70
 -10   0  -1    0.10    0.70
 -10   0  -1    0.30    0.40
 -10   0  -1    1.00    0.90
 -10   0  -1    0.20    0.90
 -10   0  -1    1.10    0.80
 -10   0  -1    0.30    0.40
 -10   0  -1   -0.30    0.70
 -11   0  -1    0.10    1.10
 -11   0  -1   -0.50    0.80
 -11   0  -1   -0.10    1.40
 -11   0  -1    0.10    0.40
  11   0   1    1.40    1.10
 -11   0  -1   -0.10    0.40
 -11   0  -1   -0.10    0.80
 -11   0  -1   -0.50    1.00
 -11   0  -1   -0.10    0.80
 -12   0  -1    0.40    0.80
 -12   0  -1   -0.10    0.40
 -12   0  -1    0.20    0.90
 -12   0  -1   -1.30    1.60
 -12   0  -1   -0.40    0.80
 -12   0  -1    0.80    1.40
 -12   0  -1    0.00    0.80
  12   0   1    1.50    1.40
 -12   0  -1   -0.40    0.50
 -13   0  -1   -0.20    1.40
 -13   0  -1    0.30    0.90
 -13   0  -1   -0.20    0.40
 -13   0  -1   -0.70    0.80
 -13   0  -1    0.50    1.80
 -14   0  -1   -0.20    0.80
 -14   0  -1    0.30    0.40
 -14   0  -1   -1.10    0.90
 -14   0  -1    0.30    0.80
 -14   0  -1    0.10    1.00
 -14  -1   1   -1.50    1.00
  14  -1  -1    0.20    1.20
 -14  -1   1    0.10    0.90
 -14  -1   1   -0.90    0.70
 -14  -1   1   -1.00    1.00
 -14  -1   1   -0.90    1.70
 -14   1   1    0.20    0.70
 -14   1   1    0.70    1.40
 -14   1   1    0.00    0.80
 -13  -1   1   36.00    3.30
 -13  -1   1   33.70    2.90
 -13  -1   1   35.10    2.80
 -13  -1   1   32.60    3.10
 -13  -1   1   31.30    3.30
 -13  -1   1   34.10    2.80
 -13  -1   1   36.00    2.90
 -13   1   1   37.30    3.00
 -13   1   1   33.10    2.90
 -13   1   1   34.40    3.00
 -13   1   1   31.00    2.80
 -13   1   1   29.60    2.80
 -12  -1   1  172.58   12.10
 -12  -1   1  179.38   12.20
 -12  -1   1  164.48   12.20
 -12  -1   1  170.08   12.10
 -12  -1   1  169.38   12.30
 -12  -1   1  162.48   12.40
 -12   1   1  181.38   12.20
 -12   1   1  173.18   12.20
 -12   1   1  156.88   12.10
 -12   1   1  171.58   12.30
 -12   1   1  165.58   12.10
 -12   1   1  169.48   12.20
 -11  -1   1  154.68   12.00
 -11  -1   1  172.38   12.00
 -11  -1   1  176.18   12.00
 -11  -1   1  187.58   12.10
 -11  -1   1  148.49   12.00
 -11  -1   1  168.18   11.90
 -11  -1   1  148.59   12.30
 -11  -1   1  149.88   12.10
 -11  -1   1  182.48   12.00
 -11  -1   1  175.68   12.20
 -11  -1   1  163.18   12.80
 -11   1   1  170.88   12.00
 -11   1   1  180.58   12.10
 -11   1   1  171.98   12.00
 -11   1   1  175.48   12.20
 -11   1   1  156.48   12.00
 -11   1   1  170.98   12.00
 -11   1   1  174.18   12.00
 -10  -1   1  381.86   27.50
 -10  -1   1  386.96   27.50
 -10  -1   1  405.56   27.50
 -10  -1   1  414.16   27.50
 -10  -1   1  362.96   27.70
 -10  -1   1  415.86   27.60
 -10  -1   1  393.26   27.40
 -10  -1   1  418.76   27.50
 -10  -1   1  363.86   27.60
 -10  -1   1  355.86   27.40
 -10  -1   1  422.96   27.50
 -10  -1   1  403.26   27.40
 -10   1   1  358.96   27.40
 -10   1   1  335.37   27.70
 -10   1   1  385.06   27.40
 -10   1   1  404.66   27.50
 -10   1   1  401.16   27.50
 -10   1   1  364.16   27.40
 -10   1   1  409.06   27.50
 -10   1   1  402.66   27.60
  -9  -1   1 1138.69   75.49
  -9  -1   1 1116.19   75.29
  -9  -1   1 1031.70   75.49
  -9  -1   1 1117.49   75.29
  -9  -1   1 1122.29   75.49
  -9  -1   1 1001.30   75.49
  -9  -1   1  979.90   75.29
  -9  -1   1 1164.88   75.39
  -9  -1   1 1102.99   75.39
  -9  -1   1 1045.60   75.39
  -9  -1   1 1143.09   75.39
  -9  -1   1  993.90   75.39
  -9   1   1 1137.89   75.49
  -9   1   1 1030.50   75.29
  -9   1   1 1049.20   75.39
  -9   1   1 1195.58   75.39
  -9   1   1 1028.80   75.29
  -9   1   1 1043.50   75.39
  -9   1   1  926.31   75.59
  -9   1   1 1050.39   75.39
  -9   1   1 1137.79   75.39
  -8  -1   1  817.82   63.19
  -8  -1   1  822.82   62.89
  -8  -1   1  972.50   62.89
  -8  -1   1  959.30   62.89
  -8  -1   1  835.52   62.89
  -8  -1   1  871.31   62.89
  -8  -1   1  962.80   62.89
  -8  -1   1  797.82   62.99
  -8  -1   1  943.91   62.89
  -8  -1   1  989.00   62.89
  -8  -1   1  765.22   62.79
  -8  -1   1  892.41   62.79
  -8  -1   1  984.20   62.89
  -8  -1   1  865.11   62.99
  -8  -1   1  919.01   62.89
  -8   1   1  962.50   62.89
  -8   1   1  946.21   62.99
  -8   1   1  923.51   62.79
  -8   1   1  797.12   62.99
  -8   1   1  916.31   62.79
  -8   1   1  967.20   62.89
  -8   1   1  773.52   62.99
  -8   1   1  922.91   62.89
  -7  -1   1  770.72   53.79
  -7  -1   1  790.52   53.69
  -7  -1   1  749.33   53.79
  -7  -1   1  791.02   53.69
  -7  -1   1  734.33   53.69
  -7  -1   1  769.22   53.79
  -7  -1   1  664.63   53.69
  -7  -1   1  785.92   53.69
  -7  -1   1  727.33   53.79
  -7  -1   1  738.73   53.69
  -7  -1   1  829.42   53.69
   7  -1  -1  673.23   53.69
  -7  -1   1  805.22   53.69
  -7  -1   1  751.62   53.69
  -7   1   1  784.62   53.69
  -7   1   1  799.72   53.69
  -7   1   1  800.32   53.69
  -7   1   1  814.32   53.69
  -7   1   1  885.81   53.69
  -7   1   1  741.13   53.69
  -7   1   1  659.63   53.89
  -7   1   1  736.23   53.69
  -7   1   1  762.12   53.79
  -7   1   1  806.52   53.79
  -6  -1   1 1049.59   72.99
  -6  -1   1 1059.59   73.09
  -6  -1   1  977.20   73.09
  -6  -1   1 1161.78   73.19
  -6  -1   1  929.91   73.09
  -6  -1   1 1080.89   73.09
  -6  -1   1 1100.99   73.09
  -6  -1   1 1026.10   73.09
  -6  -1   1  958.60   73.09
  -6  -1   1 1083.79   73.09
  -6  -1   1 1141.79   73.09
  -6  -1   1 1010.80   73.09
  -6  -1   1 1005.60   73.09
   6  -1  -1 1004.60   72.99
  -6   1   1  963.10   73.19
  -6   1   1  958.00   72.99
  -6   1   1 1037.30   73.09
  -6   1   1 1044.80   73.09
  -6   1   1 1036.90   73.09
  -6   1   1 1046.10   73.09
  -6   1   1 1147.19   73.09
  -6   1   1 1136.69   73.09
   6   1  -1  987.60   73.09
  -6   1   1  967.80   73.09
  -6   1   1 1194.78   72.99
  -6   1   1  989.20   73.19
  -5  -1   1   31.80    2.70
  -5  -1   1   37.90    2.70
  -5  -1   1   37.20    2.60
  -5  -1   1   37.70    2.70
  -5  -1   1   35.40    2.60
  -5  -1   1   35.20    2.70
  -5  -1   1   30.50    2.90
   5  -1  -1   32.20    2.60
  -5  -1   1   33.20    2.80
  -5  -1   1   36.50    2.60
  -5  -1   1   31.30    2.80
  -5  -1   1   41.20    2.60
  -5  -1   1   36.40    2.60
  -5   1   1   31.20    2.70
  -5   1   1   38.50    3.00
  -5   1   1   33.60    2.60
  -5   1   1   41.20    2.70
   5   1  -1   34.70    2.70
  -5   1   1   35.30    2.70
  -5   1   1   38.60    2.60
  -5   1   1   36.90    2.70
  -5   1   1   33.70    3.00
  -4  -1   1   25.40    1.80
  -4  -1   1   25.70    2.00
  -4  -1   1   26.50    1.90
  -4  -1   1   26.30    1.90
  -4  -1   1   22.10    1.90
  -4  -1   1   24.30    1.90
  -4  -1   1   24.80    2.00
  -4  -1   1   25.10    1.90
   4  -1  -1   23.60    1.90
  -4   1   1   24.80    1.90
  -4   1   1   26.20    1.90
   4   1  -1   23.40    1.90
  -4   1   1   25.00    1.90
  -4   1   1   26.70    2.00
  -3  -1   1 2703.63  170.98
  -3  -1   1 2429.26  170.98
  -3  -1   1 2237.38  170.98
  -3  -1   1 2287.17  170.98
  -3  -1   1 2410.46  170.98
  -3  -1   1 2362.96  170.98
   3  -1  -1 2202.28  170.98
   3  -1  -1 2804.62  171.08
  -3  -1   1 2220.08  170.98
   3   1  -1 2575.34  170.98
  -3   1   1 2442.86  170.98
  -3   1   1 2366.06  170.98
   3   1  -1 2394.26  170.98
  -3   1   1 2748.53  170.98
  -2  -1   1  377.76   30.60
  -2  -1   1  405.86   30.60
  -2  -1   1  418.86   30.60
  -2  -1   1  442.66   30.60
   2  -1  -1  493.95   30.70
  -2  -1   1  478.75   30.60
  -2   1   1  468.25   30.60
  -2   1   1  424.76   30.60
  -2   1   1  454.25   30.60
   2   1  -1  394.56   30.60
   1   1  -1 9999.00  700.03
   0  -1  -1  280.37   23.00
   0  -1   1  379.66   23.10
   0  -1   1  338.67   23.10
   0  -1  -1  338.57   23.10
   0  -1  -1  293.47   23.00
   0   1  -1  357.46   23.10
   0   1   1  312.07   23.10
  -1  -1  -1 1043.80   87.69
  -1  -1  -1 1337.77   87.69
   1  -1   1 1299.37   87.79
  -1   1  -1 1270.07   87.79
   1   1   1 1312.97   87.79
  -2   1  -1 8242.58  577.04
   3  -1   1 3596.44  278.17
  -3  -1  -1 3561.64  278.17
  -3  -1  -1 4003.10  278.17
  -3  -1  -1 3576.94  278.17
  -3  -1  -1 3910.81  278.17
  -3  -1  -1 4380.86  278.17
  -3  -1  -1 3856.91  278.17
  -3  -1  -1 4027.40  278.17
  -3   1  -1 3680.63  278.17
  -3   1  -1 4560.44  278.27
  -3   1  -1 4584.34  278.17
   3   1   1 3940.01  278.17
  -4  -1  -1 2617.64  207.08
  -4  -1  -1 2923.61  207.08
   4  -1   1 2489.75  207.08
  -4  -1  -1 3209.58  207.08
  -4  -1  -1 2937.31  207.08
  -4  -1  -1 3066.39  207.08
  -4  -1  -1 3013.60  207.08
  -4  -1  -1 3026.50  207.08
  -4  -1  -1 3159.68  207.08
  -4  -1  -1 2656.43  207.08
  -4   1  -1 2789.12  207.18
  -4   1  -1 3298.77  207.08
   4   1   1 2663.33  207.08
  -4   1  -1 3053.89  207.08
  -4   1  -1 3276.17  207.08
   4   1   1 3171.58  207.08
  -4   1  -1 2917.11  207.08
  -5  -1  -1 1782.62  117.89
  -5  -1  -1 1629.74  117.99
  -5  -1  -1 1513.25  117.99
  -5  -1  -1 1838.02  117.89
  -5  -1  -1 1678.63  117.99
  -5  -1  -1 1771.82  117.99
  -5  -1  -1 1579.54  117.99
  -5  -1  -1 1833.02  117.99
  -5  -1  -1 1643.14  117.99
  -5  -1  -1 1510.35  117.99
  -5  -1  -1 1715.93  117.89
  -5  -1  -1 1721.63  117.89
   5  -1   1 1478.55  117.89
  -5  -1  -1 1723.33  117.89
  -5  -1  -1 1677.33  117.99
  -5   1  -1 1694.23  117.99
  -5   1  -1 1875.71  117.99
   5   1   1 1645.54  117.89
  -5   1  -1 1583.24  117.99
  -5   1  -1 1794.72  117.99
  -5   1  -1 1810.92  117.89
  -5   1  -1 1786.42  117.89
  -5   1  -1 1600.64  118.09
  -5   1  -1 1512.75  118.09
  -6  -1  -1   33.00    2.80
  -6  -1  -1   32.00    2.80
  -6  -1  -1   36.80    3.10
  -6  -1  -1   34.00    2.80
  -6  -1  -1   35.60    2.70
  -6  -1  -1   31.80    2.90
  -6  -1  -1   40.40    2.70
  -6  -1  -1   39.30    2.70
  -6  -1  -1   39.10    2.60
  -6  -1  -1   39.40    2.70
  -6  -1  -1   33.00    2.80
  -6  -1  -1   37.80    2.70
  -6  -1  -1   35.20    2.70
  -6  -1  -1   32.00    2.70
  -6   1  -1   34.30    3.00
  -6   1  -1   40.30    2.70
  -6   1  -1   33.50    2.70
  -6   1  -1   41.60    2.70
  -6   1  -1   30.00    2.80
  -6   1  -1   34.20    2.70
  -6   1  -1   30.10    2.80
  -6   1  -1   29.60    2.60
   6   1   1   33.60    2.80
  -6   1  -1   38.70    2.70
  -7  -1  -1   56.99    4.10
  -7  -1  -1   58.59    4.50
  -7  -1  -1   60.99    4.20
  -7  -1  -1   55.69    4.10
  -7  -1  -1   61.39    4.10
  -7  -1  -1   53.59    4.10
  -7  -1  -1   52.89    4.10
  -7  -1  -1   54.79    4.10
  -7  -1  -1   59.69    4.10
  -7  -1  -1   51.59    4.20
  -7  -1  -1   59.79    4.00
  -7  -1  -1   53.99    4.20
  -7  -1  -1   57.39    4.10
  -7  -1  -1   60.09    4.30
  -7   1  -1   46.80    4.40
  -7   1  -1   51.29    4.20
  -7   1  -1   51.29    4.10
  -7   1  -1   51.69    4.10
  -7   1  -1   53.19    4.30
  -7   1  -1   46.50    4.10
  -7   1  -1   63.39    4.10
   7   1   1   50.79    4.20
  -7   1  -1   58.29    4.10
  -7   1  -1   59.99    4.10
  -8  -1  -1    5.80    1.10
  -8  -1  -1    7.10    0.90
  -8  -1  -1    7.50    1.10
  -8  -1  -1    5.00    1.40
  -8  -1  -1    5.50    1.30
  -8  -1  -1    7.30    1.20
  -8  -1  -1    7.40    1.20
  -8  -1  -1    5.70    1.20
  -8  -1  -1    6.80    1.20
  -8  -1  -1    7.90    1.20
  -8  -1  -1    8.40    1.10
  -8  -1  -1    8.20    1.00
  -8  -1  -1    6.60    1.20
  -8  -1  -1    6.80    0.90
  -8  -1  -1    5.80    1.10
  -8   1  -1    7.80    1.10
  -8   1  -1    7.00    1.10
  -8   1  -1    9.10    1.80
  -8   1  -1    6.60    1.30
  -8   1  -1    6.60    1.10
  -8   1  -1    6.70    1.10
  -8   1  -1    7.90    1.20
   8   1   1    7.30    1.30
  -8   1  -1    8.90    1.20
  -8   1  -1    6.00    1.20
  -9  -1  -1  130.39   10.00
  -9  -1  -1  142.39   10.00
  -9  -1  -1  147.19    9.90
  -9  -1  -1  130.69    9.90
  -9  -1  -1  150.48    9.80
  -9  -1  -1  137.09    9.90
  -9  -1  -1  132.09    9.70
  -9  -1  -1  118.59    9.80
  -9  -1  -1  139.59    9.80
  -9  -1  -1  126.79    9.80
  -9  -1  -1  142.29    9.90
  -9  -1  -1  146.39    9.80
  -9  -1  -1  135.69    9.90
  -9   1  -1  149.79   10.10
  -9   1  -1  143.09   10.10
  -9   1  -1  115.89   10.10
   9   1   1  128.99   10.00
  -9   1  -1  137.49    9.80
  -9   1  -1  152.48    9.80
  -9   1  -1  131.99    9.80
  -9   1  -1  140.19    9.80
  -9   1  -1  136.39    9.90
  -9   1  -1  144.79    9.90
 -10  -1  -1  159.68   11.40
 -10  -1  -1  153.38   11.50
 -10  -1  -1  170.58   11.30
 -10  -1  -1  134.09   11.30
 -10  -1  -1  164.48   11.30
 -10  -1  -1  144.49   11.30
 -10  -1  -1  150.88   11.40
 -10  -1  -1  152.28   11.40
 -10  -1  -1  150.78   11.20
 -10  -1  -1  166.88   11.50
 -10  -1  -1  165.38   11.30
 -10  -1  -1  163.38   11.40
 -10  -1  -1  176.98   11.40
 -10   1  -1  136.29   11.70
 -10   1  -1  151.38   11.30
 -10   1  -1  171.38   11.40
 -10   1  -1  150.78   11.30
 -10   1  -1  160.58   11.60
 -10   1  -1  164.48   11.40
 -10   1  -1  166.18   11.50
 -10   1  -1  156.78   11.30
 -10   1  -1  162.98   11.40
 -10   1  -1  170.08   11.30
 -11  -1  -1  170.88   11.70
 -11  -1  -1  166.28   11.90
 -11  -1  -1  172.48   11.80
 -11  -1  -1  174.88   11.60
 -11  -1  -1  151.08   11.60
 -11  -1  -1  168.08   11.70
 -11  -1  -1  160.78   11.50
 -11  -1  -1  164.28   11.70
 -11  -1  -1  170.18   11.60
 -11   1  -1  166.58   11.60
 -11   1  -1  159.98   11.60
 -11   1  -1  137.69   12.00
 -11   1  -1  136.79   11.60
 -11   1  -1  153.18   11.60
 -11   1  -1  171.08   11.70
 -11   1  -1  166.48   11.60
 -11   1  -1  172.48   11.80
 -11   1  -1  159.98   11.60
 -12  -1  -1  191.38   12.90
 -12  -1  -1  188.28   12.90
 -12  -1  -1  192.28   13.20
 -12  -1  -1  182.38   13.00
 -12  -1  -1  182.18   12.90
 -12  -1  -1  182.38   13.00
 -12   1  -1  184.78   13.00
 -12   1  -1  169.38   12.90
 -12   1  -1  166.58   12.90
 -12   1  -1  184.18   13.00
 -12   1  -1  170.18   12.90
 -12   1  -1  173.98   12.90
 -13  -1  -1  103.59    7.60
 -13  -1  -1  104.79    7.50
 -13  -1  -1  105.39    7.40
 -13  -1  -1  105.09    7.40
 -13  -1  -1  104.09    7.40
 -13   1  -1   97.29    7.40
 -13   1  -1  105.49    7.50
 -13   1  -1   89.59    7.40
 -13   1  -1  103.49    7.50
 -14  -1  -1   78.59    5.40
 -14  -1  -1   74.59    5.70
 -14  -1  -1   72.69    5.40
 -14   1  -1   65.29    5.40
 -14   1  -1   74.49    5.50
 -13  -2   1  158.68   11.20
 -13  -2   1  149.69   11.20
 -13  -2   1  165.68   11.20
 -13   2   1  165.78   11.30
 -13   2   1  143.39   11.20
 -12  -2   1  173.38   12.30
 -12  -2   1  168.78   12.40
 -12  -2   1  143.39   12.20
 -12  -2   1  151.28   12.10
 -12  -2   1  170.08   12.20
 -12  -2   1  193.08   12.20
 -12  -2   1  187.98   12.20
 -12   2   1  168.68   12.20
 -12   2   1  182.78   12.30
 -12   2   1  151.58   12.10
 -12   2   1  188.98   12.40
 -11  -2   1   90.59    7.30
 -11  -2   1   99.09    7.20
 -11  -2   1  100.09    7.30
 -11  -2   1  102.49    7.40
 -11  -2   1  109.29    7.40
 -11  -2   1   94.99    7.40
 -11  -2   1  100.39    7.80
 -11  -2   1  102.99    7.40
 -11  -2   1  113.39    7.60
 -11  -2   1   96.59    7.50
 -11  -2   1  108.59    7.30
 -11   2   1   91.09    7.30
 -11   2   1  105.69    7.40
 -11   2   1   85.19    7.20
 -11   2   1  112.29    7.50
 -11   2   1   96.89    7.30
 -10  -2   1   94.79    6.80
 -10  -2   1   87.49    6.90
 -10  -2   1   94.99    6.90
 -10  -2   1   96.89    6.90
 -10  -2   1   94.69    7.30
 -10  -2   1   92.39    6.90
 -10  -2   1   86.59    7.40
 -10  -2   1   94.79    7.00
 -10  -2   1   93.39    6.70
 -10  -2   1   90.99    6.90
 -10  -2   1   99.39    6.90
 -10   2   1  105.19    7.00
 -10   2   1   87.59    6.80
 -10   2   1   93.09    6.80
 -10   2   1   92.99    6.80
 -10   2   1  100.19    6.90
 -10   2   1   89.09    6.80
  -9  -2   1    0.30    0.70
  -9  -2   1   -0.80    1.00
  -9  -2   1   -0.80    0.90
  -9  -2   1    0.00    0.70
  -9  -2   1   -0.30    1.00
  -9  -2   1   -0.30    0.40
  -9  -2   1    1.80    0.90
   9  -2  -1    0.50    1.00
  -9  -2   1   -1.30    0.80
  -9  -2   1    0.70    1.40
  -9  -2   1    0.40    0.80
  -9  -2   1    0.00    0.40
  -9  -2   1   -0.40    0.70
  -9  -2   1    0.10    1.10
  -9   2   1    0.50    0.50
  -9   2   1    0.10    0.90
  -9   2   1   -0.20    0.80
  -9   2   1   -0.40    0.70
  -9   2   1    0.50    1.00
  -9   2   1    0.30    0.90
  -8  -2   1  112.99    8.40
  -8  -2   1  124.39    8.30
  -8  -2   1  114.29    8.40
  -8  -2   1  116.99    8.30
  -8  -2   1  112.59    8.30
  -8  -2   1  119.39    8.30
   8  -2  -1  102.39    8.20
  -8  -2   1  113.39    8.30
  -8  -2   1  101.89    8.40
  -8  -2   1  117.29    8.40
  -8  -2   1  110.19    8.60
  -8  -2   1  120.59    8.30
  -8  -2   1  115.09    8.30
  -8  -2   1  117.09    8.20
  -8   2   1  111.09    8.30
  -8   2   1  123.69    8.30
  -8   2   1  111.39    8.30
  -8   2   1  120.59    8.30
  -8   2   1  116.79    8.30
  -8   2   1  114.49    8.40
  -8   2   1  120.69    8.20
  -7  -2   1   62.29    4.30
  -7  -2   1   66.49    4.40
  -7  -2   1   59.19    4.40
  -7  -2   1   64.69    4.50
  -7  -2   1   59.59    4.40
   7  -2  -1   55.99    4.40
  -7  -2   1   59.09    4.40
  -7  -2   1   54.79    4.40
  -7  -2   1   53.69    4.70
  -7  -2   1   58.79    4.50
  -7  -2   1   53.59    4.60
  -7  -2   1   59.29    4.50
  -7  -2   1   57.49    4.40
  -7  -2   1   60.99    4.50
  -7   2   1   65.99    4.50
  -7   2   1   57.39    4.40
  -7   2   1   52.99    4.50
  -7   2   1   68.29    4.40
  -7   2   1   54.99    4.40
  -7   2   1   61.69    4.40
  -7   2   1   62.39    4.30
  -7   2   1   55.79    4.60
  -6  -2   1  187.48   13.50
  -6  -2   1  178.68   13.60
  -6  -2   1  163.68   13.60
  -6  -2   1  191.08   13.50
  -6  -2   1  203.68   13.50
  -6  -2   1  183.88   13.50
  -6  -2   1  207.88   13.60
  -6  -2   1  201.68   13.50
  -6  -2   1  192.18   13.60
  -6  -2   1  193.88   13.60
   6  -2  -1  173.38   13.50
  -6  -2   1  192.68   13.50
  -6  -2   1  189.38   13.50
  -6  -2   1  184.18   13.50
  -6   2   1  203.28   13.60
  -6   2   1  194.98   13.50
  -6   2   1  184.68   13.50
  -6   2   1  189.18   13.70
  -6   2   1  207.78   13.60
  -6   2   1  196.08   13.50
  -5  -2   1 4651.53  297.17
  -5  -2   1 3880.11  297.07
   5  -2  -1 3882.21  297.17
  -5  -2   1 4016.00  297.17
  -5  -2   1 4186.08  297.17
   5  -2  -1 4595.74  297.17
  -5  -2   1 4287.17  297.07
  -5  -2   1 4380.26  297.17
  -5  -2   1 3819.72  297.07
  -5  -2   1 4256.17  297.17
  -5  -2   1 4563.94  297.07
  -5  -2   1 4583.44  297.27
  -5  -2   1 4092.99  297.07
  -5  -2   1 4179.88  297.17
  -5  -2   1 4007.00  297.17
  -5  -2   1 4587.54  297.07
  -5   2   1 4573.94  297.17
  -5   2   1 3669.63  297.07
  -5   2   1 4348.86  297.17
  -5   2   1 4577.84  297.17
  -5   2   1 4364.46  297.17
  -5   2   1 3780.92  297.17
  -5   2   1 4294.27  297.07
   4  -2  -1 5482.85  390.66
  -4  -2   1 5753.02  390.66
  -4  -2   1 5539.75  390.56
  -4  -2   1 5006.60  390.56
  -4  -2   1 5393.66  390.56
  -4  -2   1 5361.66  390.66
  -4  -2   1 5206.78  390.66
  -4  -2   1 4894.31  390.56
  -4  -2   1 4720.33  390.56
  -4  -2   1 5646.83  390.66
  -4  -2   1 5499.95  390.56
  -4  -2   1 5838.32  390.66
   4  -2  -1 5628.94  390.66
  -4  -2   1 5786.42  390.56
  -4  -2   1 6195.18  390.56
  -4  -2   1 5218.28  390.56
  -4  -2   1 5608.64  390.66
   4   2  -1 5894.51  390.56
  -4   2   1 6253.67  390.66
  -4   2   1 6425.56  390.66
  -4   2   1 5776.82  390.66
  -4   2   1 5142.59  390.56
  -4   2   1 6024.70  390.56
  -3  -2   1 1012.30   74.29
  -3  -2   1 1191.78   74.19
  -3  -2   1 1018.00   74.29
  -3  -2   1 1044.80   74.29
  -3  -2   1  915.31   74.29
  -3  -2   1 1116.79   74.29
  -3  -2   1  974.60   74.19
  -3  -2   1 1037.00   74.29
   3  -2  -1 1057.89   74.39
   3  -2  -1 1010.90   74.29
  -3  -2   1 1073.89   74.19
  -3  -2   1 1054.69   74.29
  -3  -2   1  968.00   74.29
  -3   2   1 1124.19   74.29
  -3   2   1 1148.49   74.29
   3   2  -1 1049.59   74.29
   3   2  -1 1179.48   74.29
  -3   2   1  930.91   74.19
   3   2  -1 1145.09   74.29
  -3   2   1 1127.39   74.29
  -2  -2   1 2824.52  223.38
   2  -2  -1 2946.91  223.38
  -2  -2   1 2813.82  223.38
  -2  -2   1 3358.26  223.48
  -2  -2   1 3486.65  223.48
  -2  -2   1 2828.62  223.48
  -2  -2   1 2962.40  223.48
  -2  -2   1 3354.56  223.48
   2  -2  -1 3326.77  223.38
  -2  -2   1 3044.80  223.48
  -2  -2   1 3037.50  223.48
   2  -2  -1 3268.07  223.38
  -2  -2   1 3072.19  223.48
  -2   2   1 3212.38  223.48
   2   2  -1 3357.06  223.48
  -2   2   1 3627.64  223.48
   2   2  -1 3600.04  223.48
  -2   2   1 3294.07  223.48
   1  -2  -1 3974.00  302.37
  -1  -2   1 4243.48  302.47
  -1  -2   1 3634.64  302.47
   1  -2  -1 4662.23  302.37
  -1  -2   1 4319.27  302.47
   1  -2  -1 3793.32  302.37
  -1  -2   1 4760.92  302.47
  -1  -2   1 4810.52  302.57
  -1  -2   1 4115.29  302.47
  -1  -2   1 4176.68  302.37
  -1   2   1 4448.46  302.47
   1   2  -1 4666.53  302.47
   1   2  -1 4667.13  302.47
  -1   2   1 4191.68  302.47
   0  -2   1 1201.78   98.69
   0  -2  -1 1289.47   98.69
   0  -2  -1 1347.67   98.79
   0  -2  -1 1440.36   98.69
   0  -2   1 1515.45   98.79
   0  -2   1 1351.36   98.79
   0  -2  -1 1233.88   98.69
   0  -2   1 1603.34   98.69
   0  -2   1 1612.94   98.99
   0  -2   1 1233.28   98.69
   0  -2  -1 1508.55   98.89
   0   2   1 1458.45   98.79
   0   2  -1 1446.06   98.79
   0   2  -1 1495.75   98.79
   0   2   1 1403.36   98.79
   1  -2   1  346.47   26.50
  -1  -2  -1  344.27   26.50
  -1  -2  -1  315.67   26.50
   1  -2   1  385.56   26.50
   1  -2   1  416.66   26.60
  -1  -2  -1  349.87   26.40
  -1  -2  -1  351.96   26.50
  -1  -2  -1  434.86   26.50
  -1  -2  -1  350.66   26.60
  -1  -2  -1  359.76   26.50
  -1  -2  -1  408.46   26.50
  -1  -2  -1  356.16   26.40
  -1  -2  -1  356.76   26.60
  -1   2  -1  435.96   26.50
   1   2   1  402.36   26.50
  -1   2  -1  390.36   26.50
  -1   2  -1  380.06   26.50
   1   2   1  388.76   26.50
  -2  -2  -1   89.39    7.40
  -2  -2  -1  102.99    7.40
   2  -2   1  119.69    7.50
  -2  -2  -1  105.79    7.50
   2  -2   1  114.29    7.50
  -2  -2  -1  114.09    7.40
  -2  -2  -1   98.79    7.50
  -2  -2  -1   86.49    7.50
   2  -2   1  104.89    7.40
  -2  -2  -1   92.49    7.40
  -2  -2  -1   97.99    7.50
  -2  -2  -1   93.29    7.50
  -2  -2  -1   93.99    7.50
  -2  -2  -1  103.49    7.40
  -2  -2  -1  103.39    7.50
  -2   2  -1  103.69    7.50
  -2   2  -1  117.09    7.40
  -2   2  -1  104.89    7.50
   2   2   1  102.69    7.40
  -2   2  -1  119.39    7.40
   2   2   1  113.19    7.40
  -2   2  -1  101.39    7.50
  -3  -2  -1  308.87   22.10
  -3  -2  -1  269.87   22.00
  -3  -2  -1  274.17   22.10
  -3  -2  -1  303.27   22.10
  -3  -2  -1  334.87   22.00
  -3  -2  -1  297.07   22.10
  -3  -2  -1  344.57   22.00
  -3  -2  -1  304.07   22.10
  -3  -2  -1  271.17   22.10
  -3  -2  -1  311.97   22.10
  -3  -2  -1  328.57   22.10
   3  -2   1  351.76   22.10
  -3  -2  -1  281.97   22.10
  -3  -2  -1  309.37   22.10
  -3   2  -1  358.16   22.10
  -3   2  -1  313.97   22.10
  -3   2  -1  356.66   22.10
  -4  -2  -1  136.99    9.80
  -4  -2  -1  132.99    9.90
  -4  -2  -1  135.29    9.80
  -4  -2  -1  119.99    9.90
   4  -2   1  148.89    9.80
  -4  -2  -1  128.19    9.80
  -4  -2  -1  129.79    9.70
   4  -2   1  142.99    9.70
  -4  -2  -1  153.48    9.70
  -4  -2  -1  139.69    9.70
  -4  -2  -1  152.38    9.70
  -4  -2  -1  123.69    9.80
  -4  -2  -1  141.59    9.80
  -4  -2  -1  144.89    9.80
  -4  -2  -1  120.79    9.90
  -4  -2  -1  131.79    9.70
  -4  -2  -1  124.99    9.70
  -4   2  -1  142.79    9.80
  -4   2  -1  153.78    9.80
  -4   2  -1  140.59   10.00
  -4   2  -1  135.19    9.80
  -4   2  -1  121.49    9.70
  -4   2  -1  145.39    9.80
  -5  -2  -1  642.94   50.69
  -5  -2  -1  668.83   50.69
  -5  -2  -1  717.33   50.59
  -5  -2  -1  743.63   50.59
  -5  -2  -1  723.43   50.69
  -5  -2  -1  781.62   50.69
  -5  -2  -1  788.02   50.59
   5  -2   1  699.23   50.79
  -5  -2  -1  754.02   50.59
  -5  -2  -1  716.33   50.79
  -5  -2  -1  628.64   50.69
  -5  -2  -1  769.12   50.59
  -5  -2  -1  725.63   50.69
  -5  -2  -1  705.13   50.59
  -5  -2  -1  695.13   50.69
  -5  -2  -1  697.53   50.69
  -5  -2  -1  655.83   50.59
   5  -2   1  733.73   50.59
  -5   2  -1  841.52   50.69
  -5   2  -1  767.82   50.69
  -5   2  -1  704.13   50.59
  -5   2  -1  717.53   50.69
  -5   2  -1  738.13   50.79
  -5   2  -1  698.73   50.69
  -6  -2  -1  645.64   49.60
  -6  -2  -1  699.23   49.60
  -6  -2  -1  730.63   49.50
  -6  -2  -1  723.33   49.50
  -6  -2  -1  741.63   49.50
  -6  -2  -1  680.43   49.50
  -6  -2  -1  716.33   49.50
  -6  -2  -1  672.03   49.50
  -6  -2  -1  667.63   49.50
  -6  -2  -1  732.33   49.60
  -6  -2  -1  699.33   49.60
   6  -2   1  666.03   49.50
  -6  -2  -1  704.63   49.60
  -6  -2  -1  692.23   49.70
  -6  -2  -1  637.34   49.60
  -6  -2  -1  746.83   49.60
  -6   2  -1  687.63   49.50
  -6   2  -1  759.52   49.60
  -6   2  -1  718.43   49.60
  -6   2  -1  729.33   49.60
  -6   2  -1  745.23   49.60
  -6   2  -1  725.33   49.70
  -7  -2  -1 1198.58   82.59
  -7  -2  -1 1176.48   82.49
  -7  -2  -1 1257.57   82.59
  -7  -2  -1 1240.08   82.59
  -7  -2  -1 1112.29   82.49
  -7  -2  -1 1118.69   82.69
  -7  -2  -1  989.20   82.59
  -7  -2  -1 1160.58   82.79
  -7  -2  -1 1214.08   82.49
  -7  -2  -1 1245.98   82.59
   7  -2   1 1079.39   82.49
  -7  -2  -1 1198.58   82.59
  -7  -2  -1 1223.58   82.59
  -7  -2  -1 1165.38   82.59
  -7   2  -1 1244.98   82.59
  -7   2  -1 1115.19   82.49
  -7   2  -1 1240.68   82.69
  -7   2  -1 1173.18   82.59
  -7   2  -1 1209.98   82.59
  -8  -2  -1 1376.66   96.09
  -8  -2  -1 1418.16   95.89
  -8  -2  -1 1474.25   95.89
  -8  -2  -1 1318.97   95.79
  -8  -2  -1 1380.26   95.79
  -8  -2  -1 1356.06   95.79
  -8  -2  -1 1393.16   95.99
  -8  -2  -1 1449.46   95.89
  -8  -2  -1 1417.16   95.89
  -8  -2  -1 1289.77   95.89
   8  -2   1 1235.38   95.79
  -8  -2  -1 1185.08   95.79
  -8   2  -1 1271.47   95.89
  -8   2  -1 1387.56   95.89
  -8   2  -1 1339.67   95.89
  -8   2  -1 1487.75   95.79
  -8   2  -1 1450.75   95.99
  -9  -2  -1  368.96   26.00
  -9  -2  -1  312.37   26.00
  -9  -2  -1  392.46   26.10
  -9  -2  -1  372.96   25.90
  -9  -2  -1  388.46   26.10
  -9  -2  -1  360.06   25.90
  -9  -2  -1  368.16   26.10
  -9  -2  -1  333.17   26.00
  -9  -2  -1  366.16   26.00
  -9  -2  -1  380.06   26.00
  -9  -2  -1  367.16   26.00
  -9  -2  -1  339.97   26.00
  -9   2  -1  366.16   26.00
  -9   2  -1  356.56   26.00
  -9   2  -1  354.56   26.00
  -9   2  -1  402.86   26.00
  -9   2  -1  410.76   26.00
  -9   2  -1  360.66   26.00
  -9   2  -1  398.56   26.20
 -10  -2  -1  258.47   18.30
 -10  -2  -1  269.77   18.40
 -10  -2  -1  265.67   18.30
 -10  -2  -1  282.07   18.40
 -10  -2  -1  254.17   18.40
 -10  -2  -1  270.07   18.50
 -10  -2  -1  226.38   18.30
 -10   2  -1  264.77   18.40
 -10   2  -1  253.57   18.30
 -10   2  -1  252.97   18.30
 -10   2  -1  264.97   18.50
 -10   2  -1  240.68   18.30
 -11  -2  -1  324.97   22.10
 -11  -2  -1  338.97   22.00
 -11  -2  -1  311.57   22.00
 -11  -2  -1  305.87   22.10
 -11  -2  -1  291.27   22.10
 -11  -2  -1  346.27   22.20
 -11  -2  -1  289.37   21.90
 -11  -2  -1  312.67   22.10
 -11   2  -1  284.57   22.00
 -11   2  -1  331.57   22.20
 -11   2  -1  290.07   22.00
 -12  -2  -1   51.59    3.70
 -12  -2  -1   38.80    4.20
 -12  -2  -1   46.20    3.70
 -12  -2  -1   50.29    3.80
 -12  -2  -1   55.09    4.00
 -12  -2  -1   44.90    3.70
 -12   2  -1   46.00    3.90
 -13  -2  -1    0.70    0.90
 -13  -2  -1    0.10    1.20
  13  -2   1    0.60    1.00
 -13   2  -1   -0.70    1.30
 -13   2  -1    1.20    0.80
 -12  -3   1   25.10    2.10
 -12  -3   1   20.50    2.20
 -12  -3   1   21.50    2.00
 -12   3   1   17.90    1.90
 -12   3   1   21.00    2.00
 -11  -3   1   34.50    2.80
 -11  -3   1   38.90    2.80
 -11  -3   1   34.00    3.10
 -11  -3   1   27.40    2.90
 -11  -3   1   35.20    2.80
 -11   3   1   32.40    2.70
 -11   3   1   33.30    2.60
 -11   3   1   28.90    3.00
 -10  -3   1   99.79    7.10
 -10  -3   1   98.39    7.60
 -10  -3   1  111.39    7.20
 -10  -3   1   94.29    7.10
 -10  -3   1   96.59    7.30
 -10  -3   1  101.39    7.20
 -10   3   1   91.59    7.30
 -10   3   1   96.69    7.10
 -10   3   1   94.89    7.10
 -10   3   1   93.89    7.10
  -9  -3   1   51.99    4.90
  -9  -3   1   56.89    4.50
  -9  -3   1   57.29    4.80
  -9  -3   1   58.39    4.30
   9  -3  -1   53.09    4.20
  -9  -3   1   53.99    4.30
  -9  -3   1   59.29    4.50
  -9  -3   1   56.69    4.30
  -9  -3   1   63.09    4.40
  -9   3   1   54.09    4.30
  -9   3   1   51.59    4.20
  -8  -3   1  187.28   15.10
   8  -3  -1  232.18   15.00
  -8  -3   1  221.58   15.00
  -8  -3   1  227.28   15.00
  -8  -3   1  216.48   15.10
  -8  -3   1  223.28   15.00
  -8  -3   1  182.78   15.00
  -8  -3   1  222.98   15.10
  -8  -3   1  198.18   15.30
  -8  -3   1  205.88   15.00
   8   3  -1  205.28   15.00
  -8   3   1  202.38   15.10
  -8   3   1  208.78   15.00
  -8   3   1  213.28   15.00
  -7  -3   1  245.78   17.00
  -7  -3   1  251.27   16.90
  -7  -3   1  213.18   16.90
  -7  -3   1  255.77   16.90
  -7  -3   1  234.08   17.10
  -7  -3   1  233.78   16.90
  -7  -3   1  249.58   16.90
  -7  -3   1  239.18   16.90
  -7  -3   1  206.08   16.90
  -7  -3   1  257.67   17.00
  -7   3   1  211.38   16.90
  -7   3   1  234.18   16.90
  -7   3   1  245.78   16.90
   7   3  -1  245.28   16.90
  -6  -3   1   27.30    2.30
  -6  -3   1   20.90    2.30
  -6  -3   1   20.00    2.20
  -6  -3   1   21.30    2.20
   6  -3  -1   25.80    2.10
  -6  -3   1   25.70    2.30
  -6  -3   1   25.40    2.10
   6  -3  -1   21.10    2.70
  -6   3   1   25.40    2.20
  -6   3   1   21.70    2.10
  -6   3   1   26.40    2.10
   6   3  -1   18.90    2.40
  -5  -3   1   14.50    1.40
   5  -3  -1   10.20    1.30
  -5  -3   1   12.10    1.60
  -5  -3   1   13.20    1.60
  -5  -3   1    8.80    1.60
   5  -3  -1   10.10    1.80
  -5  -3   1   13.30    1.50
  -5  -3   1   12.00    1.60
   5  -3  -1   12.40    2.10
   5   3  -1   12.70    1.80
  -5   3   1   13.50    1.50
  -5   3   1   12.30    1.50
  -4  -3   1  141.69    9.70
  -4  -3   1  145.99    9.70
  -4  -3   1  118.49    9.60
   4  -3  -1  142.69    9.60
  -4  -3   1  126.49    9.60
   4  -3  -1  145.09    9.70
  -4  -3   1  147.19    9.60
  -4  -3   1  113.29    9.70
  -4  -3   1  133.99    9.80
  -4  -3   1  129.09    9.60
  -4  -3   1  136.19    9.70
  -4  -3   1  129.99    9.70
  -4  -3   1  135.59    9.80
  -4  -3   1  117.59    9.70
  -4   3   1  143.29    9.70
  -4   3   1  140.09    9.70
  -4   3   1  147.69    9.60
   4   3  -1  123.59    9.70
  -4   3   1  140.79   10.10
  -3  -3   1    0.40    0.80
  -3  -3   1    2.20    1.00
  -3  -3   1    0.20    0.60
  -3  -3   1    1.20    0.70
  -3  -3   1    0.50    1.00
  -3  -3   1    0.70    0.70
  -3  -3   1    0.10    1.00
  -3  -3   1   -1.00    1.00
   3   3  -1   -0.60    0.90
  -3   3   1   -0.10    0.70
   3   3  -1    1.90    1.40
  -2  -3   1   41.00    3.50
  -2  -3   1   47.50    3.60
   2  -3  -1   40.10    3.50
  -2  -3   1   49.60    3.40
  -2  -3   1   45.50    3.60
  -2  -3   1   42.80    3.30
   2  -3  -1   40.30    3.50
  -2  -3   1   41.70    3.30
   2  -3  -1   46.60    3.30
  -2   3   1   49.50    3.50
   2   3  -1   44.70    3.60
   2   3  -1   39.70    3.50
  -2   3   1   46.80    3.40
  -2   3   1   46.50    3.60
   1  -3  -1  126.99    9.30
  -1  -3   1  129.49    9.40
   1  -3  -1  149.79    9.30
  -1  -3   1  125.89    9.20
  -1  -3   1  143.29    9.30
  -1  -3   1  136.79    9.20
   1  -3  -1  133.59    9.20
  -1  -3   1  108.89    9.30
   1  -3  -1  113.49    9.30
  -1  -3   1  122.79    9.20
   1  -3  -1  117.29    9.20
   1   3  -1  137.09    9.40
  -1   3   1  132.09    9.30
  -1   3   1  141.19    9.40
   1   3  -1  122.99    9.30
   0  -3  -1  100.09    7.60
   0  -3  -1   88.09    7.70
   0  -3  -1  115.89    7.50
   0  -3  -1  117.29    7.50
   0  -3  -1  114.49    7.50
   0  -3   1   99.89    7.40
   0  -3  -1   86.59    7.50
   0  -3   1  112.29    7.50
   0  -3   1  113.49    7.50
   0  -3   1   98.39    7.40
   0  -3  -1  104.29    7.40
   0  -3   1  109.49    7.60
   0   3   1  103.09    7.50
   0   3  -1   92.19    7.50
   0   3   1   98.79    7.50
   0   3  -1  102.39    7.50
   1  -3   1  179.18   13.20
   1  -3   1  209.88   13.30
  -1  -3  -1  166.48   13.30
  -1  -3  -1  166.18   13.30
  -1  -3  -1  186.38   13.40
   1  -3   1  210.68   13.30
  -1  -3  -1  183.88   13.20
  -1  -3  -1  184.68   13.30
   1  -3   1  197.18   13.20
  -1  -3  -1  204.48   13.30
  -1  -3  -1  204.48   13.30
   1  -3   1  170.88   13.30
  -1  -3  -1  167.48   13.40
  -1  -3  -1  187.38   13.40
   1  -3   1  166.38   13.50
  -1  -3  -1  179.98   13.40
  -1   3  -1  179.78   13.30
   1   3   1  194.58   13.30
  -1   3  -1  202.68   13.30
   1   3   1  182.48   13.30
  -1   3  -1  196.08   13.30
   2  -3   1  514.05   35.00
  -2  -3  -1  523.65   35.00
  -2  -3  -1  473.45   35.00
   2  -3   1  536.85   35.30
  -2  -3  -1  479.15   35.10
   2  -3   1  459.25   35.00
  -2  -3  -1  452.55   34.90
   2  -3   1  532.35   35.00
  -2  -3  -1  478.55   35.10
  -2  -3  -1  535.45   35.00
  -2  -3  -1  419.36   35.00
  -2  -3  -1  459.55   35.00
  -2  -3  -1  517.05   35.00
  -2  -3  -1  518.65   35.00
   2  -3   1  503.15   35.10
   2  -3   1  565.24   35.10
  -2  -3  -1  429.66   35.10
   2  -3   1  519.35   35.10
  -2   3  -1  523.55   35.00
  -2   3  -1  477.45   35.10
   2   3   1  471.25   35.10
  -2   3  -1  526.75   35.00
   2   3   1  524.75   35.00
  -2   3  -1  508.45   35.00
   3  -3   1  343.87   28.80
  -3  -3  -1  424.46   28.80
  -3  -3  -1  384.86   28.80
  -3  -3  -1  389.36   28.90
  -3  -3  -1  370.26   28.80
   3  -3   1  437.96   28.80
  -3  -3  -1  401.96   28.90
  -3  -3  -1  391.66   28.90
   3  -3   1  465.35   28.90
  -3  -3  -1  394.16   28.90
  -3  -3  -1  438.66   28.90
  -3  -3  -1  419.86   29.00
  -3  -3  -1  422.46   28.90
  -3  -3  -1  397.96   28.80
  -3   3  -1  445.36   28.90
   3   3   1  372.76   28.90
  -3   3  -1  452.65   28.80
  -3   3  -1  366.66   28.90
  -3   3  -1  460.45   28.80
   4  -3   1  525.35   33.10
  -4  -3  -1  420.06   33.00
  -4  -3  -1  423.06   33.00
  -4  -3  -1  457.45   32.90
  -4  -3  -1  439.16   33.10
  -4  -3  -1  494.95   32.90
  -4  -3  -1  459.05   33.00
   4  -3   1  495.35   33.00
  -4  -3  -1  458.95   33.00
   4  -3   1  494.95   33.00
  -4  -3  -1  466.25   33.00
  -4  -3  -1  497.35   33.00
  -4   3  -1  486.95   33.00
  -4   3  -1  479.95   33.00
   4   3   1  425.46   33.00
  -5  -3  -1  174.28   14.20
   5  -3   1  223.58   14.10
  -5  -3  -1  186.68   14.10
  -5  -3  -1  207.68   14.10
  -5  -3  -1  212.68   14.20
  -5  -3  -1  192.78   14.10
  -5  -3  -1  169.88   14.30
  -5  -3  -1  176.98   14.10
  -5  -3  -1  210.68   14.10
  -5  -3  -1  219.18   14.00
  -5  -3  -1  188.88   14.20
  -5  -3  -1  184.18   14.10
  -5  -3  -1  206.58   14.20
   5  -3   1  221.48   14.20
   5   3   1  192.98   14.20
  -5   3  -1  172.98   14.30
  -5   3  -1  217.98   14.20
  -5   3  -1  213.78   14.10
   6  -3   1    3.60    0.80
   6  -3   1    7.90    1.90
  -6  -3  -1    4.20    1.10
  -6  -3  -1    6.80    1.40
  -6  -3  -1    4.80    0.90
  -6  -3  -1    4.40    0.90
  -6  -3  -1    3.60    1.40
  -6  -3  -1    6.60    1.20
  -6  -3  -1    4.80    1.00
  -6  -3  -1    5.00    0.80
  -6   3  -1    4.60    0.80
   6   3   1    3.60    1.00
  -6   3  -1    4.70    1.00
  -7  -3  -1    0.20    1.00
   7  -3   1    1.00    0.80
  -7  -3  -1   -1.10    1.30
  -7  -3  -1    1.20    0.80
  -7  -3  -1    1.10    0.90
  -7  -3  -1    1.40    0.80
  -7  -3  -1    2.50    0.90
  -7  -3  -1    1.20    1.10
  -7  -3  -1    0.90    0.70
  -7  -3  -1    1.00    1.00
  -7  -3  -1    0.40    0.50
  -7   3  -1    2.10    0.90
   7   3   1    1.80    0.90
  -7   3  -1    1.20    1.10
  -7   3  -1   -0.30    1.10
  -7   3  -1    1.70    0.80
  -8  -3  -1    0.30    0.80
   8  -3   1   -0.60    0.80
  -8  -3  -1    1.00    0.80
  -8  -3  -1    0.20    1.10
  -8  -3  -1    0.90    0.90
  -8  -3  -1    0.00    0.90
  -8  -3  -1   -0.30    1.00
  -8  -3  -1   -0.20    0.80
  -8  -3  -1   -0.20    1.10
  -8   3  -1    1.70    1.10
   8   3   1    0.00    0.90
  -8   3  -1    0.60    1.00
  -8   3  -1   -0.40    1.00
  -8   3  -1   -1.00    0.80
  -8   3  -1    0.90    0.80
   9  -3   1    2.20    1.50
  -9  -3  -1    0.60    0.90
  -9  -3  -1    0.30    0.50
  -9  -3  -1    1.00    0.90
  -9  -3  -1    1.50    0.80
  -9  -3  -1    1.40    1.10
  -9  -3  -1    2.10    1.10
  -9  -3  -1    1.60    1.10
  -9  -3  -1    0.80    0.90
  -9   3  -1    2.10    0.90
  -9   3  -1    1.50    1.00
  -9   3  -1    0.70    1.30
   9   3   1    0.70    1.00
  -9   3  -1    0.60    1.00
 -10  -3  -1   26.30    2.40
 -10  -3  -1   28.30    2.30
 -10  -3  -1   28.60    2.30
 -10  -3  -1   22.00    2.50
 -10  -3  -1   31.50    2.30
 -10  -3  -1   24.80    2.70
 -10  -3  -1   24.40    2.40
 -10  -3  -1   28.50    2.70
 -10  -3  -1   27.30    2.40
 -10   3  -1   24.70    2.30
 -10   3  -1   24.80    2.20
 -10   3  -1   27.70    2.40
  10   3   1   22.80    2.70
 -10   3  -1   23.30    2.60
 -11  -3  -1   34.20    2.60
 -11  -3  -1   34.40    3.10
 -11  -3  -1   34.80    2.70
 -11  -3  -1   30.20    2.80
 -11  -3  -1   30.80    2.70
 -11   3  -1   31.50    2.70
 -11   3  -1   26.80    2.50
 -11   3  -1   31.00    2.90
 -12  -3  -1    2.10    0.70
  12  -3   1    2.00    1.00
 -12  -3  -1    4.00    1.20
 -12   3  -1    0.60    0.80
 -12   3  -1    1.80    0.90
 -12   3  -1    3.10    1.00
 -10  -4   1    6.90    1.50
 -10  -4   1    4.50    1.20
 -10  -4   1    4.00    1.00
 -10  -4   1    5.20    1.20
 -10   4   1    5.30    0.90
 -10   4   1    4.20    1.10
  -9  -4   1    2.40    0.90
  -9  -4   1    0.10    1.20
  -9  -4   1    3.30    1.20
  -9  -4   1    0.90    1.00
  -9  -4   1    2.30    1.10
  -9  -4   1    2.10    0.90
   9  -4  -1    3.10    1.50
  -9   4   1    2.30    0.90
  -9   4   1    1.60    0.70
  -9   4   1    1.00    1.00
  -8  -4   1   54.99    5.00
   8  -4  -1   72.19    5.00
  -8  -4   1   60.59    5.20
  -8  -4   1   67.89    5.00
  -8  -4   1   70.19    5.00
   8  -4  -1   71.09    5.20
  -8   4   1   61.09    5.00
  -8   4   1   71.99    5.10
  -7  -4   1    0.00    1.00
   7  -4  -1   -0.80    0.80
  -7  -4   1    0.60    0.90
  -7  -4   1   -1.60    1.50
  -7  -4   1   -0.10    1.20
  -7  -4   1   -0.40    1.10
   7  -4  -1    0.10    1.10
  -7  -4   1    0.70    1.20
  -7   4   1   -0.20    0.80
  -7   4   1   -0.10    1.00
  -6  -4   1   -1.50    1.40
   6  -4  -1    0.20    1.00
  -6  -4   1    1.10    1.20
   6  -4  -1   -1.00    0.70
  -6  -4   1    0.60    1.30
  -6  -4   1   -0.50    1.20
  -6  -4   1    1.30    0.80
  -6   4   1   -0.80    1.00
  -6   4   1    0.80    1.00
  -6   4   1    0.50    0.80
  -5  -4   1  186.38   12.80
  -5  -4   1  181.98   12.80
   5  -4  -1  186.98   12.70
   5  -4  -1  176.38   12.80
  -5  -4   1  181.78   12.90
  -5  -4   1  149.19   12.90
   5  -4  -1  193.18   13.00
  -5  -4   1  169.98   12.80
  -5  -4   1  170.88   12.80
  -5   4   1  196.88   12.70
  -5   4   1  175.98   12.80
  -5   4   1  171.08   12.80
  -4  -4   1   -1.20    1.10
  -4  -4   1    0.60    0.90
  -4  -4   1    1.20    1.00
  -4  -4   1   -1.30    1.10
  -4  -4   1    1.70    1.20
  -4  -4   1   -0.70    1.20
   4  -4  -1    0.80    0.90
  -4   4   1   -0.70    1.10
  -4   4   1   -1.40    0.90
   4   4  -1    0.10    1.30
  -4   4   1    2.00    0.90
  -3  -4   1    0.60    1.20
  -3  -4   1    2.30    1.00
   3  -4  -1    1.20    1.00
   3  -4  -1    3.40    1.00
  -3  -4   1    4.20    1.30
  -3  -4   1    4.20    1.00
  -3  -4   1    3.40    1.00
  -3  -4   1    2.00    1.10
   3  -4  -1    3.20    1.20
  -3  -4   1    1.10    1.40
   3  -4  -1    1.90    0.70
  -3   4   1    3.30    0.90
   3   4  -1    2.70    1.20
  -3   4   1    1.90    1.00
  -3   4   1    3.40    1.30
   2  -4  -1  130.59    9.30
  -2  -4   1  118.99    9.30
  -2  -4   1  140.89    9.20
   2  -4  -1  119.39    9.60
   2  -4  -1  124.09    9.30
   2  -4  -1  130.49    9.10
  -2  -4   1  127.59    9.30
  -2  -4   1  140.49    9.20
   2  -4  -1  132.99    9.20
  -2  -4   1  139.39    9.30
  -2  -4   1  109.99    9.30
  -2   4   1  117.29    9.20
  -2   4   1  113.19    9.40
  -1  -4   1   27.20    2.40
   1  -4  -1   21.60    2.50
   1  -4  -1   27.40    2.30
  -1  -4   1   21.50    2.50
  -1  -4   1   26.20    2.50
   1  -4  -1   21.00    2.50
   1  -4  -1   23.70    2.60
   1  -4  -1   22.30    2.20
   1  -4  -1   27.80    2.40
  -1  -4   1   27.70    2.50
   1   4  -1   25.10    3.00
  -1   4   1   23.00    2.30
   0  -4   1   23.20    2.50
   0  -4   1   26.00    2.30
   0  -4   1   22.00    2.50
   0  -4  -1   20.30    2.40
   0  -4   1   25.00    2.30
   0  -4   1   24.90    2.50
   0  -4  -1   21.40    2.50
   0  -4  -1   21.50    2.10
   0  -4   1   23.90    2.30
   0  -4   1   27.10    2.20
   0  -4  -1   24.30    2.20
   0  -4  -1   17.60    2.30
   0  -4  -1   22.30    2.30
  -1  -4  -1   37.30    2.90
  -1  -4  -1   33.20    3.10
  -1  -4  -1   35.90    3.00
   1  -4   1   38.40    3.00
   1  -4   1   36.30    2.90
   1  -4   1   35.80    2.80
   1  -4   1   38.10    3.00
   1  -4   1   31.40    3.00
  -1  -4  -1   30.10    2.80
  -1  -4  -1   33.00    2.80
   1  -4   1   32.70    3.10
  -1   4  -1   30.30    3.00
  -2  -4  -1    6.10    0.90
  -2  -4  -1    7.40    1.30
  -2  -4  -1    3.30    1.20
  -2  -4  -1    3.70    1.20
   2  -4   1    4.30    1.10
   2  -4   1    5.10    0.80
   2  -4   1    4.60    1.00
   2  -4   1    6.30    1.30
  -2  -4  -1    2.40    1.30
  -2  -4  -1    4.70    1.00
  -2  -4  -1    6.60    1.40
  -2   4  -1    5.30    1.00
  -2   4  -1    5.10    1.00
   2   4   1    3.10    1.20
  -3  -4  -1    3.20    0.90
   3  -4   1    0.70    1.00
  -3  -4  -1    0.60    1.10
  -3  -4  -1    0.90    1.30
  -3  -4  -1    0.60    1.10
   3  -4   1    2.20    1.20
  -3  -4  -1    2.50    1.00
  -3  -4  -1    1.10    1.10
   3  -4   1    1.80    0.70
   3  -4   1    0.80    1.00
  -3  -4  -1    3.60    1.30
  -3  -4  -1    0.30    1.30
  -3  -4  -1    2.20    1.40
  -3   4  -1    3.40    0.90
   3   4   1    1.70    1.10
  -3   4  -1    0.10    1.30
  -3   4  -1    2.90    0.90
   4  -4   1   27.60    2.60
   4  -4   1   28.10    2.30
   4  -4   1   27.60    2.60
  -4  -4  -1   23.30    2.50
  -4  -4  -1   26.80    2.50
  -4  -4  -1   20.80    2.50
  -4  -4  -1   26.30    2.30
  -4  -4  -1   22.20    2.40
   4  -4   1   23.60    2.50
   4   4   1   22.20    2.60
  -4   4  -1   27.50    2.20
  -4   4  -1   28.60    2.40
  -4   4  -1   21.50    2.50
  -5  -4  -1   40.10    3.30
   5  -4   1   35.80    3.20
   5  -4   1   39.50    3.00
   5  -4   1   41.40    3.40
  -5  -4  -1   28.90    3.20
  -5  -4  -1   31.60    3.30
   5  -4   1   37.10    3.30
  -5  -4  -1   38.70    3.00
  -5   4  -1   41.40    3.00
  -5   4  -1   36.00    3.10
   5   4   1   31.10    3.30
  -5   4  -1   33.90    3.10
   6  -4   1   62.99    4.30
  -6  -4  -1   49.80    4.40
   6  -4   1   65.89    5.50
  -6  -4  -1   57.89    4.30
  -6  -4  -1   64.69    4.50
  -6  -4  -1   51.49    4.40
   6  -4   1   55.79    4.50
  -6  -4  -1   55.59    4.30
  -6  -4  -1   51.09    4.40
   6   4   1   49.10    4.60
  -6   4  -1   50.19    4.30
  -6   4  -1   60.39    4.40
  -7  -4  -1   26.90    2.70
  -7  -4  -1   27.90    2.60
   7  -4   1   31.50    2.50
   7  -4   1   26.20    3.00
  -7  -4  -1   32.10    2.70
  -7  -4  -1   30.90    2.50
  -7  -4  -1   25.80    2.70
  -7  -4  -1   31.00    2.60
  -7   4  -1   24.50    2.60
  -7   4  -1   33.00    2.60
   7   4   1   25.90    3.20
  -7   4  -1   31.60    2.60
  -8  -4  -1   17.90    2.20
   8  -4   1   17.90    2.40
  -8  -4  -1   19.30    1.90
   8  -4   1   16.80    2.00
  -8   4  -1   17.00    2.50
  -9  -4  -1    6.10    1.00
  -9  -4  -1    7.10    1.30
  -9  -4  -1    7.00    1.30
  -9  -4  -1    5.30    1.40
  -9  -4  -1    5.20    1.10
  -9   4  -1    5.10    0.80
  -9   4  -1    5.60    1.30
  -9   4  -1    7.50    1.30
 -10  -4  -1    0.30    1.50
 -10  -4  -1    0.30    0.70
 -10  -4  -1   -0.30    1.00
 -10  -4  -1    1.40    1.00
 -10  -4  -1   -0.50    1.00
 -10   4  -1    0.10    0.60
  -7  -5   1   43.60    3.60
   7  -5  -1   52.29    3.80
   7  -5  -1   47.70    3.70
  -7  -5   1   41.00    3.60
  -7  -5   1   50.29    3.70
   7   5  -1   49.60    3.70
  -7   5   1   42.80    3.70
   6  -5  -1   53.79    4.60
  -6  -5   1   52.59    4.40
  -6  -5   1   55.69    4.40
   6  -5  -1   63.69    4.40
  -6  -5   1   55.09    4.50
   6  -5  -1   62.09    4.60
  -6  -5   1   61.79    4.50
  -6   5   1   57.99    4.60
   6   5  -1   64.99    4.50
   5  -5  -1    7.60    1.40
  -5  -5   1    4.80    1.00
  -5  -5   1    5.00    1.10
   5  -5  -1    4.10    1.40
   5  -5  -1    7.20    1.40
   5  -5  -1    5.10    0.90
  -5   5   1    5.60    1.20
   5   5  -1    5.60    1.10
  -4  -5   1   17.00    1.90
  -4  -5   1   12.90    2.00
   4  -5  -1   13.10    1.70
  -4  -5   1    8.80    1.80
  -4  -5   1   12.00    1.70
   4  -5  -1   14.10    1.50
   4  -5  -1   10.40    2.10
  -4  -5   1   12.70    1.70
  -4   5   1   13.50    2.00
  -4   5   1   11.50    1.70
   4   5  -1   14.10    1.80
  -3  -5   1    9.60    1.60
   3  -5  -1    9.00    1.30
   3  -5  -1    8.50    2.00
  -3  -5   1   10.30    1.70
  -3  -5   1    8.00    1.70
  -3  -5   1    6.40    1.40
   3  -5  -1    8.40    1.50
   3  -5  -1   13.10    1.80
   3  -5  -1   11.50    1.80
  -3  -5   1   10.70    1.80
  -3  -5   1    9.30    1.90
  -3   5   1    8.20    1.60
  -3   5   1    8.20    1.20
   3   5  -1    9.80    1.30
  -2  -5   1   92.69    6.60
  -2  -5   1   88.19    6.60
  -2  -5   1   89.69    6.50
   2  -5  -1   98.69    6.50
  -2  -5   1   99.49    6.50
   2  -5  -1   88.79    6.40
   2  -5  -1   98.69    6.70
   2  -5  -1   83.79    6.50
  -2  -5   1   81.09    6.40
  -2  -5   1   81.59    6.50
  -2  -5   1   80.09    6.70
   2  -5  -1   86.79    6.70
  -2   5   1   75.89    6.60
  -2   5   1   77.49    6.40
   2   5  -1   85.09    6.50
  -1  -5   1   96.49    7.50
   1  -5  -1  112.89    7.40
   1  -5  -1  101.69    7.40
   1  -5  -1   87.39    7.50
  -1  -5   1   87.69    7.30
  -1  -5   1   99.79    7.30
  -1  -5   1  108.49    7.30
   1  -5  -1   93.99    7.20
  -1  -5   1  102.69    7.50
   1  -5  -1  106.89    7.50
  -1  -5   1  109.69    7.40
  -1  -5   1  104.59    7.40
   1   5  -1   96.89    7.30
  -1   5   1   84.69    7.30
   0  -5   1   77.39    5.50
   0  -5   1   71.69    5.20
   0  -5  -1   75.09    5.40
   0  -5  -1   62.09    5.30
   0  -5  -1   59.09    5.50
   0  -5  -1   63.79    5.10
   0  -5  -1   78.29    5.30
   0  -5  -1   68.29    5.20
   0  -5   1   72.19    5.20
   0  -5   1   72.19    5.40
   0   5  -1   65.79    5.20
   0   5   1   58.39    5.20
  -1  -5  -1  118.39    8.30
  -1  -5  -1   98.09    8.30
  -1  -5  -1  119.99    8.40
  -1  -5  -1   97.99    8.20
  -1  -5  -1  104.09    8.20
   1  -5   1  120.49    8.40
  -1  -5  -1  115.59    8.30
   1  -5   1  119.19    8.20
   1  -5   1  124.69    8.30
   1  -5   1  115.79    8.30
   1  -5   1  118.29    8.40
  -1   5  -1  116.49    8.20
   1   5   1  106.89    8.30
  -2  -5  -1   90.69    7.00
  -2  -5  -1   97.69    7.00
  -2  -5  -1  105.69    7.10
   2  -5   1   98.49    7.00
  -2  -5  -1   87.29    6.90
   2  -5   1   91.49    7.10
   2  -5   1  104.89    6.90
   2  -5   1  104.19    6.90
  -2  -5  -1   81.99    7.00
   2   5   1   87.09    6.90
  -2   5  -1   93.09    6.80
  -2   5  -1   82.39    7.00
  -3  -5  -1  104.69    9.00
   3  -5   1  137.39    8.90
   3  -5   1  130.79    8.70
  -3  -5  -1  107.49    8.80
   3  -5   1  116.19    8.80
  -3  -5  -1  119.49    8.80
  -3  -5  -1  129.99    8.90
   3  -5   1  136.99    8.80
  -3  -5  -1  122.69    8.80
   3  -5   1  119.99    8.90
  -3   5  -1  117.09    8.70
  -3   5  -1  103.09    8.80
   3   5   1  120.29    8.70
   4  -5   1   67.99    5.50
   4  -5   1   85.19    5.70
  -4  -5  -1   73.29    5.50
  -4  -5  -1   72.59    5.40
  -4  -5  -1   64.49    5.40
   4  -5   1   67.49    5.50
  -4  -5  -1   67.09    5.30
   4  -5   1   81.39    5.50
  -4   5  -1   69.39    5.50
   4   5   1   68.29    5.80
  -4   5  -1   74.89    5.30
   5  -5   1   38.10    3.00
  -5  -5  -1   31.60    2.90
   5  -5   1   42.00    3.80
   5  -5   1   31.70    3.10
  -5  -5  -1   40.30    3.10
  -5  -5  -1   32.80    3.00
   5  -5   1   38.60    3.20
  -5  -5  -1   34.80    3.00
  -5   5  -1   37.60    3.00
  -5   5  -1   34.50    3.20
  -6  -5  -1   12.50    1.50
  -6  -5  -1   10.10    1.50
   6  -5   1   11.10    1.60
  -6  -5  -1   10.60    1.40
  -6  -5  -1    9.40    1.50
  -6   5  -1    7.40    1.80
  -7  -5  -1    2.40    0.80
  -7  -5  -1    2.00    0.80
  -7  -5  -1    1.40    1.20
  -7  -5  -1    1.70    1.00
   7   5   1    3.30    0.90
  -7   5  -1    0.80    0.60
 -15   0   2  126.09    8.70
 -15   0   2  106.49    8.50
 -15   0   2  123.19    8.60
 -14   0   2   76.19    5.30
 -14   0   2   65.09    5.30
 -14   0   2   69.09    5.80
 -14   0   2   77.39    5.40
 -14   0   2   73.19    5.30
 -14   0   2   63.69    5.20
 -14   0   2   68.99    5.20
 -13   0   2   16.80    1.70
 -13   0   2   15.00    1.70
 -13   0   2   14.40    2.00
 -13   0   2   16.50    1.80
 -13   0   2   13.90    1.70
 -13   0   2   16.40    2.80
 -12   0   2  142.09   10.70
 -12   0   2  149.09   10.80
 -12   0   2  153.08   10.80
 -12   0   2  156.18   11.00
 -12   0   2  160.98   10.80
 -12   0   2  156.98   11.00
 -12   0   2  131.09   11.10
 -11   0   2    8.10    1.20
 -11   0   2    7.00    1.20
 -11   0   2    7.80    1.20
 -11   0   2    5.90    1.40
 -11   0   2    6.60    1.20
 -11   0   2    7.50    1.20
 -11   0   2    5.50    1.50
 -10   0   2  532.55   41.80
 -10   0   2  585.44   42.20
 -10   0   2  618.94   41.90
 -10   0   2  609.84   42.00
 -10   0   2  609.94   42.00
 -10   0   2  622.34   42.10
 -10   0   2  548.45   41.90
 -10   0   2  631.34   42.00
 -10   0   2  610.04   41.90
  -9   0   2  877.41   65.79
  -9   0   2  971.60   65.79
  -9   0   2  982.40   65.89
  -9   0   2  775.22   65.79
  -9   0   2 1007.10   65.89
  -9   0   2  899.41   65.79
  -9   0   2  925.81   65.79
  -9   0   2 1030.90   65.89
  -9   0   2  892.21   65.99
  -9   0   2 1004.60   65.99
  -9   0   2  902.71   65.79
  -9   0   2 1019.50   65.79
  -9   0   2  990.20   65.79
  -9   0   2  854.71   65.79
  -8   0   2 2480.95  174.98
  -8   0   2 2553.34  174.88
  -8   0   2 2675.53  174.88
  -8   0   2 2720.03  174.88
  -8   0   2 2549.44  175.08
  -8   0   2 2851.11  174.98
  -8   0   2 2690.53  174.88
  -8   0   2 2314.07  174.98
  -8   0   2 2439.26  174.88
  -8   0   2 2599.04  174.88
  -8   0   2 2108.79  174.98
  -8   0   2 2598.04  174.98
  -8   0   2 2439.26  174.88
  -8   0   2 2260.27  174.78
  -8   0   2 2190.48  174.88
  -8   0   2 2774.02  174.98
  -8   0   2 2408.56  174.88
  -8   0   2 2288.07  174.88
  -7   0   2 2100.19  139.19
  -7   0   2 1848.72  139.19
  -7   0   2 1999.00  139.19
  -7   0   2 1862.61  139.29
  -7   0   2 2184.28  139.19
  -7   0   2 1729.03  139.09
  -7   0   2 1947.91  139.19
  -7   0   2 2019.20  139.19
  -7   0   2 1954.80  139.29
  -7   0   2 1890.21  139.09
  -7   0   2 1963.60  139.19
  -7   0   2 1973.00  139.09
  -7   0   2 2098.99  139.19
  -7   0   2 2249.27  139.19
  -7   0   2 1959.70  139.09
  -6   0   2 4665.93  353.36
  -6   0   2 4784.72  353.26
  -6   0   2 5070.19  353.26
  -6   0   2 5070.99  353.26
  -6   0   2 5531.15  353.36
  -6   0   2 4543.25  353.36
  -6   0   2 4678.13  353.26
  -6   0   2 5303.47  353.26
  -6   0   2 5360.06  353.26
  -6   0   2 5310.87  353.36
  -6   0   2 4643.54  353.46
  -6   0   2 5586.94  353.36
  -5   0   2 6430.16  432.96
  -5   0   2 5716.93  432.96
  -5   0   2 6934.01  432.96
  -5   0   2 6338.37  432.96
   5   0  -2 5916.81  432.96
   5   0  -2 6496.75  432.96
  -5   0   2 5921.21  432.96
  -5   0   2 6439.26  432.96
  -5   0   2 6057.39  432.96
  -5   0   2 5577.34  432.96
  -4   0   2 4692.63  366.66
   4   0  -2 5576.34  366.66
  -4   0   2 5794.92  366.76
  -4   0   2 5222.08  366.76
  -4   0   2 4946.90  366.66
  -4   0   2 5193.18  366.66
  -3   0   2  539.25   38.00
  -3   0   2  542.45   37.90
  -3   0   2  576.74   38.00
  -3   0   2  551.84   38.00
  -3   0   2  528.75   38.00
  -3   0   2  582.54   38.00
  -3   0   2  524.95   38.00
   3   0  -2  499.35   38.00
   3   0  -2  521.95   38.00
   2   0  -2  803.52   55.59
  -2   0   2  800.42   55.59
  -2   0   2  798.12   55.59
   2   0  -2  732.83   55.59
  -1   0   2  436.66   29.60
   1   0  -2  408.86   29.60
   1   0   2 1019.60   72.89
  -1   0  -2 1090.09   72.89
   1   0   2  916.81   72.89
  -1   0  -2 1125.39   72.89
   2   0   2 2033.70  142.09
  -2   0  -2 1836.32  142.09
  -2   0  -2 2258.27  142.09
   2   0   2 1985.20  142.09
  -3   0  -2 8119.29  605.34
  -3   0  -2 9173.98  605.34
  -4   0  -2 4785.92  326.37
  -4   0  -2 4879.41  326.37
  -4   0  -2 4340.47  326.37
  -4   0  -2 4571.84  326.37
   4   0   2 4786.72  326.47
  -4   0  -2 4473.85  326.37
  -4   0  -2 4782.52  326.37
  -5   0  -2 1216.28   84.49
   5   0   2 1294.17   84.49
  -5   0  -2 1223.48   84.49
  -5   0  -2 1247.08   84.49
  -5   0  -2 1094.89   84.49
  -5   0  -2 1292.17   84.49
  -5   0  -2 1083.89   84.49
  -5   0  -2 1332.77   84.49
  -5   0  -2 1275.67   84.69
  -5   0  -2 1198.08   84.49
  -5   0  -2 1271.57   84.49
  -5   0  -2 1069.89   84.59
  -5   0  -2 1197.18   84.49
  -5   0  -2 1079.29   84.49
  -6   0  -2 4268.87  292.77
  -6   0  -2 3766.52  292.77
  -6   0  -2 3977.70  292.87
  -6   0  -2 4227.08  292.97
  -6   0  -2 4016.80  292.77
  -6   0  -2 4271.17  292.87
  -6   0  -2 4030.00  292.77
  -6   0  -2 4328.17  292.87
  -6   0  -2 4560.64  292.87
  -6   0  -2 3778.02  292.87
  -6   0  -2 4292.17  292.87
  -6   0  -2 4654.73  292.77
  -7   0  -2 3236.38  244.78
  -7   0  -2 3499.05  244.68
  -7   0  -2 3731.33  244.68
  -7   0  -2 2986.70  244.78
  -7   0  -2 3686.03  244.68
  -7   0  -2 3036.70  244.68
  -7   0  -2 3641.04  244.68
  -7   0  -2 3869.01  244.78
  -7   0  -2 3757.52  244.78
  -8   0  -2  122.49    7.70
  -8   0  -2  100.19    7.60
  -8   0  -2  102.99    7.70
  -8   0  -2  116.49    7.90
  -8   0  -2   99.29    7.60
  -8   0  -2   89.49    7.80
  -8   0  -2  113.29    7.60
  -8   0  -2  112.69    7.70
  -8   0  -2   89.59    7.60
  -8   0  -2  112.39    7.60
  -8   0  -2  105.89    7.60
  -8   0  -2  103.39    7.70
  -8   0  -2  105.99    7.50
  -8   0  -2  108.29    7.60
  -9   0  -2  133.19    9.50
  -9   0  -2  132.09    9.30
  -9   0  -2  133.59    9.30
  -9   0  -2  120.99    9.30
  -9   0  -2  117.59    9.50
  -9   0  -2  127.29    9.20
  -9   0  -2  125.79    9.30
  -9   0  -2  122.09    9.30
  -9   0  -2  141.09    9.40
  -9   0  -2  133.79    9.30
  -9   0  -2  129.39    9.40
  -9   0  -2  139.49    9.30
 -10   0  -2    7.50    1.60
 -10   0  -2    6.30    1.30
 -10   0  -2    6.50    1.40
 -10   0  -2    4.70    0.90
 -10   0  -2    6.80    1.40
 -10   0  -2    7.50    1.20
 -10   0  -2    8.40    1.20
 -10   0  -2    9.50    1.20
 -10   0  -2    7.10    1.30
  10   0   2    5.00    1.20
 -10   0  -2    6.40    1.20
 -10   0  -2    6.90    1.10
 -11   0  -2   91.39    6.50
 -11   0  -2   95.99    6.60
 -11   0  -2   80.09    6.50
 -11   0  -2   92.99    6.70
 -11   0  -2   95.69    6.50
 -11   0  -2   82.89    6.90
  11   0   2   83.99    6.60
 -11   0  -2   88.09    6.60
 -12   0  -2  114.79    8.40
 -12   0  -2  116.99    8.40
 -12   0  -2  120.29    8.40
 -12   0  -2  103.79    8.40
 -12   0  -2  113.89    8.40
 -12   0  -2  122.29    8.90
 -12   0  -2  119.19    8.60
 -13   0  -2  113.29    8.40
 -13   0  -2  120.29    8.80
 -13   0  -2  118.39    8.40
 -13   0  -2  111.39    8.40
 -13   0  -2  122.79    8.50
 -13   0  -2  112.59    8.40
 -14  -1   2  165.98   12.90
 -14  -1   2  182.68   13.10
 -14  -1   2  176.08   13.00
 -14  -1   2  180.18   13.00
 -14  -1   2  205.08   13.30
 -14  -1   2  192.28   13.00
 -14   1   2  191.98   13.10
 -14   1   2  164.98   13.00
 -14   1   2  170.88   12.90
 -14   1   2  189.88   13.10
 -13  -1   2  122.99    9.30
 -13  -1   2  131.09    9.50
 -13  -1   2  131.89    9.20
 -13  -1   2  126.09    9.40
 -13  -1   2  127.29    9.20
 -13  -1   2  133.19    9.20
 -13  -1   2  127.39    9.20
 -13   1   2  123.79    9.30
 -13   1   2  122.19    9.20
 -13   1   2  133.99    9.30
 -13   1   2  127.69    9.30
 -12  -1   2  196.58   13.50
 -12  -1   2  192.48   13.70
 -12  -1   2  199.58   13.50
 -12  -1   2  195.18   13.50
 -12  -1   2  185.68   13.50
 -12  -1   2  190.78   13.70
 -12  -1   2  195.68   13.60
 -12  -1   2  162.28   13.50
 -12   1   2  179.98   13.50
 -12   1   2  193.38   13.50
 -12   1   2  197.18   13.60
 -12   1   2  194.68   13.50
 -12   1   2  196.88   13.60
 -12   1   2  171.18   13.40
 -11  -1   2  429.06   33.50
 -11  -1   2  503.35   33.70
 -11  -1   2  490.05   33.50
 -11  -1   2  463.05   33.40
 -11  -1   2  533.65   33.60
 -11  -1   2  483.85   33.70
 -11  -1   2  449.76   33.60
 -11  -1   2  506.85   33.50
 -11  -1   2  442.26   33.50
 -11  -1   2  456.85   33.80
 -11  -1   2  502.05   33.50
 -11   1   2  491.25   33.70
 -11   1   2  455.65   33.50
 -11   1   2  439.96   33.50
 -11   1   2  496.25   33.50
 -11   1   2  479.45   33.50
 -11   1   2  411.16   33.80
 -11   1   2  517.55   33.60
 -11   1   2  490.55   33.50
 -10  -1   2    5.50    1.10
 -10  -1   2    2.10    1.40
 -10  -1   2    3.90    0.90
 -10  -1   2    4.90    1.30
 -10  -1   2    2.90    1.40
 -10  -1   2    4.00    0.90
 -10  -1   2    3.00    1.00
 -10  -1   2    5.00    0.90
 -10  -1   2    4.30    1.00
 -10   1   2    4.20    1.10
 -10   1   2    6.00    1.20
 -10   1   2    3.00    0.70
 -10   1   2    2.80    0.80
 -10   1   2    2.60    0.70
 -10   1   2    2.90    0.90
 -10   1   2    4.40    0.90
 -10   1   2    5.20    1.00
  -9  -1   2  216.28   14.60
  -9  -1   2  203.48   14.70
  -9  -1   2  216.18   14.70
  -9  -1   2  201.68   14.70
  -9  -1   2  220.68   14.60
  -9  -1   2  199.48   14.70
  -9  -1   2  188.98   14.80
  -9  -1   2  180.88   14.60
  -9  -1   2  212.48   14.60
  -9  -1   2  215.78   14.50
  -9  -1   2  202.28   14.70
  -9  -1   2  216.18   14.60
  -9  -1   2  213.88   14.60
  -9   1   2  210.08   14.60
  -9   1   2  203.08   14.60
  -9   1   2  215.18   14.60
  -9   1   2  202.78   14.80
  -9   1   2  210.18   14.70
  -9   1   2  195.58   14.50
  -9   1   2  218.48   14.60
  -9   1   2  178.08   14.90
  -9   1   2  212.28   14.50
  -9   1   2  203.88   14.60
  -8  -1   2  254.67   17.30
  -8  -1   2  256.57   17.20
  -8  -1   2  230.18   17.20
  -8  -1   2  253.97   17.10
  -8  -1   2  241.38   17.20
  -8  -1   2  214.28   17.40
  -8  -1   2  243.78   17.30
  -8  -1   2  259.17   17.20
  -8  -1   2  258.47   17.20
  -8  -1   2  249.28   17.20
  -8  -1   2  231.68   17.30
  -8  -1   2  224.18   17.20
  -8  -1   2  260.27   17.30
  -8  -1   2  257.57   17.30
  -8   1   2  259.87   17.20
  -8   1   2  242.78   17.30
  -8   1   2  240.38   17.20
  -8   1   2  246.98   17.30
  -8   1   2  248.28   17.20
  -8   1   2  203.08   17.40
  -8   1   2  248.78   17.20
  -8   1   2  237.58   17.10
  -8   1   2  232.78   17.10
  -8   1   2  246.38   17.20
  -7  -1   2   25.60    2.20
  -7  -1   2   29.70    2.20
  -7  -1   2   29.90    2.10
  -7  -1   2   21.50    2.50
  -7  -1   2   27.50    2.10
  -7  -1   2   32.40    2.30
  -7  -1   2   23.50    2.10
  -7  -1   2   28.50    2.20
  -7  -1   2   27.50    2.30
  -7  -1   2   28.00    2.40
  -7  -1   2   26.50    2.20
   7  -1  -2   22.70    2.10
  -7  -1   2   23.50    2.20
  -7  -1   2   29.20    2.10
  -7   1   2   28.80    2.20
  -7   1   2   30.10    2.10
  -7   1   2   29.30    2.20
  -7   1   2   24.10    2.50
  -7   1   2   26.10    2.20
  -7   1   2   27.70    2.10
  -7   1   2   24.40    2.30
  -7   1   2   27.30    2.40
  -7   1   2   28.20    2.30
  -7   1   2   26.90    2.60
  -7   1   2   25.80    2.20
  -6  -1   2  132.59    8.80
  -6  -1   2  120.49    8.80
   6  -1  -2  126.69    8.80
  -6  -1   2  118.59    8.90
  -6  -1   2  112.39    8.80
  -6  -1   2  133.49    8.80
  -6  -1   2  138.09    8.80
  -6  -1   2  116.89    8.90
  -6  -1   2  140.29    8.80
  -6  -1   2  128.09    8.80
  -6  -1   2  125.99    8.80
  -6  -1   2  103.39    8.80
  -6  -1   2  114.59    8.70
  -6   1   2  131.19    8.90
  -6   1   2  128.79    8.80
  -6   1   2  115.49    8.80
  -6   1   2  116.79    9.00
  -6   1   2  136.69    8.80
  -6   1   2  119.49    8.80
  -6   1   2  122.39    8.90
  -6   1   2  110.09    8.90
  -6   1   2  122.79    8.80
  -6   1   2  128.09    8.80
  -6   1   2  129.49    8.80
  -5  -1   2  547.35   37.80
  -5  -1   2  487.95   37.90
  -5  -1   2  544.05   37.80
  -5  -1   2  566.34   37.80
  -5  -1   2  570.64   37.90
   5  -1  -2  517.65   37.80
  -5  -1   2  509.35   37.90
  -5  -1   2  487.15   37.80
  -5  -1   2  537.45   37.90
  -5  -1   2  541.75   37.90
  -5   1   2  580.64   37.80
  -5   1   2  569.54   37.90
  -5   1   2  480.75   37.80
  -5   1   2  580.74   37.80
   5   1  -2  556.14   37.80
   5   1  -2  501.25   37.80
  -5   1   2  543.25   38.00
  -5   1   2  579.94   37.80
  -4  -1   2  158.58   12.10
   4  -1  -2  187.78   12.10
  -4  -1   2  172.38   12.00
   4  -1  -2  144.79   12.10
  -4  -1   2  173.08   12.10
  -4  -1   2  159.28   12.10
  -4  -1   2  179.88   12.10
   4   1  -2  182.18   12.00
  -4   1   2  191.48   12.10
   4   1  -2  147.59   12.10
  -4   1   2  171.38   12.10
   4   1  -2  181.28   12.10
  -4   1   2  181.98   12.10
  -4   1   2  166.88   12.10
  -3  -1   2 2009.90  139.19
  -3  -1   2 1940.41  139.19
  -3  -1   2 2270.47  139.19
  -3  -1   2 1903.41  139.19
   3  -1  -2 1739.63  139.19
  -3  -1   2 1929.51  139.19
  -3  -1   2 1866.71  139.19
  -3  -1   2 1887.71  139.19
   3   1  -2 1806.72  139.19
   3   1  -2 2221.08  139.19
  -3   1   2 2078.09  139.19
  -3   1   2 2062.79  139.19
  -3   1   2 2200.18  139.19
  -3   1   2 1908.01  139.19
  -2  -1   2 6234.88  402.86
  -2  -1   2 5963.00  402.86
  -2  -1   2 5789.82  402.86
   2   1  -2 5195.58  402.86
  -2   1   2 5587.04  402.86
   1  -1  -2 3749.22  264.67
  -1  -1   2 4359.06  264.77
   1  -1  -2 3483.55  264.67
  -1  -1   2 3707.83  264.77
   1   1  -2 3605.64  264.77
   0  -1   2 7378.56  516.65
   1  -1   2 2401.36  181.78
  -1  -1  -2 2515.35  181.78
  -1  -1  -2 2568.34  181.78
   1   1   2 2897.11  181.78
  -2  -1  -2  863.31   58.49
  -2  -1  -2  790.52   58.59
  -2  -1  -2  811.72   58.59
  -2  -1  -2  871.31   58.49
  -2  -1  -2  714.43   58.49
   2  -1   2  876.91   58.49
  -2  -1  -2  859.11   58.49
   2  -1   2  899.31   58.49
  -2   1  -2  923.61   58.59
  -2   1  -2  929.71   58.49
  -2   1  -2  711.93   58.49
   2   1   2  772.72   58.49
   3  -1   2  336.37   23.10
  -3  -1  -2  318.47   23.10
  -3  -1  -2  344.77   23.10
  -3  -1  -2  317.87   23.10
   3  -1   2  359.56   23.10
  -3  -1  -2  317.37   23.10
  -3  -1  -2  299.77   23.10
  -3  -1  -2  304.27   23.30
  -3  -1  -2  344.07   23.10
  -3  -1  -2  304.97   23.10
   3   1   2  291.27   23.10
  -3   1  -2  349.77   23.10
  -3   1  -2  327.67   23.10
  -3   1  -2  337.77   23.20
  -3   1  -2  351.66   23.10
  -3   1  -2  363.46   23.10
  -4  -1  -2  167.38   11.70
  -4  -1  -2  142.29   11.70
  -4  -1  -2  179.38   11.60
  -4  -1  -2  150.78   11.70
  -4  -1  -2  143.29   11.70
  -4  -1  -2  162.28   11.70
  -4  -1  -2  164.88   11.70
  -4  -1  -2  174.88   11.70
  -4  -1  -2  167.98   11.70
  -4  -1  -2  177.68   11.90
  -4  -1  -2  172.38   11.70
  -4  -1  -2  171.28   11.70
  -4  -1  -2  150.68   11.70
   4   1   2  157.58   11.70
  -4   1  -2  181.28   11.70
  -4   1  -2  169.98   11.70
  -4   1  -2  184.88   11.70
  -4   1  -2  151.48   11.70
  -4   1  -2  171.18   11.70
  -4   1  -2  142.69   11.70
  -4   1  -2  164.08   11.80
  -4   1  -2  183.28   11.60
  -5  -1  -2  199.18   15.10
  -5  -1  -2  220.78   15.00
  -5  -1  -2  211.78   15.00
  -5  -1  -2  199.98   15.10
  -5  -1  -2  244.78   15.20
   5  -1   2  183.88   15.00
  -5  -1  -2  224.78   15.00
  -5  -1  -2  226.68   15.00
  -5  -1  -2  223.88   15.00
  -5  -1  -2  215.08   15.00
  -5  -1  -2  190.98   15.10
  -5  -1  -2  208.58   15.00
  -5  -1  -2  202.08   15.00
  -5  -1  -2  232.88   15.00
  -5  -1  -2  214.08   15.10
  -5   1  -2  230.38   15.00
  -5   1  -2  214.08   15.00
  -5   1  -2  229.88   15.00
  -5   1  -2  210.68   15.00
  -5   1  -2  198.78   15.00
  -5   1  -2  205.78   15.20
  -5   1  -2  219.88   15.00
  -5   1  -2  178.88   15.00
  -5   1  -2  186.68   15.00
  -5   1  -2  231.98   15.00
  -5   1  -2  216.48   15.00
   5   1   2  225.98   15.00
  -6  -1  -2  203.78   15.80
  -6  -1  -2  207.28   15.80
  -6  -1  -2  217.98   15.70
  -6  -1  -2  204.48   15.80
  -6  -1  -2  224.18   15.80
  -6  -1  -2  206.98   15.70
  -6  -1  -2  226.98   15.80
  -6  -1  -2  226.88   15.70
  -6  -1  -2  255.47   16.00
  -6  -1  -2  218.08   15.70
  -6  -1  -2  236.08   15.80
  -6  -1  -2  228.58   15.90
  -6  -1  -2  213.08   15.80
  -6  -1  -2  247.08   15.80
  -6  -1  -2  213.18   15.70
  -6   1  -2  219.18   15.70
  -6   1  -2  219.18   15.70
  -6   1  -2  237.28   15.80
  -6   1  -2  234.48   15.90
  -6   1  -2  237.78   15.80
  -6   1  -2  203.88   15.80
  -6   1  -2  210.88   15.80
  -6   1  -2  222.38   15.80
   6   1   2  234.68   15.80
  -6   1  -2  215.58   15.70
  -6   1  -2  195.18   15.90
  -6   1  -2  240.58   15.70
  -6   1  -2  243.08   15.80
  -7  -1  -2  369.26   25.20
  -7  -1  -2  347.57   25.10
  -7  -1  -2  385.96   25.50
  -7  -1  -2  328.37   25.30
  -7  -1  -2  336.97   25.20
  -7  -1  -2  381.76   25.20
  -7  -1  -2  369.26   25.20
  -7  -1  -2  386.56   25.30
  -7  -1  -2  331.57   25.20
  -7  -1  -2  369.36   25.20
  -7  -1  -2  339.07   25.20
  -7  -1  -2  343.27   25.30
  -7  -1  -2  300.37   25.20
  -7   1  -2  384.36   25.20
  -7   1  -2  373.86   25.20
  -7   1  -2  355.86   25.20
  -7   1  -2  327.67   25.20
  -7   1  -2  392.26   25.20
  -7   1  -2  311.47   25.40
   7   1   2  382.96   25.20
  -7   1  -2  363.46   25.20
  -7   1  -2  367.66   25.20
  -7   1  -2  377.96   25.40
  -7   1  -2  358.06   25.20
  -8  -1  -2  111.69    8.20
  -8  -1  -2  116.99    8.20
  -8  -1  -2  122.39    8.50
  -8  -1  -2  114.29    8.30
  -8  -1  -2  114.29    8.40
  -8  -1  -2  118.69    8.30
  -8  -1  -2  111.79    8.30
  -8  -1  -2  124.59    8.30
  -8  -1  -2  124.59    8.40
  -8  -1  -2  112.69    8.40
  -8  -1  -2   99.49    8.30
  -8  -1  -2  123.79    8.40
  -8  -1  -2  108.19    8.30
  -8  -1  -2  112.79    8.40
  -8   1  -2  118.29    8.60
  -8   1  -2  124.49    8.30
  -8   1  -2  119.79    8.30
  -8   1  -2  113.99    8.30
  -8   1  -2  115.99    8.30
  -8   1  -2  119.29    8.60
   8   1   2  114.09    8.40
  -8   1  -2  109.09    8.60
  -8   1  -2  117.09    8.30
  -8   1  -2  106.99    8.30
  -9  -1  -2  156.78   10.80
  -9  -1  -2  144.59   10.70
  -9  -1  -2  158.38   10.80
  -9  -1  -2  156.58   10.80
  -9  -1  -2  153.58   10.70
  -9  -1  -2  165.88   11.00
  -9  -1  -2  153.38   10.90
  -9  -1  -2  150.08   11.00
  -9  -1  -2  140.39   10.70
  -9  -1  -2  144.29   10.80
  -9  -1  -2  129.39   10.80
  -9  -1  -2  150.48   10.80
  -9  -1  -2  154.18   10.90
  -9   1  -2  143.69   10.80
  -9   1  -2  136.49   11.10
  -9   1  -2  146.89   10.80
  -9   1  -2  162.18   10.80
  -9   1  -2  145.59   10.80
  -9   1  -2  150.28   10.80
  -9   1  -2  155.38   11.00
  -9   1  -2  165.58   10.80
  -9   1  -2  157.98   10.80
   9   1   2  150.58   10.90
 -10  -1  -2  400.86   28.80
 -10  -1  -2  387.56   28.70
 -10  -1  -2  427.36   28.90
 -10  -1  -2  396.46   28.90
 -10  -1  -2  411.66   28.90
 -10  -1  -2  419.06   28.90
 -10  -1  -2  446.06   28.90
 -10  -1  -2  386.66   28.90
 -10  -1  -2  408.36   29.20
 -10  -1  -2  427.46   28.90
 -10  -1  -2  379.26   28.80
 -10   1  -2  379.06   28.80
 -10   1  -2  409.36   28.80
 -10   1  -2  418.06   28.90
 -10   1  -2  410.06   28.90
 -10   1  -2  408.76   28.90
 -10   1  -2  423.46   29.00
 -10   1  -2  415.46   28.80
 -10   1  -2  385.96   29.40
 -10   1  -2  432.06   28.90
 -10   1  -2  416.56   28.90
 -11  -1  -2   96.59    7.70
 -11  -1  -2  111.49    7.80
 -11  -1  -2  118.29    7.70
 -11  -1  -2  106.99    7.90
 -11  -1  -2  107.29    7.80
 -11  -1  -2  105.49    7.70
 -11  -1  -2  115.19    7.70
 -11  -1  -2  103.19    7.60
 -11   1  -2  107.09    7.70
 -11   1  -2  110.79    7.80
 -11   1  -2  106.89    7.70
 -11   1  -2  116.49    8.00
 -11   1  -2   94.09    7.60
 -11   1  -2   95.09    7.70
 -11   1  -2   87.89    8.10
 -11   1  -2  103.99    7.70
 -12  -1  -2  128.29    8.70
 -12  -1  -2  114.19    8.40
 -12  -1  -2  115.79    8.50
 -12  -1  -2  124.09    8.50
 -12  -1  -2  124.19    8.40
  12  -1   2  102.79    8.40
 -12   1  -2  106.99    8.40
 -12   1  -2  116.59    8.50
 -12   1  -2  118.69    8.50
 -12   1  -2  112.59    8.40
 -12   1  -2  111.89    8.40
 -13  -1  -2   67.79    4.90
 -13  -1  -2   71.29    4.90
 -13  -1  -2   67.59    4.90
 -13  -1  -2   67.69    4.90
 -13   1  -2   57.79    4.90
 -13   1  -2   66.29    5.00
 -13   1  -2   63.49    5.20
 -13   1  -2   63.39    4.90
 -14  -2   2   -0.40    1.50
 -14  -2   2    1.00    1.00
 -14  -2   2    0.80    0.60
 -14   2   2   -0.20    0.70
 -14   2   2    0.70    0.80
 -13  -2   2    2.10    1.50
 -13  -2   2    0.90    0.70
 -13  -2   2    0.30    0.40
 -13  -2   2    1.30    0.90
 -13   2   2    1.20    0.80
 -13   2   2    1.30    0.80
 -13   2   2    0.70    0.80
 -12  -2   2    4.30    1.40
 -12  -2   2    6.00    1.10
 -12  -2   2    5.80    1.40
 -12  -2   2    6.70    1.20
 -12  -2   2    6.40    1.20
 -12   2   2    3.60    1.00
 -12   2   2    5.40    1.00
 -11  -2   2   11.20    1.50
 -11  -2   2    9.80    1.60
 -11  -2   2   11.00    1.80
 -11  -2   2   12.80    1.80
 -11  -2   2    8.20    1.50
 -11  -2   2    8.40    1.40
 -11  -2   2   10.90    1.30
 -11  -2   2    9.70    1.30
 -11  -2   2    9.10    1.90
 -11  -2   2   11.80    1.50
 -11  -2   2    8.60    1.80
 -11  -2   2    9.40    1.40
 -11   2   2   10.20    1.70
 -11   2   2    7.80    1.30
 -11   2   2    8.80    1.70
 -11   2   2    8.80    1.40
 -10  -2   2   70.39    5.10
 -10  -2   2   69.29    5.20
 -10  -2   2   71.99    5.60
 -10  -2   2   66.79    5.10
 -10  -2   2   67.79    5.10
 -10  -2   2   75.69    5.10
 -10  -2   2   61.29    5.30
 -10  -2   2   76.99    5.30
 -10  -2   2   57.59    5.40
 -10  -2   2   68.69    5.10
 -10  -2   2   72.29    5.00
 -10  -2   2   66.39    5.20
 -10  -2   2   71.49    5.10
 -10   2   2   71.59    5.30
 -10   2   2   71.09    5.10
 -10   2   2   66.29    5.00
 -10   2   2   59.39    5.20
 -10   2   2   64.79    5.10
 -10   2   2   69.69    5.10
  -9  -2   2   24.20    2.40
  -9  -2   2   21.40    2.00
  -9  -2   2   19.60    2.20
  -9  -2   2   19.00    2.10
  -9  -2   2   21.80    2.00
  -9  -2   2   26.10    2.20
  -9  -2   2   19.80    2.00
   9  -2  -2   18.30    2.00
  -9  -2   2   19.10    2.00
  -9  -2   2   19.90    2.10
  -9  -2   2   18.70    2.30
  -9  -2   2   18.40    2.60
  -9  -2   2   24.80    2.00
  -9  -2   2   23.10    2.00
  -9   2   2   21.00    2.00
  -9   2   2   24.00    2.00
  -9   2   2   19.70    2.00
  -9   2   2   24.30    1.80
  -9   2   2   20.60    1.80
  -9   2   2   20.90    2.10
  -9   2   2   22.80    2.20
  -8  -2   2   66.29    4.80
  -8  -2   2   55.29    5.10
  -8  -2   2   64.39    4.80
  -8  -2   2   61.49    4.70
  -8  -2   2   67.79    4.70
  -8  -2   2   63.09    4.70
  -8  -2   2   58.29    4.80
  -8  -2   2   60.79    4.70
  -8  -2   2   65.49    4.80
   8  -2  -2   60.09    4.70
  -8  -2   2   66.89    4.90
  -8  -2   2   62.19    4.70
  -8  -2   2   65.49    4.90
  -8   2   2   64.79    4.80
  -8   2   2   62.89    4.90
  -8   2   2   62.59    4.70
  -8   2   2   58.89    4.80
  -8   2   2   71.59    4.70
  -8   2   2   69.79    4.60
  -7  -2   2  413.96   28.50
  -7  -2   2  397.96   28.60
  -7  -2   2  410.86   28.50
  -7  -2   2  398.96   28.70
  -7  -2   2  397.96   28.60
  -7  -2   2  406.06   28.50
  -7  -2   2  413.56   28.60
  -7  -2   2  416.36   28.70
  -7  -2   2  421.96   28.60
  -7  -2   2  351.16   28.70
  -7  -2   2  425.26   28.60
  -7  -2   2  359.66   28.60
   7  -2  -2  425.96   28.60
  -7  -2   2  408.46   28.60
  -7  -2   2  383.66   28.70
  -7  -2   2  376.76   28.60
  -7   2   2  407.76   28.70
  -7   2   2  419.16   28.60
  -7   2   2  395.86   28.60
  -7   2   2  370.46   28.60
  -7   2   2  450.75   28.50
  -7   2   2  390.76   28.60
  -7   2   2  443.46   28.60
  -7   2   2  455.35   28.60
  -6  -2   2    6.10    1.30
  -6  -2   2    8.00    0.90
  -6  -2   2    7.00    1.20
  -6  -2   2    5.60    1.00
  -6  -2   2    7.20    0.90
  -6  -2   2    8.00    1.30
  -6  -2   2    7.90    1.10
   6  -2  -2    7.00    1.00
  -6  -2   2   10.10    1.30
  -6  -2   2    5.80    1.30
  -6  -2   2    5.90    1.20
  -6  -2   2    8.50    1.10
  -6   2   2    7.30    1.10
  -6   2   2    8.20    1.10
  -6   2   2    8.90    1.30
  -6   2   2    9.50    1.10
  -6   2   2    7.70    1.10
  -6   2   2    8.60    1.60
  -5  -2   2    2.40    0.50
  -5  -2   2    1.90    0.70
  -5  -2   2    0.60    0.60
  -5  -2   2    1.90    0.90
   5  -2  -2    1.20    0.60
  -5  -2   2    2.70    0.70
  -5  -2   2    3.00    0.70
  -5  -2   2    1.40    0.80
  -5  -2   2    1.50    1.00
  -5  -2   2    1.80    0.90
  -5   2   2    1.00    0.70
  -5   2   2    1.50    0.70
  -5   2   2    0.00    0.50
   5   2  -2    1.10    1.20
  -5   2   2    1.80    0.60
  -4  -2   2  463.25   32.10
  -4  -2   2  449.95   32.10
  -4  -2   2  472.15   32.10
  -4  -2   2  471.85   32.10
  -4  -2   2  499.85   32.20
   4  -2  -2  442.36   32.10
  -4  -2   2  406.66   32.10
  -4  -2   2  391.76   32.20
  -4  -2   2  450.25   32.20
  -4  -2   2  453.65   32.10
  -4  -2   2  435.86   32.10
  -4  -2   2  409.86   32.20
   4  -2  -2  461.25   32.10
  -4  -2   2  470.65   32.10
  -4   2   2  478.35   32.10
  -4   2   2  509.75   32.10
  -4   2   2  509.45   32.20
  -4   2   2  469.85   32.10
   4   2  -2  465.35   32.10
  -4   2   2  429.86   32.10
  -3  -2   2    1.00    0.70
  -3  -2   2    0.30    0.70
   3  -2  -2    0.70    0.40
  -3  -2   2    2.00    0.70
  -3  -2   2    0.30    0.80
  -3  -2   2    1.20    0.40
  -3  -2   2    1.70    0.50
  -3  -2   2    0.40    0.90
  -3  -2   2    2.10    0.90
   3  -2  -2    0.40    0.40
   3  -2  -2    0.10    0.70
  -3  -2   2    1.10    0.70
  -3  -2   2    1.50    0.50
  -3   2   2    0.90    0.50
   3   2  -2    0.90    0.60
  -3   2   2    1.90    0.60
  -3   2   2   -0.30    0.80
  -3   2   2    1.50    0.50
  -3   2   2    0.60    0.50
  -2  -2   2   69.69    5.10
  -2  -2   2   75.79    4.90
   2  -2  -2   63.39    5.00
  -2  -2   2   64.29    5.00
  -2  -2   2   62.89    5.10
   2  -2  -2   66.79    4.90
  -2  -2   2   73.19    5.10
  -2  -2   2   69.49    5.00
  -2  -2   2   65.29    5.10
  -2  -2   2   72.99    5.00
  -2  -2   2   73.29    5.10
   2  -2  -2   78.39    5.10
  -2  -2   2   70.39    5.00
   2  -2  -2   66.39    5.00
  -2  -2   2   59.89    5.10
  -2   2   2   70.39    5.10
  -2   2   2   71.59    5.00
  -2   2   2   73.69    5.50
   2   2  -2   66.89    5.00
  -1  -2   2    3.90    1.10
   1  -2  -2    3.30    0.60
  -1  -2   2    4.40    1.00
   1  -2  -2    4.50    0.70
  -1  -2   2    4.70    0.80
  -1  -2   2    5.00    0.70
  -1  -2   2    5.60    1.30
   1  -2  -2    3.90    0.80
  -1   2   2    5.00    0.80
  -1   2   2    5.90    1.00
   0  -2   2   46.50    3.70
   0  -2  -2   49.50    3.80
   0  -2   2   49.40    3.70
   0  -2  -2   48.10    3.70
   0  -2  -2   48.40    3.70
   0  -2  -2   52.59    4.00
   0  -2   2   59.09    3.70
   0  -2  -2   54.39    3.70
   0  -2   2   48.10    3.80
   0  -2   2   51.59    3.80
   0  -2   2   46.50    3.70
   0  -2  -2   46.20    3.80
   0  -2  -2   47.20    3.70
   0  -2   2   49.99    3.80
   0   2   2   51.69    3.90
   0   2  -2   54.09    3.80
   0   2   2   54.19    3.70
   0   2   2   49.70    3.80
   0   2  -2   52.99    3.70
  -1  -2  -2   48.10    3.30
   1  -2   2   43.90    3.30
  -1  -2  -2   44.20    3.30
  -1  -2  -2   46.80    3.30
   1  -2   2   44.90    3.40
  -1  -2  -2   46.70    3.30
   1  -2   2   41.00    3.40
  -1  -2  -2   42.50    3.30
  -1  -2  -2   42.70    3.30
  -1  -2  -2   42.30    3.50
   1  -2   2   39.90    3.30
  -1  -2  -2   42.70    3.40
   1  -2   2   47.90    3.50
   1   2   2   42.60    3.40
   1   2   2   49.70    3.30
  -1   2  -2   39.30    3.40
  -1   2  -2   46.00    3.40
  -1   2  -2   51.79    3.40
  -1   2  -2   49.70    3.30
  -2  -2  -2   22.90    1.80
  -2  -2  -2   20.60    1.90
  -2  -2  -2   19.10    1.70
   2  -2   2   20.00    1.90
   2  -2   2   19.10    1.70
  -2  -2  -2   19.90    1.90
  -2  -2  -2   20.20    1.70
  -2  -2  -2   23.40    1.80
  -2  -2  -2   20.70    1.80
  -2  -2  -2   15.20    3.00
  -2  -2  -2   22.10    1.70
   2  -2   2   23.40    1.80
  -2  -2  -2   23.80    2.00
  -2  -2  -2   22.40    1.70
  -2   2  -2   19.80    1.80
   2   2   2   24.80    1.80
  -2   2  -2   18.00    1.90
  -2   2  -2   24.10    1.80
  -2   2  -2   20.00    1.80
  -2   2  -2   24.60    1.70
   2   2   2   22.10    1.70
  -3  -2  -2  507.75   35.70
  -3  -2  -2  486.35   35.60
  -3  -2  -2  480.45   35.70
  -3  -2  -2  490.05   35.70
  -3  -2  -2  488.75   35.70
   3  -2   2  515.65   35.60
  -3  -2  -2  531.65   35.70
  -3  -2  -2  459.85   35.70
  -3  -2  -2  529.85   35.60
  -3  -2  -2  437.96   35.70
  -3  -2  -2  518.65   35.70
  -3  -2  -2  498.05   35.60
   3  -2   2  589.44   35.70
  -3  -2  -2  523.55   35.60
  -3  -2  -2  535.95   35.60
  -3  -2  -2  437.86   35.60
  -3   2  -2  517.75   35.70
  -3   2  -2  508.85   35.70
  -3   2  -2  512.45   35.60
  -3   2  -2  571.04   35.60
  -4  -2  -2   16.90    2.30
  -4  -2  -2   20.60    2.00
   4  -2   2   18.50    2.00
  -4  -2  -2   22.20    1.80
  -4  -2  -2   22.60    1.70
   4  -2   2   19.30    1.70
  -4  -2  -2   19.60    1.80
  -4  -2  -2   19.30    1.80
  -4  -2  -2   23.20    1.80
  -4  -2  -2   22.00    1.80
  -4  -2  -2   20.10    1.90
  -4  -2  -2   21.30    1.80
  -4  -2  -2   19.10    2.00
  -4   2  -2   24.30    1.70
  -4   2  -2   23.70    1.80
  -4   2  -2   19.20    1.90
  -4   2  -2   21.10    1.80
  -4   2  -2   22.60    1.80
  -5  -2  -2    0.60    0.90
  -5  -2  -2    1.30    0.60
  -5  -2  -2    1.80    0.70
  -5  -2  -2    0.70    0.50
  -5  -2  -2    2.80    0.90
  -5  -2  -2    1.00    0.60
  -5  -2  -2    0.20    0.40
  -5  -2  -2    1.90    1.00
  -5  -2  -2    2.60    0.80
   5  -2   2   -0.10    0.50
  -5  -2  -2    2.20    1.20
  -5  -2  -2    1.90    0.60
  -5  -2  -2    1.20    1.00
  -5  -2  -2    0.90    0.60
  -5   2  -2    1.00    0.60
  -5   2  -2    2.00    0.70
  -5   2  -2    1.10    0.80
  -5   2  -2    1.30    0.80
  -5   2  -2    1.00    0.60
  -5   2  -2    1.90    0.80
  -6  -2  -2  124.09    9.50
  -6  -2  -2  135.99    9.60
  -6  -2  -2  143.49    9.70
   6  -2   2  119.29    9.50
  -6  -2  -2  141.59    9.60
  -6  -2  -2  114.59    9.50
  -6  -2  -2  125.29    9.60
  -6  -2  -2  132.19    9.50
  -6  -2  -2  132.19    9.80
  -6  -2  -2  135.79    9.50
  -6  -2  -2  124.59    9.60
  -6  -2  -2  136.29    9.60
  -6  -2  -2  128.69    9.70
  -6  -2  -2  147.99    9.60
  -6   2  -2  151.18    9.50
  -6   2  -2  125.79    9.60
  -6   2  -2  137.79    9.60
  -6   2  -2  151.98    9.90
  -6   2  -2  137.09    9.60
  -6   2  -2  134.19    9.50
  -6   2  -2  130.89    9.70
  -7  -2  -2   -0.20    0.40
   7  -2   2   -1.60    0.90
  -7  -2  -2    1.60    0.60
  -7  -2  -2    0.40    0.90
  -7  -2  -2    1.50    0.70
  -7  -2  -2    1.30    0.90
  -7  -2  -2    1.60    0.70
  -7  -2  -2    3.20    1.10
  -7  -2  -2    1.20    0.90
  -7  -2  -2    0.80    1.20
  -7  -2  -2    0.40    0.70
  -7  -2  -2    0.50    0.70
  -7  -2  -2    0.40    0.80
  -7  -2  -2    0.40    0.70
  -7   2  -2    0.70    0.70
  -7   2  -2    0.20    0.70
  -7   2  -2    0.90    0.90
  -7   2  -2    0.90    0.80
  -7   2  -2    1.20    0.80
  -7   2  -2    1.50    0.90
  -8  -2  -2    0.10    0.80
  -8  -2  -2    0.40    0.40
  -8  -2  -2    0.80    0.70
  -8  -2  -2    1.20    0.70
  -8  -2  -2    0.90    0.80
  -8  -2  -2    0.50    1.00
  -8  -2  -2    0.40    0.80
  -8  -2  -2    0.90    1.00
  -8  -2  -2    0.20    0.70
  -8  -2  -2    2.10    0.90
  -8  -2  -2    1.10    1.40
  -8   2  -2    0.20    0.90
  -8   2  -2    0.20    0.80
  -8   2  -2    0.80    0.90
  -8   2  -2    0.80    0.80
  -8   2  -2    0.70    0.90
  -8   2  -2   -0.20    0.90
  -9  -2  -2    1.20    0.80
  -9  -2  -2   -0.20    0.70
  -9  -2  -2    0.70    0.90
  -9  -2  -2   -0.50    1.10
  -9  -2  -2   -0.40    0.80
  -9  -2  -2    0.10    0.90
  -9  -2  -2    0.20    0.70
  -9  -2  -2   -0.60    0.40
  -9  -2  -2    1.10    0.70
  -9  -2  -2   -0.20    0.80
  -9  -2  -2    1.90    1.00
  -9   2  -2    0.60    1.00
  -9   2  -2    0.30    0.90
  -9   2  -2   -0.50    0.90
  -9   2  -2    0.00    0.70
  -9   2  -2    0.70    1.00
  -9   2  -2   -0.10    1.00
 -10  -2  -2    7.20    1.30
 -10  -2  -2    5.50    1.30
 -10  -2  -2    9.00    1.30
 -10  -2  -2    7.10    1.30
 -10  -2  -2    6.60    1.50
 -10  -2  -2    9.40    1.40
 -10  -2  -2    8.70    1.70
 -10  -2  -2    7.20    1.30
 -10  -2  -2    9.10    1.70
 -10  -2  -2    9.30    1.20
 -10  -2  -2    9.60    1.60
 -10  -2  -2    7.50    1.40
 -10   2  -2    7.70    1.40
 -10   2  -2    9.70    1.50
 -10   2  -2    7.60    1.40
 -10   2  -2    8.00    1.30
 -11  -2  -2    1.10    1.30
 -11  -2  -2    0.70    1.00
 -11  -2  -2    1.40    1.00
 -11  -2  -2    1.50    0.80
 -11  -2  -2    0.60    0.50
 -11  -2  -2    1.50    1.30
 -11  -2  -2    2.20    1.30
 -11  -2  -2    1.90    0.80
 -11  -2  -2    1.70    0.90
 -11   2  -2    1.20    0.90
 -11   2  -2    1.40    1.10
 -11   2  -2    0.30    0.90
 -11   2  -2    1.40    0.80
 -11   2  -2    2.80    1.60
 -11   2  -2    2.80    1.30
 -12  -2  -2    8.00    1.70
 -12  -2  -2    7.10    1.30
 -12  -2  -2    7.30    1.40
 -12  -2  -2    7.10    1.20
 -12  -2  -2    6.00    1.20
  12  -2   2    5.80    1.20
 -12   2  -2    7.00    1.50
 -12   2  -2    5.40    1.00
 -12   2  -2    7.10    1.50
 -13  -3   2   87.69    6.10
 -13  -3   2   73.69    6.20
 -13   3   2   86.09    6.10
 -13   3   2   84.59    6.20
 -13   3   2   85.19    6.00
 -12  -3   2   99.99    7.20
 -12  -3   2  105.49    7.20
 -12  -3   2   94.49    7.20
 -12   3   2   99.69    7.10
 -12   3   2   98.09    7.20
 -12   3   2   97.09    7.30
 -11  -3   2  143.99   11.30
 -11  -3   2  143.39   10.80
 -11  -3   2  163.38   11.20
 -11  -3   2  169.58   11.00
 -11  -3   2  150.48   11.00
 -11  -3   2  148.29   11.00
 -11   3   2  142.99   10.80
 -11   3   2  147.49   10.80
 -11   3   2  151.78   11.00
 -10  -3   2  170.78   13.70
 -10  -3   2  197.18   13.60
  10  -3  -2  193.68   13.50
 -10  -3   2  207.88   13.90
 -10  -3   2  193.08   13.50
 -10  -3   2  165.38   13.60
 -10  -3   2  206.08   13.60
 -10   3   2  187.68   13.50
 -10   3   2  195.68   13.50
 -10   3   2  190.78   13.60
 -10   3   2  188.08   13.50
 -10   3   2  184.28   13.60
  -9  -3   2    3.30    1.20
   9  -3  -2    2.50    0.80
  -9  -3   2    0.50    1.10
  -9  -3   2    3.40    1.00
  -9  -3   2    2.90    0.90
  -9  -3   2    2.90    1.10
  -9  -3   2    2.10    1.50
  -9  -3   2    4.80    2.50
  -9  -3   2    4.20    1.30
  -9   3   2    2.70    1.10
  -9   3   2    3.30    0.90
  -9   3   2    3.20    0.90
  -8  -3   2  331.87   27.70
  -8  -3   2  390.16   27.70
  -8  -3   2  396.96   28.00
  -8  -3   2  361.66   27.80
  -8  -3   2  400.86   27.70
   8  -3  -2  420.16   27.70
  -8  -3   2  415.86   27.70
  -8  -3   2  430.06   27.90
  -8  -3   2  427.86   27.80
  -8  -3   2  397.76   27.70
  -8   3   2  384.46   27.70
  -8   3   2  375.06   27.80
  -8   3   2  370.96   27.70
  -7  -3   2   82.29    5.90
  -7  -3   2   79.59    5.90
  -7  -3   2   66.49    5.80
  -7  -3   2   78.49    5.90
  -7  -3   2   84.59    5.90
  -7  -3   2   82.49    5.80
   7  -3  -2   84.19    5.80
  -7  -3   2   81.89    6.00
  -7  -3   2   77.29    5.90
  -7  -3   2   78.19    6.10
  -7   3   2   70.29    5.80
  -7   3   2   74.49    5.80
  -6  -3   2  486.65   38.50
  -6  -3   2  588.74   38.40
   6  -3  -2  565.44   38.50
  -6  -3   2  519.05   38.50
  -6  -3   2  504.75   38.40
  -6  -3   2  491.75   38.30
  -6  -3   2  585.24   38.40
  -6  -3   2  514.15   38.40
  -6  -3   2  548.15   38.50
  -6  -3   2  586.94   38.40
   6  -3  -2  606.74   38.40
   6   3  -2  550.84   38.40
  -6   3   2  547.65   38.40
  -6   3   2  534.95   38.40
   5  -3  -2   17.10    2.30
  -5  -3   2   18.20    2.10
  -5  -3   2   17.80    2.10
  -5  -3   2   19.50    2.10
  -5  -3   2   23.80    2.20
   5  -3  -2   20.30    2.30
  -5  -3   2   24.80    2.10
  -5  -3   2   23.30    1.90
  -5  -3   2   24.50    2.10
   5  -3  -2   20.80    1.90
  -5   3   2   23.30    2.00
  -5   3   2   25.90    2.00
   5   3  -2   19.60    2.40
  -5   3   2   22.50    2.00
  -4  -3   2  191.38   14.00
  -4  -3   2  199.08   14.10
   4  -3  -2  219.98   14.20
   4  -3  -2  203.78   14.10
  -4  -3   2  179.88   14.10
  -4  -3   2  196.78   14.20
  -4  -3   2  199.58   14.10
  -4  -3   2  207.88   14.10
  -4  -3   2  180.08   14.20
  -4  -3   2  214.28   14.10
  -4  -3   2  169.78   14.10
  -4  -3   2  193.48   14.10
  -4   3   2  205.08   14.10
   4   3  -2  201.98   14.10
  -4   3   2  210.98   14.20
   3  -3  -2  907.91   60.39
  -3  -3   2  914.11   60.49
  -3  -3   2  835.42   60.49
  -3  -3   2  799.22   60.39
  -3  -3   2  864.51   60.49
  -3  -3   2  812.42   60.29
  -3  -3   2  900.81   60.49
   3  -3  -2  887.31   60.49
  -3  -3   2  885.61   60.49
   3  -3  -2  747.13   60.39
  -3  -3   2  916.81   60.49
   3  -3  -2  886.21   60.49
  -3  -3   2  831.42   60.49
  -3  -3   2  827.92   60.49
   3   3  -2  823.92   60.49
  -3   3   2  820.22   60.49
   3   3  -2  862.21   60.49
  -3   3   2  884.41   60.49
  -3   3   2  953.80   60.39
   2  -3  -2 1024.40   69.89
  -2  -3   2  991.90   69.89
   2  -3  -2  961.60   69.99
  -2  -3   2 1101.69   69.99
   2  -3  -2 1031.10   69.99
  -2  -3   2  966.90   70.09
  -2  -3   2  936.51   69.99
  -2  -3   2 1092.89   69.99
  -2  -3   2  929.81   69.89
   2  -3  -2  870.71   69.89
  -2  -3   2  989.30   69.99
  -2  -3   2 1082.99   69.99
  -2  -3   2  972.90   69.99
  -2  -3   2  991.70   69.99
  -2   3   2 1094.19   69.99
  -2   3   2  974.60   69.99
   2   3  -2  974.00   69.99
   2   3  -2  955.50   69.89
   1  -3  -2 1384.46   84.09
   1  -3  -2 1103.79   83.99
   1  -3  -2 1126.69   84.09
  -1  -3   2 1265.17   84.09
  -1  -3   2 1183.28   84.09
  -1  -3   2 1174.08   84.09
  -1  -3   2 1152.08   83.99
  -1  -3   2 1099.89   83.99
  -1  -3   2 1177.48   83.89
   1  -3  -2 1090.79   83.99
   1  -3  -2 1190.18   84.19
   1  -3  -2 1230.88   83.99
   1  -3  -2 1305.77   83.99
  -1  -3   2 1218.28   84.09
  -1  -3   2 1298.37   83.99
  -1   3   2 1160.98   84.09
   1   3  -2 1199.58   83.99
  -1   3   2 1285.87   84.09
   1   3  -2 1115.99   84.09
   0  -3   2 1086.79   73.99
   0  -3  -2 1118.19   73.99
   0  -3   2 1091.39   73.99
   0  -3  -2  980.30   73.99
   0  -3   2 1188.68   73.99
   0  -3  -2  964.10   74.09
   0  -3  -2 1091.09   73.99
   0  -3  -2 1140.09   74.09
   0  -3   2 1132.09   74.19
   0  -3   2 1087.69   74.09
   0  -3   2 1111.59   74.09
   0  -3   2  937.61   73.99
   0  -3  -2 1001.70   74.09
   0  -3  -2  966.40   73.99
   0  -3   2 1080.59   74.09
   0   3  -2 1037.10   73.99
   0   3   2 1050.29   74.09
   0   3   2 1099.89   73.99
   0   3  -2  914.21   73.99
   0   3  -2 1020.70   73.99
   1  -3   2  562.14   35.90
   1  -3   2  540.15   35.80
  -1  -3  -2  469.95   35.70
  -1  -3  -2  562.64   35.80
  -1  -3  -2  531.65   35.80
  -1  -3  -2  470.45   35.80
  -1  -3  -2  433.06   35.80
  -1  -3  -2  537.95   35.70
  -1  -3  -2  481.35   35.80
   1  -3   2  538.35   35.90
   1  -3   2  481.75   35.80
   1  -3   2  533.85   35.80
   1  -3   2  450.55   35.80
  -1  -3  -2  459.35   35.90
  -1  -3  -2  499.45   35.90
  -1  -3  -2  543.75   35.80
   1  -3   2  528.05   35.90
   1   3   2  548.05   35.80
  -1   3  -2  513.65   35.80
  -1   3  -2  514.85   35.80
  -1   3  -2  487.45   35.90
   1   3   2  502.25   35.90
  -1   3  -2  517.95   35.80
  -2  -3  -2  406.16   28.20
  -2  -3  -2  430.26   28.20
  -2  -3  -2  437.56   28.20
  -2  -3  -2  366.16   28.20
   2  -3   2  416.16   28.20
  -2  -3  -2  369.76   28.20
  -2  -3  -2  359.56   28.20
  -2  -3  -2  357.96   28.10
  -2  -3  -2  400.96   28.10
  -2  -3  -2  424.66   28.10
   2  -3   2  363.16   28.10
   2  -3   2  426.56   28.10
   2  -3   2  435.06   28.20
  -2  -3  -2  396.16   28.30
  -2  -3  -2  408.16   28.10
  -2  -3  -2  410.46   28.20
  -2  -3  -2  396.66   28.10
   2   3   2  370.46   28.20
  -2   3  -2  434.66   28.20
  -2   3  -2  340.47   28.20
  -2   3  -2  417.96   28.10
  -2   3  -2  424.86   28.10
  -3  -3  -2  251.17   17.10
  -3  -3  -2  262.47   17.20
  -3  -3  -2  233.58   17.10
  -3  -3  -2  248.78   17.00
   3  -3   2  262.97   17.20
  -3  -3  -2  226.58   17.10
  -3  -3  -2  222.18   17.10
   3  -3   2  276.67   17.20
   3  -3   2  245.08   17.10
  -3  -3  -2  203.28   17.20
  -3  -3  -2  237.28   17.10
  -3  -3  -2  230.18   17.20
   3  -3   2  260.77   17.20
  -3  -3  -2  237.78   17.20
  -3  -3  -2  240.88   17.20
   3  -3   2  201.78   17.10
  -3   3  -2  263.37   17.10
  -3   3  -2  261.47   17.10
   3   3   2  227.18   17.20
   4  -3   2   13.50    1.50
   4  -3   2   11.50    1.60
  -4  -3  -2   13.80    1.70
  -4  -3  -2   13.80    1.50
  -4  -3  -2   13.30    1.70
  -4  -3  -2   13.00    2.10
   4  -3   2   13.80    1.70
  -4  -3  -2    8.80    2.00
  -4  -3  -2   11.80    1.60
  -4  -3  -2   12.10    1.60
  -4  -3  -2   14.40    1.30
  -4  -3  -2   13.60    1.40
  -4  -3  -2   12.70    1.70
  -4  -3  -2   12.50    1.60
  -4   3  -2    9.90    2.30
   4   3   2   14.00    1.60
  -4   3  -2   12.60    1.60
  -4   3  -2   16.00    1.50
  -5  -3  -2    2.40    0.80
   5  -3   2    1.80    1.00
  -5  -3  -2    2.60    0.70
   5  -3   2    1.20    1.00
  -5  -3  -2    2.20    0.80
  -5  -3  -2    2.00    0.80
  -5  -3  -2    0.80    1.20
  -5  -3  -2    3.20    1.50
  -5  -3  -2    3.40    0.90
  -5  -3  -2    1.90    1.00
  -5  -3  -2    3.10    1.10
  -5  -3  -2    1.70    1.00
  -5  -3  -2    2.40    1.30
  -5  -3  -2    1.20    0.90
  -5   3  -2    3.90    0.80
  -5   3  -2    4.10    1.20
   5   3   2    1.60    0.80
  -5   3  -2    2.50    0.90
  -5   3  -2    3.80    0.80
  -6  -3  -2  171.68   12.60
  -6  -3  -2  172.38   12.70
  -6  -3  -2  182.28   12.50
  -6  -3  -2  170.78   12.60
  -6  -3  -2  177.38   12.60
   6  -3   2  178.08   12.70
  -6  -3  -2  185.98   12.70
  -6  -3  -2  161.98   12.70
  -6  -3  -2  182.18   12.70
  -6  -3  -2  186.98   12.60
   6  -3   2  184.98   12.70
   6   3   2  170.28   12.60
  -6   3  -2  175.98   12.60
  -6   3  -2  189.78   12.70
  -6   3  -2  161.98   12.80
   7  -3   2  176.08   13.80
  -7  -3  -2  172.78   13.70
   7  -3   2  189.98   13.70
  -7  -3  -2  191.78   13.70
  -7  -3  -2  191.98   13.80
  -7  -3  -2  209.08   13.70
  -7  -3  -2  169.08   13.70
  -7  -3  -2  191.08   13.70
  -7  -3  -2  194.38   13.60
  -7  -3  -2  206.68   13.90
  -7  -3  -2  205.78   13.80
  -7   3  -2  197.68   13.70
  -7   3  -2  215.58   13.70
  -7   3  -2  186.18   13.90
  -7   3  -2  187.78   13.70
   7   3   2  185.18   13.80
  -7   3  -2  201.58   13.80
  -8  -3  -2  116.89    8.30
  -8  -3  -2  109.29    8.40
  -8  -3  -2  118.39    8.50
  -8  -3  -2  130.09    8.40
   8  -3   2   97.79    8.30
  -8  -3  -2  102.69    8.40
  -8  -3  -2  115.19    8.40
   8  -3   2  103.09    8.50
  -8  -3  -2  112.09    8.40
  -8  -3  -2  131.19    8.50
  -8  -3  -2  118.19    8.20
  -8   3  -2  118.79    8.40
   8   3   2  113.29    8.40
  -8   3  -2  106.09    8.30
  -8   3  -2  120.59    8.70
  -8   3  -2  128.99    8.30
  -9  -3  -2  200.08   15.40
  -9  -3  -2  240.48   15.50
  -9  -3  -2  222.28   15.40
  -9  -3  -2  227.48   15.50
  -9  -3  -2  208.28   15.40
  -9  -3  -2  207.28   15.40
  -9  -3  -2  213.98   15.30
  -9  -3  -2  227.28   15.40
  -9   3  -2  205.98   15.40
  -9   3  -2  204.08   15.30
   9   3   2  219.98   15.40
  -9   3  -2  207.98   15.50
  -9   3  -2  223.88   15.30
 -10  -3  -2  211.48   13.50
 -10  -3  -2  199.68   13.50
 -10  -3  -2  191.18   13.40
 -10  -3  -2  174.88   13.40
 -10  -3  -2  197.18   13.40
 -10  -3  -2  191.48   13.40
 -10  -3  -2  208.68   13.40
 -10  -3  -2  167.28   13.40
  10   3   2  195.38   13.50
 -10   3  -2  167.58   13.30
 -10   3  -2  185.18   13.40
 -10   3  -2  169.38   13.50
 -10   3  -2  183.08   13.50
 -11  -3  -2  118.29    8.20
 -11  -3  -2  120.39    8.20
  11  -3   2  109.39    8.20
 -11  -3  -2  124.49    8.50
 -11   3  -2  101.49    8.20
 -11   3  -2  111.19    8.30
 -11  -4   2    0.30    1.10
 -11   4   2    0.70    0.50
 -11   4   2    0.50    1.20
 -10  -4   2   24.70    2.20
 -10  -4   2   25.60    3.20
  10  -4  -2   22.50    2.40
 -10  -4   2   18.00    2.50
 -10   4   2   21.70    2.20
 -10   4   2   26.20    2.00
  -9  -4   2  230.18   16.30
  -9  -4   2  191.98   16.40
  -9  -4   2  246.18   16.30
   9  -4  -2  224.48   16.40
   9  -4  -2  244.88   16.30
  -9  -4   2  236.38   16.40
  -9   4   2  232.98   16.40
  -8  -4   2  102.89    8.10
   8  -4  -2  120.99    7.90
  -8  -4   2   92.19    8.00
  -8  -4   2  117.29    8.10
   8  -4  -2  114.49    8.10
  -8  -4   2  113.09    8.00
  -8  -4   2  101.29    8.30
  -8  -4   2  117.49    8.00
  -8   4   2  111.59    8.00
  -8   4   2   97.69    7.90
  -7  -4   2  134.89   10.60
  -7  -4   2  135.39   10.80
  -7  -4   2  148.29   10.60
  -7  -4   2  158.88   10.50
  -7  -4   2  152.58   10.60
  -7  -4   2  159.58   10.50
  -7  -4   2  125.49   10.50
  -7   4   2  152.88   10.50
  -7   4   2  142.79   10.50
  -6  -4   2  146.99   11.10
  -6  -4   2  134.09   11.10
  -6  -4   2  162.28   11.00
  -6  -4   2  154.58   11.00
  -6  -4   2  160.78   11.00
  -6   4   2  149.69   11.00
  -6   4   2  158.28   11.00
   5  -4  -2  563.74   38.10
  -5  -4   2  495.75   38.00
  -5  -4   2  567.04   38.00
  -5  -4   2  589.64   38.30
  -5  -4   2  530.55   38.00
  -5  -4   2  475.45   38.10
   5  -4  -2  587.34   38.00
  -5  -4   2  470.95   38.10
  -5  -4   2  461.25   38.10
  -5  -4   2  599.14   38.00
  -5   4   2  524.95   38.00
  -5   4   2  593.44   37.90
  -5   4   2  552.14   38.00
  -4  -4   2  379.66   26.10
   4  -4  -2  374.66   26.00
  -4  -4   2  311.17   26.10
  -4  -4   2  350.26   26.10
   4  -4  -2  359.76   26.10
  -4  -4   2  366.56   26.20
   4  -4  -2  395.16   26.20
   4  -4  -2  407.96   26.00
  -4  -4   2  365.76   26.10
  -4  -4   2  417.66   26.10
  -4   4   2  345.87   26.00
  -4   4   2  352.76   26.10
  -4   4   2  362.86   26.00
  -3  -4   2    4.30    1.50
  -3  -4   2    8.30    1.40
   3  -4  -2    9.30    1.40
  -3  -4   2   10.10    1.40
   3  -4  -2    7.00    1.40
   3  -4  -2    9.10    1.60
  -3  -4   2    8.20    1.70
   3  -4  -2    9.90    1.20
   3  -4  -2    6.60    1.30
   3  -4  -2    6.60    1.40
  -3  -4   2    5.90    1.30
  -3  -4   2    5.00    1.40
  -3  -4   2    6.80    1.60
  -3  -4   2   10.60    1.40
  -3   4   2    8.50    1.60
  -3   4   2    7.30    1.50
  -2  -4   2   35.60    2.70
   2  -4  -2   29.20    2.50
   2  -4  -2   30.50    2.90
  -2  -4   2   29.10    2.90
  -2  -4   2   31.50    2.90
   2  -4  -2   35.10    2.70
  -2  -4   2   32.70    2.80
  -2  -4   2   33.20    2.90
   2  -4  -2   31.10    2.60
  -2  -4   2   30.30    2.90
   2  -4  -2   35.80    3.00
   2   4  -2   27.20    2.70
  -2   4   2   31.10    2.80
   2   4  -2   25.70    3.00
  -2   4   2   29.10    3.00
   1  -4  -2    5.10    1.00
  -1  -4   2    4.60    0.90
  -1  -4   2    4.20    1.40
   1  -4  -2    3.60    1.00
  -1  -4   2    4.50    1.10
  -1  -4   2    3.20    0.90
   1  -4  -2    4.00    1.00
   1  -4  -2    1.90    1.10
  -1  -4   2    5.20    1.00
  -1  -4   2    2.30    1.20
   1  -4  -2    4.50    1.40
  -1   4   2    1.50    1.00
   1   4  -2    3.30    1.00
   1   4  -2    2.90    1.20
  -1   4   2    1.50    1.20
   0  -4   2   15.70    2.10
   0  -4  -2   16.70    1.90
   0  -4   2   18.00    2.00
   0  -4   2   12.90    2.00
   0  -4   2   17.20    1.80
   0  -4  -2   16.70    1.90
   0  -4   2   16.60    2.10
   0  -4  -2   14.30    1.80
   0  -4  -2   18.10    2.10
   0  -4   2   20.10    2.00
   0  -4   2   17.80    1.70
   0   4  -2   17.10    1.80
  -1  -4  -2   78.49    7.20
  -1  -4  -2   84.89    7.10
  -1  -4  -2   96.59    7.20
  -1  -4  -2   86.69    7.00
  -1  -4  -2  102.39    7.10
   1  -4   2  108.09    7.00
   1  -4   2  101.39    7.10
   1  -4   2  108.89    7.10
  -1  -4  -2  102.49    7.00
  -1  -4  -2   98.19    7.00
   1  -4   2  102.99    7.10
   1   4   2   87.79    7.10
  -1   4  -2   91.69    7.00
  -1   4  -2   89.39    7.00
   2  -4   2  226.18   15.80
  -2  -4  -2  235.08   15.80
  -2  -4  -2  197.68   15.90
  -2  -4  -2  236.98   15.90
   2  -4   2  250.67   15.70
  -2  -4  -2  237.38   15.80
  -2  -4  -2  192.38   15.80
  -2  -4  -2  231.98   15.80
   2  -4   2  241.68   15.80
  -2  -4  -2  191.68   15.80
  -2  -4  -2  208.48   15.80
   2   4   2  203.58   15.80
  -2   4  -2  221.58   15.70
  -2   4  -2  220.88   15.70
  -3  -4  -2  443.16   30.70
  -3  -4  -2  480.85   30.70
  -3  -4  -2  397.86   30.70
  -3  -4  -2  390.26   30.70
   3  -4   2  456.35   30.70
  -3  -4  -2  425.96   30.70
  -3  -4  -2  417.76   30.70
   3  -4   2  462.15   30.80
  -3  -4  -2  433.86   30.80
  -3   4  -2  439.96   30.70
  -3   4  -2  463.75   30.60
   3   4   2  401.96   30.70
  -4  -4  -2  242.08   19.00
  -4  -4  -2  277.77   19.30
  -4  -4  -2  234.78   19.10
  -4  -4  -2  254.07   19.10
   4  -4   2  308.27   19.10
  -4  -4  -2  288.07   19.10
   4  -4   2  279.27   19.20
  -4  -4  -2  255.87   19.10
   4  -4   2  286.47   19.10
  -4  -4  -2  238.68   19.10
  -4   4  -2  294.27   19.10
   4   4   2  244.98   19.10
  -4   4  -2  295.57   19.10
   5  -4   2  213.88   14.40
  -5  -4  -2  185.98   14.30
  -5  -4  -2  195.38   14.50
   5  -4   2  226.08   14.30
  -5  -4  -2  206.28   14.40
  -5  -4  -2  182.08   14.30
  -5  -4  -2  184.38   14.40
   5  -4   2  192.68   14.40
  -5   4  -2  232.08   14.30
   5   4   2  178.08   14.40
  -5   4  -2  212.88   14.40
  -6  -4  -2  219.08   15.10
  -6  -4  -2  209.58   14.90
   6  -4   2  206.68   15.00
   6  -4   2  231.08   14.90
  -6  -4  -2  184.08   14.90
  -6  -4  -2  198.18   14.90
  -6  -4  -2  215.98   14.90
   6   4   2  192.78   15.00
  -6   4  -2  227.08   15.00
  -7  -4  -2  128.49   10.20
  -7  -4  -2  138.09   10.20
   7  -4   2  128.99   10.30
  -7  -4  -2  145.49   10.20
  -7  -4  -2  133.49   10.30
  -7  -4  -2  148.89   10.20
   7  -4   2  147.99   10.20
  -7  -4  -2  160.88   10.30
   8  -4   2   61.69    5.10
  -8  -4  -2   69.29    5.00
  -8  -4  -2   62.29    5.10
  -8  -4  -2   60.69    4.90
  -8  -4  -2   76.89    5.00
  -8  -4  -2   65.09    5.00
  -9  -4  -2    2.00    1.50
  -9  -4  -2   -0.60    0.90
   9  -4   2    1.00    1.30
  -9   4  -2    0.90    0.70
   7  -5  -2   -0.90    0.80
  -7  -5   2    1.80    0.90
   7  -5  -2    0.90    1.20
  -7  -5   2    0.90    2.00
  -7  -5   2    1.90    1.00
  -7   5   2    0.40    0.70
   6  -5  -2    0.00    1.20
  -6  -5   2   -0.80    0.90
  -6  -5   2    1.20    0.90
   6  -5  -2   -0.10    1.00
  -6  -5   2    2.20    1.10
  -6   5   2   -1.80    1.00
   6   5  -2   -1.60    1.00
  -6   5   2    0.20    0.70
   5  -5  -2    0.90    0.70
  -5  -5   2    1.30    1.10
  -5  -5   2    0.90    1.40
  -5  -5   2    0.20    1.00
   5  -5  -2    2.70    1.20
  -5  -5   2    2.10    1.20
   5  -5  -2    2.00    1.00
  -5  -5   2    1.70    0.90
  -5   5   2   -0.40    1.00
  -5   5   2    2.10    0.80
   5   5  -2   -0.80    1.20
   4  -5  -2    6.70    1.20
   4  -5  -2    8.60    1.70
  -4  -5   2   10.00    1.70
   4  -5  -2    7.80    1.50
  -4  -5   2    6.80    1.50
  -4  -5   2    9.00    1.80
  -4  -5   2    9.30    1.60
  -4   5   2   11.40    1.40
   3  -5  -2   -0.60    0.90
   3  -5  -2    0.80    1.30
  -3  -5   2   -1.40    1.80
  -3  -5   2   -1.20    1.20
   3  -5  -2   -0.30    0.70
  -3  -5   2    0.40    1.10
  -3  -5   2   -1.20    1.10
  -3  -5   2   -0.50    1.00
  -3   5   2    2.10    1.00
  -2  -5   2   21.70    2.40
   2  -5  -2   20.30    2.30
   2  -5  -2   16.40    1.90
  -2  -5   2   22.60    2.10
   2  -5  -2   21.40    2.10
  -2  -5   2   23.90    2.20
  -2  -5   2   16.50    3.40
  -2  -5   2   18.50    2.30
  -2   5   2   18.50    2.10
  -2   5   2   17.40    2.20
   1  -5  -2   63.69    4.60
   1  -5  -2   45.70    4.80
  -1  -5   2   57.39    4.40
  -1  -5   2   60.19    4.50
   1  -5  -2   55.69    4.50
   1  -5  -2   51.69    4.30
  -1  -5   2   63.99    4.60
   1  -5  -2   56.59    4.50
  -1  -5   2   56.99    4.60
   1  -5  -2   58.19    4.60
  -1  -5   2   62.89    4.50
   0  -5   2   10.40    1.80
   0  -5  -2    6.60    1.40
   0  -5  -2    7.70    1.60
   0  -5  -2    8.00    1.80
   0  -5  -2    6.50    1.00
   0  -5  -2    5.10    1.40
   0  -5  -2    8.00    1.70
   0  -5   2    7.70    1.50
   1  -5   2   11.20    1.70
   1  -5   2   14.10    1.90
  -1  -5  -2   14.90    1.90
  -1  -5  -2   12.00    1.80
  -1  -5  -2    9.80    1.80
  -1  -5  -2    9.90    1.80
   1  -5   2   14.90    1.90
   1  -5   2   13.30    1.60
  -1  -5  -2    8.60    1.40
   1   5   2    9.40    1.60
  -2  -5  -2    1.40    1.10
  -2  -5  -2    3.30    1.20
   2  -5   2    2.90    1.30
   2  -5   2    2.40    1.10
   2  -5   2    1.80    1.00
  -2  -5  -2    0.20    1.00
   2  -5   2    2.00    1.00
  -2  -5  -2    2.00    1.10
  -2  -5  -2   -0.30    1.20
  -2  -5  -2    0.20    1.30
   2  -5   2    2.00    0.80
   2   5   2    2.40    1.00
   2   5   2   -0.60    1.20
  -2   5  -2    1.80    0.90
   3  -5   2    2.80    1.20
  -3  -5  -2    2.70    0.90
   3  -5   2    2.00    1.10
   3  -5   2    1.30    1.10
   3  -5   2    2.50    1.20
  -3  -5  -2    1.30    1.10
   3  -5   2    2.80    0.90
  -3  -5  -2    3.00    1.20
  -3  -5  -2    1.40    1.00
  -3   5  -2    2.80    1.30
   3   5   2    1.10    1.30
   4  -5   2    7.60    1.70
  -4  -5  -2    7.00    1.40
   4  -5   2    9.50    1.70
  -4  -5  -2   10.90    1.60
  -4  -5  -2    8.00    1.50
   4  -5   2   10.40    2.10
  -4  -5  -2    9.60    1.40
   4  -5   2   10.50    1.50
   4  -5   2    9.10    1.90
  -4   5  -2    5.80    2.20
  -4   5  -2    9.00    1.50
  -5  -5  -2    1.40    1.00
   5  -5   2    1.30    1.50
  -5  -5  -2    0.50    0.80
  -5  -5  -2    1.30    0.80
  -5  -5  -2    1.20    1.10
   5  -5   2    1.40    1.10
   5  -5   2    0.30    1.20
   5  -5   2    1.00    0.90
  -5   5  -2   -0.90    2.00
  -5   5  -2    0.80    1.00
   6  -5   2    8.10    1.60
  -6  -5  -2    8.40    1.50
  -6  -5  -2    7.30    1.70
  -6  -5  -2    8.00    1.40
 -15   0   3   -0.30    0.40
 -15   0   3   -1.40    1.00
 -15   0   3    0.30    0.80
 -14   0   3    0.10    0.80
 -14   0   3   -0.60    1.00
 -14   0   3    1.30    0.90
 -14   0   3   -1.30    0.90
 -14   0   3   -0.80    1.90
 -13   0   3    1.10    0.90
 -13   0   3   -0.30    0.50
 -13   0   3    0.00    0.90
 -13   0   3    0.10    0.80
 -13   0   3   -0.20    0.50
 -13   0   3    0.80    1.00
 -13   0   3   -1.00    1.90
 -12   0   3   -0.10    0.40
 -12   0   3   -0.50    0.80
 -12   0   3   -0.70    0.80
 -12   0   3    1.00    1.80
 -12   0   3   -0.20    0.90
 -12   0   3   -0.10    0.80
 -11   0   3   -0.20    0.80
 -11   0   3    1.90    0.70
 -11   0   3    0.40    1.40
 -11   0   3   -0.10    0.40
 -11   0   3   -0.60    0.70
 -11   0   3   -0.30    0.80
 -11   0   3   -0.60    0.40
 -11   0   3    0.90    1.00
 -11   0   3    0.00    0.80
 -10   0   3    0.90    0.80
 -10   0   3    0.40    0.60
 -10   0   3   -0.40    0.80
 -10   0   3   -0.50    0.70
 -10   0   3    1.60    0.80
 -10   0   3    2.20    1.20
 -10   0   3    1.90    0.70
 -10   0   3   -1.00    0.70
 -10   0   3    1.90    1.20
  -9   0   3    0.20    0.60
  -9   0   3    0.30    0.70
  -9   0   3    1.30    0.90
  -9   0   3    1.70    1.00
  -9   0   3    1.10    0.70
  -9   0   3    0.90    0.60
  -9   0   3   -0.30    0.70
  -9   0   3    1.90    1.10
  -8   0   3    1.30    0.90
  -8   0   3   -0.40    0.70
  -8   0   3    0.00    0.60
  -8   0   3   -0.40    0.60
  -8   0   3    0.40    0.60
  -8   0   3    1.40    0.70
  -8   0   3    0.60    0.80
  -8   0   3    0.80    0.60
  -8   0   3    1.00    0.60
  -8   0   3    1.50    1.00
  -7   0   3    0.30    0.50
  -7   0   3    0.50    0.70
  -7   0   3    1.10    0.40
   7   0  -3    1.30    0.70
  -7   0   3   -0.10    0.70
  -7   0   3    0.00    0.80
  -7   0   3    0.50    0.50
  -7   0   3    0.50    0.50
  -7   0   3    1.20    0.60
  -7   0   3    0.10    0.70
   7   0  -3    1.10    0.60
  -7   0   3    0.50    0.50
  -7   0   3    0.80    0.50
  -7   0   3    0.50    0.50
  -7   0   3    0.00    0.90
  -7   0   3    1.70    0.80
  -6   0   3    1.00    0.30
  -6   0   3    0.30    0.60
  -6   0   3    1.00    0.90
  -6   0   3    0.60    0.50
  -6   0   3    0.20    0.50
   6   0  -3   -0.10    0.70
  -6   0   3    0.50    0.40
  -6   0   3    0.20    0.50
  -6   0   3    0.50    0.20
  -6   0   3   -0.80    0.60
  -6   0   3   -0.30    0.50
  -5   0   3   -2.40    0.20
  -5   0   3   -2.10    0.40
  -5   0   3   -2.00    0.40
  -5   0   3   -2.30    0.50
  -5   0   3   -1.60    0.50
  -5   0   3   -1.60    0.50
  -5   0   3   -2.30    0.30
  -5   0   3   -1.30    0.40
   5   0  -3   -2.50    0.40
  -5   0   3   -1.80    0.40
   5   0  -3   -1.90    0.40
  -5   0   3   -1.90    0.30
  -5   0   3   -2.30    0.50
   4   0  -3   -1.10    0.40
  -4   0   3   -1.90    0.50
  -4   0   3   -1.70    0.30
   4   0  -3   -2.30    0.50
  -4   0   3   -1.50    0.40
  -4   0   3   -1.60    0.40
  -4   0   3   -1.40    0.30
  -3   0   3   -0.50    0.40
  -3   0   3   -0.10    0.40
  -3   0   3   -0.50    0.30
   3   0  -3   -1.30    0.30
  -2   0   3    0.60    0.40
  -2   0   3    0.10    0.30
  -2   0   3    1.00    0.30
  -2   0   3    0.80    0.30
   2   0  -3    0.10    0.20
  -2   0   3    0.40    0.10
   2   0  -3    0.20    0.30
  -1   0   3   -2.60    0.20
  -1   0   3   -2.10    0.30
   0   0  -3    2.30    0.40
   1   0   3   -4.60    0.30
  -1   0  -3   -4.90    0.20
   1   0   3   -4.90    0.20
  -1   0  -3   -4.10    0.30
   2   0   3   -0.80    0.30
  -2   0  -3   -0.60    0.30
  -2   0  -3   -0.70    0.30
  -2   0  -3   -0.20    0.30
   3   0   3   -0.90    0.40
  -3   0  -3    0.00    0.40
  -3   0  -3   -0.80    0.40
  -3   0  -3   -1.00    0.30
  -3   0  -3   -0.70    0.40
   3   0   3   -0.50    0.50
  -3   0  -3   -0.70    0.20
  -4   0  -3   -0.10    0.70
   4   0   3    0.50    0.50
  -4   0  -3    0.60    0.40
  -4   0  -3    1.50    0.50
  -4   0  -3    0.70    0.40
  -4   0  -3    0.70    0.60
  -4   0  -3    0.30    0.40
  -4   0  -3    1.20    0.40
  -4   0  -3    1.30    0.30
  -4   0  -3   -0.10    0.50
  -4   0  -3   -0.10    0.30
  -4   0  -3    0.10    0.20
  -5   0  -3    1.00    0.50
  -5   0  -3    0.70    0.60
  -5   0  -3    0.90    0.60
  -5   0  -3    0.50    0.30
  -5   0  -3    0.70    0.50
  -5   0  -3    1.10    0.50
  -5   0  -3    1.70    0.80
  -5   0  -3    0.40    0.80
  -5   0  -3    1.60    0.60
  -5   0  -3    1.40    0.40
  -5   0  -3    1.00    0.70
  -5   0  -3    0.30    0.40
  -5   0  -3    1.00    0.50
   5   0   3    0.70    0.70
  -6   0  -3    1.80    0.90
   6   0   3    0.50    0.90
  -6   0  -3    1.40    0.90
  -6   0  -3   -0.50    0.60
  -6   0  -3    1.40    0.60
  -6   0  -3    0.90    0.70
  -6   0  -3    0.40    0.50
  -6   0  -3    0.80    0.70
  -6   0  -3    0.60    0.30
  -6   0  -3    0.80    0.60
  -6   0  -3    0.90    0.60
  -6   0  -3    1.70    0.60
  -6   0  -3    0.60    0.40
  -6   0  -3    0.60    0.70
  -7   0  -3   -0.30    0.40
  -7   0  -3    0.30    0.60
  -7   0  -3    0.60    0.50
  -7   0  -3    0.40    0.60
  -7   0  -3    0.10    0.70
  -7   0  -3   -0.20    0.70
  -7   0  -3   -0.20    0.60
  -7   0  -3    0.20    0.60
  -7   0  -3    0.10    0.30
  -7   0  -3    0.40    0.90
  -7   0  -3    0.10    0.60
  -7   0  -3    0.80    0.70
  -7   0  -3    1.00    1.00
  -8   0  -3    0.70    0.80
  -8   0  -3    0.30    0.70
  -8   0  -3    0.20    0.40
  -8   0  -3    1.00    0.80
  -8   0  -3    0.30    0.90
  -8   0  -3    0.60    0.70
  -8   0  -3    0.50    1.10
  -8   0  -3    1.10    0.80
  -8   0  -3    1.00    0.70
  -8   0  -3    0.30    0.70
  -8   0  -3    0.90    0.90
  -8   0  -3    0.90    0.40
  -8   0  -3    1.40    0.80
  -8   0  -3    1.20    0.60
  -9   0  -3    0.60    0.90
  -9   0  -3    0.20    1.00
  -9   0  -3   -0.30    1.20
  -9   0  -3    0.70    0.70
  -9   0  -3    1.80    0.90
  -9   0  -3   -0.60    0.80
  -9   0  -3    0.30    0.80
  -9   0  -3   -0.20    0.90
  -9   0  -3    0.40    0.70
  -9   0  -3    0.30    0.40
  -9   0  -3   -0.30    0.80
  -9   0  -3    1.30    0.70
  -9   0  -3    0.00    0.40
 -10   0  -3   -0.80    1.40
 -10   0  -3    1.10    0.90
 -10   0  -3    0.90    0.80
 -10   0  -3   -0.20    0.40
 -10   0  -3    0.40    0.90
 -10   0  -3    0.20    0.70
 -10   0  -3    0.40    0.80
 -10   0  -3   -0.10    0.90
 -10   0  -3    0.50    0.90
 -10   0  -3    0.60    0.90
 -10   0  -3    0.20    1.10
  10   0   3    0.40    1.10
 -11   0  -3    0.30    0.80
 -11   0  -3    0.80    1.00
  11   0   3   -1.30    1.30
 -11   0  -3    1.00    1.00
 -11   0  -3   -0.10    0.90
 -11   0  -3   -0.40    0.90
 -11   0  -3    0.90    1.70
 -11   0  -3   -0.10    0.40
 -11   0  -3   -0.20    0.80
 -12   0  -3    0.00    0.90
 -12   0  -3    0.90    1.20
 -12   0  -3   -1.40    0.90
 -12   0  -3    0.90    1.70
  12   0   3   -0.80    1.40
 -12   0  -3    0.50    0.80
 -12   0  -3   -0.20    0.40
 -12   0  -3    0.90    0.80
 -13   0  -3   -0.70    0.80
 -13   0  -3    1.40    0.90
 -13   0  -3   -1.10    1.60
 -13   0  -3   -0.60    1.00
 -13   0  -3    0.10    0.80
 -13   0  -3   -0.50    0.90
 -15  -1   3   59.69    5.40
 -15  -1   3   73.59    5.20
 -15  -1   3   74.09    5.30
 -15  -1   3   78.99    5.80
 -15   1   3   80.19    5.40
 -15   1   3   67.79    5.50
 -15   1   3   61.69    5.20
 -14  -1   3   15.20    1.90
 -14  -1   3   13.20    2.20
 -14  -1   3   19.10    1.80
 -14  -1   3   16.60    1.80
 -14  -1   3   18.60    1.70
 -14  -1   3   15.80    2.00
 -14   1   3   18.00    2.00
 -14   1   3   18.20    1.80
 -14   1   3   15.90    2.10
 -14   1   3   14.70    2.00
 -13  -1   3  256.77   18.90
 -13  -1   3  274.67   18.90
 -13  -1   3  270.57   19.00
 -13  -1   3  264.57   18.90
 -13  -1   3  276.67   19.10
 -13  -1   3  258.97   18.80
 -13  -1   3  263.17   19.00
 -13   1   3  252.57   18.90
 -13   1   3  253.27   18.90
 -13   1   3  278.97   19.00
 -13   1   3  280.67   19.00
 -12  -1   3  243.68   16.20
 -12  -1   3  207.08   16.50
 -12  -1   3  250.07   16.40
 -12  -1   3  231.88   16.30
 -12  -1   3  233.48   16.30
 -12  -1   3  214.88   16.20
 -12  -1   3  228.58   16.20
 -12  -1   3  227.48   16.40
 -12  -1   3  241.28   16.20
 -12   1   3  235.38   16.30
 -12   1   3  229.98   16.20
 -12   1   3  193.68   16.20
 -12   1   3  240.18   16.40
 -12   1   3  247.28   16.30
 -12   1   3  227.48   16.20
 -12   1   3  203.68   16.20
 -11  -1   3    4.50    1.30
 -11  -1   3    6.00    1.50
 -11  -1   3    5.10    1.00
 -11  -1   3    2.70    0.50
 -11  -1   3    5.10    1.20
 -11  -1   3    3.50    1.50
 -11   1   3    6.30    0.90
 -11   1   3    3.50    0.60
 -11   1   3    4.50    0.80
 -11   1   3    3.30    0.60
 -11   1   3    4.10    0.90
 -10  -1   3   -0.60    1.20
 -10  -1   3   -1.70    1.10
 -10  -1   3    0.50    1.20
 -10  -1   3   -0.30    0.40
 -10  -1   3    0.60    1.20
 -10  -1   3    0.30    0.60
 -10  -1   3    0.20    0.80
 -10  -1   3   -0.50    0.70
 -10  -1   3   -0.40    0.90
 -10  -1   3    0.40    0.80
 -10  -1   3   -0.10    0.70
 -10  -1   3   -0.50    0.40
 -10   1   3    1.30    0.80
 -10   1   3    1.90    0.80
 -10   1   3    1.40    1.60
 -10   1   3   -0.20    0.40
 -10   1   3   -0.40    0.50
 -10   1   3    1.00    0.60
 -10   1   3    0.60    0.70
 -10   1   3   -0.40    0.70
 -10   1   3   -0.50    0.40
  -9  -1   3    2.80    0.80
  -9  -1   3    4.20    1.10
  -9  -1   3    3.50    1.10
  -9  -1   3    2.90    0.80
  -9  -1   3   -0.20    1.30
  -9  -1   3    2.70    1.00
  -9  -1   3    4.60    1.00
  -9  -1   3    3.40    0.70
  -9  -1   3    2.00    0.90
  -9   1   3    5.70    1.30
  -9   1   3    0.80    0.60
  -9   1   3    2.30    0.50
  -9   1   3    1.50    0.80
  -9   1   3    2.90    1.10
  -9   1   3    2.10    0.60
  -9   1   3    2.40    0.40
  -9   1   3    2.50    0.80
  -9   1   3    1.00    1.20
  -8  -1   3  129.79    9.60
  -8  -1   3  140.19    9.60
  -8  -1   3  144.19    9.60
  -8  -1   3  129.79    9.60
  -8  -1   3  140.59    9.70
  -8  -1   3  139.19    9.60
  -8  -1   3  127.09    9.70
  -8  -1   3  137.69    9.60
   8  -1  -3  128.19    9.50
  -8  -1   3  114.29    9.80
  -8  -1   3  134.89    9.60
  -8  -1   3  135.39    9.60
  -8  -1   3  130.79    9.60
  -8  -1   3  134.69    9.50
  -8  -1   3  133.29    9.70
  -8   1   3  145.69    9.60
  -8   1   3  120.79    9.50
  -8   1   3  123.39    9.70
  -8   1   3  146.69    9.50
  -8   1   3  143.49    9.60
  -8   1   3  135.29    9.60
  -8   1   3  131.49    9.60
  -8   1   3  150.38    9.60
  -8   1   3  134.49    9.70
  -8   1   3  141.89    9.70
  -8   1   3  120.49    9.80
  -7  -1   3  645.24   42.10
  -7  -1   3  642.84   42.00
  -7  -1   3  615.94   42.10
  -7  -1   3  606.24   42.00
  -7  -1   3  623.24   42.10
  -7  -1   3  603.54   42.10
  -7  -1   3  635.64   42.20
  -7  -1   3  524.55   42.10
  -7  -1   3  582.84   42.10
  -7  -1   3  545.05   42.00
  -7  -1   3  582.64   42.10
  -7  -1   3  649.24   42.10
  -7  -1   3  608.34   42.10
  -7  -1   3  538.85   42.10
  -7  -1   3  619.94   42.10
   7  -1  -3  618.94   42.00
  -7   1   3  507.95   42.00
  -7   1   3  576.44   42.10
  -7   1   3  628.84   42.10
  -7   1   3  603.44   42.00
  -7   1   3  642.64   42.10
  -7   1   3  537.25   42.20
  -7   1   3  589.34   42.20
  -7   1   3  638.14   42.10
  -7   1   3  605.34   42.10
  -7   1   3  535.25   42.10
  -7   1   3  607.74   42.10
  -7   1   3  635.34   42.10
  -7   1   3  623.54   42.10
  -6  -1   3 1994.60  134.89
  -6  -1   3 2042.80  134.89
  -6  -1   3 1991.40  134.89
   6  -1  -3 2137.09  134.89
  -6  -1   3 2072.99  134.89
  -6  -1   3 1973.20  134.89
  -6  -1   3 2051.99  134.89
  -6  -1   3 1856.41  134.89
  -6  -1   3 1782.32  134.89
  -6  -1   3 1653.23  134.89
  -6  -1   3 1940.51  134.99
  -6  -1   3 2111.29  134.89
  -6  -1   3 1633.94  134.89
  -6  -1   3 1940.41  134.89
  -6  -1   3 1968.60  134.79
  -6   1   3 1869.01  134.79
  -6   1   3 1931.71  134.99
   6   1  -3 1827.92  134.89
  -6   1   3 2023.50  134.89
  -6   1   3 1933.61  134.89
  -6   1   3 1980.10  134.99
  -6   1   3 2019.70  134.89
  -6   1   3 1938.51  134.99
   6   1  -3 1784.02  134.89
  -6   1   3 2014.60  134.89
  -6   1   3 1696.33  134.89
   6   1  -3 1801.52  134.79
  -6   1   3 1942.01  134.89
  -6   1   3 1894.41  134.99
  -6   1   3 1953.40  134.89
  -5  -1   3 2487.45  167.18
  -5  -1   3 2348.07  167.28
  -5  -1   3 2544.85  167.28
   5  -1  -3 2569.84  167.18
  -5  -1   3 2226.78  167.28
  -5  -1   3 2506.65  167.28
  -5  -1   3 2380.36  167.18
  -5   1   3 2278.37  167.28
  -5   1   3 2023.20  167.18
  -5   1   3 2372.56  167.28
  -5   1   3 2478.05  167.38
  -5   1   3 2612.74  167.18
  -5   1   3 2691.13  167.18
   5   1  -3 2485.35  167.18
  -5   1   3 2360.66  167.18
   5   1  -3 2117.59  167.18
   5   1  -3 2392.86  167.18
  -5   1   3 2096.89  167.18
   4  -1  -3 2327.97  182.78
  -4  -1   3 2363.86  182.78
  -4  -1   3 2706.83  182.78
  -4  -1   3 2596.54  182.78
  -4  -1   3 2462.35  182.78
  -4  -1   3 2836.52  182.78
   4  -1  -3 2928.01  182.78
  -4  -1   3 2453.25  182.78
  -4   1   3 2850.41  182.78
  -4   1   3 2678.33  182.78
  -4   1   3 2228.18  182.78
   4   1  -3 2706.93  182.78
   4   1  -3 2893.21  182.78
  -4   1   3 2502.25  182.78
  -3  -1   3 4487.45  331.37
  -3  -1   3 4607.44  331.37
  -3  -1   3 5151.88  331.37
  -3  -1   3 4806.52  331.37
   3  -1  -3 4479.55  331.37
  -3  -1   3 4782.42  331.37
   3   1  -3 4311.97  331.37
  -3   1   3 5311.87  331.37
  -3   1   3 4367.26  331.37
  -3   1   3 5020.30  331.37
   2  -1  -3 2274.67  159.58
  -2  -1   3 2355.26  159.58
  -2  -1   3 2474.35  159.68
   2  -1  -3 2093.19  159.68
   2  -1  -3 2272.57  159.68
  -2  -1   3 2404.36  159.68
  -2  -1   3 2339.27  159.68
  -2  -1   3 2000.30  159.68
  -2  -1   3 2166.48  159.68
  -2   1   3 2607.64  159.68
  -2   1   3 2330.97  159.68
  -2   1   3 2188.58  159.68
  -2   1   3 2436.76  159.68
   2   1  -3 1969.80  159.68
  -1  -1   3  749.23   55.29
   1  -1  -3  752.42   55.29
   1  -1  -3  673.63   55.29
   1  -1  -3  707.73   55.29
   1  -1  -3  886.21   55.29
  -1  -1   3  807.52   55.29
  -1  -1   3  894.41   55.29
  -1   1   3  834.42   55.29
   1   1  -3  708.03   55.29
  -1   1   3  876.11   55.29
   0  -1  -3 1954.60  141.79
   0  -1   3 2180.08  141.89
   0  -1   3 2224.18  141.89
   0  -1   3 1900.21  141.79
   0  -1  -3 1664.13  141.79
   0  -1  -3 2186.78  141.79
   0  -1  -3 1769.62  141.79
   0   1   3 2110.89  141.79
   0   1  -3 2037.80  141.89
   0   1   3 2223.18  141.79
  -1  -1  -3   17.60    1.40
   1  -1   3   15.70    1.50
  -1  -1  -3   19.70    1.50
  -1  -1  -3   19.30    1.50
   1  -1   3   20.40    1.40
   1  -1   3   19.90    1.50
  -1  -1  -3   18.80    1.50
  -1   1  -3   16.80    1.50
   1   1   3   19.70    1.50
  -1   1  -3   15.90    1.50
  -1   1  -3   18.00    1.60
  -2  -1  -3 1826.22  146.69
   2  -1   3 2205.98  146.69
  -2  -1  -3 1961.70  146.59
   2  -1   3 2231.68  146.69
  -2  -1  -3 2025.00  146.69
  -2  -1  -3 2071.79  146.69
  -2  -1  -3 2067.09  146.59
  -2   1  -3 2239.88  146.69
  -2   1  -3 1918.91  146.69
   2   1   3 2024.40  146.69
   2   1   3 1845.92  146.69
  -2   1  -3 2274.87  146.69
  -2   1  -3 2250.37  146.69
  -2   1  -3 2299.57  146.59
  -2   1  -3 2166.68  146.69
  -3  -1  -3   93.19    6.80
   3  -1   3  103.89    6.50
  -3  -1  -3   85.89    6.50
  -3  -1  -3   89.89    6.60
  -3  -1  -3   83.79    6.60
  -3  -1  -3   96.09    6.50
  -3  -1  -3   79.39    6.50
  -3  -1  -3   92.89    6.60
  -3  -1  -3   91.99    6.80
   3  -1   3  103.99    6.60
  -3  -1  -3   92.29    6.50
  -3  -1  -3   92.89    6.70
  -3  -1  -3   85.79    6.70
  -3  -1  -3   90.99    6.60
  -3   1  -3   94.09    6.50
  -3   1  -3   93.79    6.80
  -3   1  -3   91.39    6.60
  -3   1  -3   97.99    6.60
  -3   1  -3   88.19    6.50
  -3   1  -3   89.09    6.60
  -3   1  -3  100.89    6.60
  -3   1  -3   85.29    6.60
   3   1   3   90.59    6.60
  -3   1  -3   97.89    6.60
  -4  -1  -3  115.09    7.90
   4  -1   3  125.89    7.90
  -4  -1  -3  114.89    7.90
  -4  -1  -3  100.69    8.00
  -4  -1  -3  103.19    8.00
  -4  -1  -3  116.89    7.90
  -4  -1  -3  114.79    7.90
  -4  -1  -3  118.79    7.90
  -4  -1  -3  112.29    7.90
  -4  -1  -3  104.89    7.90
  -4  -1  -3  105.29    8.00
  -4  -1  -3  104.39    7.90
  -4  -1  -3   96.79    7.80
  -4  -1  -3   95.69    8.00
  -4  -1  -3  119.19    7.90
  -4  -1  -3  115.29    7.90
  -4   1  -3  107.49    7.90
  -4   1  -3  107.29    7.90
  -4   1  -3  121.09    7.90
  -4   1  -3  113.39    7.90
   4   1   3  117.69    7.90
  -4   1  -3  111.69    8.10
  -4   1  -3  111.89    7.90
  -4   1  -3  113.29    7.90
  -4   1  -3  112.29    7.90
  -5  -1  -3 2137.39  144.99
  -5  -1  -3 2055.19  145.09
  -5  -1  -3 2076.19  144.99
  -5  -1  -3 2097.39  145.09
  -5  -1  -3 2196.58  145.19
  -5  -1  -3 2160.78  145.09
  -5  -1  -3 2155.28  144.99
  -5  -1  -3 2177.08  144.99
  -5  -1  -3 2112.39  144.99
  -5  -1  -3 2045.90  144.99
  -5  -1  -3 1977.80  144.99
  -5  -1  -3 1778.02  144.89
   5  -1   3 1789.32  144.99
  -5  -1  -3 1973.20  144.99
  -5  -1  -3 1919.41  145.09
  -5  -1  -3 2300.97  144.99
   5   1   3 2279.27  144.99
  -5   1  -3 2121.79  144.99
  -5   1  -3 2095.89  144.99
  -5   1  -3 2156.68  144.99
  -5   1  -3 1819.82  144.99
  -5   1  -3 2239.88  144.99
  -5   1  -3 2072.39  145.19
  -5   1  -3 2137.69  144.99
  -5   1  -3 1791.32  144.99
  -5   1  -3 2086.89  144.99
  -5   1  -3 2129.99  144.99
  -6  -1  -3 1166.68   78.59
  -6  -1  -3 1044.90   78.59
  -6  -1  -3 1208.08   78.59
  -6  -1  -3 1116.19   78.59
  -6  -1  -3 1114.99   78.49
  -6  -1  -3 1209.18   78.59
  -6  -1  -3 1151.38   78.59
  -6  -1  -3 1098.99   78.59
  -6  -1  -3 1157.38   78.49
  -6  -1  -3  987.80   78.59
  -6  -1  -3 1116.69   78.59
  -6  -1  -3 1072.99   78.59
  -6  -1  -3 1150.08   78.59
  -6  -1  -3 1125.89   78.59
  -6   1  -3  964.30   78.59
  -6   1  -3 1139.69   78.59
  -6   1  -3 1138.29   78.49
  -6   1  -3 1049.99   78.69
  -6   1  -3 1066.29   78.49
  -6   1  -3 1154.98   78.59
   6   1   3 1202.88   78.59
  -6   1  -3 1173.68   78.49
  -6   1  -3 1067.09   78.59
  -6   1  -3 1192.88   78.59
  -6   1  -3 1116.59   78.49
  -6   1  -3 1203.98   78.69
  -6   1  -3 1050.69   78.59
  -7  -1  -3  404.56   28.00
  -7  -1  -3  398.36   28.00
  -7  -1  -3  399.06   27.90
  -7  -1  -3  409.56   27.90
  -7  -1  -3  375.16   27.80
  -7  -1  -3  408.06   27.90
  -7  -1  -3  350.86   27.90
  -7  -1  -3  393.96   27.90
  -7  -1  -3  403.46   27.90
  -7  -1  -3  375.96   27.80
  -7  -1  -3  422.16   27.90
  -7  -1  -3  375.76   28.00
  -7   1  -3  378.66   27.80
   7   1   3  413.66   27.90
  -7   1  -3  361.26   28.10
  -7   1  -3  398.46   27.90
  -7   1  -3  393.56   27.90
  -7   1  -3  423.56   27.90
  -7   1  -3  372.16   27.90
  -7   1  -3  431.76   27.90
  -7   1  -3  368.66   27.90
  -7   1  -3  414.06   27.90
  -7   1  -3  431.16   28.10
  -8  -1  -3  646.64   43.60
  -8  -1  -3  659.73   43.60
  -8  -1  -3  603.04   43.50
  -8  -1  -3  537.75   43.60
  -8  -1  -3  628.94   43.70
  -8  -1  -3  646.74   43.60
  -8  -1  -3  579.74   43.60
  -8  -1  -3  596.54   43.70
  -8  -1  -3  582.84   43.50
  -8  -1  -3  526.05   43.60
  -8  -1  -3  604.94   43.60
  -8  -1  -3  616.54   43.60
  -8  -1  -3  669.63   43.70
  -8   1  -3  705.13   43.70
  -8   1  -3  652.73   43.60
  -8   1  -3  594.34   43.50
  -8   1  -3  596.84   43.60
  -8   1  -3  676.83   43.50
  -8   1  -3  562.74   43.80
  -8   1  -3  689.03   43.80
   8   1   3  641.34   43.60
  -8   1  -3  644.54   43.60
  -8   1  -3  610.74   43.50
  -8   1  -3  597.14   43.60
  -9  -1  -3  510.55   34.90
  -9  -1  -3  467.05   34.90
  -9  -1  -3  516.45   34.90
  -9  -1  -3  517.75   34.90
  -9  -1  -3  454.05   34.80
  -9  -1  -3  480.15   34.80
  -9  -1  -3  488.95   34.90
  -9  -1  -3  487.45   34.80
  -9  -1  -3  527.55   34.90
  -9  -1  -3  520.05   34.90
  -9  -1  -3  477.85   34.80
  -9  -1  -3  476.15   35.00
  -9   1  -3  487.75   34.80
  -9   1  -3  489.15   34.90
  -9   1  -3  484.65   34.80
  -9   1  -3  520.75   34.90
  -9   1  -3  505.85   34.90
  -9   1  -3  446.16   35.10
  -9   1  -3  545.25   35.10
   9   1   3  510.35   34.90
  -9   1  -3  513.65   34.90
  -9   1  -3  462.35   35.00
 -10  -1  -3   98.29    7.80
 -10  -1  -3  115.29    8.00
 -10  -1  -3  116.79    7.70
 -10  -1  -3  102.49    8.00
 -10  -1  -3  123.49    8.20
 -10  -1  -3   98.49    7.60
 -10  -1  -3  109.69    7.90
 -10  -1  -3   98.39    7.80
 -10  -1  -3  112.99    7.70
 -10  -1  -3  103.09    8.10
 -10   1  -3   98.79    8.20
 -10   1  -3  112.39    7.70
 -10   1  -3  114.49    8.20
 -10   1  -3  108.09    7.70
 -10   1  -3   91.09    8.20
 -10   1  -3   99.39    7.90
 -10   1  -3  108.99    7.90
 -10   1  -3   99.89    7.70
 -10   1  -3   99.59    8.10
 -10   1  -3  107.59    7.70
 -11  -1  -3   14.80    1.50
  11  -1   3   11.00    1.70
 -11  -1  -3   14.70    2.10
 -11  -1  -3   14.70    1.50
 -11  -1  -3   10.10    1.80
 -11  -1  -3   11.70    1.80
 -11  -1  -3   13.90    1.50
 -11  -1  -3   14.40    1.60
 -11  -1  -3   12.10    1.70
 -11  -1  -3    8.40    2.10
 -11  -1  -3   12.10    1.60
 -11   1  -3   13.60    1.60
 -11   1  -3   10.30    1.90
 -11   1  -3   12.70    1.60
 -11   1  -3   12.60    1.50
 -11   1  -3    9.10    1.90
 -12  -1  -3   17.40    2.20
  12  -1   3    9.00    1.80
 -12  -1  -3   12.70    1.60
 -12  -1  -3   14.00    1.50
 -12  -1  -3   11.60    2.70
 -12  -1  -3   13.00    1.60
 -12  -1  -3   15.50    1.60
 -12   1  -3    9.00    1.90
 -12   1  -3   10.70    1.80
 -12   1  -3   14.20    1.70
 -12   1  -3   10.70    1.80
 -12   1  -3   13.90    1.60
 -13  -1  -3   -0.60    0.40
 -13  -1  -3   -0.10    0.90
 -13  -1  -3    0.20    0.70
  13  -1   3    1.80    1.30
 -13  -1  -3    0.10    1.50
 -13  -1  -3    0.30    0.80
 -13   1  -3    1.60    1.60
 -13   1  -3   -0.70    0.80
 -13   1  -3    0.00    0.70
 -14  -2   3   25.00    2.30
 -14  -2   3   29.40    2.80
 -14  -2   3   24.20    2.30
 -14  -2   3   23.00    2.80
 -14   2   3   22.30    2.20
 -13  -2   3   68.39    5.30
 -13  -2   3   62.79    5.30
 -13  -2   3   71.89    5.20
 -13  -2   3   79.79    5.30
 -13   2   3   72.49    5.30
 -13   2   3   69.69    5.50
 -13   2   3   60.79    5.20
 -13   2   3   77.19    5.40
 -12  -2   3  258.87   19.10
 -12  -2   3  236.08   19.40
 -12  -2   3  265.47   19.20
 -12  -2   3  278.97   19.40
 -12  -2   3  273.37   19.10
 -12  -2   3  269.07   19.10
 -12  -2   3  289.97   19.10
 -12   2   3  251.57   19.00
 -12   2   3  304.07   19.20
 -12   2   3  262.97   19.10
 -11  -2   3  202.88   14.20
 -11  -2   3  200.58   14.40
 -11  -2   3  194.78   14.20
 -11  -2   3  210.28   14.30
 -11  -2   3  192.18   14.20
 -11  -2   3  210.78   14.20
 -11  -2   3  196.88   14.50
 -11  -2   3  183.78   14.30
 -11   2   3  195.38   14.20
 -11   2   3  197.48   14.20
 -11   2   3  222.68   14.60
 -11   2   3  179.58   14.10
 -10  -2   3  533.45   43.10
 -10  -2   3  619.94   43.00
 -10  -2   3  607.54   43.00
 -10  -2   3  645.34   43.30
 -10  -2   3  578.84   43.10
 -10  -2   3  625.64   43.00
 -10  -2   3  583.14   43.10
 -10  -2   3  573.34   43.10
 -10  -2   3  659.33   43.10
 -10  -2   3  617.14   43.00
 -10  -2   3  620.04   42.90
 -10  -2   3  621.14   43.10
 -10  -2   3  625.94   43.10
 -10  -2   3  631.94   43.10
 -10   2   3  626.84   43.20
 -10   2   3  564.94   43.10
 -10   2   3  630.14   43.10
 -10   2   3  670.83   43.00
 -10   2   3  648.04   43.00
 -10   2   3  554.94   43.00
  -9  -2   3 1715.73  122.59
  -9  -2   3 1657.53  122.59
  -9  -2   3 1811.12  122.49
  -9  -2   3 1758.52  122.49
  -9  -2   3 1550.44  122.49
  -9  -2   3 1878.31  122.59
  -9  -2   3 1808.22  122.49
  -9  -2   3 1779.92  122.59
  -9  -2   3 1727.13  122.59
   9  -2  -3 1716.03  122.39
  -9  -2   3 1767.02  122.39
  -9  -2   3 1744.23  122.39
  -9  -2   3 1796.52  122.49
  -9   2   3 1708.63  122.49
  -9   2   3 1940.81  122.39
  -9   2   3 1800.12  122.49
  -9   2   3 1663.63  122.59
  -9   2   3 1634.14  122.49
  -9   2   3 1736.43  122.49
  -8  -2   3  517.65   35.50
  -8  -2   3  483.95   35.40
   8  -2  -3  519.75   35.40
  -8  -2   3  499.15   35.50
  -8  -2   3  477.15   35.50
  -8  -2   3  431.16   35.50
  -8  -2   3  518.35   35.40
  -8  -2   3  549.45   35.60
  -8  -2   3  488.05   35.50
  -8  -2   3  514.95   35.50
  -8  -2   3  501.75   35.50
  -8  -2   3  502.95   35.60
  -8  -2   3  523.75   35.50
  -8  -2   3  503.15   35.40
  -8   2   3  531.85   35.40
  -8   2   3  521.75   35.50
  -8   2   3  499.65   35.50
  -8   2   3  486.55   35.50
  -8   2   3  481.35   35.60
  -8   2   3  526.15   35.40
  -7  -2   3  181.48   12.70
  -7  -2   3  185.98   12.70
  -7  -2   3  181.48   12.70
  -7  -2   3  182.38   12.70
  -7  -2   3  170.08   12.70
  -7  -2   3  169.68   12.80
   7  -2  -3  176.78   12.70
  -7  -2   3  195.58   12.80
  -7  -2   3  173.38   12.70
  -7  -2   3  185.88   12.80
  -7  -2   3  170.68   12.90
  -7   2   3  167.78   12.70
  -7   2   3  175.18   12.70
  -7   2   3  160.88   12.80
  -7   2   3  198.98   12.70
  -7   2   3  187.38   12.70
  -6  -2   3  435.16   34.50
  -6  -2   3  524.95   34.50
  -6  -2   3  444.16   34.50
   6  -2  -3  495.95   34.40
  -6  -2   3  531.45   34.50
  -6  -2   3  463.35   34.40
  -6  -2   3  453.25   34.50
  -6  -2   3  470.05   34.40
  -6  -2   3  535.25   34.40
  -6  -2   3  512.45   34.50
  -6  -2   3  453.45   34.50
  -6  -2   3  485.15   34.40
  -6   2   3  433.56   34.50
  -6   2   3  542.55   34.40
  -6   2   3  508.15   34.40
  -6   2   3  521.25   34.50
  -6   2   3  514.75   34.50
  -6   2   3  493.55   34.50
  -5  -2   3  102.79    7.50
  -5  -2   3   98.29    7.30
   5  -2  -3  120.79    7.70
  -5  -2   3   98.79    7.60
  -5  -2   3  107.79    7.50
  -5  -2   3   90.79    7.60
  -5  -2   3  115.99    7.50
  -5  -2   3   95.69    7.50
  -5  -2   3   90.09    7.50
   5  -2  -3  107.99    7.40
  -5  -2   3  103.39    7.50
  -5  -2   3  101.69    7.50
  -5  -2   3  109.89    7.50
  -5  -2   3   91.89    7.50
   5  -2  -3  107.59    7.40
  -5   2   3  105.19    7.40
  -5   2   3  113.19    7.50
   5   2  -3  118.59    7.50
  -5   2   3  118.79    7.50
  -5   2   3  104.49    7.40
  -5   2   3   86.89    7.60
   5   2  -3   97.99    7.50
   4  -2  -3   11.50    1.10
  -4  -2   3   10.10    1.50
  -4  -2   3   12.30    1.40
  -4  -2   3   11.50    1.30
  -4  -2   3   12.60    1.30
  -4  -2   3   11.60    1.50
  -4  -2   3   11.60    1.50
  -4  -2   3   14.60    1.20
   4  -2  -3    8.60    1.70
  -4  -2   3   10.40    1.50
  -4  -2   3   10.30    1.60
  -4  -2   3   14.80    1.30
  -4  -2   3   14.00    1.20
  -4   2   3   10.50    1.20
   4   2  -3    9.60    1.40
  -4   2   3   13.30    1.30
  -4   2   3   12.60    1.30
   3  -2  -3  166.38   11.90
  -3  -2   3  160.98   12.10
  -3  -2   3  172.58   12.00
  -3  -2   3  145.19   12.00
  -3  -2   3  177.18   12.00
  -3  -2   3  170.58   11.90
  -3  -2   3  172.78   12.00
   3  -2  -3  195.88   12.00
  -3  -2   3  170.28   12.00
  -3  -2   3  162.18   12.00
  -3  -2   3  164.28   12.00
   3  -2  -3  169.78   11.90
  -3  -2   3  163.98   12.00
  -3  -2   3  145.99   12.00
  -3  -2   3  167.28   12.00
  -3   2   3  155.28   11.90
  -3   2   3  179.98   12.00
  -3   2   3  188.08   12.10
  -2  -2   3 1380.46   93.89
  -2  -2   3 1395.26   93.89
  -2  -2   3 1366.46   93.89
  -2  -2   3 1465.45   93.89
   2  -2  -3 1347.27   93.89
  -2  -2   3 1171.88   93.79
   2  -2  -3 1296.37   93.79
  -2  -2   3 1470.15   93.79
   2  -2  -3 1238.68   93.79
  -2  -2   3 1190.68   93.79
   2  -2  -3 1308.97   93.79
  -2  -2   3 1507.25   93.89
   2  -2  -3 1342.97   93.79
  -2   2   3 1323.67   93.89
   2   2  -3 1276.47   93.79
  -1  -2   3 2277.97  139.09
  -1  -2   3 1733.03  139.19
  -1  -2   3 2142.29  139.09
   1  -2  -3 1963.40  139.09
  -1  -2   3 1827.82  139.09
  -1  -2   3 1958.80  139.19
  -1  -2   3 2086.99  139.19
   1  -2  -3 2169.88  139.19
   1  -2  -3 1873.01  139.09
  -1  -2   3 1982.60  139.19
   1  -2  -3 1827.62  139.09
   1  -2  -3 1853.21  139.09
   1  -2  -3 1964.30  139.09
  -1  -2   3 2032.10  139.19
   1  -2  -3 2110.19  139.19
  -1   2   3 2031.90  139.09
   1   2  -3 1927.11  139.09
   0  -2  -3 1473.05   99.19
   0  -2  -3 1325.77   99.19
   0  -2   3 1404.36   99.19
   0  -2  -3 1417.26   99.19
   0  -2   3 1299.07   99.19
   0  -2  -3 1343.27   99.19
   0  -2   3 1391.76   99.19
   0  -2  -3 1372.16   99.29
   0  -2  -3 1495.85   99.29
   0  -2  -3 1376.86   99.19
   0  -2   3 1258.47   99.19
   0  -2   3 1554.64   99.19
   0  -2   3 1560.24   99.29
   0  -2  -3 1321.47   99.19
   0  -2   3 1462.95   99.19
   0   2   3 1444.66   99.29
   0   2  -3 1454.25   99.19
   0   2   3 1397.56   99.19
   0   2  -3 1540.85   99.19
  -1  -2  -3 2142.39  162.08
  -1  -2  -3 2469.25  162.08
  -1  -2  -3 2570.74  162.18
   1  -2   3 2221.38  162.08
   1  -2   3 2352.56  162.08
  -1  -2  -3 2227.08  162.18
  -1  -2  -3 2298.47  162.08
  -1  -2  -3 2405.26  162.08
   1  -2   3 2394.06  162.18
  -1  -2  -3 2125.39  162.08
   1  -2   3 2593.44  162.18
  -1  -2  -3 2262.87  162.08
  -1  -2  -3 2053.59  162.08
  -1   2  -3 2449.35  162.08
  -1   2  -3 2505.35  162.08
  -1   2  -3 2084.19  162.08
   1   2   3 2257.77  162.18
   1   2   3 2230.18  162.08
  -2  -2  -3 4552.84  330.97
  -2  -2  -3 4529.85  331.07
  -2  -2  -3 4643.54  330.97
   2  -2   3 4834.82  331.07
  -2  -2  -3 5230.58  331.17
   2  -2   3 4549.14  331.07
  -2  -2  -3 4309.27  331.07
  -2  -2  -3 4845.72  331.07
  -2  -2  -3 4345.57  331.07
  -2  -2  -3 4432.86  331.07
   2  -2   3 5319.57  331.17
   2  -2   3 4948.21  331.07
  -2  -2  -3 4236.28  330.97
  -2  -2  -3 5053.89  331.07
  -2   2  -3 4661.63  331.17
  -2   2  -3 5097.99  331.07
  -2   2  -3 4557.64  331.07
  -2   2  -3 5295.67  331.07
   2   2   3 4380.76  331.07
  -3  -2  -3 2703.33  196.58
  -3  -2  -3 2755.12  196.58
  -3  -2  -3 2640.54  196.68
  -3  -2  -3 2559.14  196.68
   3  -2   3 2910.51  196.68
  -3  -2  -3 2911.41  196.68
  -3  -2  -3 2492.35  196.68
  -3  -2  -3 2871.21  196.58
   3  -2   3 3084.99  196.68
  -3  -2  -3 2671.33  196.68
  -3  -2  -3 3009.00  196.68
  -3  -2  -3 2990.80  196.78
  -3  -2  -3 2844.12  196.68
  -3  -2  -3 2660.73  196.68
  -3  -2  -3 2433.66  196.68
   3  -2   3 2798.52  196.68
  -3  -2  -3 2706.13  196.68
  -3  -2  -3 2684.73  196.68
  -3   2  -3 2991.80  196.68
  -3   2  -3 2749.82  196.68
  -3   2  -3 3255.27  196.68
  -3   2  -3 3043.00  196.68
   4  -2   3 1023.20   63.39
  -4  -2  -3  873.31   63.49
  -4  -2  -3  866.91   63.49
  -4  -2  -3  830.52   63.39
  -4  -2  -3  933.61   63.59
  -4  -2  -3  868.01   63.39
   4  -2   3  902.21   63.39
  -4  -2  -3  843.62   63.29
  -4  -2  -3  811.12   63.39
  -4  -2  -3  869.51   63.39
  -4  -2  -3  981.30   63.39
  -4  -2  -3  850.21   63.39
  -4  -2  -3  874.11   63.49
  -4  -2  -3  950.70   63.39
  -4  -2  -3  893.01   63.39
  -4  -2  -3  856.61   63.39
   4  -2   3  946.51   63.49
  -4   2  -3 1019.50   63.49
  -4   2  -3  941.71   63.39
  -4   2  -3  863.91   63.49
  -4   2  -3  905.01   63.39
  -4   2  -3  981.70   63.39
  -5  -2  -3  404.96   26.70
  -5  -2  -3  345.67   26.70
   5  -2   3  373.26   26.80
  -5  -2  -3  388.36   26.90
  -5  -2  -3  357.76   26.80
  -5  -2  -3  389.36   26.80
  -5  -2  -3  407.76   26.80
  -5  -2  -3  385.46   26.80
  -5  -2  -3  366.36   26.90
  -5  -2  -3  386.36   26.80
  -5  -2  -3  378.36   26.90
  -5  -2  -3  404.66   26.80
  -5  -2  -3  362.36   26.80
  -5  -2  -3  361.16   26.80
  -5   2  -3  370.86   26.80
  -5   2  -3  380.86   26.80
  -5   2  -3  434.76   26.80
  -5   2  -3  344.97   26.80
  -5   2  -3  386.46   26.80
  -6  -2  -3  100.59    7.00
  -6  -2  -3   88.79    7.00
  -6  -2  -3   83.19    7.10
  -6  -2  -3  101.49    7.10
  -6  -2  -3   92.89    7.10
  -6  -2  -3  102.09    7.10
  -6  -2  -3   97.99    7.10
  -6  -2  -3   97.49    6.90
  -6  -2  -3   92.79    7.20
  -6  -2  -3   87.69    7.10
  -6  -2  -3  108.39    7.10
  -6  -2  -3   93.79    7.00
  -6   2  -3  104.69    7.10
  -6   2  -3  104.29    7.00
  -6   2  -3  101.49    7.10
  -6   2  -3   95.59    7.50
  -6   2  -3  104.09    7.40
  -6   2  -3   98.29    7.00
  -7  -2  -3    3.40    1.00
  -7  -2  -3    2.80    0.90
  -7  -2  -3    2.10    0.80
  -7  -2  -3    2.90    0.80
  -7  -2  -3    2.10    0.80
  -7  -2  -3    0.50    0.80
  -7  -2  -3    1.80    0.80
  -7  -2  -3    2.00    0.80
  -7  -2  -3    2.50    1.00
  -7   2  -3    1.40    0.90
  -7   2  -3    2.50    1.00
  -7   2  -3    2.70    1.00
  -7   2  -3    2.60    0.80
  -7   2  -3    2.30    0.80
  -8  -2  -3  111.99    8.10
  -8  -2  -3  109.29    8.20
  -8  -2  -3  123.19    8.30
  -8  -2  -3  122.69    8.40
  -8  -2  -3  109.99    8.20
  -8  -2  -3  112.99    8.40
  -8  -2  -3  108.99    8.20
  -8  -2  -3  104.39    8.30
  -8  -2  -3  114.29    8.30
  -8  -2  -3  115.79    8.20
  -8   2  -3  109.89    8.20
  -8   2  -3  113.19    8.30
  -8   2  -3  112.19    8.30
  -8   2  -3  121.09    8.60
  -8   2  -3  118.29    8.30
  -8   2  -3  124.19    8.40
  -9  -2  -3  138.69    9.70
  -9  -2  -3  137.19    9.90
  -9  -2  -3  135.89    9.60
  -9  -2  -3  123.69    9.80
  -9  -2  -3  135.69    9.80
  -9  -2  -3  129.29    9.70
  -9  -2  -3  142.19    9.70
  -9  -2  -3  116.59    9.80
  -9  -2  -3  151.68    9.90
  -9  -2  -3  140.79    9.70
  -9  -2  -3  139.69    9.90
  -9  -2  -3  129.99   10.00
  -9   2  -3  138.69    9.80
  -9   2  -3  138.89   10.50
  -9   2  -3  131.19    9.70
  -9   2  -3  137.69    9.70
  -9   2  -3  138.39    9.70
 -10  -2  -3  191.98   13.80
 -10  -2  -3  205.88   14.00
 -10  -2  -3  198.68   13.80
 -10  -2  -3  181.88   13.80
 -10  -2  -3  212.18   13.90
 -10  -2  -3  177.18   13.70
 -10  -2  -3  183.58   13.90
 -10  -2  -3  188.58   13.80
 -10  -2  -3  204.38   14.00
 -10  -2  -3  210.48   13.90
 -10   2  -3  211.78   13.90
 -10   2  -3  187.58   13.80
 -10   2  -3  189.28   13.90
 -10   2  -3  203.88   14.10
 -10   2  -3  181.88   13.80
 -10   2  -3  182.88   13.90
 -11  -2  -3  221.98   14.30
 -11  -2  -3  196.18   14.40
 -11  -2  -3  212.58   14.30
 -11  -2  -3  203.88   14.20
  11  -2   3  199.98   14.40
 -11  -2  -3  195.48   14.30
 -11  -2  -3  221.38   14.20
 -11  -2  -3  190.78   14.40
 -11  -2  -3  198.68   14.20
 -11   2  -3  173.48   14.20
 -11   2  -3  215.98   14.30
 -11   2  -3  202.68   14.40
 -11   2  -3  194.88   14.20
 -11   2  -3  172.08   14.20
 -12  -2  -3  124.49    8.40
  12  -2   3  106.79    8.40
 -12  -2  -3  129.59    8.50
 -12  -2  -3  119.29    8.40
 -12   2  -3  116.39    8.50
 -12   2  -3  104.89    8.40
 -13  -3   3   10.90    1.50
 -13  -3   3    8.60    1.30
 -13   3   3    7.80    1.90
 -13   3   3    7.10    1.20
 -13   3   3    9.90    1.40
 -12  -3   3   15.80    1.70
 -12  -3   3   13.20    1.60
 -12   3   3   12.40    2.10
 -12   3   3   16.40    1.60
 -12   3   3   12.90    1.40
 -11  -3   3   -1.50    1.20
 -11  -3   3   -1.10    1.50
 -11  -3   3    2.70    1.50
 -11  -3   3    1.10    1.00
 -11  -3   3    1.90    0.80
 -11   3   3    0.80    0.60
 -11   3   3    1.30    0.90
 -11   3   3    0.80    1.00
 -10  -3   3   -0.60    1.40
  10  -3  -3    0.20    0.80
 -10  -3   3    1.60    0.90
 -10  -3   3    0.80    1.00
 -10  -3   3    0.20    1.50
 -10  -3   3    3.10    1.40
 -10   3   3    0.40    0.60
 -10   3   3   -0.60    1.10
 -10   3   3    0.40    0.80
 -10   3   3    0.70    0.80
  -9  -3   3    5.80    1.40
   9  -3  -3    4.40    0.80
  -9  -3   3    5.80    1.20
  -9  -3   3    3.50    1.10
  -9  -3   3    3.40    0.90
  -9  -3   3    1.40    1.50
  -9  -3   3    4.30    1.40
  -9  -3   3    4.40    1.40
  -9  -3   3    4.80    1.40
  -9   3   3    4.20    0.80
  -9   3   3    4.60    1.00
  -9   3   3    2.20    1.10
  -9   3   3    4.10    0.90
   8  -3  -3    3.50    0.80
  -8   3   3    2.90    0.90
  -8   3   3    1.80    1.20
  -8   3   3    6.10    1.70
  -8   3   3    3.50    1.00
  -7  -3   3   41.90    3.10
  -7  -3   3   35.10    3.20
  -7  -3   3   36.10    3.10
  -7  -3   3   34.80    3.20
  -7  -3   3   32.10    3.00
  -7  -3   3   36.70    3.20
  -7  -3   3   35.60    3.40
  -7  -3   3   38.50    3.00
   7  -3  -3   42.10    3.00
  -7  -3   3   40.30    3.20
  -7   3   3   34.30    3.00
  -7   3   3   35.40    3.10
  -6  -3   3  354.26   26.00
   6  -3  -3  411.76   25.90
  -6  -3   3  373.86   26.00
   6  -3  -3  359.96   26.10
  -6  -3   3  364.26   26.10
  -6  -3   3  336.47   25.90
  -6  -3   3  352.36   26.10
  -6  -3   3  384.46   26.10
  -6  -3   3  373.76   26.00
  -6  -3   3  365.06   26.30
  -6   3   3  377.46   25.90
  -6   3   3  367.76   26.00
  -6   3   3  358.96   26.00
  -5  -3   3  191.48   14.40
  -5  -3   3  209.68   14.30
  -5  -3   3  181.98   14.30
  -5  -3   3  222.48   14.30
  -5  -3   3  198.08   14.40
   5  -3  -3  223.38   14.30
  -5  -3   3  185.28   14.40
   5  -3  -3  169.78   14.30
  -5  -3   3  191.58   14.30
  -5  -3   3  213.98   14.30
  -5  -3   3  211.78   14.30
  -5  -3   3  175.08   14.30
   5  -3  -3  219.88   14.40
  -5   3   3  209.18   14.20
  -5   3   3  207.68   14.30
  -4  -3   3  308.47   24.20
  -4  -3   3  343.97   24.20
  -4  -3   3  301.77   24.20
  -4  -3   3  323.97   24.20
   4  -3  -3  377.86   24.30
  -4  -3   3  355.66   24.20
  -4  -3   3  303.97   24.20
  -4  -3   3  322.47   24.10
   4  -3  -3  389.66   24.20
  -4  -3   3  390.16   24.20
   4  -3  -3  359.66   24.10
  -4  -3   3  337.27   24.20
   4  -3  -3  307.67   24.20
  -4  -3   3  336.17   24.20
  -4  -3   3  379.86   24.10
   4   3  -3  304.77   24.50
  -4   3   3  376.76   24.10
  -4   3   3  336.97   24.20
  -3  -3   3  397.96   25.20
  -3  -3   3  387.96   25.20
  -3  -3   3  331.57   25.30
  -3  -3   3  341.57   25.20
   3  -3  -3  306.97   25.20
  -3  -3   3  331.97   25.10
  -3  -3   3  365.06   25.20
   3  -3  -3  365.86   25.10
  -3  -3   3  339.27   25.20
   3  -3  -3  392.06   25.30
   3  -3  -3  345.67   25.20
  -3  -3   3  402.26   25.30
   3  -3  -3  355.96   25.10
  -3  -3   3  331.37   25.20
  -3   3   3  390.56   25.20
  -3   3   3  407.16   25.30
   3   3  -3  316.47   25.20
  -3   3   3  352.26   25.20
   3   3  -3  323.57   25.20
  -2  -3   3  225.88   14.10
  -2  -3   3  206.48   13.90
  -2  -3   3  206.68   14.00
  -2  -3   3  179.38   14.10
   2  -3  -3  206.58   14.10
   2  -3  -3  176.98   14.00
  -2  -3   3  206.68   14.00
  -2  -3   3  204.28   14.00
   2  -3  -3  211.98   13.90
   2  -3  -3  180.38   14.00
  -2  -3   3  195.08   14.10
   2  -3  -3  201.18   13.90
  -2  -3   3  176.68   14.00
  -2   3   3  193.88   14.00
   2   3  -3  184.18   14.00
  -2   3   3  211.58   14.10
   2   3  -3  178.78   14.10
   1  -3  -3  322.37   25.30
   1  -3  -3  373.56   25.30
  -1  -3   3  349.67   25.40
   1  -3  -3  365.26   25.40
  -1  -3   3  307.07   25.30
  -1  -3   3  356.16   25.30
  -1  -3   3  375.96   25.30
  -1  -3   3  384.56   25.40
   1  -3  -3  335.07   25.30
  -1  -3   3  363.26   25.20
  -1  -3   3  362.76   25.40
  -1  -3   3  399.26   25.30
   1  -3  -3  375.96   25.30
  -1   3   3  355.56   25.40
  -1   3   3  414.46   25.40
   1   3  -3  365.26   25.30
   1   3  -3  311.77   25.40
   1   3  -3  347.57   25.30
   0  -3   3   22.90    1.90
   0  -3  -3   18.70    1.70
   0  -3  -3   17.40    2.10
   0  -3   3   15.60    2.10
   0  -3   3   20.00    1.70
   0  -3  -3   21.30    1.90
   0  -3   3   18.80    2.10
   0  -3  -3   18.80    1.70
   0  -3   3   20.00    2.00
   0  -3  -3   21.00    2.10
   0  -3   3   22.00    1.90
   0  -3   3   21.70    1.90
   0  -3  -3   19.60    1.80
   0  -3   3   18.70    1.80
   0  -3  -3   15.60    1.90
   0   3   3   23.10    2.10
   0   3  -3   19.70    1.90
   0   3  -3   22.20    1.80
   0   3  -3   19.40    2.20
  -1  -3  -3   38.90    3.10
   1  -3   3   34.70    3.20
  -1  -3  -3   44.30    3.20
  -1  -3  -3   37.50    3.40
  -1  -3  -3   35.50    3.00
   1  -3   3   42.60    3.10
   1  -3   3   44.30    3.20
  -1  -3  -3   41.40    3.00
  -1  -3  -3   37.70    3.20
   1  -3   3   41.10    3.20
  -1  -3  -3   35.60    3.20
   1  -3   3   44.80    3.30
  -1  -3  -3   42.00    3.20
  -1  -3  -3   42.00    3.30
  -1  -3  -3   40.00    3.00
  -1  -3  -3   39.90    3.10
   1   3   3   41.00    3.30
  -1   3  -3   33.60    3.40
   1   3   3   39.00    3.20
  -1   3  -3   43.90    3.10
  -1   3  -3   40.90    3.10
  -2  -3  -3    4.10    0.90
  -2  -3  -3    3.90    1.00
  -2  -3  -3    5.30    1.20
  -2  -3  -3    1.90    1.10
  -2  -3  -3    5.20    0.80
   2  -3   3    2.10    0.90
  -2  -3  -3    5.20    1.00
   2  -3   3    3.80    0.80
   2  -3   3    4.70    1.10
  -2  -3  -3    3.40    0.90
  -2  -3  -3    5.40    0.80
   2  -3   3    3.20    0.70
  -2  -3  -3    4.70    1.10
  -2  -3  -3    4.80    1.20
  -2   3  -3    4.10    0.80
  -2   3  -3    6.50    1.00
   2   3   3    3.00    0.90
  -2   3  -3    3.00    1.30
  -2   3  -3    4.20    1.20
  -3  -3  -3   37.20    3.00
   3  -3   3   36.40    3.20
   3  -3   3   42.90    3.00
  -3  -3  -3   33.50    3.30
  -3  -3  -3   34.80    3.10
  -3  -3  -3   40.00    3.10
  -3  -3  -3   36.50    3.10
  -3  -3  -3   38.80    3.00
   3  -3   3   41.30    3.20
  -3  -3  -3   34.20    3.40
  -3  -3  -3   38.00    3.20
  -3  -3  -3   36.80    3.10
  -3  -3  -3   38.30    2.90
  -3  -3  -3   41.40    2.90
  -3   3  -3   38.60    3.10
  -3   3  -3   43.10    3.10
  -3   3  -3   44.90    3.00
   3   3   3   37.00    3.10
  -4  -3  -3   39.90    3.60
  -4  -3  -3   49.10    3.50
  -4  -3  -3   45.40    3.60
  -4  -3  -3   46.70    3.60
  -4  -3  -3   45.40    3.50
  -4  -3  -3   43.70    3.70
  -4  -3  -3   44.50    3.70
  -4  -3  -3   42.40    3.60
   4  -3   3   50.29    3.70
  -4  -3  -3   45.30    3.50
   4  -3   3   46.90    3.50
   4   3   3   42.80    3.60
  -4   3  -3   52.29    3.60
  -4   3  -3   36.30    3.90
  -4   3  -3   43.40    3.50
  -4   3  -3   51.59    3.50
  -5  -3  -3   63.19    4.90
   5  -3   3   67.69    4.90
  -5  -3  -3   68.19    5.10
  -5  -3  -3   68.49    5.00
   5  -3   3   68.89    5.10
  -5  -3  -3   68.29    4.90
  -5  -3  -3   62.19    5.00
  -5  -3  -3   64.69    5.00
   5  -3   3   62.99    5.10
  -5  -3  -3   69.19    5.00
  -5  -3  -3   67.29    4.80
  -5  -3  -3   63.29    4.90
  -5   3  -3   61.69    4.90
   5   3   3   64.09    5.00
  -5   3  -3   66.09    5.00
  -5   3  -3   56.59    5.30
  -5   3  -3   75.69    5.00
  -6  -3  -3   93.59    7.00
  -6  -3  -3   86.79    7.00
  -6  -3  -3   99.69    6.80
  -6  -3  -3   81.39    6.90
  -6  -3  -3   97.09    7.10
  -6  -3  -3   94.29    6.90
  -6  -3  -3   97.89    6.90
  -6  -3  -3   97.29    6.90
   6  -3   3   96.99    6.90
  -6  -3  -3   87.89    6.90
  -6  -3  -3   98.49    7.00
   6  -3   3   87.19    7.00
  -6   3  -3  107.39    6.90
  -6   3  -3  101.69    7.00
   6   3   3   91.79    7.00
  -6   3  -3   92.09    7.20
  -6   3  -3   99.79    7.00
  -7  -3  -3  103.59    7.30
  -7  -3  -3  104.69    7.40
  -7  -3  -3   89.99    7.30
  -7  -3  -3  100.09    7.20
   7  -3   3   95.39    7.30
  -7  -3  -3   96.29    7.10
  -7  -3  -3   98.39    7.30
  -7  -3  -3   94.99    7.20
  -7  -3  -3  108.99    7.40
   7  -3   3   87.99    7.40
  -7  -3  -3  111.89    7.30
  -7  -3  -3   98.09    7.30
  -7   3  -3  106.69    7.20
  -7   3  -3  100.29    7.60
  -7   3  -3   92.69    7.20
  -7   3  -3  101.29    7.30
   7   3   3  101.89    7.30
  -8  -3  -3  100.59    6.50
  -8  -3  -3   87.19    6.50
  -8  -3  -3   83.99    6.60
  -8  -3  -3   90.89    6.60
  -8  -3  -3   86.09    6.40
  -8  -3  -3   89.69    6.70
  -8  -3  -3  102.19    6.70
  -8  -3  -3   78.49    6.50
  -8  -3  -3   86.99    6.60
  -8   3  -3   81.49    6.50
  -8   3  -3   93.49    6.50
  -8   3  -3   84.49    6.80
   8   3   3   88.89    6.60
  -8   3  -3   88.19    6.60
  -8   3  -3   93.99    6.50
  -9  -3  -3   55.69    4.00
  -9  -3  -3   50.69    4.00
  -9  -3  -3   49.99    4.00
  -9  -3  -3   58.09    4.20
  -9  -3  -3   49.20    3.80
  -9  -3  -3   55.19    4.20
  -9  -3  -3   51.79    3.90
  -9  -3  -3   53.29    4.00
  -9  -3  -3   44.50    4.00
  -9  -3  -3   51.89    4.10
  -9   3  -3   53.19    4.00
  -9   3  -3   47.60    4.20
  -9   3  -3   52.29    4.30
  -9   3  -3   45.80    4.00
  -9   3  -3   49.70    4.30
   9   3   3   56.29    4.10
 -10  -3  -3   28.40    2.90
  10  -3   3   30.50    2.70
 -10  -3  -3   31.40    2.80
 -10  -3  -3   37.40    2.70
 -10  -3  -3   35.60    3.00
 -10  -3  -3   32.30    2.70
 -10  -3  -3   35.50    2.70
 -10   3  -3   25.80    2.90
 -10   3  -3   27.70    2.90
 -10   3  -3   33.40    2.80
  10   3   3   36.20    3.00
 -10   3  -3   26.30    2.70
 -11  -3  -3   18.80    1.90
  11  -3   3   14.00    1.80
 -11  -3  -3   16.30    1.70
 -11  -3  -3   16.10    2.00
 -11   3  -3   14.30    1.90
 -11   3  -3   13.80    1.90
 -11  -4   3    3.20    0.90
 -11   4   3    2.30    1.00
 -11   4   3    3.50    0.60
 -10  -4   3   -0.20    0.80
 -10  -4   3    2.10    1.40
 -10  -4   3   -0.90    1.70
  10  -4  -3    1.30    1.40
  10  -4  -3   -0.10    0.90
  10   4  -3   -2.00    1.30
 -10   4   3   -0.40    0.80
 -10   4   3    0.50    0.60
 -10   4   3    0.40    0.90
  -9  -4   3   31.40    2.60
   9  -4  -3   21.90    3.00
  -9   4   3   25.20    2.50
  -9   4   3   22.40    2.40
  -9   4   3   29.20    2.20
  -8  -4   3   34.70    3.70
  -8  -4   3   45.00    4.00
  -8  -4   3   46.20    3.60
  -8  -4   3   43.70    3.50
  -8  -4   3   38.20    3.70
  -8  -4   3   48.20    3.40
   8  -4  -3   42.20    3.30
  -8   4   3   38.40    3.40
  -8   4   3   34.20    3.40
  -8   4   3   46.60    3.30
  -7  -4   3    5.60    1.40
  -7  -4   3    4.70    1.30
  -7  -4   3    4.80    1.40
  -7  -4   3    7.20    1.30
  -6  -4   3   54.89    4.60
  -6  -4   3   58.79    4.40
   6  -4  -3   59.69    4.20
  -6  -4   3   45.70    4.40
  -6  -4   3   60.89    4.50
  -6  -4   3   62.49    4.30
  -6  -4   3   58.29    4.50
  -6   4   3   46.80    4.30
  -6   4   3   50.69    4.30
  -5  -4   3   32.40    3.40
  -5  -4   3   28.90    2.50
  -5  -4   3   24.40    2.50
   4  -4  -3    7.60    1.50
   4  -4  -3   10.40    1.50
  -4  -4   3   12.40    1.80
   4  -4  -3    9.30    1.60
  -4   4   3    8.40    1.40
  -4   4   3    8.20    1.30
  -4   4   3    9.90    1.60
  -3  -4   3    0.40    0.90
   3  -4  -3   -0.20    0.80
   3  -4  -3   -0.90    0.60
  -3  -4   3    0.40    0.90
  -3  -4   3   -0.10    1.00
   3  -4  -3    1.00    0.80
  -3  -4   3   -0.10    0.80
   3  -4  -3   -0.90    1.10
  -3  -4   3   -1.80    1.30
   2  -4  -3   85.09    7.00
  -2  -4   3  101.89    6.80
  -2  -4   3   93.09    6.70
  -2  -4   3   97.69    6.90
  -2  -4   3   88.29    6.90
   2  -4  -3  100.39    6.80
   2  -4  -3   95.79    7.00
  -2  -4   3   83.49    6.90
   2  -4  -3   91.39    6.70
   2  -4  -3   95.29    6.70
  -2  -4   3   98.49    6.80
   2  -4  -3   86.29    6.90
  -2  -4   3   88.19    6.90
   2   4  -3   84.89    6.80
  -2   4   3   88.59    6.80
  -1  -4   3   96.19    7.30
  -1  -4   3   93.89    7.60
  -1  -4   3  106.69    7.20
  -1  -4   3   96.69    7.30
  -1  -4   3  100.29    7.30
   1  -4  -3   98.79    7.30
   1  -4  -3   82.99    7.20
   1  -4  -3   95.29    7.00
   1  -4  -3   89.19    7.30
  -1  -4   3  102.19    7.20
   1  -4  -3  104.99    7.20
   1  -4  -3  103.89    7.10
   1  -4  -3  107.59    7.20
  -1  -4   3   99.99    7.10
   1   4  -3   96.69    7.70
   1   4  -3   89.39    7.10
  -1   4   3   90.39    7.20
   0  -4  -3    5.00    1.30
   0  -4   3    9.10    1.30
   0  -4  -3   10.50    1.50
   0  -4   3    7.80    1.60
   0  -4  -3    7.00    1.10
   0  -4  -3    7.70    1.40
   0  -4  -3    6.70    1.10
   0  -4   3    9.30    1.60
   0  -4   3    8.80    1.40
   0  -4  -3    9.30    1.60
   0  -4  -3    6.40    1.40
   0   4   3    5.30    1.20
   0   4  -3    9.00    1.30
  -1  -4  -3  127.29   10.20
  -1  -4  -3  149.19   10.20
   1  -4   3  149.19   10.10
  -1  -4  -3  138.99   10.00
  -1  -4  -3  142.19   10.00
   1  -4   3  157.38   10.00
  -1  -4  -3  116.59   10.00
   1  -4   3  140.59   10.10
   1  -4   3  153.18   10.10
  -1  -4  -3  145.69   10.10
  -1  -4  -3  129.69   10.10
   1   4   3  131.29   10.10
  -1   4  -3  134.09    9.90
  -1   4  -3  129.99   10.00
  -2  -4  -3   24.70    2.60
   2  -4   3   33.10    2.70
  -2  -4  -3   23.60    2.90
   2  -4   3   28.40    2.60
   2  -4   3   32.30    2.70
  -2  -4  -3   33.10    2.70
   2  -4   3   34.40    2.60
  -2  -4  -3   25.20    2.60
  -2  -4  -3   26.50    2.50
  -2  -4  -3   27.90    2.70
  -2   4  -3   28.30    2.60
  -2   4  -3   34.10    2.50
   2   4   3   27.60    2.80
  -3  -4  -3   -2.00    1.10
  -3  -4  -3   -1.40    1.10
  -3  -4  -3    0.00    1.00
   3  -4   3    0.50    1.20
   3  -4   3   -0.70    0.70
  -3  -4  -3    0.80    1.10
   3  -4   3    0.10    0.90
  -3  -4  -3   -1.50    1.40
  -3  -4  -3    1.50    1.70
  -3  -4  -3   -0.50    0.90
  -3  -4  -3   -0.10    1.10
   3   4   3    1.40    1.00
  -3   4  -3    1.10    0.80
  -3   4  -3   -0.90    0.90
  -4  -4  -3   15.60    2.90
   4  -4   3   16.90    1.70
  -4  -4  -3   16.40    1.70
   4  -4   3   14.10    2.50
   4  -4   3   14.60    2.60
  -4  -4  -3   17.90    2.00
  -4  -4  -3   13.00    1.80
   4  -4   3   14.00    1.90
  -4  -4  -3   13.20    1.80
  -4  -4  -3   17.60    3.10
  -4  -4  -3   12.90    1.90
   4   4   3   14.40    2.00
  -4   4  -3   16.10    1.90
  -4   4  -3   18.70    1.60
  -5  -4  -3    7.20    1.50
   5  -4   3    3.10    1.30
  -5  -4  -3    6.70    1.20
   5  -4   3    4.40    1.50
  -5  -4  -3    2.80    1.20
   5  -4   3    3.80    1.30
  -5  -4  -3    5.20    1.20
  -5  -4  -3    5.60    1.20
  -5  -4  -3    4.20    1.00
  -5  -4  -3    4.90    1.10
   5  -4   3    4.90    0.90
  -5   4  -3    3.90    1.00
   5   4   3    4.70    1.20
  -5   4  -3    5.30    1.00
   6  -4   3   -1.10    1.70
   6  -4   3   -1.10    0.80
  -6  -4  -3   -0.20    0.80
  -6  -4  -3    0.10    1.10
  -6  -4  -3   -0.50    0.80
  -6  -4  -3   -0.60    1.00
  -6  -4  -3    0.50    1.00
  -6  -4  -3    0.80    0.90
  -6   4  -3   -0.90    0.90
   6   4   3    0.60    1.10
   7  -4   3    0.30    1.60
  -7  -4  -3    0.00    0.90
  -7  -4  -3    0.60    0.90
  -7  -4  -3    1.20    1.40
  -7  -4  -3   -1.30    1.10
   7  -4   3    0.20    1.50
  -7  -4  -3    0.10    0.70
  -7  -4  -3    0.50    1.10
   7   4   3    0.10    1.20
  -7   4  -3    1.50    1.60
  -8  -4  -3    1.10    0.90
  -8  -4  -3    0.30    1.00
  -8  -4  -3    1.50    1.10
   8  -4   3   -1.40    1.30
  -8  -4  -3    0.20    0.80
  -8  -4  -3    0.50    0.80
  -8  -4  -3    0.50    0.80
  -8   4  -3    0.10    1.00
   8   4   3   -0.60    1.30
  -9  -4  -3    2.30    0.70
  -9  -4  -3    3.00    1.00
   9  -4   3    2.80    2.40
  -9  -4  -3    2.90    0.90
  -9  -4  -3    1.60    0.90
  -9  -4  -3    3.10    1.20
  -9   4  -3    1.80    0.70
  -8  -5   3    8.80    1.50
   8  -5  -3    5.50    1.10
  -8   5   3    8.30    1.00
  -7  -5   3   40.60    3.70
  -7  -5   3   46.70    3.80
   7  -5  -3   50.69    3.70
  -7  -5   3   45.20    3.70
  -7   5   3   55.29    3.60
  -7   5   3   45.60    3.90
   7   5  -3   50.09    3.80
  -6  -5   3   56.99    4.70
  -6  -5   3   60.49    4.60
  -6  -5   3   63.69    4.70
   6  -5  -3   62.19    4.70
  -6  -5   3   57.49    4.70
   6   5  -3   68.99    4.70
  -6   5   3   59.99    4.70
  -5  -5   3  117.39    8.90
  -5  -5   3  113.69    9.00
  -5  -5   3  110.49    8.90
  -5  -5   3  106.19    9.10
  -5  -5   3  121.89    9.00
   5  -5  -3  122.99    8.90
  -5  -5   3  122.79    9.00
   5  -5  -3  138.49    8.90
  -5   5   3  119.59    9.00
  -5   5   3  140.09    8.80
   5   5  -3  141.89    9.00
   4  -5  -3   49.10    3.60
  -4  -5   3   45.20    3.70
   4  -5  -3   45.80    3.70
  -4  -5   3   42.30    3.70
  -4  -5   3   44.50    3.90
  -4  -5   3   47.20    3.80
  -4  -5   3   42.40    3.80
  -4  -5   3   51.69    3.80
   4   5  -3   48.80    3.70
  -4   5   3   47.60    3.60
  -4   5   3   44.50    3.80
  -3  -5   3   59.69    4.20
   3  -5  -3   60.89    4.30
   3  -5  -3   52.29    3.90
  -3  -5   3   43.90    4.10
  -3  -5   3   47.30    4.20
  -3  -5   3   53.69    4.10
   3  -5  -3   55.29    4.30
   3  -5  -3   48.30    4.30
  -3  -5   3   52.39    4.20
   3  -5  -3   54.59    4.10
  -3   5   3   45.40    4.30
  -3   5   3   46.50    4.30
   3   5  -3   52.09    4.10
  -2  -5   3  121.19    8.50
  -2  -5   3  118.09    8.60
   2  -5  -3  117.99    8.40
   2  -5  -3  114.89    8.50
  -2  -5   3  115.19    8.60
   2  -5  -3  126.99    8.50
  -2  -5   3  127.89    8.50
   2  -5  -3   98.99    8.60
  -2   5   3  106.69    8.40
  -2   5   3  105.59    8.70
   2   5  -3  124.79    8.40
   1  -5  -3   33.30    3.60
  -1  -5   3   37.50    3.30
  -1  -5   3   45.10    3.40
  -1  -5   3   44.90    3.30
   1  -5  -3   38.70    3.10
   1  -5  -3   34.90    3.40
  -1  -5   3   41.30    3.50
   1  -5  -3   35.40    3.30
   1  -5  -3   37.50    3.40
  -1  -5   3   44.70    3.50
   1  -5  -3   38.50    3.40
  -1  -5   3   40.90    3.30
   1   5  -3   45.30    3.20
   0  -5  -3   31.20    2.80
   0  -5  -3   28.20    2.80
   0  -5  -3   30.30    3.00
   0  -5   3   35.80    3.10
   0  -5  -3   31.10    3.00
   0  -5  -3   36.60    3.10
   0  -5   3   38.50    3.00
   0  -5   3   36.50    2.90
   0  -5  -3   37.40    3.00
   0  -5   3   38.00    2.90
   0  -5   3   37.30    3.10
   0   5   3   27.80    2.90
   0   5  -3   35.70    2.80
  -1  -5  -3    1.50    1.30
   1  -5   3    2.50    1.00
  -1  -5  -3    1.20    0.90
  -1  -5  -3    0.50    1.30
   1  -5   3    1.70    1.10
   1  -5   3    1.70    1.20
  -1  -5  -3   -0.40    1.10
   1  -5   3    1.70    0.90
  -1  -5  -3    0.80    1.10
  -1  -5  -3    2.60    1.10
   1  -5   3    0.90    0.80
  -1   5  -3    2.80    0.90
   1   5   3    0.30    1.10
   1   5   3    2.30    0.90
  -2  -5  -3    9.00    1.40
   2  -5   3    9.60    1.80
   2  -5   3   11.40    1.80
   2  -5   3   13.20    1.60
   2  -5   3   10.00    1.50
  -2  -5  -3    8.40    1.60
  -2  -5  -3   10.80    1.60
   2  -5   3    7.60    1.60
  -2  -5  -3   11.40    1.70
  -2   5  -3   10.70    1.50
   2   5   3    8.90    1.90
   2   5   3   10.30    1.50
   3  -5   3    3.40    0.90
  -3  -5  -3    3.60    1.00
   3  -5   3    2.60    1.30
   3  -5   3    4.80    1.10
   3  -5   3    3.90    1.20
  -3  -5  -3    5.30    1.30
   3  -5   3    1.50    1.20
  -3  -5  -3    2.90    0.90
  -3  -5  -3    2.90    1.00
   3   5   3    1.10    1.20
  -3   5  -3    4.80    1.00
  -4  -5  -3   39.40    3.60
  -4  -5  -3   51.49    3.80
   4  -5   3   47.90    3.90
   4  -5   3   53.69    3.80
   4  -5   3   42.70    4.20
  -4  -5  -3   45.70    3.70
  -4  -5  -3   44.20    3.70
  -4   5  -3   52.59    3.70
  -5  -5  -3   85.69    6.90
  -5  -5  -3   90.39    7.00
   5  -5   3   90.79    7.10
   5  -5   3  110.19    7.00
  -5  -5  -3  105.09    7.10
  -5  -5  -3   85.89    7.00
  -5   5  -3  103.89    7.00
  -6  -5  -3   60.79    4.70
  -6  -5  -3   59.59    4.70
  -6  -5  -3   70.49    4.80
  -6  -5  -3   62.29    4.70
 -15   0   4   43.10    3.20
 -15   0   4   39.80    3.20
 -15   0   4   32.60    3.10
 -14   0   4  586.44   42.00
 -14   0   4  543.85   42.30
 -14   0   4  658.53   42.10
 -14   0   4  579.24   42.30
 -14   0   4  510.65   42.00
 -14   0   4  660.93   42.10
 -14   0   4  642.74   42.20
 -13   0   4  732.53   49.70
 -13   0   4  638.54   49.50
 -13   0   4  636.04   49.80
 -13   0   4  680.93   49.50
 -13   0   4  701.73   49.50
 -13   0   4  762.42   49.60
 -13   0   4  780.92   49.60
 -12   0   4  145.29   10.00
 -12   0   4  150.68    9.90
 -12   0   4  151.38    9.90
 -12   0   4  117.99   10.40
 -12   0   4  132.89    9.90
 -12   0   4  124.69   10.30
 -12   0   4  154.28   10.10
 -12   0   4  135.79    9.90
 -12   0   4  123.99    9.80
 -11   0   4  414.66   33.20
 -11   0   4  433.06   33.40
 -11   0   4  506.45   33.20
 -11   0   4  509.15   33.20
 -11   0   4  402.26   33.30
 -11   0   4  460.35   33.10
 -11   0   4  503.35   33.30
 -11   0   4  522.05   33.40
 -11   0   4  495.65   33.20
 -11   0   4  464.55   33.20
 -10   0   4  722.13   47.60
 -10   0   4  708.53   47.40
 -10   0   4  742.33   47.40
 -10   0   4  737.23   47.50
 -10   0   4  726.63   47.50
 -10   0   4  639.04   47.60
 -10   0   4  651.03   47.30
 -10   0   4  663.13   47.40
 -10   0   4  574.24   47.50
 -10   0   4  606.74   47.40
 -10   0   4  655.13   47.50
 -10   0   4  674.13   47.40
  -9   0   4   90.89    6.30
  -9   0   4   83.69    6.20
  -9   0   4   78.39    6.30
  -9   0   4   89.09    6.20
  -9   0   4   87.99    6.30
  -9   0   4   88.29    6.20
  -9   0   4   88.19    6.40
  -9   0   4   87.59    6.20
  -9   0   4   74.69    6.10
  -9   0   4   86.89    6.20
  -8   0   4   96.09    6.70
  -8   0   4   95.59    6.50
  -8   0   4   76.49    6.40
  -8   0   4   95.69    6.60
  -8   0   4   79.19    6.70
  -8   0   4   96.69    6.50
  -8   0   4   95.79    6.50
  -8   0   4   78.89    6.40
  -8   0   4   91.59    6.50
  -8   0   4   77.69    6.60
  -8   0   4  104.79    6.60
  -8   0   4   80.39    6.50
  -8   0   4   91.19    6.40
  -8   0   4  102.69    6.50
  -8   0   4   98.49    6.50
  -8   0   4   84.09    6.50
  -7   0   4  201.18   13.70
  -7   0   4  185.28   13.60
  -7   0   4  183.18   13.60
  -7   0   4  174.78   13.70
  -7   0   4  203.78   13.60
  -7   0   4  198.08   13.70
  -7   0   4  196.18   13.70
  -7   0   4  184.98   13.70
  -7   0   4  212.28   13.70
  -7   0   4  214.98   13.70
   7   0  -4  200.88   13.70
  -7   0   4  205.58   13.70
  -7   0   4  176.68   13.80
  -7   0   4  161.98   13.60
  -6   0   4  532.55   39.70
   6   0  -4  549.25   39.70
  -6   0   4  624.64   39.80
  -6   0   4  518.25   39.80
  -6   0   4  577.34   39.80
  -6   0   4  639.24   39.80
  -6   0   4  556.14   39.80
  -6   0   4  648.04   39.80
  -6   0   4  569.34   39.80
  -6   0   4  488.15   39.70
   6   0  -4  647.14   39.80
  -6   0   4  536.65   39.80
  -6   0   4  567.34   39.80
  -6   0   4  578.44   39.80
  -6   0   4  526.65   39.70
  -6   0   4  501.75   39.70
  -5   0   4   75.19    5.60
  -5   0   4   71.99    5.60
  -5   0   4   81.99    5.80
  -5   0   4   86.49    5.60
   5   0  -4   69.49    5.50
  -5   0   4   80.69    5.60
   5   0  -4   82.39    5.60
  -5   0   4   77.39    5.60
  -4   0   4 7620.94  473.75
  -4   0   4 6865.51  473.75
  -4   0   4 6133.09  473.75
  -4   0   4 7639.64  473.75
   4   0  -4 6442.26  473.75
  -4   0   4 6293.77  473.75
  -4   0   4 6184.88  473.75
   4   0  -4 6955.90  473.85
  -3   0   4 2227.48  174.48
  -3   0   4 2489.55  174.48
  -3   0   4 2835.22  174.48
   3   0  -4 2235.68  174.38
  -3   0   4 2567.14  174.48
   3   0  -4 2327.57  174.48
  -3   0   4 2703.43  174.48
  -3   0   4 2536.45  174.48
  -2   0   4 9926.71  663.23
   2   0  -4 9012.60  663.13
   0   0  -4 2264.77  150.88
   0   0  -4 2174.18  150.88
   0   0   4 2140.29  150.88
   0   0  -4 2095.79  150.88
   0   0   4 2091.29  150.88
  -1   0  -4 5285.77  341.47
   1   0   4 4831.32  341.47
   1   0   4 4521.45  341.47
  -1   0  -4 4656.53  341.47
   1   0   4 5090.29  341.47
  -2   0  -4 1369.66  102.99
  -2   0  -4 1500.45  102.99
  -2   0  -4 1413.96  102.99
  -2   0  -4 1662.53  102.99
   2   0   4 1434.16  102.99
  -2   0  -4 1408.46  102.99
   2   0   4 1548.84  102.99
   2   0   4 1421.86  102.99
  -3   0  -4   71.09    5.70
   3   0   4   83.79    5.80
  -3   0  -4   80.29    5.70
  -3   0  -4   86.09    5.70
  -3   0  -4   80.59    5.70
  -3   0  -4   87.29    5.70
  -3   0  -4   74.29    5.80
  -3   0  -4   73.89    5.80
   3   0   4   83.79    5.80
  -4   0  -4  298.17   22.80
  -4   0  -4  321.87   22.80
  -4   0  -4  321.27   22.80
  -4   0  -4  323.77   22.80
  -4   0  -4  317.67   22.70
  -4   0  -4  367.46   22.80
   4   0   4  342.47   22.80
  -4   0  -4  312.37   22.90
  -4   0  -4  280.07   22.70
  -4   0  -4  346.07   22.80
  -4   0  -4  297.67   22.90
  -4   0  -4  334.57   22.80
  -4   0  -4  335.97   22.80
  -5   0  -4  725.53   48.20
  -5   0  -4  688.43   48.20
  -5   0  -4  625.44   48.30
  -5   0  -4  736.13   48.20
  -5   0  -4  662.53   48.20
  -5   0  -4  716.53   48.20
   5   0   4  686.73   48.20
  -5   0  -4  688.63   48.10
  -5   0  -4  706.93   48.20
  -5   0  -4  665.03   48.30
  -5   0  -4  659.93   48.20
  -5   0  -4  672.43   48.20
  -5   0  -4  689.93   48.20
   6   0   4  450.75   30.00
  -6   0  -4  389.06   30.10
  -6   0  -4  407.36   29.90
   6   0   4  460.65   30.00
  -6   0  -4  396.16   30.00
  -6   0  -4  440.56   30.00
  -6   0  -4  435.76   30.00
  -6   0  -4  454.85   30.00
  -6   0  -4  379.76   30.00
  -6   0  -4  432.46   30.50
  -6   0  -4  419.16   30.10
  -6   0  -4  433.16   30.00
  -6   0  -4  441.66   30.00
  -7   0  -4 1162.88   84.19
  -7   0  -4 1251.77   84.19
  -7   0  -4 1181.08   84.29
  -7   0  -4 1067.29   84.29
  -7   0  -4 1042.00   84.19
   7   0   4 1240.58   84.29
  -7   0  -4 1290.47   84.29
  -7   0  -4 1247.28   84.19
  -7   0  -4 1303.17   84.39
  -7   0  -4 1199.28   84.09
  -7   0  -4 1282.47   84.19
  -7   0  -4 1232.48   84.29
  -7   0  -4 1108.89   84.19
  -8   0  -4  590.84   43.20
  -8   0  -4  569.94   43.20
  -8   0  -4  653.33   43.40
  -8   0  -4  596.34   43.20
   8   0   4  655.83   43.30
  -8   0  -4  637.74   43.20
  -8   0  -4  661.83   43.20
  -8   0  -4  606.14   43.30
  -8   0  -4  526.35   43.20
  -8   0  -4  648.04   43.20
  -8   0  -4  637.24   43.30
  -8   0  -4  555.54   43.40
  -8   0  -4  634.34   43.30
  -8   0  -4  632.34   43.20
  -9   0  -4  628.44   44.20
  -9   0  -4  604.84   44.50
  -9   0  -4  611.54   44.20
  -9   0  -4  670.43   44.40
  -9   0  -4  632.04   44.20
  -9   0  -4  655.23   44.30
  -9   0  -4  660.03   44.20
   9   0   4  647.24   44.30
  -9   0  -4  586.74   44.20
  -9   0  -4  659.73   44.20
  -9   0  -4  628.14   44.30
  -9   0  -4  629.54   44.10
  -9   0  -4  561.34   44.20
 -10   0  -4  252.97   20.50
 -10   0  -4  303.17   20.50
 -10   0  -4  285.27   20.40
 -10   0  -4  282.07   20.50
 -10   0  -4  295.57   20.80
 -10   0  -4  307.17   20.50
 -10   0  -4  310.47   20.70
 -10   0  -4  262.37   20.40
 -10   0  -4  302.87   20.50
 -10   0  -4  304.87   20.60
  10   0   4  289.37   20.60
 -10   0  -4  280.47   20.50
 -11   0  -4  356.26   24.50
 -11   0  -4  348.87   24.50
 -11   0  -4  295.77   24.40
 -11   0  -4  355.56   24.50
 -11   0  -4  373.46   24.60
  11   0   4  317.17   24.50
 -11   0  -4  333.97   24.50
 -11   0  -4  378.06   24.90
 -11   0  -4  361.26   24.60
 -12   0  -4  219.38   16.20
 -12   0  -4  243.28   16.60
 -12   0  -4  219.48   16.20
 -12   0  -4  247.48   16.30
 -12   0  -4  218.28   16.20
 -12   0  -4  229.38   16.20
 -12   0  -4  224.48   16.30
 -13   0  -4    1.60    0.50
 -13   0  -4    0.70    1.00
 -15  -1   4    0.10    1.00
 -15  -1   4    2.00    2.10
 -15  -1   4   -0.20    0.80
 -15  -1   4    1.00    0.70
 -15   1   4    0.60    0.90
 -15   1   4    0.10    1.00
 -15   1   4   -0.10    0.60
 -14  -1   4   13.60    1.40
 -14  -1   4   12.20    1.60
 -14  -1   4   12.00    1.60
 -14  -1   4   10.70    1.70
 -14  -1   4   13.50    2.70
 -14  -1   4   11.40    2.00
 -14   1   4   10.60    1.80
 -14   1   4   11.70    1.50
 -14   1   4    9.90    1.70
 -14   1   4   11.70    1.70
 -13  -1   4   -0.80    0.70
 -13  -1   4    0.10    1.00
 -13  -1   4    0.70    1.00
 -13  -1   4    1.50    0.80
 -13  -1   4   -1.50    1.10
 -13  -1   4    0.10    0.90
 -13   1   4    0.00    0.80
 -13   1   4   -0.70    0.60
 -13   1   4   -0.10    0.80
 -13   1   4    0.40    0.90
 -13   1   4   -0.70    0.70
 -12  -1   4    1.40    1.00
 -12  -1   4   -1.40    0.90
 -12  -1   4    0.60    0.90
 -12  -1   4    0.10    0.70
 -12   1   4   -0.70    1.10
 -12   1   4    0.00    1.00
 -12   1   4    0.00    0.80
 -12   1   4   -0.70    0.60
 -11  -1   4   55.79    4.20
 -11  -1   4   56.19    4.30
 -11  -1   4   53.69    4.50
 -11  -1   4   60.49    4.20
 -11  -1   4   55.59    4.20
 -11  -1   4   49.70    4.30
 -11  -1   4   58.79    4.20
 -11  -1   4   56.69    4.50
 -11  -1   4   52.29    4.40
 -11   1   4   57.99    4.30
 -11   1   4   59.59    4.20
 -11   1   4   57.49    4.20
 -11   1   4   48.80    4.20
 -11   1   4   54.99    4.10
 -11   1   4   59.29    4.40
 -11   1   4   57.39    4.20
 -11   1   4   47.00    4.10
 -11   1   4   51.09    4.80
 -10  -1   4  407.56   27.70
 -10  -1   4  414.96   27.70
 -10  -1   4  429.26   27.70
 -10  -1   4  405.46   27.80
 -10  -1   4  438.16   27.60
 -10  -1   4  394.86   27.70
 -10  -1   4  416.26   27.80
 -10  -1   4  382.66   27.70
 -10  -1   4  382.36   27.60
 -10  -1   4  397.76   27.70
 -10  -1   4  381.86   28.10
 -10  -1   4  370.96   27.60
 -10  -1   4  371.46   27.80
 -10  -1   4  362.96   27.90
 -10   1   4  383.46   27.80
 -10   1   4  342.07   27.60
 -10   1   4  369.76   27.60
 -10   1   4  425.96   27.80
 -10   1   4  338.77   27.90
 -10   1   4  424.76   27.70
 -10   1   4  411.76   27.70
 -10   1   4  365.26   27.70
 -10   1   4  400.16   27.60
 -10   1   4  404.96   27.70
  -9  -1   4  258.97   18.30
   9  -1  -4  243.08   18.20
  -9  -1   4  251.17   18.30
  -9  -1   4  231.08   18.20
  -9  -1   4  260.27   18.20
  -9  -1   4  271.57   18.40
  -9  -1   4  264.37   18.30
  -9  -1   4  275.17   18.30
  -9  -1   4  274.67   18.30
  -9  -1   4  265.97   18.20
  -9  -1   4  241.28   18.40
  -9  -1   4  245.78   18.30
  -9  -1   4  279.27   18.30
  -9  -1   4  246.78   18.10
  -9  -1   4  250.97   18.20
  -9   1   4  257.97   18.40
  -9   1   4  267.67   18.30
  -9   1   4  264.97   18.20
  -9   1   4  226.98   18.50
  -9   1   4  224.88   18.20
  -9   1   4  274.27   18.30
  -9   1   4  271.47   18.30
  -9   1   4  252.27   18.20
  -9   1   4  279.37   18.30
  -9   1   4  274.77   18.30
  -9   1   4  256.57   18.30
  -8  -1   4  544.45   39.40
  -8  -1   4  617.44   39.30
  -8  -1   4  551.14   39.30
  -8  -1   4  539.55   39.30
  -8  -1   4  564.04   39.30
  -8  -1   4  578.34   39.20
  -8  -1   4  560.24   39.20
  -8  -1   4  583.04   39.30
  -8  -1   4  587.44   39.30
  -8  -1   4  553.54   39.30
  -8  -1   4  527.45   39.20
   8  -1  -4  562.74   39.20
  -8  -1   4  537.85   39.40
  -8  -1   4  478.85   39.50
  -8  -1   4  592.54   39.30
  -8  -1   4  556.44   39.20
  -8   1   4  604.14   39.30
  -8   1   4  501.45   39.20
  -8   1   4  574.04   39.20
  -8   1   4  567.64   39.40
  -8   1   4  464.35   39.30
  -8   1   4  527.15   39.30
  -8   1   4  605.04   39.30
  -8   1   4  605.44   39.30
  -8   1   4  581.54   39.20
  -8   1   4  559.94   39.30
  -7  -1   4 2179.18  149.39
  -7  -1   4 2108.59  149.39
   7  -1  -4 2388.56  149.39
  -7  -1   4 2063.69  149.39
  -7  -1   4 2148.49  149.39
  -7  -1   4 2226.78  149.29
  -7  -1   4 2095.99  149.29
  -7  -1   4 2023.00  149.39
  -7  -1   4 1946.91  149.39
  -7  -1   4 2142.99  149.49
  -7  -1   4 2385.16  149.39
  -7  -1   4 2131.49  149.39
  -7  -1   4 1999.30  149.49
  -7  -1   4 2176.78  149.39
  -7  -1   4 2212.38  149.39
  -7  -1   4 2194.38  149.29
  -7   1   4 1919.91  149.39
  -7   1   4 2152.38  149.39
  -7   1   4 2134.59  149.39
  -7   1   4 2163.38  149.29
  -7   1   4 2308.07  149.39
  -7   1   4 2110.89  149.49
   7   1  -4 1995.70  149.39
  -7   1   4 2130.09  149.39
  -7   1   4 2178.08  149.39
  -7   1   4 2022.10  149.49
  -7   1   4 2273.77  149.49
  -7   1   4 1888.21  149.49
  -6  -1   4  362.56   24.50
  -6  -1   4  337.37   24.50
  -6  -1   4  331.57   24.60
  -6  -1   4  310.77   24.60
  -6  -1   4  310.37   24.60
  -6  -1   4  349.67   24.50
  -6  -1   4  334.37   24.60
  -6  -1   4  354.46   24.60
  -6  -1   4  324.27   24.50
  -6  -1   4  354.86   24.50
  -6  -1   4  364.66   24.50
  -6  -1   4  366.46   24.50
  -6  -1   4  356.56   24.50
  -6   1   4  309.67   24.50
  -6   1   4  355.56   24.50
  -6   1   4  329.67   24.60
  -6   1   4  361.06   24.70
  -6   1   4  376.36   24.60
  -6   1   4  385.26   24.70
  -6   1   4  362.76   24.50
  -6   1   4  347.57   24.50
  -6   1   4  394.76   24.60
  -6   1   4  323.17   24.60
  -6   1   4  328.57   24.60
  -6   1   4  331.57   24.60
   6   1  -4  356.86   24.50
   6   1  -4  376.96   24.50
  -6   1   4  367.86   24.50
  -5  -1   4 1883.61  135.29
  -5  -1   4 1853.51  135.29
  -5  -1   4 1852.81  135.19
   5  -1  -4 1937.11  135.19
   5  -1  -4 2110.89  135.29
  -5  -1   4 1955.80  135.19
  -5  -1   4 1720.23  135.19
  -5  -1   4 2046.80  135.19
  -5  -1   4 1894.91  135.19
  -5  -1   4 1747.53  135.19
  -5  -1   4 2004.00  135.39
  -5  -1   4 2161.98  135.19
  -5  -1   4 1987.40  135.19
  -5   1   4 2145.39  135.19
  -5   1   4 1778.32  135.29
  -5   1   4 1711.53  135.19
   5   1  -4 1645.54  135.19
   5   1  -4 2033.30  135.29
  -5   1   4 2069.99  135.19
  -5   1   4 1795.52  135.29
  -5   1   4 2198.48  135.19
   4  -1  -4  979.80   65.59
  -4  -1   4  924.11   65.59
  -4  -1   4  891.91   65.59
  -4  -1   4  993.70   65.59
  -4  -1   4 1048.40   65.59
  -4  -1   4  994.60   65.59
  -4  -1   4  910.81   65.59
   4  -1  -4  838.32   65.49
  -4   1   4  836.52   65.59
  -4   1   4  845.62   65.59
  -4   1   4 1005.80   65.59
  -4   1   4  963.00   65.59
   4   1  -4  800.92   65.59
  -4   1   4  995.50   65.59
  -4   1   4 1006.10   65.59
   3  -1  -4  832.82   52.69
  -3  -1   4  760.32   52.69
  -3  -1   4  752.62   52.69
  -3  -1   4  834.22   52.69
  -3  -1   4  722.33   52.69
  -3  -1   4  691.83   52.69
  -3  -1   4  756.62   52.69
  -3  -1   4  765.82   52.89
   3  -1  -4  681.13   52.69
   3  -1  -4  745.23   52.79
  -3   1   4  735.63   52.69
  -3   1   4  795.12   52.69
  -3   1   4  674.53   52.69
   3   1  -4  864.81   52.69
  -3   1   4  821.82   52.69
   3   1  -4  633.54   52.69
  -3   1   4  710.43   52.69
  -2  -1   4  212.78   15.00
   2  -1  -4  211.48   14.90
   2  -1  -4  211.78   14.90
   2  -1  -4  198.28   15.00
  -2  -1   4  209.28   15.00
  -2  -1   4  237.58   15.00
   2  -1  -4  229.48   15.00
  -2  -1   4  204.58   15.00
  -2  -1   4  182.68   15.00
  -2  -1   4  232.38   15.00
  -2   1   4  240.88   15.00
  -2   1   4  191.78   15.00
  -2   1   4  188.38   15.00
  -2   1   4  228.18   15.00
  -1  -1   4  298.77   20.70
  -1  -1   4  310.77   20.80
  -1  -1   4  281.27   20.70
   1  -1  -4  267.37   20.70
   1  -1  -4  323.07   20.70
  -1  -1   4  264.77   20.70
   1  -1  -4  283.17   20.70
   1  -1  -4  311.57   20.70
  -1   1   4  286.67   20.70
  -1   1   4  281.17   20.70
  -1   1   4  329.87   20.70
  -1   1   4  323.07   20.70
  -1   1   4  314.67   20.70
   1   1  -4  278.67   20.70
   1   1  -4  268.57   20.70
   0  -1   4  258.97   18.30
   0  -1   4  253.47   18.30
   0  -1  -4  236.18   18.20
   0  -1  -4  248.98   18.20
   0  -1   4  243.48   18.30
   0  -1  -4  297.17   18.20
   0   1  -4  244.98   18.20
   0   1  -4  238.78   18.30
   0   1   4  302.87   18.30
   0   1   4  271.47   18.30
  -1  -1  -4 1251.07   89.09
   1  -1   4 1409.76   89.19
   1  -1   4 1079.19   89.09
  -1  -1  -4 1167.28   89.09
  -1  -1  -4 1390.56   89.19
  -1  -1  -4 1446.26   89.19
   1  -1   4 1090.69   89.19
  -1  -1  -4 1256.07   89.19
   1  -1   4 1351.26   89.09
  -1  -1  -4 1423.66   89.19
  -1  -1  -4 1149.69   89.09
  -1   1  -4 1200.18   89.19
   1   1   4 1345.47   89.19
  -1   1  -4 1250.17   89.19
   1   1   4 1278.97   89.19
   2  -1   4 1288.77   89.09
  -2  -1  -4 1325.77   88.99
   2  -1   4 1373.16   88.99
  -2  -1  -4 1307.47   88.99
  -2  -1  -4 1248.28   89.09
  -2  -1  -4 1326.77   88.99
   2  -1   4 1071.09   88.99
  -2  -1  -4 1196.18   88.99
  -2  -1  -4 1232.18   88.99
  -2   1  -4 1253.57   88.99
   2   1   4 1318.47   89.09
  -2   1  -4 1390.06   88.99
  -2   1  -4 1166.28   88.99
  -2   1  -4 1362.76   88.99
  -2   1  -4 1201.78   89.09
  -3  -1  -4  145.39   10.40
   3  -1   4  126.39   10.40
  -3  -1  -4  159.78   10.40
   3  -1   4  133.39   10.40
  -3  -1  -4  133.19   10.50
  -3  -1  -4  168.18   10.50
  -3  -1  -4  155.68   10.40
  -3  -1  -4  148.99   10.40
  -3  -1  -4  143.69   10.40
   3  -1   4  156.78   10.40
  -3  -1  -4  133.19   10.40
  -3  -1  -4  133.29   10.40
  -3  -1  -4  133.49   10.50
  -3  -1  -4  154.88   10.50
  -3  -1  -4  137.79   10.50
  -3  -1  -4  150.28   10.50
  -3   1  -4  163.88   10.70
  -3   1  -4  156.18   10.40
  -3   1  -4  161.98   10.40
  -3   1  -4  169.78   10.40
  -3   1  -4  135.49   10.40
   3   1   4  154.58   10.50
  -3   1  -4  139.39   10.40
   4  -1   4 1904.21  150.68
  -4  -1  -4 1972.20  150.78
  -4  -1  -4 2191.78  150.78
  -4  -1  -4 2174.88  150.78
  -4  -1  -4 2109.89  150.78
  -4  -1  -4 1920.71  150.78
  -4  -1  -4 2222.78  150.68
  -4  -1  -4 2152.78  150.78
  -4  -1  -4 2397.06  150.78
  -4  -1  -4 2363.36  150.68
  -4  -1  -4 2152.18  150.68
  -4  -1  -4 2053.09  150.68
   4  -1   4 1967.80  150.68
   4  -1   4 2382.56  150.68
  -4  -1  -4 2071.39  150.78
  -4  -1  -4 1946.51  150.68
  -4  -1  -4 2171.98  150.78
  -4   1  -4 2049.49  150.68
  -4   1  -4 2384.06  150.78
  -4   1  -4 2212.48  150.68
  -4   1  -4 2091.49  150.78
  -4   1  -4 2300.57  150.88
  -4   1  -4 2091.39  150.78
   4   1   4 2281.57  150.78
  -4   1  -4 2302.87  150.78
  -4   1  -4 2075.39  150.78
  -5  -1  -4  745.33   50.49
  -5  -1  -4  733.73   50.59
  -5  -1  -4  725.23   50.49
  -5  -1  -4  747.53   50.49
  -5  -1  -4  738.13   50.49
  -5  -1  -4  683.63   50.59
  -5  -1  -4  763.52   50.59
  -5  -1  -4  655.53   50.59
  -5  -1  -4  686.53   50.49
  -5  -1  -4  740.73   50.49
  -5  -1  -4  732.23   50.49
  -5  -1  -4  677.83   50.49
   5  -1   4  617.64   50.59
  -5  -1  -4  746.03   50.59
  -5  -1  -4  762.52   50.59
   5   1   4  742.83   50.49
  -5   1  -4  694.73   50.69
  -5   1  -4  727.83   50.49
  -5   1  -4  737.53   50.59
  -5   1  -4  666.73   50.49
  -5   1  -4  741.03   50.49
  -5   1  -4  738.33   50.49
  -5   1  -4  753.92   50.49
  -5   1  -4  716.63   50.49
  -6  -1  -4  479.45   32.00
  -6  -1  -4  470.85   32.00
  -6  -1  -4  446.96   31.90
  -6  -1  -4  442.26   31.90
  -6  -1  -4  460.15   31.90
  -6  -1  -4  435.26   31.90
  -6  -1  -4  461.95   31.90
  -6  -1  -4  475.05   31.90
  -6  -1  -4  493.65   32.00
  -6  -1  -4  405.16   31.90
  -6  -1  -4  413.06   32.00
  -6  -1  -4  452.85   31.90
  -6   1  -4  438.46   31.90
  -6   1  -4  444.76   31.90
  -6   1  -4  423.26   31.90
  -6   1  -4  450.55   31.80
  -6   1  -4  438.56   32.00
  -6   1  -4  463.05   31.90
   6   1   4  485.85   31.90
  -6   1  -4  444.86   32.10
  -6   1  -4  485.75   31.90
  -6   1  -4  483.15   32.10
  -6   1  -4  427.66   31.90
  -6   1  -4  465.55   31.90
  -7  -1  -4  291.47   20.50
  -7  -1  -4  281.67   20.40
  -7  -1  -4  265.57   20.40
  -7  -1  -4  297.07   20.50
  -7  -1  -4  268.07   20.40
  -7  -1  -4  301.67   20.50
  -7  -1  -4  244.18   20.40
  -7  -1  -4  275.97   20.60
  -7  -1  -4  301.87   20.50
  -7  -1  -4  292.37   20.50
  -7  -1  -4  303.67   20.40
  -7   1  -4  264.37   20.60
  -7   1  -4  278.47   20.70
  -7   1  -4  299.77   20.70
  -7   1  -4  281.27   20.50
  -7   1  -4  291.57   20.40
  -7   1  -4  314.27   20.50
  -7   1  -4  291.27   20.50
   7   1   4  299.37   20.50
  -7   1  -4  315.57   20.40
  -7   1  -4  317.77   20.50
  -8  -1  -4  104.19    7.70
  -8  -1  -4   99.49    7.80
  -8  -1  -4  115.29    7.80
  -8  -1  -4  102.39    8.00
  -8  -1  -4  108.79    7.80
  -8  -1  -4  105.89    7.90
  -8  -1  -4  113.39    7.90
  -8  -1  -4  109.49    7.80
  -8  -1  -4  100.29    7.80
  -8  -1  -4  106.09    8.00
  -8  -1  -4  104.79    7.70
  -8  -1  -4  114.89    8.10
  -8   1  -4  109.99    8.10
  -8   1  -4  105.19    7.90
  -8   1  -4  103.89    8.20
  -8   1  -4  106.99    7.80
  -8   1  -4  116.49    7.80
  -8   1  -4  113.19    7.80
  -8   1  -4  113.69    7.80
  -8   1  -4  107.99    7.80
   8   1   4  102.69    7.90
  -9  -1  -4    0.60    0.40
  -9  -1  -4    2.70    0.80
  -9  -1  -4    1.20    0.80
  -9  -1  -4    1.40    0.90
  -9  -1  -4    1.40    0.80
  -9  -1  -4    2.00    0.80
  -9  -1  -4    0.20    1.00
  -9  -1  -4    2.00    0.90
  -9  -1  -4    1.40    0.80
  -9  -1  -4    3.00    1.00
  -9  -1  -4    1.70    1.00
   9  -1   4    2.10    1.00
  -9   1  -4    1.90    0.80
   9   1   4    2.30    1.40
  -9   1  -4    2.60    0.90
  -9   1  -4    2.40    0.90
  -9   1  -4    0.50    0.90
  -9   1  -4    2.50    0.90
  -9   1  -4    1.10    0.90
  -9   1  -4    0.90    0.50
 -10  -1  -4   53.29    4.60
 -10  -1  -4   63.49    4.40
 -10  -1  -4   60.89    4.60
 -10  -1  -4   61.59    4.40
  10  -1   4   62.79    4.60
 -10  -1  -4   57.59    4.50
 -10  -1  -4   57.09    4.30
 -10  -1  -4   58.49    4.50
 -10  -1  -4   60.19    4.50
 -10  -1  -4   65.79    4.80
 -10  -1  -4   59.79    4.70
 -10  -1  -4   49.30    4.40
 -10  -1  -4   65.59    4.50
 -10   1  -4   55.89    4.60
 -10   1  -4   59.79    4.80
 -10   1  -4   60.69    4.50
 -10   1  -4   62.09    4.50
 -10   1  -4   60.89    5.20
 -10   1  -4   54.59    4.40
 -10   1  -4   57.59    4.50
 -10   1  -4   49.90    4.60
 -10   1  -4   60.69    4.50
 -11  -1  -4    5.10    1.00
 -11  -1  -4    3.40    1.10
 -11  -1  -4    3.50    1.20
 -11  -1  -4    4.80    1.00
 -11  -1  -4    3.70    1.00
 -11  -1  -4    5.00    1.20
 -11  -1  -4    7.60    1.20
 -11  -1  -4    5.00    1.00
 -11  -1  -4    7.90    1.60
  11  -1   4    5.50    1.20
 -11  -1  -4    6.60    1.20
 -11   1  -4    5.50    1.10
 -11   1  -4    6.40    1.20
 -11   1  -4    4.40    1.10
 -11   1  -4    6.70    1.20
 -11   1  -4    5.50    1.00
 -12  -1  -4   73.09    5.20
  12  -1   4   62.29    5.20
 -12  -1  -4   72.59    5.20
 -12  -1  -4   70.49    5.20
 -12  -1  -4   74.59    5.20
 -12   1  -4   69.49    5.30
 -12   1  -4   65.09    5.20
 -12   1  -4   70.49    5.20
 -12   1  -4   74.69    5.20
 -12   1  -4   63.09    5.40
 -14  -2   4    6.30    1.40
 -14  -2   4    8.70    1.20
 -14  -2   4    9.90    1.60
 -14   2   4    8.20    1.30
 -14   2   4    6.60    1.50
 -14   2   4    6.60    1.30
 -13  -2   4   -0.80    0.60
 -13  -2   4    1.10    1.00
 -13  -2   4    1.70    1.00
 -13  -2   4    1.90    0.70
 -13  -2   4   -0.30    0.50
 -13  -2   4   -1.20    1.50
 -13   2   4    0.30    0.90
 -13   2   4   -0.30    0.70
 -13   2   4    2.00    0.80
 -13   2   4    0.30    0.70
 -12  -2   4    1.40    1.20
 -12  -2   4    4.20    1.60
 -12  -2   4    0.00    1.30
 -12   2   4    1.30    0.80
 -12   2   4    4.10    0.90
 -12   2   4    2.70    0.90
 -11  -2   4    9.70    2.40
 -11  -2   4   13.10    2.60
 -11   2   4   10.10    1.70
 -11   2   4    9.50    1.90
 -11   2   4   11.20    1.50
 -11   2   4   13.10    1.30
 -10  -2   4    8.50    1.90
 -10  -2   4    9.40    1.50
 -10  -2   4   10.00    1.60
 -10   2   4    8.00    1.70
 -10   2   4   11.60    1.40
 -10   2   4   10.40    1.50
 -10   2   4    8.00    1.20
 -10   2   4    9.40    1.50
 -10   2   4   10.80    1.20
   9  -2  -4   32.00    2.60
  -9  -2   4   30.00    3.10
  -9  -2   4   32.10    2.70
  -9   2   4   33.10    2.70
  -9   2   4   34.40    2.70
  -9   2   4   32.80    3.10
  -9   2   4   38.30    3.00
  -9   2   4   27.50    2.90
  -9   2   4   28.80    2.50
  -9   2   4   35.30    2.50
  -8  -2   4    3.90    1.00
  -8  -2   4    1.20    0.90
  -8  -2   4    3.60    0.90
  -8  -2   4    2.20    0.70
  -8  -2   4    2.10    1.80
  -8  -2   4    2.20    0.90
  -8  -2   4    3.00    0.80
  -8  -2   4    3.00    0.70
  -8   2   4    2.10    0.70
  -8   2   4    1.80    1.30
  -7  -2   4    0.90    1.00
  -7  -2   4    1.80    1.10
   7  -2  -4    3.20    0.60
  -7  -2   4    3.30    0.90
  -7  -2   4    4.50    1.20
  -7   2   4    0.60    0.90
  -7   2   4    1.50    1.00
  -7   2   4    2.30    0.60
  -7   2   4    2.40    0.70
  -6  -2   4    0.80    1.00
  -6  -2   4   -1.30    1.00
   6  -2  -4    0.00    0.50
  -6  -2   4   -0.50    1.00
  -6  -2   4    0.40    0.70
  -6  -2   4    0.90    0.80
  -6  -2   4    1.60    0.70
  -6  -2   4   -0.20    0.60
  -6   2   4   -0.40    0.70
  -6   2   4   -1.10    0.70
  -6   2   4   -0.50    0.60
  -5  -2   4  148.59   11.70
  -5  -2   4  170.18   11.60
  -5  -2   4  144.69   11.60
  -5  -2   4  152.28   11.60
   5  -2  -4  170.08   11.60
  -5  -2   4  147.69   11.60
  -5  -2   4  166.98   11.60
  -5  -2   4  172.38   11.70
  -5  -2   4  148.69   11.60
  -5  -2   4  156.48   11.70
   5  -2  -4  174.48   11.50
  -5  -2   4  162.58   11.60
  -5   2   4  165.78   11.50
  -5   2   4  182.68   11.60
  -5   2   4  183.78   11.60
  -4  -2   4   15.20    1.70
   4  -2  -4   16.80    1.70
  -4  -2   4   20.40    1.70
  -4  -2   4   16.90    1.90
  -4  -2   4   16.70    1.90
   4  -2  -4   21.70    1.50
   4  -2  -4   23.10    2.20
  -4  -2   4   16.50    1.60
  -4  -2   4   19.50    1.60
  -4  -2   4   20.70    1.70
  -4  -2   4   15.90    2.50
  -4  -2   4   17.10    2.00
  -4  -2   4   18.90    1.70
  -4  -2   4   19.40    1.80
  -4  -2   4   18.30    1.70
   4  -2  -4   20.40    1.60
  -4  -2   4   15.40    1.90
  -4  -2   4   18.80    1.80
  -4   2   4   21.50    1.70
  -4   2   4   20.40    1.70
  -4   2   4   21.80    1.70
  -4   2   4   21.60    1.60
   3  -2  -4  364.56   27.20
   3  -2  -4  423.06   27.20
  -3  -2   4  365.46   27.30
  -3  -2   4  366.76   27.20
  -3  -2   4  374.86   27.20
  -3  -2   4  397.56   27.30
  -3  -2   4  414.16   27.30
  -3  -2   4  339.07   27.30
  -3  -2   4  401.36   27.30
  -3  -2   4  386.16   27.20
   3  -2  -4  382.26   27.20
  -3  -2   4  344.67   27.20
  -3  -2   4  372.16   27.30
  -3  -2   4  390.26   27.20
  -3   2   4  370.66   27.20
  -3   2   4  421.96   27.30
  -3   2   4  424.96   27.30
  -3   2   4  421.36   27.20
  -2  -2   4    0.40    0.60
  -2  -2   4    2.20    0.60
   2  -2  -4    0.70    0.70
  -2  -2   4    1.20    0.60
  -2  -2   4    0.90    0.50
  -2  -2   4    0.70    0.80
  -2  -2   4    1.40    0.90
  -2  -2   4    1.00    0.70
  -2  -2   4    3.40    1.10
   2  -2  -4    0.50    0.80
   2  -2  -4    2.00    0.60
   2  -2  -4    2.80    0.50
   2  -2  -4    3.00    0.60
   2  -2  -4    0.70    0.40
   2  -2  -4    1.80    0.40
   2   2  -4    0.60    0.80
  -2   2   4    0.90    0.70
  -1  -2   4   15.60    1.50
  -1  -2   4   19.60    1.50
   1  -2  -4   14.40    1.40
  -1  -2   4   17.30    1.60
   1  -2  -4   18.90    1.80
   1  -2  -4   15.70    1.60
  -1  -2   4   14.80    1.50
   1  -2  -4   16.20    1.30
  -1  -2   4   16.20    1.40
   1  -2  -4   19.00    1.70
  -1  -2   4   15.10    1.50
   1  -2  -4   16.70    1.40
  -1  -2   4   15.40    1.70
  -1  -2   4   20.20    2.40
  -1  -2   4   15.00    1.50
  -1   2   4   15.30    1.50
  -1   2   4   17.10    1.60
   1   2  -4   17.30    1.40
  -1   2   4   16.30    1.50
   0  -2  -4  343.47   24.40
   0  -2   4  382.66   24.40
   0  -2  -4  322.47   24.40
   0  -2  -4  330.97   24.30
   0  -2   4  355.66   24.30
   0  -2   4  307.17   24.30
   0  -2   4  337.27   24.30
   0  -2   4  334.77   24.30
   0  -2  -4  337.67   24.30
   0  -2   4  367.86   24.30
   0  -2  -4  389.66   24.40
   0  -2  -4  345.87   24.30
   0  -2  -4  318.17   24.30
   0  -2  -4  330.27   24.30
   0  -2  -4  332.07   24.30
   0   2  -4  367.46   24.30
   0   2   4  350.36   24.30
   0   2   4  316.57   24.40
   0   2   4  399.96   24.30
   0   2  -4  348.67   24.30
  -1  -2  -4  249.18   18.90
  -1  -2  -4  266.97   19.00
  -1  -2  -4  266.87   18.90
  -1  -2  -4  263.07   19.10
  -1  -2  -4  280.27   19.00
  -1  -2  -4  266.47   18.90
   1  -2   4  266.07   19.00
   1  -2   4  283.87   18.90
   1  -2   4  290.67   19.00
   1  -2   4  276.47   19.00
   1  -2   4  263.57   19.00
  -1  -2  -4  272.37   19.00
  -1  -2  -4  270.07   19.00
   1   2   4  254.57   19.00
   1   2   4  262.87   19.00
  -1   2  -4  276.07   19.00
  -1   2  -4  270.77   19.00
  -2  -2  -4  114.09    8.40
  -2  -2  -4  121.39    8.40
  -2  -2  -4  122.39    8.30
  -2  -2  -4  109.49    8.30
   2  -2   4  107.69    8.30
  -2  -2  -4  112.59    8.30
  -2  -2  -4  113.69    8.30
   2  -2   4  108.69    8.30
   2  -2   4  121.89    8.30
  -2  -2  -4  104.99    8.20
  -2  -2  -4  113.99    8.20
   2  -2   4  110.79    8.30
  -2  -2  -4  128.69    8.50
  -2   2  -4  122.39    8.30
  -2   2  -4  127.59    8.30
  -2   2  -4  119.49    8.30
  -2   2  -4  131.79    8.30
  -2   2  -4  109.49    8.40
   2   2   4  109.59    8.30
  -3  -2  -4    4.20    0.80
  -3  -2  -4    7.60    1.00
   3  -2   4    5.00    1.20
  -3  -2  -4    6.10    1.20
   3  -2   4    5.90    1.00
  -3  -2  -4    6.30    1.00
  -3  -2  -4    6.60    1.00
  -3  -2  -4    4.70    1.10
  -3  -2  -4    6.70    1.00
  -3  -2  -4    6.30    0.80
  -3  -2  -4    7.00    1.10
  -3  -2  -4    3.50    1.00
  -3   2  -4    5.90    0.90
  -3   2  -4    6.60    1.10
  -3   2  -4    5.30    1.00
   3   2   4    4.40    1.00
  -3   2  -4    5.60    1.00
   4  -2   4    3.20    0.80
  -4  -2  -4    6.60    1.20
  -4  -2  -4    4.00    0.80
   4  -2   4    3.00    0.90
  -4  -2  -4    5.20    0.90
  -4  -2  -4    4.60    0.90
  -4  -2  -4    5.00    0.70
  -4  -2  -4    3.90    0.80
  -4  -2  -4    5.60    0.90
  -4  -2  -4    6.20    1.20
  -4  -2  -4    6.00    0.80
  -4  -2  -4    5.30    0.90
   4  -2   4    5.00    1.00
  -4  -2  -4    6.70    1.00
  -4   2  -4    4.00    0.80
  -4   2  -4    5.50    1.00
  -4   2  -4    6.20    1.10
  -4   2  -4    4.50    1.10
  -4   2  -4    5.90    1.00
   4   2   4    3.00    1.60
  -5  -2  -4    0.10    0.70
  -5  -2  -4    0.40    0.80
  -5  -2  -4    0.30    0.50
  -5  -2  -4    0.30    0.90
  -5  -2  -4    1.30    0.90
  -5  -2  -4    0.60    0.70
  -5  -2  -4    0.30    0.60
  -5  -2  -4    0.20    0.70
  -5  -2  -4   -0.20    0.40
   5  -2   4   -0.80    1.00
  -5  -2  -4   -0.40    0.80
  -5  -2  -4    0.80    0.60
  -5  -2  -4    0.70    0.60
   5  -2   4    0.20    0.70
  -5   2  -4    0.50    0.60
  -5   2  -4    0.10    0.70
  -5   2  -4    0.80    0.70
  -5   2  -4    2.10    1.30
  -6  -2  -4   39.30    3.60
  -6  -2  -4   52.39    3.60
  -6  -2  -4   49.90    3.50
  -6  -2  -4   47.00    3.50
  -6  -2  -4   44.00    3.50
  -6  -2  -4   45.80    3.60
  -6  -2  -4   48.60    3.60
  -6  -2  -4   44.50    3.50
  -6  -2  -4   46.40    3.60
  -6  -2  -4   43.40    3.70
  -6   2  -4   48.60    3.50
  -6   2  -4   44.50    3.50
  -6   2  -4   46.70    4.00
  -6   2  -4   46.30    3.60
  -7  -2  -4    0.90    0.60
  -7  -2  -4    1.40    0.80
  -7  -2  -4    0.70    1.30
  -7  -2  -4    0.60    0.70
  -7  -2  -4    0.90    0.90
  -7  -2  -4    0.90    1.00
  -7  -2  -4    0.80    0.90
  -7  -2  -4    0.60    0.70
  -7  -2  -4   -0.60    0.80
  -7  -2  -4    0.30    0.40
  -7  -2  -4    0.00    1.10
  -7   2  -4    0.60    0.90
  -7   2  -4   -0.70    1.00
  -7   2  -4    1.00    0.80
  -7   2  -4    1.00    0.90
  -7   2  -4   -0.20    0.80
  -7   2  -4    1.40    0.80
  -8  -2  -4   91.69    6.40
  -8  -2  -4   89.19    6.50
  -8  -2  -4   81.79    6.40
  -8  -2  -4   87.29    6.30
  -8  -2  -4   83.29    6.50
  -8  -2  -4   90.69    7.00
  -8  -2  -4   94.99    6.60
  -8  -2  -4   79.99    6.50
  -8  -2  -4   93.09    6.60
  -8  -2  -4   90.99    6.60
  -8   2  -4   89.79    6.50
  -8   2  -4   89.99    6.80
  -8   2  -4   86.49    6.50
  -8   2  -4   90.59    6.50
  -8   2  -4   89.69    6.50
  -8   2  -4   84.29    6.40
  -9  -2  -4   15.70    1.90
  -9  -2  -4   15.60    1.50
  -9  -2  -4   14.80    1.50
  -9  -2  -4   13.60    1.70
  -9  -2  -4   13.70    1.70
  -9  -2  -4   13.50    1.50
  -9  -2  -4   12.50    1.90
  -9  -2  -4   14.90    1.60
  -9  -2  -4   16.50    1.80
  -9  -2  -4   14.00    1.80
  -9  -2  -4   14.80    1.90
  -9  -2  -4   13.30    1.40
  -9   2  -4   11.80    1.60
  -9   2  -4   15.20    1.70
  -9   2  -4   13.40    2.20
  -9   2  -4   12.70    1.70
  -9   2  -4   14.80    1.70
  -9   2  -4   14.30    1.70
 -10  -2  -4    3.40    0.80
  10  -2   4    4.40    1.10
 -10  -2  -4    4.70    1.30
 -10  -2  -4    4.40    0.90
 -10  -2  -4    3.30    1.00
 -10  -2  -4    1.60    0.90
 -10  -2  -4    2.90    1.20
 -10  -2  -4    3.10    0.90
 -10  -2  -4    4.40    0.90
 -10  -2  -4    2.50    1.20
 -10   2  -4    3.60    1.10
 -10   2  -4    2.00    1.10
 -10   2  -4    4.60    1.10
 -10   2  -4    3.20    1.10
 -10   2  -4    3.30    0.90
 -10   2  -4    3.00    1.00
 -11  -2  -4    3.40    1.00
  11  -2   4    4.50    1.10
 -11  -2  -4    4.10    0.80
 -11  -2  -4    4.70    1.00
 -11  -2  -4    3.80    0.90
 -11  -2  -4    5.60    1.40
 -11   2  -4    3.00    1.00
 -11   2  -4    4.20    1.10
 -11   2  -4    3.00    1.10
 -11   2  -4    4.10    1.40
 -11   2  -4    4.30    1.00
 -12  -2  -4    1.90    1.20
 -12  -2  -4   -0.20    0.40
  12  -2   4   -0.10    1.10
 -12  -2  -4    0.90    0.70
 -12   2  -4    0.20    0.90
 -12   2  -4    0.00    0.80
 -13  -3   4    0.80    1.50
 -13  -3   4   -0.40    0.50
 -13  -3   4    0.70    0.70
 -13  -3   4   -0.10    1.00
 -13  -3   4    1.00    1.00
 -13   3   4    0.00    1.10
 -13   3   4    0.80    0.80
 -13   3   4    0.10    0.60
 -12  -3   4    1.10    0.90
 -12  -3   4    1.70    0.80
 -12  -3   4    2.60    1.50
 -12  -3   4   -0.70    1.00
 -12  -3   4    2.70    1.40
 -12   3   4   -0.80    1.10
 -12   3   4    0.00    0.60
 -12   3   4   -0.30    0.80
 -11  -3   4   78.79    6.50
 -11  -3   4   75.49    6.60
 -11  -3   4   93.99    6.50
  11  -3  -4   89.39    6.70
 -11  -3   4   95.99    6.90
 -11  -3   4   91.69    6.40
 -11  -3   4   91.39    6.40
 -11  -3   4   81.19    6.30
 -11   3   4   80.49    6.60
 -11   3   4   86.19    6.30
 -11   3   4   87.69    6.30
 -10  -3   4  176.18   11.90
 -10  -3   4  169.68   11.90
  10  -3  -4  182.88   11.70
 -10  -3   4  143.49   12.20
 -10  -3   4  168.98   11.80
 -10  -3   4  159.98   11.90
 -10  -3   4  155.38   11.70
 -10  -3   4  183.08   12.20
 -10  -3   4  165.58   11.80
 -10   3   4  164.48   11.70
 -10   3   4  161.58   11.80
 -10   3   4  146.89   11.90
 -10   3   4  156.98   11.80
  -9  -3   4  160.98   11.90
  -9  -3   4  166.68   11.80
  -9  -3   4  178.48   12.10
  -9  -3   4  167.98   11.90
  -9  -3   4  160.98   11.90
   9  -3  -4  172.68   11.70
  -9  -3   4  149.59   11.80
  -9  -3   4  164.58   11.90
  -9  -3   4  161.08   11.90
  -9  -3   4  169.28   11.90
  -9   3   4  156.48   11.80
  -9   3   4  156.58   11.80
  -9   3   4  179.68   12.00
  -9   3   4  160.88   11.70
  -8  -3   4  360.06   25.80
  -8  -3   4  328.37   25.70
  -8  -3   4  407.06   25.80
  -8  -3   4  381.46   25.90
   8  -3  -4  404.96   25.70
  -8  -3   4  355.16   25.80
  -8  -3   4  368.96   25.70
  -8  -3   4  375.46   25.80
  -8  -3   4  355.16   25.80
  -8  -3   4  374.36   25.80
  -8   3   4  303.27   26.00
  -8   3   4  389.16   25.70
  -8   3   4  391.66   25.60
  -8   3   4  336.47   25.70
  -8   3   4  327.37   25.70
  -7  -3   4  322.17   26.30
  -7  -3   4  323.97   26.20
  -7  -3   4  369.86   26.30
  -7  -3   4  413.06   26.30
  -7  -3   4  374.16   26.30
  -7  -3   4  355.66   26.30
  -7  -3   4  372.46   26.40
  -7  -3   4  389.56   26.20
   7  -3  -4  405.26   26.40
  -7  -3   4  391.46   26.30
  -7   3   4  400.96   26.10
  -7   3   4  354.86   26.20
  -7   3   4  355.66   26.30
  -6  -3   4  451.15   35.00
  -6  -3   4  472.25   35.10
  -6  -3   4  569.34   35.10
  -6  -3   4  518.25   35.10
   6  -3  -4  521.05   35.00
  -6  -3   4  460.45   35.00
  -6  -3   4  454.65   35.10
  -6  -3   4  454.25   35.00
  -6  -3   4  515.45   35.00
  -6  -3   4  483.25   35.10
  -6  -3   4  538.65   35.00
  -6  -3   4  480.55   35.10
   6  -3  -4  502.75   35.10
  -6   3   4  500.65   35.00
  -6   3   4  498.25   35.00
  -6   3   4  525.55   34.90
  -5  -3   4  452.65   33.00
  -5  -3   4  465.05   33.00
  -5  -3   4  416.96   33.00
  -5  -3   4  407.36   33.00
   5  -3  -4  514.35   33.10
  -5  -3   4  439.36   33.00
  -5  -3   4  463.95   33.10
  -5  -3   4  411.16   33.00
  -5  -3   4  505.15   33.00
   5  -3  -4  512.75   32.90
  -5  -3   4  458.35   33.00
  -5  -3   4  491.45   32.90
  -5   3   4  517.85   32.90
  -5   3   4  493.65   32.90
   4  -3  -4  372.96   24.60
   4  -3  -4  388.46   24.80
   4  -3  -4  320.07   24.70
  -4  -3   4  342.77   24.70
  -4  -3   4  382.06   24.70
  -4  -3   4  337.97   24.60
  -4  -3   4  323.57   24.70
  -4  -3   4  325.17   24.80
  -4  -3   4  346.37   24.70
  -4  -3   4  393.06   24.60
   4  -3  -4  358.86   24.60
  -4  -3   4  318.17   24.70
   4  -3  -4  295.07   24.70
   4  -3  -4  401.56   24.80
  -4  -3   4  308.77   24.70
  -4  -3   4  362.76   24.70
  -4  -3   4  337.27   24.70
  -4   3   4  337.17   24.60
   4   3  -4  312.77   24.70
  -4   3   4  404.76   24.60
  -4   3   4  373.66   24.70
  -3  -3   4   15.80    1.50
  -3  -3   4   11.50    1.60
  -3  -3   4   12.10    1.70
   3  -3  -4   11.60    1.70
   3  -3  -4   12.70    1.30
  -3  -3   4   10.90    1.90
  -3  -3   4   15.70    1.70
  -3  -3   4   13.80    1.50
  -3  -3   4    9.90    1.60
  -3  -3   4   14.80    1.90
  -3  -3   4   14.70    1.40
   3  -3  -4   13.50    1.30
  -3  -3   4   13.20    1.70
   3  -3  -4   11.40    1.80
   3  -3  -4   14.20    1.70
   3  -3  -4    9.20    1.80
  -3   3   4   12.20    1.30
   3   3  -4   12.00    2.10
  -3   3   4   15.70    1.90
  -3   3   4   13.80    1.60
  -2  -3   4   25.40    2.30
  -2  -3   4   25.80    2.20
   2  -3  -4   29.20    2.20
   2  -3  -4   25.50    2.40
  -2  -3   4   28.10    2.30
  -2  -3   4   27.60    2.40
  -2  -3   4   29.70    2.60
   2  -3  -4   27.20    2.60
  -2  -3   4   22.20    2.40
  -2  -3   4   31.60    2.50
  -2  -3   4   25.30    2.60
   2  -3  -4   29.90    2.20
  -2  -3   4   30.80    2.50
   2   3  -4   23.00    2.70
  -2   3   4   26.50    2.40
   2   3  -4   26.70    2.20
  -2   3   4   29.20    2.50
  -1  -3   4  100.19    7.40
   1  -3  -4   89.19    7.30
  -1  -3   4  110.19    7.30
   1  -3  -4  107.29    7.20
   1  -3  -4   88.69    7.30
  -1  -3   4   98.19    7.40
  -1  -3   4  101.69    7.30
   1  -3  -4  106.69    7.50
  -1  -3   4  116.29    7.30
   1  -3  -4  103.29    7.50
  -1  -3   4  103.59    7.40
  -1  -3   4   90.19    7.40
   1  -3  -4  103.39    7.50
   1  -3  -4   92.19    7.30
   1  -3  -4   98.79    7.20
  -1   3   4   96.99    7.40
  -1   3   4  115.09    7.40
   1   3  -4  106.99    7.30
   1   3  -4   90.79    7.30
   0  -3   4  607.34   41.10
   0  -3  -4  574.54   41.00
   0  -3   4  635.64   41.10
   0  -3   4  557.84   41.10
   0  -3  -4  519.55   41.10
   0  -3  -4  593.74   41.20
   0  -3  -4  557.84   41.00
   0  -3   4  502.25   41.10
   0  -3  -4  540.65   41.10
   0  -3  -4  604.14   41.20
   0  -3  -4  661.43   41.10
   0  -3  -4  613.54   41.10
   0  -3   4  618.64   41.10
   0  -3   4  585.44   41.10
   0  -3  -4  536.65   41.00
   0  -3  -4  552.54   41.00
   0   3  -4  566.84   41.00
   0   3   4  573.94   41.10
   0   3  -4  627.14   41.10
   0   3   4  654.03   41.10
  -1  -3  -4  834.62   58.89
   1  -3   4  736.53   58.99
  -1  -3  -4  771.82   58.89
   1  -3   4  868.61   58.99
  -1  -3  -4  844.42   58.99
  -1  -3  -4  772.32   58.89
  -1  -3  -4  719.43   58.99
  -1  -3  -4  846.02   59.09
   1  -3   4  910.61   58.99
  -1  -3  -4  870.01   59.09
   1  -3   4  868.21   58.99
  -1  -3  -4  920.01   58.89
  -1  -3  -4  888.71   58.99
  -1   3  -4  851.61   58.89
   1   3   4  799.72   58.99
  -1   3  -4  936.11   58.99
   2  -3   4  351.66   22.90
   2  -3   4  323.47   22.80
   2  -3   4  350.96   22.80
  -2  -3  -4  353.86   22.90
  -2  -3  -4  314.67   22.70
  -2  -3  -4  317.47   22.80
  -2  -3  -4  296.27   22.90
  -2  -3  -4  316.37   22.80
  -2  -3  -4  335.07   22.80
  -2  -3  -4  310.47   22.90
  -2  -3  -4  315.87   22.90
  -2  -3  -4  300.97   22.80
  -2  -3  -4  293.47   22.80
  -2  -3  -4  338.17   22.70
  -2   3  -4  345.47   22.80
   2   3   4  300.37   22.80
  -3  -3  -4  876.21   58.99
   3  -3   4  882.21   58.99
  -3  -3  -4  802.32   58.89
   3  -3   4  930.31   58.89
  -3  -3  -4  724.13   58.99
  -3  -3  -4  749.33   58.99
  -3  -3  -4  842.32   58.99
  -3  -3  -4  816.62   58.99
  -3  -3  -4  757.52   58.89
  -3  -3  -4  864.51   58.99
  -3  -3  -4  854.11   58.99
  -3  -3  -4  839.42   58.79
   3  -3   4  887.51   58.99
  -3  -3  -4  812.92   58.89
  -3   3  -4  970.90   58.99
  -3   3  -4  926.71   58.89
  -3   3  -4  807.32   58.99
   3   3   4  758.72   58.99
   4  -3   4  578.64   39.90
  -4  -3  -4  565.64   40.00
  -4  -3  -4  553.24   39.90
   4  -3   4  604.14   40.00
  -4  -3  -4  524.65   39.90
  -4  -3  -4  581.74   40.00
  -4  -3  -4  513.75   44.70
   4  -3   4  545.35   40.00
  -4  -3  -4  567.64   39.90
  -4  -3  -4  509.05   39.90
  -4  -3  -4  566.74   40.00
  -4  -3  -4  589.34   40.00
  -4  -3  -4  556.54   39.90
  -4  -3  -4  558.34   40.00
  -4   3  -4  548.35   40.00
  -4   3  -4  649.83   40.00
  -4   3  -4  573.54   39.90
  -4   3  -4  622.24   39.90
  -5  -3  -4  502.35   36.50
  -5  -3  -4  516.55   36.50
  -5  -3  -4  514.95   36.50
  -5  -3  -4  516.65   36.40
   5  -3   4  535.55   36.60
   5  -3   4  586.24   36.60
  -5  -3  -4  518.65   36.60
   5  -3   4  474.65   36.50
  -5  -3  -4  510.95   36.50
  -5  -3  -4  492.65   36.40
  -5  -3  -4  490.25   36.50
  -5  -3  -4  565.34   36.60
   5   3   4  497.45   36.50
  -5   3  -4  568.54   36.50
  -5   3  -4  523.35   36.50
  -5   3  -4  480.15   36.70
  -5   3  -4  512.55   36.40
  -6  -3  -4   76.59    5.50
  -6  -3  -4   79.59    5.80
  -6  -3  -4   72.49    5.70
  -6  -3  -4   74.39    5.70
  -6  -3  -4   79.59    5.70
  -6  -3  -4   87.69    5.80
  -6  -3  -4   72.89    5.70
  -6  -3  -4   78.79    5.70
  -6  -3  -4   73.79    5.70
   6  -3   4   66.39    5.90
   6  -3   4   76.49    5.70
  -6  -3  -4   79.99    5.80
  -6   3  -4   79.99    6.10
   6   3   4   76.69    5.80
  -6   3  -4   68.59    5.70
  -6   3  -4   87.19    5.70
  -6   3  -4   80.49    5.80
   7  -3   4   96.79    8.00
  -7  -3  -4  117.49    7.90
  -7  -3  -4  103.89    8.00
  -7  -3  -4  113.09    8.00
  -7  -3  -4  111.89    8.10
  -7  -3  -4  114.09    8.00
  -7  -3  -4   98.79    8.10
  -7  -3  -4  104.99    8.00
  -7  -3  -4  106.39    7.90
  -7  -3  -4  108.09    7.80
  -7  -3  -4  126.39    8.10
   7   3   4  106.49    8.00
  -7   3  -4  116.49    8.10
  -7   3  -4  108.39    8.30
  -7   3  -4   99.19    7.90
  -7   3  -4  109.19    8.00
  -7   3  -4  124.69    8.00
  -8  -3  -4   48.60    4.40
  -8  -3  -4   61.59    4.50
  -8  -3  -4   57.49    4.20
  -8  -3  -4   58.39    4.40
  -8  -3  -4   55.49    4.30
  -8  -3  -4   65.89    4.30
  -8  -3  -4   53.69    4.40
  -8  -3  -4   58.39    4.40
  -8  -3  -4   66.69    4.50
  -8   3  -4   51.39    4.50
  -8   3  -4   61.59    4.30
  -8   3  -4   59.59    4.40
  -8   3  -4   49.30    4.40
  -8   3  -4   53.99    4.70
   8   3   4   58.59    4.50
  -9  -3  -4    9.00    1.50
   9  -3   4    9.00    1.50
  -9  -3  -4    9.70    1.40
  -9  -3  -4    5.70    1.40
  -9  -3  -4    7.60    1.40
  -9  -3  -4    9.40    1.20
  -9  -3  -4    7.70    1.50
  -9  -3  -4    8.20    1.20
  -9  -3  -4    8.80    1.50
  -9  -3  -4    9.90    1.60
  -9  -3  -4    7.50    1.30
  -9  -3  -4    7.30    1.30
  -9   3  -4    5.60    1.30
  -9   3  -4    7.20    1.40
   9   3   4    9.30    1.70
  -9   3  -4    6.60    1.50
  -9   3  -4    8.00    1.20
 -10  -3  -4    6.40    1.40
 -10  -3  -4    5.90    1.20
 -10  -3  -4    4.40    0.80
 -10  -3  -4    5.80    1.20
  10  -3   4    4.00    1.10
 -10   3  -4    3.80    1.20
 -10   3  -4    5.90    1.30
 -10   3  -4    3.00    1.00
  10   3   4    4.70    1.10
 -10   3  -4    2.20    1.30
 -10   3  -4    3.00    1.40
 -11  -4   4   29.20    2.70
 -11  -4   4   26.70    2.50
 -11   4   4   33.50    2.40
 -11   4   4   25.90    2.50
 -10  -4   4   55.69    4.80
  10  -4  -4   62.39    4.30
 -10  -4   4   54.49    4.30
 -10  -4   4   49.99    5.10
 -10   4   4   54.29    4.30
 -10   4   4   52.49    4.30
 -10   4   4   61.19    4.10
   9  -4  -4   58.99    4.10
  -9  -4   4   51.29    4.60
  -9  -4   4   53.89    4.20
  -9   4   4   56.49    3.90
  -9   4   4   46.20    4.10
  -9   4   4   49.50    4.10
  -8  -4   4   -1.70    1.60
  -8  -4   4    2.00    1.30
  -8  -4   4    1.80    1.30
  -8   4   4   -1.20    1.00
   8   4  -4   -0.30    1.20
  -8   4   4   -1.50    1.70
  -8   4   4   -0.70    0.60
  -7  -4   4    2.50    1.20
  -7  -4   4    1.90    1.50
  -7  -4   4    2.60    1.30
   7  -4  -4    4.00    0.80
  -7  -4   4    0.40    1.30
  -7  -4   4    1.00    1.30
  -7  -4   4    3.70    1.00
  -7  -4   4    3.50    1.20
  -7   4   4    4.30    0.80
  -7   4   4    3.10    1.10
  -7   4   4    2.60    0.90
   7   4  -4    2.30    1.10
  -6  -4   4   57.09    4.30
  -6  -4   4   46.20    4.20
  -6  -4   4   54.79    4.20
   6  -4  -4   51.39    4.00
  -6  -4   4   56.59    4.10
  -6  -4   4   44.10    4.20
   6   4  -4   59.89    4.10
  -6   4   4   50.09    4.10
  -6   4   4   49.99    4.10
  -5  -4   4  131.19   10.80
  -5  -4   4  161.08   10.80
   5  -4  -4  135.59   10.90
  -5  -4   4  160.78   10.80
  -5  -4   4  148.29   10.90
   5  -4  -4  164.48   10.70
  -5  -4   4  139.99   10.80
  -5  -4   4  135.19   11.00
  -5  -4   4  159.08   10.90
  -5  -4   4  131.89   10.90
  -5   4   4  151.68   10.80
  -5   4   4  155.18   10.80
   5   4  -4  167.58   10.80
  -4  -4   4   57.19    4.80
  -4  -4   4   56.49    4.80
  -4  -4   4   65.49    4.70
   4  -4  -4   56.19    4.90
   4  -4  -4   66.69    4.50
  -4  -4   4   66.69    4.70
   4  -4  -4   61.59    4.80
  -4  -4   4   62.69    4.80
  -4  -4   4   60.29    4.80
  -4   4   4   57.69    4.60
  -4   4   4   58.09    4.70
   4   4  -4   62.19    4.60
   3  -4  -4  419.26   31.30
   3  -4  -4  440.06   31.20
  -3  -4   4  419.36   31.10
  -3  -4   4  395.86   31.20
  -3  -4   4  504.65   31.20
   3  -4  -4  428.56   31.10
   3  -4  -4  455.85   31.30
  -3  -4   4  422.86   31.20
  -3  -4   4  443.76   31.20
  -3  -4   4  457.45   31.10
   3  -4  -4  436.56   31.20
   3  -4  -4  502.75   31.20
  -3  -4   4  427.86   31.30
  -3  -4   4  455.75   31.20
  -3   4   4  419.36   31.20
   3   4  -4  445.36   31.20
  -3   4   4  433.86   31.10
   2  -4  -4  599.74   40.20
  -2  -4   4  535.95   40.10
   2  -4  -4  572.54   40.10
  -2  -4   4  563.34   40.10
   2  -4  -4  571.34   40.00
   2  -4  -4  608.54   40.00
  -2  -4   4  633.44   40.10
  -2  -4   4  548.65   40.10
   2  -4  -4  539.15   40.20
  -2  -4   4  572.04   40.00
  -2  -4   4  616.14   40.10
   2  -4  -4  542.85   40.10
  -2  -4   4  562.84   40.10
  -2   4   4  562.14   40.00
  -2   4   4  545.95   40.10
   2   4  -4  523.05   40.00
  -1  -4   4  355.26   22.70
   1  -4  -4  330.37   22.80
   1  -4  -4  297.37   22.70
   1  -4  -4  311.87   22.50
   1  -4  -4  330.57   22.60
   1  -4  -4  364.66   22.70
   1  -4  -4  296.47   22.80
  -1  -4   4  302.77   22.70
  -1  -4   4  336.07   22.80
   1  -4  -4  333.27   22.70
  -1  -4   4  295.57   22.80
  -1   4   4  304.57   22.70
   1   4  -4  297.87   22.60
   0  -4  -4  219.78   16.40
   0  -4   4  257.77   16.60
   0  -4   4  224.88   16.50
   0  -4  -4  238.58   16.60
   0  -4  -4  265.87   16.50
   0  -4  -4  206.68   16.50
   0  -4   4  244.78   16.60
   0  -4  -4  242.58   16.50
   0  -4  -4  205.28   16.60
   0  -4  -4  213.48   16.50
   0  -4   4  214.28   16.60
   0  -4  -4  242.48   16.50
   0  -4   4  260.17   16.50
   0   4   4  209.48   16.50
   0   4  -4  226.98   16.40
   1  -4   4  112.39    8.20
  -1  -4  -4  103.29    8.10
  -1  -4  -4   92.49    8.20
   1  -4   4  121.39    8.20
  -1  -4  -4   99.49    8.10
  -1  -4  -4  127.69    8.10
  -1  -4  -4  113.49    8.20
  -1  -4  -4  103.49    7.90
  -1  -4  -4  116.39    8.00
  -1  -4  -4  114.79    8.10
   1   4   4  104.39    8.10
  -1   4  -4  113.09    8.00
  -1   4  -4  115.19    8.20
  -2  -4  -4  209.68   15.80
  -2  -4  -4  191.58   15.80
   2  -4   4  249.18   15.80
   2  -4   4  215.98   15.80
  -2  -4  -4  205.08   15.80
  -2  -4  -4  232.68   15.80
  -2  -4  -4  235.28   15.80
  -2  -4  -4  221.38   16.30
  -2  -4  -4  229.38   15.80
   2  -4   4  231.08   15.80
   2  -4   4  241.58   15.80
  -2   4  -4  219.18   15.70
   2   4   4  197.58   15.80
  -2   4  -4  216.58   15.70
  -3  -4  -4    0.10    1.10
  -3  -4  -4   -0.40    1.10
   3  -4   4   -0.50    0.80
  -3  -4  -4    0.40    1.10
   3  -4   4    0.30    0.90
  -3  -4  -4   -0.70    0.80
   3  -4   4    0.20    1.20
   3  -4   4   -1.60    1.00
   3   4   4    1.30    1.00
  -3   4  -4    0.50    1.00
  -3   4  -4   -0.80    0.70
   4  -4   4    4.10    1.40
  -4  -4  -4    3.60    0.90
  -4  -4  -4    5.70    1.30
  -4  -4  -4    4.10    1.10
   4  -4   4    2.90    0.90
   4  -4   4    4.10    1.10
  -4  -4  -4    3.20    1.10
  -4  -4  -4    2.10    1.00
  -4  -4  -4    3.30    1.10
   4   4   4    4.10    1.10
  -4   4  -4    4.40    1.00
  -4   4  -4    4.30    0.90
  -5  -4  -4    3.40    1.00
  -5  -4  -4    4.10    0.90
  -5  -4  -4    4.50    1.20
  -5  -4  -4    5.10    1.10
   5  -4   4    3.90    1.50
  -5  -4  -4    3.40    1.10
  -5  -4  -4    2.30    1.00
  -5  -4  -4    3.40    1.40
   5  -4   4    4.40    1.40
  -5   4  -4    4.30    0.90
   5   4   4    2.80    1.10
   6  -4   4   90.09    6.50
  -6  -4  -4   88.69    6.50
  -6  -4  -4   87.49    6.30
  -6  -4  -4   80.19    6.40
  -6  -4  -4   93.89    6.50
   6  -4   4   83.19    6.70
  -6  -4  -4   87.09    6.40
   6  -4   4   75.69    6.50
  -6  -4  -4   88.49    6.40
  -6   4  -4   97.59    6.30
   6   4   4   80.69    6.60
  -7  -4  -4   96.69    6.50
  -7  -4  -4   89.89    6.40
  -7  -4  -4   87.99    6.40
  -7  -4  -4   81.09    6.40
  -7  -4  -4   87.09    6.50
  -7  -4  -4   87.19    6.40
   7  -4   4   75.09    6.60
  -7   4  -4   94.09    6.40
   7   4   4   78.69    6.60
  -7   4  -4   96.29    6.40
  -8  -4  -4   89.39    6.10
  -8  -4  -4   73.49    6.10
  -8  -4  -4   85.59    6.10
  -8  -4  -4   85.19    6.80
  -8   4  -4   93.59    6.10
   8   4   4   74.69    6.40
   8  -5  -4    5.70    1.40
  -8  -5   4    5.70    1.30
   8  -5  -4    3.20    0.90
  -8   5   4    4.00    0.70
   7  -5  -4    5.60    1.30
  -7   5   4    3.40    0.80
   6  -5  -4   37.80    3.20
   6  -5  -4   42.20    3.10
  -6  -5   4   40.20    3.20
  -6  -5   4   38.80    3.50
  -6  -5   4   37.10    3.30
  -6   5   4   41.20    3.00
  -6   5   4   34.10    3.30
   5  -5  -4    3.20    1.30
  -5  -5   4    3.50    1.20
   5  -5  -4    2.30    1.00
   5  -5  -4    1.50    0.70
  -5  -5   4    2.50    1.10
  -5   5   4    0.60    0.90
  -5   5   4    1.70    1.30
  -5   5   4    3.40    0.90
   4  -5  -4   -0.30    0.90
  -4  -5   4    2.20    1.20
  -4  -5   4   -0.80    1.00
  -4  -5   4    1.10    1.10
   4  -5  -4    0.90    1.30
  -4  -5   4   -0.20    0.90
   4   5  -4    2.30    1.00
  -4   5   4    0.20    0.90
  -4   5   4   -0.40    1.30
   3  -5  -4    7.60    1.60
   3  -5  -4    3.80    1.30
  -3  -5   4    5.20    1.20
   3  -5  -4    6.70    1.40
  -3  -5   4    6.40    1.50
  -3  -5   4    9.20    1.60
   3  -5  -4    6.60    1.00
  -3   5   4    4.00    1.10
  -3   5   4    2.70    1.60
  -2  -5   4    2.90    1.00
  -2  -5   4    5.00    1.10
   2  -5  -4    3.50    1.30
   2  -5  -4    3.00    1.20
   2  -5  -4    3.90    1.20
   2  -5  -4    2.70    0.70
   2  -5  -4    4.70    1.10
  -2   5   4    2.60    1.30
  -2   5   4    0.60    1.40
   1  -5  -4   -0.10    1.10
   1  -5  -4   -1.30    1.10
  -1  -5   4    0.90    1.10
  -1  -5   4    0.10    1.00
  -1  -5   4    0.10    1.00
   1  -5  -4    0.00    1.10
  -1  -5   4   -0.50    0.90
  -1  -5   4    1.10    1.20
   1  -5  -4    0.10    0.70
   1  -5  -4   -1.80    1.10
   1   5  -4   -0.10    0.80
  -1   5   4   -2.10    1.00
  -1   5   4   -2.80    1.50
   0  -5   4   -0.50    1.00
   0  -5   4   -0.80    0.80
   0  -5  -4    0.10    1.10
   0  -5  -4    0.00    1.00
   0  -5  -4   -1.00    1.30
   0  -5   4   -0.70    1.20
   0  -5   4    0.20    1.00
   0  -5  -4   -0.20    1.10
   0  -5   4   -0.20    0.90
   0  -5  -4   -1.10    1.10
   0   5   4   -1.50    1.00
   0   5   4   -0.10    1.00
   0   5  -4    0.80    0.90
   1  -5   4    3.70    1.10
  -1  -5  -4    1.10    0.90
   1  -5   4    1.70    0.90
  -1  -5  -4    2.20    1.10
   1  -5   4    2.90    1.30
  -1  -5  -4    2.40    1.20
   1   5   4    2.40    1.00
   1   5   4    3.10    1.00
  -1   5  -4    2.60    0.90
  -2  -5  -4   16.30    1.90
   2  -5   4   13.00    1.90
  -2  -5  -4   17.10    1.70
   2  -5   4   15.80    1.90
  -2  -5  -4   11.00    1.60
  -2  -5  -4   13.90    1.50
   2  -5   4   10.20    1.90
   2  -5   4   13.00    1.70
  -2  -5  -4   13.80    1.70
   2  -5   4   11.20    1.90
   2   5   4   12.60    2.00
  -2   5  -4   12.10    2.00
   3  -5   4   10.00    1.70
  -3  -5  -4    8.50    1.40
  -3  -5  -4   12.00    1.50
   3  -5   4    9.60    1.60
  -3  -5  -4   11.60    1.70
  -3  -5  -4   11.70    1.50
   3  -5   4    7.50    1.60
   3   5   4    7.30    1.40
  -3   5  -4   11.10    1.50
  -4  -5  -4    0.80    0.80
  -4  -5  -4    1.20    0.80
   4  -5   4    0.00    1.20
   4  -5   4   -0.70    0.90
  -4  -5  -4   -0.50    0.80
   4  -5   4   -0.20    1.30
   4  -5   4    0.40    1.90
   4   5   4    1.00    1.20
  -4   5  -4    0.00    0.90
   5  -5   4   21.70    2.20
  -5  -5  -4   19.60    2.00
  -5  -5  -4   24.60    2.10
  -5  -5  -4   20.60    2.00
  -5  -5  -4   19.60    2.00
  -5   5  -4   23.60    2.10
 -15   0   5    0.40    0.80
 -15   0   5    0.20    0.50
 -15   0   5   -0.20    0.40
 -15   0   5    0.90    1.10
 -14   0   5   -0.30    0.50
 -14   0   5   -0.10    0.90
 -14   0   5    1.60    1.10
 -13   0   5    1.70    0.80
 -13   0   5   -0.40    0.90
 -13   0   5    0.10    0.90
 -13   0   5    1.20    1.00
 -13   0   5   -0.70    0.50
 -13   0   5   -0.40    0.70
 -12   0   5   -0.80    0.80
 -12   0   5   -0.20    0.80
 -12   0   5    5.30    2.90
 -12   0   5   -0.20    0.90
 -12   0   5   -0.30    1.30
 -12   0   5   -0.80    0.70
 -11   0   5   -0.40    0.40
 -11   0   5   -0.70    0.70
 -11   0   5   -1.30    0.60
 -11   0   5   -0.50    0.40
 -11   0   5   -1.30    0.80
 -11   0   5    0.80    0.90
 -11   0   5   -1.40    0.80
 -11   0   5    1.60    1.20
 -10   0   5    0.20    0.80
 -10   0   5   -0.80    1.10
 -10   0   5    0.30    0.80
 -10   0   5   -0.80    1.00
 -10   0   5   -0.40    0.80
 -10   0   5   -0.70    0.70
  -9   0   5    0.20    0.60
  -9   0   5    0.00    0.50
  -9   0   5   -0.10    0.70
  -9   0   5    0.00    0.90
  -9   0   5   -0.20    0.80
  -9   0   5   -1.30    0.80
  -9   0   5   -0.50    0.30
  -9   0   5   -0.70    1.20
  -9   0   5    0.20    0.70
  -9   0   5   -0.50    0.60
  -8   0   5    0.10    0.60
  -8   0   5    0.60    0.60
  -8   0   5    0.10    0.80
  -8   0   5   -0.30    0.70
  -8   0   5    0.30    0.70
  -8   0   5   -0.20    1.10
  -8   0   5   -0.30    0.40
  -8   0   5    0.80    0.90
  -8   0   5   -0.20    0.70
  -8   0   5   -0.60    0.80
  -8   0   5    0.60    0.50
  -8   0   5   -0.10    0.60
  -8   0   5    0.40    0.50
  -7   0   5    2.10    0.70
  -7   0   5    1.70    0.60
  -7   0   5    2.30    0.90
  -7   0   5    1.10    0.50
  -6   0   5    0.70    0.70
  -6   0   5   -0.10    0.80
  -6   0   5    0.20    0.50
  -6   0   5   -0.20    1.00
   6   0  -5   -0.80    0.60
  -6   0   5   -0.10    0.30
  -6   0   5   -0.60    0.50
  -6   0   5   -0.50    0.50
   6   0  -5    0.50    0.60
  -6   0   5   -0.60    0.50
  -6   0   5   -1.20    0.60
  -6   0   5    0.10    0.70
   6   0  -5   -0.30    0.50
  -6   0   5    0.80    0.60
  -6   0   5   -0.60    0.60
  -6   0   5   -0.50    0.60
  -6   0   5   -1.20    0.50
  -6   0   5    0.00    0.40
  -6   0   5    1.00    0.50
  -5   0   5   -0.10    0.60
  -5   0   5   -0.10    0.40
  -5   0   5   -0.50    0.20
  -5   0   5    0.20    0.50
  -5   0   5   -0.40    0.60
  -5   0   5    1.00    0.50
  -5   0   5   -0.40    0.60
   5   0  -5    0.10    0.50
   5   0  -5    0.30    0.50
  -5   0   5   -0.40    0.50
   5   0  -5   -0.30    0.50
  -5   0   5    0.80    0.50
  -5   0   5   -0.50    0.40
  -4   0   5   -0.10    0.20
   4   0  -5   -0.70    0.40
  -4   0   5   -0.50    0.50
   4   0  -5   -0.20    0.50
  -4   0   5   -0.70    0.40
  -4   0   5    0.10    0.40
   4   0  -5   -0.80    0.40
  -4   0   5   -0.80    0.40
  -4   0   5    0.90    0.50
  -4   0   5   -0.50    0.60
  -4   0   5    0.20    0.50
  -4   0   5    0.40    0.50
  -3   0   5    0.50    0.40
  -3   0   5    0.30    0.20
   3   0  -5    0.20    0.40
  -3   0   5    0.30    0.50
  -3   0   5    0.70    0.40
   3   0  -5    0.80    0.30
   3   0  -5    1.00    0.40
   2   0  -5    0.90    0.40
  -2   0   5    0.80    0.40
   2   0  -5    1.20    0.30
  -2   0   5    1.10    0.50
  -2   0   5    0.80    0.40
   1   0  -5    1.90    0.50
  -1   0   5    2.40    0.50
   1   0  -5    1.10    0.40
   0   0   5   -1.60    0.40
   0   0  -5   -0.90    0.40
   0   0   5   -0.60    0.50
   0   0   5   -0.80    0.40
   0   0  -5   -1.20    0.40
   0   0  -5   -1.80    0.40
   0   0  -5   -1.00    0.40
   0   0   5   -1.30    0.40
   0   0  -5   -1.50    0.30
   1   0   5   -0.20    0.50
  -1   0  -5   -0.20    0.40
  -1   0  -5   -0.60    0.40
   1   0   5    1.10    0.50
   1   0   5   -0.40    0.40
   1   0   5    0.00    0.50
  -1   0  -5   -0.40    0.40
  -1   0  -5    0.00    0.30
  -1   0  -5   -0.20    0.40
  -2   0  -5   -1.10    0.40
  -2   0  -5   -1.10    0.40
  -2   0  -5   -1.00    0.40
   2   0   5   -1.70    0.50
   2   0   5   -0.60    0.90
   2   0   5   -0.80    0.50
  -2   0  -5   -0.80    0.60
  -2   0  -5   -0.50    0.70
  -2   0  -5   -1.50    0.40
  -2   0  -5   -0.90    0.40
  -3   0  -5    1.80    0.50
   3   0   5    1.90    0.60
  -3   0  -5    0.80    0.50
   3   0   5    0.30    0.60
  -3   0  -5    1.30    0.50
   3   0   5    1.70    0.70
  -3   0  -5   -0.20    0.60
  -3   0  -5    0.40    0.50
  -3   0  -5    0.70    0.40
  -3   0  -5    0.70    0.90
  -4   0  -5    0.50    0.50
  -4   0  -5   -0.30    0.60
  -4   0  -5   -0.60    0.90
  -4   0  -5    0.40    0.50
  -4   0  -5    1.00    0.50
   4   0   5    1.70    0.70
  -4   0  -5    0.80    0.60
  -4   0  -5   -1.20    0.80
  -4   0  -5    0.30    0.50
  -4   0  -5    0.70    0.50
   4   0   5    1.00    0.80
  -4   0  -5   -0.20    0.50
  -5   0  -5    0.30    1.00
  -5   0  -5    0.20    0.60
  -5   0  -5   -0.10    0.60
  -5   0  -5    0.40    0.70
  -5   0  -5    0.20    0.60
   5   0   5    1.20    1.10
  -5   0  -5   -0.30    0.60
  -5   0  -5    0.00    0.50
  -5   0  -5    1.00    0.80
  -5   0  -5    0.60    0.70
   5   0   5    1.10    0.70
  -6   0  -5   -0.10    0.70
  -6   0  -5    1.20    0.70
  -6   0  -5   -0.90    0.70
  -6   0  -5    0.20    0.60
  -6   0  -5   -0.10    0.80
  -6   0  -5   -0.10    0.60
  -6   0  -5    0.40    0.70
  -6   0  -5    0.30    1.10
  -6   0  -5    0.50    0.70
  -6   0  -5    0.40    0.60
  -6   0  -5    0.60    1.00
   6   0   5    2.20    0.90
  -7   0  -5   -0.40    0.70
  -7   0  -5   -0.20    1.00
  -7   0  -5    1.00    0.90
  -7   0  -5    0.60    0.60
  -7   0  -5    0.90    1.20
   7   0   5   -0.70    0.90
  -7   0  -5    0.30    0.80
  -7   0  -5   -0.20    0.70
  -7   0  -5    0.00    0.80
  -7   0  -5    0.10    0.40
  -7   0  -5    0.10    0.80
  -8   0  -5    0.00    0.40
  -8   0  -5    0.70    1.00
  -8   0  -5   -0.50    0.70
  -8   0  -5    0.70    0.90
  -8   0  -5    0.30    0.90
  -8   0  -5    0.00    0.80
  -8   0  -5   -0.90    1.30
  -8   0  -5    0.90    1.00
  -8   0  -5   -0.50    0.80
  -8   0  -5   -0.20    0.80
  -8   0  -5   -0.30    0.90
  -8   0  -5   -0.60    0.90
   8   0   5   -0.10    1.10
  -8   0  -5    1.40    0.80
  -9   0  -5   -0.60    0.80
  -9   0  -5    0.30    1.00
  -9   0  -5   -0.40    0.90
  -9   0  -5    0.20    1.00
  -9   0  -5    0.90    0.80
   9   0   5    1.20    1.10
  -9   0  -5    1.40    0.90
  -9   0  -5    1.30    0.80
  -9   0  -5    0.80    0.80
  -9   0  -5   -0.10    0.40
  -9   0  -5    0.70    0.90
  -9   0  -5    0.10    1.50
  10   0   5    2.40    1.20
 -10   0  -5    0.00    0.50
 -10   0  -5    0.30    0.90
 -10   0  -5    0.30    1.00
 -10   0  -5    1.30    1.70
 -10   0  -5   -0.70    1.00
 -10   0  -5    0.80    0.80
 -10   0  -5    0.90    0.90
 -10   0  -5    0.40    1.00
 -10   0  -5    1.10    1.00
 -11   0  -5    2.10    1.00
 -11   0  -5    1.30    1.00
 -11   0  -5    0.80    1.10
 -11   0  -5    1.30    0.80
 -11   0  -5    1.10    1.00
  11   0   5   -0.40    1.30
 -11   0  -5    1.30    1.80
 -11   0  -5    0.10    1.00
 -11   0  -5   -0.60    0.90
 -11   0  -5    1.00    0.50
 -12   0  -5   -0.50    1.10
 -12   0  -5   -0.70    1.70
 -12   0  -5    0.30    0.90
 -12   0  -5   -0.50    0.80
 -12   0  -5    0.60    0.80
 -15  -1   5   34.30    2.70
 -15  -1   5   29.80    3.80
 -15  -1   5   33.40    2.60
 -15  -1   5   29.10    2.90
 -15   1   5   34.20    2.80
 -15   1   5   28.90    2.70
 -14  -1   5   38.30    3.60
 -14  -1   5   39.50    3.30
 -14  -1   5   40.40    3.30
 -14  -1   5   42.50    4.10
 -14  -1   5   37.70    3.30
 -14  -1   5   44.60    3.20
 -14   1   5   41.10    3.40
 -14   1   5   40.40    3.40
 -14   1   5   37.40    3.30
 -13  -1   5   69.49    5.20
 -13  -1   5   67.19    5.10
 -13  -1   5   66.49    5.10
 -13  -1   5   71.59    5.10
 -13  -1   5   69.19    5.60
 -13  -1   5   69.09    5.20
 -13  -1   5   72.09    5.40
 -13   1   5   68.79    5.10
 -13   1   5   58.39    5.00
 -13   1   5   63.89    4.90
 -13   1   5   69.69    5.30
 -13   1   5   69.09    5.10
 -13   1   5   73.59    5.30
 -12  -1   5  277.77   19.00
 -12  -1   5  261.77   19.10
 -12  -1   5  276.67   19.00
 -12  -1   5  272.37   18.90
 -12  -1   5  266.97   19.60
 -12  -1   5  261.47   19.00
 -12  -1   5  266.97   19.10
 -12  -1   5  250.57   19.10
 -12   1   5  240.18   19.00
 -12   1   5  264.67   19.00
 -12   1   5  309.07   19.20
 -12   1   5  274.57   19.00
 -12   1   5  257.07   19.00
 -11  -1   5  382.26   26.90
 -11  -1   5  360.76   26.90
 -11  -1   5  395.16   26.80
 -11  -1   5  390.76   26.90
 -11  -1   5  400.86   27.00
 -11  -1   5  415.96   26.90
 -11  -1   5  368.56   26.90
 -11  -1   5  363.86   26.90
 -11  -1   5  364.46   26.90
 -11  -1   5  379.16   27.10
 -11  -1   5  389.96   26.80
 -11  -1   5  367.56   26.90
 -11   1   5  402.26   26.90
 -11   1   5  373.16   26.90
 -11   1   5  353.86   26.90
 -11   1   5  369.76   26.80
 -11   1   5  340.97   26.80
 -11   1   5  388.56   26.80
 -11   1   5  387.56   27.00
 -11   1   5  413.16   27.00
 -10  -1   5  635.34   42.60
 -10  -1   5  615.24   42.50
 -10  -1   5  621.94   42.40
 -10  -1   5  606.44   42.60
 -10  -1   5  614.84   42.50
 -10  -1   5  584.34   42.50
 -10  -1   5  556.54   42.40
  10  -1  -5  601.84   42.40
 -10  -1   5  621.14   42.30
 -10  -1   5  659.83   42.40
 -10  -1   5  553.04   42.30
 -10  -1   5  602.54   42.40
 -10  -1   5  598.74   42.40
 -10  -1   5  609.74   42.40
 -10   1   5  602.04   42.30
 -10   1   5  644.14   42.50
 -10   1   5  530.85   42.40
 -10   1   5  590.14   42.40
 -10   1   5  632.24   42.40
 -10   1   5  629.44   42.50
 -10   1   5  549.35   42.40
 -10   1   5  607.74   42.40
 -10   1   5  602.64   42.50
  -9  -1   5  798.32   54.19
  -9  -1   5  755.92   54.09
  -9  -1   5  704.83   54.19
  -9  -1   5  873.81   54.19
  -9  -1   5  787.92   54.19
  -9  -1   5  845.52   54.29
  -9  -1   5  713.93   54.19
  -9  -1   5  808.62   54.19
   9  -1  -5  767.82   54.09
  -9  -1   5  744.93   54.19
  -9  -1   5  680.03   54.19
  -9  -1   5  840.72   54.19
  -9  -1   5  743.63   54.29
  -9  -1   5  802.32   54.29
  -9   1   5  697.93   54.39
  -9   1   5  799.82   54.19
  -9   1   5  815.02   54.09
  -9   1   5  697.33   54.09
  -9   1   5  831.92   54.29
  -9   1   5  843.02   54.19
  -9   1   5  657.13   54.09
  -9   1   5  720.13   54.19
  -9   1   5  751.22   54.29
  -9   1   5  796.62   54.19
  -9   1   5  807.32   54.19
  -8  -1   5  173.48   10.90
  -8  -1   5  146.19   11.00
  -8  -1   5  151.18   10.90
  -8  -1   5  148.89   10.80
  -8  -1   5  146.89   10.90
  -8  -1   5  169.28   10.90
  -8  -1   5  160.18   10.90
  -8  -1   5  133.79   10.90
  -8  -1   5  159.98   10.90
  -8  -1   5  171.28   11.00
  -8  -1   5  140.19   10.80
   8  -1  -5  160.28   10.90
  -8  -1   5  156.28   10.90
  -8  -1   5  149.79   10.90
  -8  -1   5  146.09   10.80
  -8   1   5  152.88   11.00
  -8   1   5  132.79   10.90
  -8   1   5  162.38   10.90
  -8   1   5  143.69   11.20
  -8   1   5  130.69   10.80
  -8   1   5  169.58   10.90
  -8   1   5  150.98   10.90
  -8   1   5  154.18   10.90
  -8   1   5  164.48   10.80
  -8   1   5  133.89   10.80
  -8   1   5  166.58   11.00
  -7  -1   5  133.19    9.40
  -7  -1   5  117.89    9.30
  -7  -1   5  128.99    9.30
  -7  -1   5  130.59    9.30
  -7  -1   5  137.59    9.30
  -7  -1   5  134.39    9.40
  -7  -1   5  143.09    9.40
   7  -1  -5  150.28    9.30
  -7  -1   5  127.99    9.20
  -7  -1   5  125.79    9.50
  -7  -1   5  134.39    9.30
  -7  -1   5  130.79    9.30
  -7  -1   5  109.59    9.30
  -7  -1   5  152.28    9.40
  -7  -1   5  124.29    9.30
  -7  -1   5  129.39    9.30
  -7  -1   5  135.19    9.30
  -7  -1   5  130.69    9.40
  -7   1   5  135.99    9.30
  -7   1   5  115.89    9.40
  -7   1   5  136.19    9.30
   7   1  -5  128.49    9.40
  -7   1   5  132.09    9.40
  -7   1   5  140.79    9.30
  -7   1   5  131.59    9.30
  -7   1   5  113.29    9.30
  -7   1   5  126.69    9.40
  -7   1   5  143.39    9.30
  -7   1   5  111.29    9.30
  -7   1   5  131.69    9.40
  -7   1   5  130.89    9.40
  -6  -1   5  301.27   22.10
  -6  -1   5  281.57   22.10
  -6  -1   5  325.67   22.10
  -6  -1   5  328.07   22.10
  -6  -1   5  285.77   22.20
  -6  -1   5  270.37   22.10
  -6  -1   5  299.97   22.20
  -6  -1   5  343.47   22.10
  -6  -1   5  303.67   22.20
  -6  -1   5  314.07   22.10
  -6  -1   5  326.17   22.30
  -6  -1   5  274.07   22.10
   6  -1  -5  337.37   22.20
  -6  -1   5  346.17   22.20
  -6  -1   5  361.26   22.20
  -6  -1   5  312.97   22.10
  -6  -1   5  318.77   22.20
  -6   1   5  343.97   22.20
  -6   1   5  323.97   22.20
  -6   1   5  322.57   22.20
  -6   1   5  328.57   22.20
  -6   1   5  306.57   22.10
  -6   1   5  330.27   22.10
  -6   1   5  268.77   22.20
  -6   1   5  329.07   22.20
  -6   1   5  304.87   22.20
  -6   1   5  310.37   22.10
   6   1  -5  306.57   22.20
  -5  -1   5   20.80    1.70
  -5  -1   5   17.50    1.90
  -5  -1   5   21.90    1.70
   5  -1  -5   17.70    1.60
  -5  -1   5   16.70    1.70
  -5  -1   5   18.40    1.70
  -5  -1   5   19.70    1.60
  -5  -1   5   20.70    1.80
  -5  -1   5   20.20    1.70
  -5  -1   5   18.40    1.70
   5  -1  -5   23.30    1.90
  -5  -1   5   18.10    2.10
  -5   1   5   18.70    1.60
  -5   1   5   21.10    1.60
  -5   1   5   19.20    1.70
  -5   1   5   22.20    1.60
  -5   1   5   21.20    1.70
  -5   1   5   22.30    1.60
   5   1  -5   18.60    1.70
  -5   1   5   18.70    1.70
  -5   1   5   19.20    1.60
   4  -1  -5  544.75   37.50
  -4  -1   5  459.25   37.70
  -4  -1   5  582.44   37.60
  -4  -1   5  526.05   37.60
   4  -1  -5  561.24   37.60
  -4  -1   5  558.94   37.60
  -4  -1   5  531.45   37.60
   4  -1  -5  514.75   37.60
  -4  -1   5  587.54   37.60
  -4  -1   5  508.35   37.60
  -4  -1   5  487.75   37.60
  -4   1   5  463.85   37.60
  -4   1   5  546.15   37.70
  -4   1   5  485.35   37.60
   4   1  -5  551.34   37.60
  -4   1   5  594.74   37.60
  -4   1   5  535.35   37.60
  -4   1   5  516.55   37.60
  -4   1   5  620.24   37.60
  -3  -1   5  558.74   42.70
   3  -1  -5  587.44   42.60
   3  -1  -5  551.94   42.70
   3  -1  -5  675.63   42.70
  -3  -1   5  643.44   42.70
   3  -1  -5  591.24   42.60
  -3  -1   5  642.04   42.70
  -3  -1   5  580.94   42.70
  -3  -1   5  687.13   42.70
  -3  -1   5  547.95   42.70
  -3  -1   5  545.65   42.70
  -3   1   5  593.04   42.70
  -3   1   5  560.24   42.70
  -3   1   5  573.44   42.70
  -3   1   5  673.33   42.70
   3   1  -5  606.94   42.70
  -3   1   5  646.14   42.70
  -3   1   5  683.13   42.70
  -2  -1   5  806.12   63.89
  -2  -1   5  983.90   63.99
  -2  -1   5  935.41   63.89
   2  -1  -5  867.61   63.89
  -2  -1   5  939.31   63.89
   2  -1  -5  994.00   63.89
   2  -1  -5  821.92   63.89
   2  -1  -5  871.41   63.89
  -2  -1   5  803.52   63.89
  -2   1   5  919.91   63.89
  -2   1   5 1039.80   63.89
  -2   1   5  942.51   63.89
   2   1  -5  883.21   63.89
  -2   1   5  958.10   63.89
  -1  -1   5 1959.70  140.79
   1  -1  -5 2103.39  140.79
   1  -1  -5 1866.81  140.79
   1  -1  -5 2233.68  140.79
  -1  -1   5 1905.51  140.89
   1  -1  -5 1824.62  140.79
  -1   1   5 2149.28  140.79
  -1   1   5 2005.40  140.79
  -1   1   5 2268.57  140.89
  -1   1   5 2103.59  140.79
  -1   1   5 1860.11  140.79
   1   1  -5 1842.32  140.79
   0  -1  -5 3431.96  245.28
   0  -1   5 3148.28  245.28
   0  -1  -5 4017.90  245.28
   0  -1  -5 3988.50  245.28
   0  -1   5 3059.09  245.28
   0  -1  -5 3254.07  245.28
   0  -1   5 3688.43  245.28
   0  -1   5 3422.36  245.28
   0  -1   5 3380.26  245.38
   0   1  -5 3377.96  245.28
   0   1   5 3240.98  245.28
   0   1   5 3541.55  245.28
   0   1   5 3519.15  245.28
   0   1   5 3974.20  245.38
   1  -1   5 1653.73  110.79
  -1  -1  -5 1437.26  110.79
  -1  -1  -5 1510.45  110.79
  -1  -1  -5 1675.53  110.79
   1  -1   5 1474.35  110.79
  -1  -1  -5 1638.84  110.79
   1  -1   5 1662.03  110.79
  -1  -1  -5 1673.13  110.79
  -1  -1  -5 1580.34  110.79
  -1  -1  -5 1669.13  110.79
   1  -1   5 1378.86  110.79
  -1   1  -5 1571.74  110.79
  -1   1  -5 1639.14  110.79
   1   1   5 1577.94  110.79
  -2  -1  -5 1441.76  101.09
  -2  -1  -5 1509.55  101.09
   2  -1   5 1400.76  101.09
  -2  -1  -5 1387.86  101.09
   2  -1   5 1429.06  101.09
   2  -1   5 1526.05  101.09
  -2  -1  -5 1323.07  101.09
  -2  -1  -5 1508.65  101.09
  -2  -1  -5 1443.66  101.09
  -2  -1  -5 1457.55  101.09
  -2  -1  -5 1487.15  101.09
  -2  -1  -5 1242.28  101.09
  -2  -1  -5 1307.97  101.09
  -2   1  -5 1557.14  101.19
  -2   1  -5 1535.45  100.99
  -2   1  -5 1568.64  101.09
  -2   1  -5 1435.86  101.09
  -2   1  -5 1429.86  101.09
  -2   1  -5 1311.57  101.09
   2   1   5 1550.14  101.09
  -3  -1  -5 1689.83  132.69
   3  -1   5 1717.53  132.69
  -3  -1  -5 1940.71  132.69
  -3  -1  -5 1908.01  132.69
  -3  -1  -5 1845.12  132.69
  -3  -1  -5 1724.63  132.69
  -3  -1  -5 1987.80  132.69
   3  -1   5 2109.99  132.69
  -3  -1  -5 1869.61  132.69
  -3  -1  -5 1979.30  132.69
  -3  -1  -5 1714.53  132.59
  -3  -1  -5 1934.01  132.69
  -3  -1  -5 1878.11  132.69
   3  -1   5 1715.13  132.69
  -3  -1  -5 1942.21  132.69
  -3  -1  -5 1838.92  132.69
  -3   1  -5 1807.62  132.69
  -3   1  -5 2130.29  132.79
  -3   1  -5 1950.20  132.69
  -3   1  -5 2038.10  132.69
  -3   1  -5 1987.90  132.59
  -3   1  -5 1774.32  132.69
  -3   1  -5 1954.50  132.59
   3   1   5 2010.30  132.69
  -4  -1  -5  344.37   24.20
  -4  -1  -5  331.57   24.20
  -4  -1  -5  357.96   24.10
  -4  -1  -5  378.26   24.20
  -4  -1  -5  324.67   24.10
  -4  -1  -5  337.87   24.10
  -4  -1  -5  361.46   24.30
   4  -1   5  297.87   24.20
  -4  -1  -5  322.27   24.20
   4  -1   5  365.06   24.10
  -4  -1  -5  315.37   24.10
  -4  -1  -5  350.26   24.20
  -4  -1  -5  356.06   24.30
  -4  -1  -5  321.67   24.10
  -4  -1  -5  339.77   24.10
  -4  -1  -5  337.37   24.20
  -4  -1  -5  346.27   24.20
  -4   1  -5  325.57   24.40
  -4   1  -5  324.07   24.20
  -4   1  -5  375.26   24.10
  -4   1  -5  341.57   24.10
  -4   1  -5  344.27   24.10
   4   1   5  366.76   24.20
  -4   1  -5  360.16   24.30
  -4   1  -5  355.86   24.10
  -4   1  -5  351.66   24.10
  -4   1  -5  330.17   24.10
   5  -1   5    1.20    1.00
  -5  -1  -5    1.40    0.80
  -5  -1  -5    1.60    1.10
  -5  -1  -5    2.40    0.70
  -5  -1  -5    2.20    0.70
  -5  -1  -5    2.40    0.80
  -5  -1  -5    0.80    0.70
  -5  -1  -5    1.00    0.60
  -5  -1  -5    1.70    0.60
  -5  -1  -5    1.80    0.80
  -5  -1  -5    2.30    0.60
  -5  -1  -5    3.00    0.70
  -5   1  -5    2.30    0.70
   5   1   5    4.20    1.20
  -5   1  -5    2.90    0.70
  -5   1  -5    1.10    0.70
   5   1   5    1.50    0.90
  -5   1  -5    2.40    1.00
  -5   1  -5    1.30    0.70
  -5   1  -5    1.40    0.50
  -5   1  -5    1.70    0.70
  -5   1  -5    3.20    1.50
  -6  -1  -5    3.90    1.30
  -6  -1  -5    4.70    0.90
  -6  -1  -5    6.60    1.10
  -6  -1  -5    5.40    1.10
  -6  -1  -5    2.80    1.00
  -6  -1  -5    4.50    0.80
  -6  -1  -5    4.30    0.90
  -6  -1  -5    5.40    1.10
  -6  -1  -5    3.80    1.00
  -6  -1  -5    6.30    0.90
  -6  -1  -5    5.40    1.00
  -6   1  -5    6.10    1.00
  -6   1  -5    7.00    1.60
  -6   1  -5    4.40    0.90
  -6   1  -5    5.00    0.70
   6   1   5    9.00    1.70
  -6   1  -5    5.10    1.00
  -6   1  -5    4.40    1.00
  -6   1  -5    5.90    1.00
  -6   1  -5    7.70    1.70
  -6   1  -5    4.60    0.90
  -6   1  -5    7.10    1.10
   6   1   5    4.70    1.10
  -7  -1  -5   44.40    4.00
  -7  -1  -5   50.09    3.90
  -7  -1  -5   52.19    3.90
  -7  -1  -5   49.70    3.80
  -7  -1  -5   51.29    4.10
  -7  -1  -5   47.60    4.20
   7  -1   5   52.29    4.00
  -7  -1  -5   54.89    3.90
  -7  -1  -5   52.29    3.90
  -7  -1  -5   49.99    4.00
  -7  -1  -5   55.59    4.00
   7   1   5   51.89    4.10
  -7   1  -5   54.29    4.40
  -7   1  -5   56.79    4.50
  -7   1  -5   55.29    3.90
  -7   1  -5   52.09    4.00
  -7   1  -5   51.09    3.90
  -7   1  -5   48.80    3.90
  -7   1  -5   52.89    3.90
  -7   1  -5   46.50    4.00
  -8  -1  -5  227.58   15.60
  -8  -1  -5  229.08   15.60
  -8  -1  -5  209.98   15.50
  -8  -1  -5  214.18   15.50
  -8  -1  -5  199.78   15.40
  -8  -1  -5  206.28   15.50
  -8  -1  -5  206.88   15.50
  -8  -1  -5  211.78   15.70
  -8  -1  -5  231.68   15.60
  -8  -1  -5  219.48   15.50
  -8  -1  -5  230.08   15.60
   8  -1   5  227.48   15.60
  -8  -1  -5  216.98   15.60
  -8   1  -5  214.08   15.60
  -8   1  -5  224.28   15.90
  -8   1  -5  218.18   15.50
   8   1   5  217.58   15.60
  -8   1  -5  212.18   15.50
  -8   1  -5  233.18   15.80
  -8   1  -5  226.58   15.50
  -8   1  -5  211.08   15.50
  -8   1  -5  220.08   15.50
  -9  -1  -5  127.19    8.40
  -9  -1  -5  116.89    8.20
  -9  -1  -5  116.49    8.50
  -9  -1  -5  107.99    8.30
  -9  -1  -5  116.69    8.20
  -9  -1  -5  104.69    8.20
  -9  -1  -5  113.99    8.50
   9  -1   5  117.29    8.30
  -9  -1  -5  128.79    8.40
  -9  -1  -5  104.59    8.10
   9   1   5  109.89    8.30
  -9   1  -5  109.29    8.20
  -9   1  -5  112.19    8.70
  -9   1  -5   96.09    8.80
  -9   1  -5  110.59    8.20
  -9   1  -5  112.99    8.20
  -9   1  -5  116.79    8.20
  -9   1  -5  124.99    8.60
  -9   1  -5  106.89    8.20
 -10  -1  -5  183.08   13.90
 -10  -1  -5  196.18   13.80
 -10  -1  -5  168.28   13.80
 -10  -1  -5  194.58   13.80
 -10  -1  -5  219.68   13.90
 -10  -1  -5  212.98   13.90
  10  -1   5  192.08   13.90
 -10  -1  -5  186.98   13.90
 -10  -1  -5  200.68   13.80
 -10  -1  -5  190.88   13.70
 -10  -1  -5  194.08   13.90
 -10  -1  -5  209.88   14.10
 -10  -1  -5  177.68   13.70
 -10   1  -5  185.48   13.80
 -10   1  -5  182.58   13.80
 -10   1  -5  198.58   13.90
 -10   1  -5  202.48   14.00
 -10   1  -5  203.08   13.80
 -10   1  -5  186.98   13.80
 -10   1  -5  193.08   13.80
  11  -1   5  156.98   11.60
 -11  -1  -5  155.38   11.50
 -11  -1  -5  140.59   11.50
 -11  -1  -5  182.28   11.60
 -11  -1  -5  166.98   11.60
 -11  -1  -5  171.38   11.50
 -11   1  -5  168.18   11.60
 -11   1  -5  157.68   11.60
 -11   1  -5  169.18   11.70
 -11   1  -5  171.98   11.60
 -11   1  -5  142.29   11.50
 -11   1  -5  155.58   11.60
  12  -1   5   39.30    3.60
 -12  -1  -5   46.80    3.50
 -12  -1  -5   44.40    3.60
 -12  -1  -5   50.49    3.50
 -12   1  -5   45.60    3.60
 -12   1  -5   44.60    3.50
 -12   1  -5   38.50    3.50
 -12   1  -5   47.80    3.50
 -14  -2   5  120.89    8.60
 -14  -2   5  124.19    8.90
 -14  -2   5  122.29    8.50
 -14  -2   5  115.19    8.60
 -14  -2   5  109.39    8.60
 -14   2   5  113.19    8.50
 -14   2   5  126.19    8.70
 -13  -2   5   54.99    4.60
 -13  -2   5   61.79    4.50
 -13  -2   5   49.80    4.80
 -13  -2   5   64.59    4.60
 -13  -2   5   62.19    4.60
 -13  -2   5   59.39    4.60
 -13  -2   5   64.19    4.90
 -13  -2   5   57.19    5.10
 -13   2   5   56.29    4.70
 -13   2   5   63.49    4.70
 -13   2   5   58.69    4.40
 -13   2   5   61.59    4.50
 -12  -2   5    9.20    1.80
 -12  -2   5    4.90    1.60
 -12  -2   5    8.90    1.30
 -12  -2   5    7.70    1.30
 -12  -2   5    9.70    1.70
 -12  -2   5    4.70    1.30
 -12  -2   5    7.90    1.40
 -12   2   5    8.10    1.30
 -12   2   5    4.80    1.10
 -12   2   5    7.00    1.20
 -12   2   5    7.70    1.00
 -11  -2   5    1.80    1.40
 -11  -2   5   -0.70    1.40
 -11  -2   5   -0.60    1.30
 -11  -2   5   -0.40    1.00
  11  -2  -5   -0.30    1.40
 -11  -2   5    0.70    0.80
 -11  -2   5    0.10    1.00
 -11   2   5    0.30    1.20
 -11   2   5   -2.00    0.90
 -11   2   5    0.90    0.80
  10  -2  -5    0.50    0.80
 -10  -2   5    2.00    1.20
 -10  -2   5    0.90    1.10
 -10  -2   5    0.00    1.00
 -10  -2   5    0.40    0.80
 -10  -2   5    1.60    1.00
 -10  -2   5    0.80    1.10
 -10  -2   5   -1.80    1.00
 -10  -2   5   -0.10    1.30
 -10   2   5    0.50    0.80
 -10   2   5   -0.20    0.60
 -10   2   5    2.40    1.50
 -10   2   5    0.30    0.60
 -10   2   5   -0.30    0.90
 -10   2   5    0.20    0.80
  -9  -2   5  107.09    9.10
  -9  -2   5  137.49    9.00
  -9  -2   5  122.39    8.90
  -9  -2   5  134.89    9.00
  -9  -2   5  127.49    9.00
  -9  -2   5  125.89    9.00
  -9  -2   5  108.89    9.10
  -9  -2   5  104.89    9.00
  -9  -2   5  135.19    9.20
  -9  -2   5  116.89    9.00
   9  -2  -5  136.59    8.90
  -9  -2   5  118.79    8.90
  -9   2   5  131.09    8.80
  -9   2   5  119.39    8.80
  -9   2   5  122.99    8.90
  -9   2   5  139.19    9.00
  -9   2   5  104.39    9.00
  -9   2   5  127.49    8.90
  -8  -2   5  305.27   22.50
  -8  -2   5  300.17   22.40
   8  -2  -5  337.87   22.40
  -8  -2   5  338.47   22.50
  -8  -2   5  275.37   22.50
  -8  -2   5  319.27   22.40
  -8  -2   5  286.37   22.50
  -8  -2   5  297.37   22.40
  -8  -2   5  313.37   22.30
  -8  -2   5  321.27   22.40
  -8  -2   5  334.17   22.40
  -8  -2   5  322.17   22.50
  -8   2   5  358.86   22.40
  -8   2   5  361.46   22.30
  -8   2   5  270.57   22.50
  -8   2   5  325.87   22.40
  -8   2   5  337.27   22.50
  -8   2   5  315.07   22.40
  -8   2   5  305.97   22.30
  -7  -2   5  505.75   40.30
  -7  -2   5  572.54   40.30
  -7  -2   5  570.94   40.30
  -7  -2   5  537.75   40.30
  -7  -2   5  612.64   40.20
  -7  -2   5  530.05   40.50
  -7  -2   5  588.54   40.20
  -7  -2   5  631.64   40.20
  -7  -2   5  553.34   40.40
  -7  -2   5  601.44   40.30
  -7  -2   5  628.74   40.30
  -7  -2   5  532.75   40.20
  -7   2   5  622.84   40.30
  -7   2   5  592.44   40.30
  -7   2   5  551.84   40.30
  -7   2   5  643.24   40.20
  -7   2   5  484.55   40.30
  -7   2   5  538.25   40.20
  -6  -2   5 2381.76  157.78
  -6  -2   5 2226.48  157.68
  -6  -2   5 2393.26  157.58
  -6  -2   5 2436.26  157.68
  -6  -2   5 2123.39  157.68
  -6  -2   5 1991.90  157.68
   6  -2  -5 2205.08  157.68
  -6  -2   5 2168.98  157.68
  -6  -2   5 2569.74  157.68
  -6  -2   5 2001.30  157.78
  -6  -2   5 2172.98  157.58
  -6  -2   5 2006.40  157.68
  -6  -2   5 2335.87  157.68
   6  -2  -5 2480.15  157.58
  -6  -2   5 2437.06  157.78
  -6  -2   5 2218.38  157.78
  -6   2   5 2146.59  157.78
  -6   2   5 1989.00  157.68
  -6   2   5 2470.15  157.68
  -5  -2   5 1606.84  132.79
  -5  -2   5 1969.90  132.79
  -5  -2   5 1930.51  132.69
  -5  -2   5 1859.51  132.79
  -5  -2   5 1794.72  132.79
  -5  -2   5 1933.01  132.79
  -5  -2   5 1860.71  132.79
   5  -2  -5 1835.82  132.69
  -5  -2   5 2041.80  132.79
  -5  -2   5 1947.81  132.79
  -5  -2   5 1621.24  132.79
  -5  -2   5 1854.21  132.79
  -5  -2   5 1941.71  132.69
   5  -2  -5 1809.52  132.69
   5  -2  -5 1999.60  132.79
  -5  -2   5 1767.52  132.79
  -5  -2   5 2046.90  132.79
  -5   2   5 2165.98  132.69
  -5   2   5 1592.14  132.79
  -5   2   5 2001.80  132.79
  -5   2   5 2087.69  132.79
  -5   2   5 2002.20  132.69
  -4  -2   5  851.51   59.09
  -4  -2   5  855.81   58.99
  -4  -2   5  942.61   58.99
  -4  -2   5  858.61   59.09
  -4  -2   5  765.42   59.09
   4  -2  -5  845.92   58.99
  -4  -2   5  763.92   59.09
  -4  -2   5  811.02   59.09
  -4  -2   5  823.02   59.09
  -4  -2   5  753.62   59.09
   4  -2  -5  874.51   58.99
  -4  -2   5  842.62   59.09
  -4  -2   5  773.02   59.09
  -4  -2   5  944.11   59.09
  -4  -2   5  778.22   59.09
   4  -2  -5  811.82   58.99
  -4   2   5  840.72   58.99
  -4   2   5  927.21   59.09
  -4   2   5  751.12   58.99
  -4   2   5  944.91   58.99
  -4   2   5  872.61   58.99
  -4   2   5  877.21   59.09
  -3  -2   5 2695.13  181.88
  -3  -2   5 2474.05  181.88
   3  -2  -5 2709.43  181.88
  -3  -2   5 2560.14  181.88
   3  -2  -5 2897.31  181.78
  -3  -2   5 2431.36  181.88
  -3  -2   5 2703.63  181.98
  -3  -2   5 2699.33  181.88
  -3  -2   5 2629.24  181.88
  -3  -2   5 2462.75  181.88
   3  -2  -5 2536.25  181.88
  -3  -2   5 2379.56  181.98
  -3  -2   5 2582.04  181.88
  -3  -2   5 2527.25  181.88
   3  -2  -5 2514.45  196.38
  -3  -2   5 2865.21  181.98
  -3  -2   5 2249.87  181.88
  -3   2   5 2661.33  181.88
  -3   2   5 2867.41  181.98
  -3   2   5 2822.92  181.98
  -3   2   5 2736.03  181.88
   3   2  -5 2321.07  181.88
  -3   2   5 2666.43  181.88
  -3   2   5 2343.87  181.78
  -3   2   5 2561.94  181.88
  -2  -2   5 1792.52  125.19
  -2  -2   5 1703.63  125.09
  -2  -2   5 1492.95  125.09
   2  -2  -5 1753.02  125.09
   2  -2  -5 1756.12  125.09
  -2  -2   5 1750.92  125.09
  -2  -2   5 1970.70  125.19
  -2  -2   5 1695.43  125.19
  -2  -2   5 1653.93  125.19
   2  -2  -5 1765.52  125.09
   2  -2  -5 1754.92  125.09
   2  -2  -5 1928.81  125.19
   2  -2  -5 1789.02  125.09
  -2  -2   5 1956.80  125.09
  -2  -2   5 1794.02  125.19
  -2   2   5 1884.81  125.19
  -2   2   5 1866.11  125.09
  -2   2   5 1706.03  125.09
  -2   2   5 1912.91  125.09
   1  -2  -5   55.19    4.20
  -1  -2   5   60.09    4.30
  -1  -2   5   56.19    4.20
   1  -2  -5   53.69    4.20
   1  -2  -5   59.89    4.20
  -1  -2   5   65.69    4.40
   1  -2  -5   59.69    4.20
   1  -2  -5   56.09    4.20
  -1  -2   5   54.89    4.60
  -1  -2   5   57.39    4.30
  -1  -2   5   53.99    4.20
   1  -2  -5   58.69    4.40
   1  -2  -5   55.19    4.30
  -1  -2   5   54.19    4.20
   1  -2  -5   64.69    4.30
   1  -2  -5   66.29    4.40
  -1  -2   5   53.09    4.30
  -1  -2   5   59.19    4.20
  -1   2   5   57.89    4.30
   1   2  -5   58.69    4.20
  -1   2   5   56.19    4.30
  -1   2   5   59.29    4.20
   0  -2   5    0.10    0.60
   0  -2   5    1.60    1.50
   0  -2   5    1.20    0.70
   0  -2  -5    1.10    0.90
   0  -2  -5    0.30    0.50
   0  -2  -5    0.10    0.60
   0  -2  -5    0.30    0.70
   0  -2  -5    0.70    0.60
   0  -2  -5    1.50    0.40
   0  -2   5    0.80    0.70
   0  -2  -5    0.40    0.50
   0  -2   5    0.50    0.50
   0  -2   5    1.00    0.50
   0  -2  -5    1.40    0.70
   0  -2  -5    0.80    0.80
   0   2  -5    1.10    1.00
   0   2  -5    0.50    0.60
   0   2   5    1.20    0.60
   0   2   5    1.40    0.70
   0   2  -5    0.60    0.50
   0   2   5    0.90    0.50
   1  -2   5    7.90    1.30
  -1  -2  -5    9.20    1.30
  -1  -2  -5    9.90    1.20
  -1  -2  -5    7.80    1.00
  -1  -2  -5   11.70    1.30
   1  -2   5   12.60    1.20
  -1  -2  -5    7.50    0.90
  -1  -2  -5    9.90    1.20
  -1  -2  -5   10.50    1.10
  -1  -2  -5   10.50    1.40
   1  -2   5   11.50    1.10
  -1  -2  -5   10.70    1.00
  -1  -2  -5    9.30    1.10
   1  -2   5    7.70    1.20
   1  -2   5    8.40    1.10
  -1   2  -5   12.00    1.20
  -1   2  -5    9.50    1.00
  -1   2  -5    8.60    1.30
   1   2   5    9.90    1.10
   1   2   5    9.50    1.20
   1   2   5   10.90    1.20
  -2  -2  -5  449.95   30.80
   2  -2   5  371.16   30.80
  -2  -2  -5  441.46   30.70
  -2  -2  -5  459.55   30.80
  -2  -2  -5  467.55   30.80
   2  -2   5  393.96   30.80
  -2  -2  -5  436.86   30.90
   2  -2   5  478.25   30.80
  -2  -2  -5  464.25   30.70
   2  -2   5  436.56   30.80
  -2  -2  -5  394.66   30.80
  -2  -2  -5  415.06   30.70
   2   2   5  422.86   30.80
  -2   2  -5  456.55   30.80
  -2   2  -5  489.95   30.80
  -2   2  -5  412.16   30.70
  -2   2  -5  449.46   30.70
   3  -2   5 1161.88   82.09
  -3  -2  -5 1209.78   82.19
  -3  -2  -5 1196.08   82.19
   3  -2   5 1196.68   82.09
  -3  -2  -5 1166.48   82.19
  -3  -2  -5 1163.28   82.09
  -3  -2  -5 1208.58   82.09
   3  -2   5 1060.19   82.09
   3  -2   5 1129.79   82.19
  -3  -2  -5 1131.79   82.09
  -3  -2  -5 1199.28   82.09
  -3  -2  -5 1145.59   82.09
  -3  -2  -5 1131.09   82.09
  -3  -2  -5 1054.39   81.99
  -3  -2  -5 1097.29   82.19
  -3  -2  -5 1123.19   82.19
  -3   2  -5 1326.87   82.09
  -3   2  -5 1119.29   82.19
  -3   2  -5 1327.07   82.19
  -3   2  -5 1169.18   82.09
  -3   2  -5 1289.47   82.29
   3   2   5 1156.58   82.09
   4  -2   5  595.44   40.90
   4  -2   5  569.44   40.80
  -4  -2  -5  585.64   40.80
  -4  -2  -5  578.24   40.90
  -4  -2  -5  608.44   40.90
   4  -2   5  589.94   40.80
  -4  -2  -5  620.64   40.80
   4  -2   5  498.25   40.80
  -4  -2  -5  559.14   40.80
  -4  -2  -5  617.84   40.80
  -4  -2  -5  551.54   40.80
  -4  -2  -5  539.55   40.80
  -4  -2  -5  587.84   40.90
  -4  -2  -5  573.04   40.70
  -4  -2  -5  601.24   40.90
  -4  -2  -5  564.14   40.80
  -4  -2  -5  640.94   40.90
  -4   2  -5  574.74   40.80
  -4   2  -5  617.44   40.80
  -4   2  -5  576.24   40.80
   4   2   5  587.14   40.80
  -4   2  -5  542.45   40.90
  -5  -2  -5  482.85   35.30
  -5  -2  -5  540.65   35.40
   5  -2   5  446.36   35.30
  -5  -2  -5  441.26   35.30
  -5  -2  -5  536.55   35.40
  -5  -2  -5  492.55   35.40
  -5  -2  -5  497.95   35.40
  -5  -2  -5  531.85   35.50
  -5  -2  -5  533.55   35.50
  -5  -2  -5  524.25   35.40
  -5  -2  -5  502.95   35.30
  -5  -2  -5  534.35   35.30
  -5  -2  -5  502.05   35.30
   5  -2   5  453.05   35.40
  -5  -2  -5  484.85   35.40
  -5   2  -5  515.45   35.30
  -5   2  -5  501.05   35.30
  -5   2  -5  524.65   35.40
  -6  -2  -5  920.81   64.59
  -6  -2  -5  982.20   64.59
  -6  -2  -5  875.11   64.49
  -6  -2  -5  896.21   64.49
   6  -2   5  843.62   64.49
  -6  -2  -5  961.10   64.49
  -6  -2  -5 1002.90   64.59
  -6  -2  -5  817.82   64.39
  -6  -2  -5  888.81   64.49
  -6  -2  -5  872.51   64.49
  -6  -2  -5  984.90   64.59
  -6  -2  -5  956.90   64.39
  -6  -2  -5  914.61   64.49
  -6   2  -5  939.01   64.49
  -6   2  -5  902.01   64.49
  -6   2  -5  958.50   64.79
  -6   2  -5  934.71   64.49
  -6   2  -5  885.41   64.49
  -7  -2  -5  679.23   54.09
  -7  -2  -5  758.32   54.19
  -7  -2  -5  790.12   54.09
  -7  -2  -5  842.22   54.09
  -7  -2  -5  752.32   53.99
  -7  -2  -5  764.22   53.99
  -7  -2  -5  699.83   54.09
  -7  -2  -5  848.32   54.19
  -7  -2  -5  826.42   54.19
  -7  -2  -5  733.23   54.09
  -7  -2  -5  740.73   53.99
  -7   2  -5  755.52   54.09
  -7   2  -5  795.32   54.09
  -7   2  -5  783.62   54.09
  -7   2  -5  745.23   53.99
  -7   2  -5  806.22   54.29
  -7   2  -5  761.92   54.09
  -8  -2  -5  192.08   13.70
   8  -2   5  203.78   13.50
  -8  -2  -5  182.68   13.30
  -8  -2  -5  183.88   13.40
  -8  -2  -5  186.88   13.30
  -8  -2  -5  187.88   13.40
  -8  -2  -5  202.58   13.40
  -8  -2  -5  193.28   13.50
  -8   2  -5  187.58   13.40
  -8   2  -5  181.08   13.40
  -8   2  -5  181.78   13.30
  -8   2  -5  183.18   13.60
  -8   2  -5  171.68   14.30
  -8   2  -5  186.68   13.30
  -9  -2  -5  126.49    9.60
  -9  -2  -5  126.89    9.50
  -9  -2  -5  141.19    9.70
  -9  -2  -5  143.39    9.70
   9  -2   5  138.39    9.60
  -9  -2  -5  137.89    9.50
  -9  -2  -5  127.79    9.50
  -9  -2  -5  132.39    9.50
  -9  -2  -5  133.79    9.60
  -9  -2  -5  135.19    9.60
  -9  -2  -5  145.09    9.70
  -9  -2  -5  131.19    9.60
  -9   2  -5  134.79    9.60
  -9   2  -5  135.49    9.90
  -9   2  -5  117.39    9.50
  -9   2  -5  126.09    9.50
  -9   2  -5  130.29    9.60
  -9   2  -5  130.79    9.60
 -10  -2  -5   90.49    7.00
 -10  -2  -5   92.49    6.90
 -10  -2  -5   98.09    7.00
  10  -2   5   96.79    7.00
 -10  -2  -5   93.89    7.10
 -10  -2  -5  106.39    7.00
 -10  -2  -5  108.59    7.20
 -10  -2  -5   91.49    6.80
 -10  -2  -5   98.09    7.00
 -10  -2  -5  100.19    6.90
 -10  -2  -5   93.79    6.90
 -10  -2  -5  100.69    7.10
 -10   2  -5   83.99    7.50
 -10   2  -5   86.79    7.00
 -10   2  -5   94.29    7.20
 -10   2  -5   87.49    6.90
 -10   2  -5   99.49    7.00
 -10   2  -5   91.99    7.00
  11  -2   5    1.30    1.10
 -11  -2  -5    2.20    1.00
 -11  -2  -5    1.10    0.90
 -11  -2  -5    1.20    0.70
 -11  -2  -5    2.80    1.30
 -11  -2  -5    1.00    0.40
 -11   2  -5    2.30    1.00
 -11   2  -5    2.90    1.00
 -11   2  -5    1.00    0.90
 -11   2  -5    0.50    0.90
 -13  -3   5    5.70    1.80
 -13  -3   5   -0.30    1.60
 -13  -3   5    2.00    0.80
 -13  -3   5    4.50    1.10
 -13   3   5    2.40    1.00
 -13   3   5    3.70    0.90
 -13   3   5    3.00    1.50
 -12  -3   5   40.10    3.50
 -12  -3   5   29.90    2.90
 -12  -3   5   32.70    3.10
 -12  -3   5   35.00    2.90
 -12  -3   5   33.80    3.20
 -12  -3   5   37.90    3.00
 -12   3   5   30.70    3.40
 -12   3   5   38.50    2.80
 -12   3   5   39.20    3.00
 -11  -3   5  105.99    8.30
 -11  -3   5  122.19    8.40
  11  -3  -5  112.79    8.30
 -11  -3   5  130.09    8.30
 -11  -3   5  118.99    8.40
 -11  -3   5  106.09    8.40
 -11  -3   5  119.39    8.50
 -11   3   5  101.09    8.30
 -11   3   5  109.79    8.30
 -11   3   5  118.19    8.20
 -10  -3   5   62.09    4.90
 -10  -3   5   60.69    4.80
 -10  -3   5   72.09    5.00
 -10  -3   5   66.89    5.00
  10  -3  -5   64.89    4.70
 -10   3   5   59.39    4.80
 -10   3   5   58.89    4.80
 -10   3   5   58.69    5.90
 -10   3   5   63.99    4.70
  -9  -3   5  126.09    8.60
  -9  -3   5  112.19    8.30
  -9  -3   5   98.79    8.20
  -9  -3   5  118.19    8.40
  -9  -3   5  120.79    8.40
  -9  -3   5  125.19    8.30
  -9  -3   5  106.69    8.30
   9  -3  -5  121.39    8.20
  -9  -3   5  119.19    8.30
  -9   3   5  117.99    8.40
  -9   3   5  108.49    8.10
  -9   3   5  103.19    8.20
  -9   3   5   99.49    8.30
  -9   3   5  112.19    8.20
   8  -3  -5   72.09    5.50
  -8  -3   5   82.39    5.70
  -8  -3   5   72.39    5.60
  -8  -3   5   77.59    5.60
  -8  -3   5   85.19    5.90
  -8  -3   5   80.29    5.70
  -8   3   5   60.59    5.50
  -8   3   5   62.39    5.50
  -8   3   5   74.39    5.40
   7  -3  -5   -0.30    0.80
  -7  -3   5    2.50    1.10
  -7  -3   5    0.50    1.10
  -7  -3   5   -1.60    1.20
  -7   3   5    0.40    0.80
  -7   3   5   -0.90    1.10
  -7   3   5   -0.40    0.70
  -6  -3   5    1.30    1.00
  -6  -3   5    1.90    1.30
  -6  -3   5    3.30    1.30
  -6  -3   5    1.00    1.20
  -6  -3   5    0.10    1.10
   6  -3  -5    0.20    0.70
  -6  -3   5    2.10    1.10
  -6  -3   5    3.80    1.10
  -6   3   5    2.00    0.70
  -6   3   5    1.70    1.00
  -6   3   5    0.60    0.60
  -5  -3   5    6.90    1.20
  -5  -3   5    6.30    1.40
   5  -3  -5    6.30    0.90
  -5  -3   5    7.00    1.30
  -5  -3   5    4.80    1.10
   5  -3  -5    2.40    1.20
   5  -3  -5    4.50    1.40
  -5  -3   5    3.50    1.00
  -5  -3   5    4.80    1.20
  -5  -3   5    5.50    1.30
  -5   3   5    4.60    0.90
  -5   3   5    4.30    0.80
   4  -3  -5   17.50    1.50
  -4  -3   5   14.60    1.90
  -4  -3   5   19.20    1.70
  -4  -3   5   18.80    1.70
   4  -3  -5   17.80    1.50
  -4  -3   5   15.40    1.80
  -4  -3   5   18.60    1.80
  -4  -3   5   13.70    1.90
   4  -3  -5   19.80    2.10
  -4  -3   5   18.50    1.70
   4  -3  -5   13.10    1.90
  -4  -3   5   13.70    2.00
  -4  -3   5   13.50    1.90
  -4   3   5   15.00    1.80
  -4   3   5   16.50    1.80
   4   3  -5   14.20    1.60
   4   3  -5   12.40    2.60
  -4   3   5   13.80    1.50
  -3  -3   5  162.58   11.00
  -3  -3   5  165.08   10.90
  -3  -3   5  150.88   11.00
  -3  -3   5  152.68   11.00
   3  -3  -5  174.78   10.90
   3  -3  -5  159.48   10.80
   3  -3  -5  151.58   11.20
  -3  -3   5  165.78   10.90
  -3  -3   5  147.29   10.80
  -3  -3   5  147.59   10.90
  -3  -3   5  153.68   10.90
   3  -3  -5  135.29   10.90
   3  -3  -5  151.88   10.80
  -3  -3   5  142.89   11.00
  -3   3   5  142.09   10.80
  -3   3   5  155.78   10.90
  -3   3   5  145.09   10.90
  -3   3   5  157.78   11.00
   3   3  -5  149.79   10.80
   3   3  -5  127.09   11.00
   2  -3  -5   65.99    4.60
   2  -3  -5   64.59    4.90
  -2  -3   5   69.49    4.80
   2  -3  -5   71.49    5.00
  -2  -3   5   66.99    4.70
  -2  -3   5   61.09    4.90
  -2  -3   5   58.69    4.90
   2  -3  -5   69.99    4.60
  -2  -3   5   63.79    4.70
   2  -3  -5   51.89    4.70
  -2  -3   5   64.09    4.80
  -2  -3   5   60.69    4.90
   2  -3  -5   56.89    4.80
  -2  -3   5   65.19    4.70
  -2  -3   5   57.19    4.80
  -2   3   5   68.19    4.90
   2   3  -5   60.59    4.70
  -2   3   5   65.09    4.70
  -2   3   5   67.39    4.90
   2   3  -5   53.29    5.00
  -1  -3   5   30.70    2.50
   1  -3  -5   25.20    2.60
  -1  -3   5   27.30    2.80
  -1  -3   5   31.20    2.70
   1  -3  -5   34.40    2.40
   1  -3  -5   35.40    2.80
   1  -3  -5   25.10    2.60
   1  -3  -5   28.20    2.60
  -1  -3   5   30.00    2.60
   1  -3  -5   31.80    2.40
  -1  -3   5   38.00    3.20
  -1  -3   5   24.90    2.70
   1  -3  -5   34.10    2.80
  -1  -3   5   34.90    2.50
  -1  -3   5   25.90    2.60
  -1   3   5   32.40    2.80
  -1   3   5   32.40    2.70
   1   3  -5   31.90    2.50
   0  -3  -5  261.17   20.40
   0  -3   5  279.07   20.50
   0  -3  -5  289.57   20.30
   0  -3   5  308.77   20.40
   0  -3  -5  307.87   20.40
   0  -3  -5  280.47   20.40
   0  -3  -5  274.57   20.30
   0  -3   5  280.87   20.50
   0  -3  -5  285.97   20.40
   0  -3  -5  248.78   20.40
   0  -3  -5  302.97   20.50
   0  -3  -5  293.47   20.60
   0  -3   5  290.97   20.50
   0  -3  -5  332.47   20.50
   0   3  -5  288.57   20.40
   0   3   5  275.77   20.50
   0   3  -5  308.67   20.40
  -1  -3  -5  340.67   22.20
  -1  -3  -5  285.37   22.20
  -1  -3  -5  334.27   22.40
  -1  -3  -5  310.07   22.20
   1  -3   5  311.77   22.30
  -1  -3  -5  307.87   22.20
   1  -3   5  316.67   22.20
  -1  -3  -5  338.07   22.20
   1  -3   5  320.07   22.30
   1  -3   5  296.37   22.30
  -1  -3  -5  290.17   22.10
  -1  -3  -5  322.77   22.30
  -1  -3  -5  287.67   22.20
   1  -3   5  300.57   22.30
  -1   3  -5  338.87   22.20
   1   3   5  307.27   22.30
  -1   3  -5  342.77   22.20
  -2  -3  -5  146.39   11.40
  -2  -3  -5  148.29   11.50
   2  -3   5  160.78   11.50
  -2  -3  -5  161.68   11.40
   2  -3   5  148.09   11.40
   2  -3   5  169.48   11.40
  -2  -3  -5  170.28   11.50
   2  -3   5  153.28   11.40
  -2  -3  -5  167.08   11.30
  -2  -3  -5  161.38   11.40
  -2  -3  -5  155.58   11.50
   2   3   5  150.58   11.50
  -2   3  -5  166.28   11.40
  -2   3  -5  178.68   11.40
  -3  -3  -5  163.78   11.40
  -3  -3  -5  172.98   11.50
  -3  -3  -5  163.38   11.40
   3  -3   5  167.68   11.50
  -3  -3  -5  137.59   11.50
  -3  -3  -5  159.18   11.40
  -3  -3  -5  156.98   11.30
  -3  -3  -5  160.58   11.50
  -3  -3  -5  158.38   11.50
  -3  -3  -5  150.68   11.50
   3  -3   5  155.88   11.50
   3  -3   5  153.18   11.50
  -3   3  -5  169.28   11.40
  -3   3  -5  169.48   11.40
  -3   3  -5  160.98   11.50
  -4  -3  -5  199.18   14.40
  -4  -3  -5  205.68   14.20
  -4  -3  -5  194.58   14.30
  -4  -3  -5  188.78   14.40
  -4  -3  -5  201.18   14.40
  -4  -3  -5  215.28   14.50
   4  -3   5  179.48   14.40
  -4  -3  -5  206.38   14.40
   4  -3   5  217.08   14.40
   4  -3   5  203.38   14.70
  -4  -3  -5  198.98   14.40
  -4  -3  -5  206.68   14.40
  -4  -3  -5  190.38   14.30
  -4   3  -5  213.78   14.50
  -4   3  -5  204.58   14.40
   4   3   5  201.08   14.40
  -5  -3  -5    9.40    1.00
   5  -3   5   10.10    2.00
  -5  -3  -5   10.60    1.60
  -5  -3  -5    9.10    1.60
  -5  -3  -5    6.40    1.50
  -5  -3  -5    8.60    1.50
  -5  -3  -5    9.70    1.40
   5  -3   5    8.50    1.50
  -5  -3  -5    9.80    1.40
  -5  -3  -5    9.90    1.40
  -5  -3  -5   10.60    1.20
  -5  -3  -5    8.80    1.30
   5   3   5    9.60    1.50
  -5   3  -5    9.00    1.30
  -5   3  -5    8.90    1.50
  -6  -3  -5    9.30    1.60
  -6  -3  -5   12.50    1.70
   6  -3   5   10.10    1.60
  -6  -3  -5    9.00    1.70
   6  -3   5    8.60    1.80
  -6  -3  -5   10.60    1.50
  -6  -3  -5   12.60    1.70
  -6  -3  -5   11.00    1.70
  -6  -3  -5    6.80    1.60
  -6  -3  -5   11.30    1.10
  -6  -3  -5    7.90    1.50
  -6  -3  -5   10.90    1.40
  -6   3  -5    7.20    1.40
  -6   3  -5   10.30    1.40
  -6   3  -5   11.00    1.70
   6   3   5   11.00    1.50
  -7  -3  -5    0.50    0.90
  -7  -3  -5   -0.30    0.80
  -7  -3  -5    0.50    0.60
   7  -3   5    1.00    1.10
  -7  -3  -5    0.70    0.90
  -7  -3  -5    0.60    1.00
  -7  -3  -5    0.20    1.10
  -7  -3  -5    0.90    1.10
  -7  -3  -5   -0.40    0.50
  -7  -3  -5    0.00    0.70
  -7  -3  -5    0.70    1.00
  -7   3  -5    0.40    1.10
  -7   3  -5    0.10    0.80
  -7   3  -5    1.80    0.90
  -7   3  -5    0.60    1.10
  -7   3  -5    2.60    1.20
  -7   3  -5   -1.10    1.10
   7   3   5    0.50    0.80
  -8  -3  -5    9.00    1.50
  -8  -3  -5    9.80    1.60
  -8  -3  -5   10.20    1.50
  -8  -3  -5   12.00    1.60
  -8  -3  -5   10.00    1.20
  -8  -3  -5   12.80    1.70
  -8  -3  -5   12.10    1.60
  -8  -3  -5   13.10    1.30
   8  -3   5    9.90    1.60
  -8  -3  -5    6.70    1.60
  -8  -3  -5    8.20    1.80
  -8   3  -5   11.40    1.40
  -8   3  -5    7.00    1.50
  -8   3  -5    9.30    1.60
  -8   3  -5    8.60    2.00
   8   3   5   12.80    1.70
  -8   3  -5    8.80    1.60
  -9  -3  -5   38.60    2.70
  -9  -3  -5   35.90    2.80
  -9  -3  -5   31.40    2.60
  -9  -3  -5   36.60    2.90
  -9  -3  -5   30.20    2.80
   9  -3   5   32.20    2.90
  -9  -3  -5   35.00    3.00
  -9  -3  -5   30.70    2.80
  -9  -3  -5   33.50    2.80
  -9   3  -5   29.70    2.80
  -9   3  -5   31.60    2.90
  -9   3  -5   28.80    3.10
   9   3   5   34.90    3.00
 -10  -3  -5   33.40    2.60
 -10  -3  -5   26.40    2.40
  10  -3   5   24.20    2.50
 -11  -4   5   -0.40    1.40
 -10  -4   5    3.20    1.50
 -10  -4   5   -0.10    1.50
  -9  -4   5   34.80    3.00
  -9  -4   5   35.70    3.20
  -9  -4   5   36.00    3.40
  -9  -4   5   32.70    3.70
  -9  -4   5   27.80    3.30
   9  -4  -5   37.20    2.80
  -9   4   5   35.30    2.60
  -9   4   5   26.90    2.90
   9   4  -5   32.80    3.40
  -9   4   5   27.10    2.80
  -8  -4   5   12.80    1.90
  -8  -4   5   12.30    2.40
  -8  -4   5   11.20    1.80
  -8  -4   5    7.90    1.80
   8  -4  -5   15.50    1.50
  -8  -4   5   11.90    1.60
  -8  -4   5   13.10    1.80
  -8  -4   5    9.10    1.80
   8   4  -5   11.50    1.90
  -8   4   5   11.20    1.70
  -8   4   5   11.90    1.70
  -7  -4   5   13.30    1.90
  -7  -4   5   13.00    1.70
  -7  -4   5   14.20    2.00
  -7  -4   5   17.60    1.90
  -7  -4   5   12.90    1.90
   7  -4  -5   15.10    1.50
  -7  -4   5   10.70    2.50
   7   4  -5   11.90    1.90
  -7   4   5   15.10    1.50
  -7   4   5   12.80    1.80
  -7   4   5   14.50    1.80
  -6  -4   5   39.80    4.00
  -6  -4   5   47.30    3.80
  -6  -4   5   44.20    3.80
  -6  -4   5   49.40    3.70
  -6  -4   5   47.40    3.80
  -6  -4   5   42.60    4.10
  -6  -4   5   47.00    3.60
   6  -4  -5   52.79    3.60
  -6  -4   5   37.70    3.70
  -6   4   5   42.70    3.60
  -6   4   5   45.80    3.70
  -5  -4   5   25.60    2.30
   5  -4  -5   24.40    2.10
  -5  -4   5   20.40    3.00
  -5  -4   5   21.40    2.40
  -5  -4   5   23.70    2.60
  -5  -4   5   27.20    2.40
  -5   4   5   23.20    2.40
  -5   4   5   23.20    2.30
  -5   4   5   27.20    2.20
  -4  -4   5    1.70    1.40
   4  -4  -5    1.90    1.60
   4  -4  -5    2.90    0.70
  -4  -4   5    2.90    1.20
  -4  -4   5    1.90    0.90
  -4  -4   5    2.90    1.00
   4  -4  -5    2.20    1.10
   4  -4  -5    1.70    1.40
  -4  -4   5    0.20    1.20
  -4  -4   5    1.30    1.40
  -4  -4   5   -0.70    2.60
  -4  -4   5    4.60    1.00
  -4  -4   5    2.80    1.10
  -4   4   5    0.00    1.50
  -4   4   5    2.30    0.90
   4   4  -5    2.10    1.00
  -4   4   5    2.60    0.90
   3  -4  -5   12.50    1.30
   3  -4  -5    9.10    2.00
  -3  -4   5   11.80    2.20
  -3  -4   5   15.10    1.60
   3  -4  -5    9.20    1.70
  -3  -4   5   12.00    1.80
   3  -4  -5   11.30    1.90
  -3  -4   5    9.30    1.80
  -3  -4   5   12.90    1.80
   3  -4  -5   12.60    2.00
  -3  -4   5   14.60    1.60
  -3  -4   5   11.90    2.00
  -3   4   5   11.60    1.80
  -3   4   5   13.50    1.60
  -3   4   5    9.30    1.50
   2  -4  -5   30.20    2.60
   2  -4  -5   27.50    2.60
   2  -4  -5   24.50    2.30
  -2  -4   5   26.40    2.50
  -2  -4   5   26.40    2.60
   2  -4  -5   25.10    2.40
  -2  -4   5   21.40    2.90
  -2  -4   5   26.70    2.70
  -2  -4   5   27.60    2.80
   2  -4  -5   21.40    2.80
   2  -4  -5   24.00    2.10
  -2  -4   5   27.10    2.40
  -2  -4   5   31.10    2.40
  -2   4   5   22.20    2.60
   2   4  -5   30.90    2.30
  -1  -4   5   -0.20    1.10
  -1  -4   5    0.90    0.80
   1  -4  -5   -1.00    1.00
   1  -4  -5   -0.60    1.10
   1  -4  -5   -1.40    1.10
  -1  -4   5    0.00    0.80
   1  -4  -5    0.40    0.80
  -1  -4   5    1.40    0.90
   1  -4  -5    1.00    0.60
  -1  -4   5   -1.60    1.40
   1  -4  -5    1.00    1.10
   1   4  -5    0.00    0.80
   0  -4  -5    0.80    1.10
   0  -4  -5   -1.50    1.10
   0  -4  -5    0.40    1.10
   0  -4  -5    0.00    1.10
   0  -4   5    0.70    1.10
   0  -4   5    1.50    0.80
   0  -4   5   -0.40    0.90
   0  -4  -5    0.50    0.60
   0  -4  -5    0.20    1.00
   0  -4   5    0.60    0.80
   0  -4  -5   -1.40    1.00
   0   4   5   -0.70    0.90
   0   4  -5    0.20    0.80
   1  -4   5    1.20    0.90
  -1  -4  -5    2.30    1.00
  -1  -4  -5    1.30    0.80
  -1  -4  -5   -0.30    0.80
   1  -4   5    1.10    1.00
   1  -4   5    2.50    1.20
   1  -4   5    1.00    0.90
  -1  -4  -5   -0.80    1.10
  -1  -4  -5    2.50    1.40
  -1  -4  -5    2.60    1.00
  -1   4  -5    1.90    0.80
   1   4   5    1.30    0.90
  -2  -4  -5   -0.90    1.10
  -2  -4  -5    2.00    1.20
  -2  -4  -5    1.50    1.00
   2  -4   5    0.10    1.10
  -2  -4  -5    3.20    1.20
   2  -4   5    1.80    1.20
  -2  -4  -5    0.90    0.80
   2  -4   5   -0.20    0.90
  -2  -4  -5    2.00    1.30
   2  -4   5    1.20    0.90
   2   4   5    2.80    1.00
  -2   4  -5    1.90    0.80
  -3  -4  -5   69.59    4.60
   3  -4   5   59.69    4.70
   3  -4   5   55.59    4.80
  -3  -4  -5   60.79    4.70
  -3  -4  -5   68.09    4.90
   3  -4   5   66.79    4.90
  -3  -4  -5   60.39    4.80
  -3  -4  -5   62.99    4.80
  -3  -4  -5   55.29    4.60
  -3  -4  -5   59.39    4.80
   3  -4   5   55.59    4.90
  -3   4  -5   60.89    4.60
   3   4   5   63.59    4.80
  -4  -4  -5   53.39    4.20
  -4  -4  -5   48.90    4.20
   4  -4   5   56.19    4.40
   4  -4   5   49.30    4.20
  -4  -4  -5   58.09    4.00
  -4  -4  -5   47.20    4.00
  -4  -4  -5   55.49    4.30
  -4  -4  -5   56.69    4.40
   4  -4   5   48.40    4.30
  -4  -4  -5   52.09    4.10
   4   4   5   52.59    4.30
  -4   4  -5   57.59    4.00
   5  -4   5    8.20    1.70
  -5  -4  -5   10.80    1.50
   5  -4   5   10.40    2.10
  -5  -4  -5   11.00    1.50
  -5  -4  -5    9.60    1.70
  -5  -4  -5    9.70    1.70
  -5  -4  -5   12.00    1.70
  -5  -4  -5   13.20    1.50
  -5  -4  -5   11.00    1.30
   5   4   5   10.20    1.90
  -5   4  -5   11.40    1.40
  -6  -4  -5   50.89    4.20
  -6  -4  -5   51.89    4.20
  -6  -4  -5   54.89    4.30
  -6  -4  -5   58.39    4.10
  -6  -4  -5   58.39    4.20
   6  -4   5   49.10    4.50
  -6  -4  -5   59.89    4.30
  -6  -4  -5   51.39    4.20
   6   4   5   50.79    4.40
  -6   4  -5   58.69    4.20
  -7  -4  -5   23.70    2.50
   7  -4   5   14.90    2.90
  -7  -4  -5   21.10    2.10
  -7  -4  -5   23.00    1.90
  -7  -4  -5   18.70    2.10
  -7  -4  -5   25.10    2.10
  -7   4  -5   22.70    2.10
  -7   4  -5   25.20    2.10
  -7   4  -5   17.70    2.60
   7   4   5   19.30    2.50
  -8  -4  -5   -0.50    1.00
  -8  -4  -5    0.40    0.80
   8  -4   5   -0.60    1.10
  -8  -4  -5    0.30    0.70
  -8  -4  -5   -0.30    0.70
  -8   5   5   24.30    2.10
  -7  -5   5   12.80    1.90
   7  -5  -5   18.10    1.60
   7  -5  -5   18.80    2.10
  -7  -5   5   15.20    2.00
  -7   5   5   16.80    1.60
  -7   5   5   15.10    1.90
  -7   5   5   12.80    2.00
   7   5  -5   13.70    2.00
  -7   5   5   18.90    2.40
   6  -5  -5    8.00    1.50
  -6  -5   5   10.00    1.80
   6  -5  -5    6.90    1.10
  -6  -5   5    7.20    1.70
  -6  -5   5    8.40    1.70
  -6   5   5    8.70    1.40
  -6   5   5    6.00    1.10
  -6   5   5    6.20    1.30
  -5  -5   5    3.80    1.20
  -5  -5   5    1.20    1.00
  -5  -5   5    4.20    1.30
  -5  -5   5    2.60    1.10
   5  -5  -5    2.40    0.60
   5  -5  -5    3.00    1.00
  -5  -5   5    1.40    1.40
   5  -5  -5    4.40    1.30
  -5   5   5    1.70    1.00
   5   5  -5    0.70    1.00
  -5   5   5    1.80    1.20
  -4  -5   5   12.10    2.00
  -4  -5   5   13.00    1.90
  -4  -5   5   18.50    1.90
   4  -5  -5   17.10    1.50
   4  -5  -5   15.70    2.30
  -4  -5   5   15.00    1.80
   4  -5  -5   14.40    1.80
   4   5  -5   11.00    2.10
  -4   5   5   13.60    1.90
  -4   5   5   11.80    2.00
  -3  -5   5   62.69    4.50
  -3  -5   5   57.79    4.60
  -3  -5   5   65.99    4.60
   3  -5  -5   54.09    4.50
  -3  -5   5   55.49    4.70
   3  -5  -5   55.89    4.50
   3  -5  -5   57.09    4.50
  -3   5   5   57.29    4.60
   3   5  -5   64.79    4.50
  -2  -5   5   64.29    4.50
  -2  -5   5   58.69    4.50
   2  -5  -5   56.49    4.50
   2  -5  -5   55.79    4.40
   2  -5  -5   57.49    4.30
  -2  -5   5   67.29    4.40
  -2  -5   5   59.39    4.40
  -2  -5   5   48.80    4.50
   2  -5  -5   55.09    4.30
   2  -5  -5   60.29    4.50
  -2   5   5   48.50    4.40
  -2   5   5   48.20    4.40
   2   5  -5   55.99    4.30
   1  -5  -5   88.59    6.50
   1  -5  -5   85.49    6.70
  -1  -5   5   99.59    6.70
   1  -5  -5   87.29    6.60
  -1  -5   5   99.09    6.70
  -1  -5   5   86.19    6.80
  -1  -5   5   92.89    6.80
   1  -5  -5   88.69    6.80
  -1  -5   5   92.19    6.70
   1  -5  -5   98.19    6.70
   1   5  -5   91.19    6.60
  -1   5   5   75.29    6.80
   0  -5   5  142.49   10.60
   0  -5  -5  141.09   10.50
   0  -5   5  156.78   10.60
   0  -5  -5  163.78   10.70
   0  -5  -5  131.49   10.60
   0  -5   5  150.58   10.60
   0  -5   5  142.49   10.70
   0  -5  -5  153.38   10.60
   0  -5   5  151.68   10.60
   0   5   5  126.19   10.50
   0   5  -5  155.18   10.50
  -1  -5  -5   92.59    6.20
  -1  -5  -5   86.79    6.10
   1  -5   5   83.89    6.20
   1  -5   5   79.69    6.10
   1  -5   5   86.09    6.00
  -1  -5  -5   78.89    6.00
  -1  -5  -5   73.89    6.10
   1  -5   5   80.39    6.20
   1  -5   5   90.59    6.10
   1   5   5   68.19    6.10
   1   5   5   76.09    6.00
  -2  -5  -5   37.70    2.90
  -2  -5  -5   29.10    2.60
   2  -5   5   28.40    2.70
  -2  -5  -5   33.40    2.70
  -2  -5  -5   30.10    2.70
  -2  -5  -5   33.30    2.60
   2  -5   5   32.80    2.90
   2  -5   5   29.70    2.90
   2   5   5   26.60    2.90
  -2   5  -5   38.30    2.70
  -3  -5  -5   39.70    3.10
  -3  -5  -5   44.10    3.10
   3  -5   5   33.30    3.40
  -3  -5  -5   39.60    3.00
  -3  -5  -5   38.20    3.10
   3  -5   5   38.60    3.80
   3  -5   5   35.70    3.20
   4  -5   5    9.50    1.90
  -4  -5  -5   12.00    1.80
   4  -5   5   12.50    1.80
  -4  -5  -5   12.10    2.20
   4  -5   5   11.20    1.60
  -4  -5  -5    9.40    1.50
  -4  -5  -5   13.40    1.60
  -4   5  -5   11.00    1.50
 -15   0   6    7.60    1.60
 -15   0   6    7.30    1.40
 -14   0   6   -1.30    0.90
 -14   0   6   -0.70    0.80
 -14   0   6    0.20    1.20
 -13   0   6    2.10    2.50
 -13   0   6    1.20    0.90
 -13   0   6    0.40    0.90
 -13   0   6    1.90    1.50
 -13   0   6    2.60    1.00
 -13   0   6    2.30    1.10
 -13   0   6    1.90    0.70
 -13   0   6    2.10    0.90
 -12   0   6   85.99    6.50
 -12   0   6   83.59    6.60
 -12   0   6   97.99    6.70
 -12   0   6  103.79    6.90
 -12   0   6   88.69    6.70
 -12   0   6   78.49    7.20
 -12   0   6   95.29    6.70
 -12   0   6   85.19    6.70
 -12   0   6   79.09    7.20
 -12   0   6   99.49    6.70
 -12   0   6  103.89    6.80
 -11   0   6  292.37   22.40
 -11   0   6  280.87   22.70
 -11   0   6  310.27   22.70
 -11   0   6  328.87   22.60
 -11   0   6  348.57   22.60
 -11   0   6  305.37   22.50
 -11   0   6  331.97   22.50
 -11   0   6  305.67   22.40
 -11   0   6  339.07   22.50
 -11   0   6  332.07   22.70
 -11   0   6  327.77   22.60
 -11   0   6  340.77   22.60
 -11   0   6  299.17   22.70
 -10   0   6 1446.56   98.09
 -10   0   6 1554.04   98.19
 -10   0   6 1367.56   98.19
 -10   0   6 1305.17   97.99
 -10   0   6 1478.85   98.09
 -10   0   6 1417.06   97.99
 -10   0   6 1271.47   97.99
 -10   0   6 1285.17   97.99
 -10   0   6 1481.55   98.19
 -10   0   6 1468.85   98.29
 -10   0   6 1234.08   98.09
 -10   0   6 1471.75   98.09
  -9   0   6  497.85   39.00
   9   0  -6  559.64   38.70
  -9   0   6  584.84   38.80
  -9   0   6  498.55   38.70
  -9   0   6  565.54   38.80
  -9   0   6  497.25   38.70
  -9   0   6  510.35   38.70
  -9   0   6  546.55   38.70
  -9   0   6  559.24   38.70
  -9   0   6  587.54   38.90
  -9   0   6  603.74   38.80
  -9   0   6  573.64   38.70
  -9   0   6  561.14   38.80
  -9   0   6  540.15   38.80
  -9   0   6  579.94   38.80
  -8   0   6 1527.35   99.49
  -8   0   6 1479.15   99.59
  -8   0   6 1300.37   99.49
  -8   0   6 1385.96   99.59
  -8   0   6 1501.95   99.59
  -8   0   6 1433.26   99.49
  -8   0   6 1251.57   99.49
  -8   0   6 1469.45   99.49
  -8   0   6 1519.25   99.59
  -8   0   6 1348.27   99.49
  -8   0   6 1404.36   99.59
  -7   0   6 4660.83  333.47
  -7   0   6 4703.03  333.27
  -7   0   6 4419.96  333.47
  -7   0   6 4692.13  333.27
  -7   0   6 4669.93  333.37
  -7   0   6 4917.51  333.27
  -7   0   6 4935.51  333.37
  -7   0   6 5111.59  333.27
  -7   0   6 5131.29  333.27
  -7   0   6 4527.25  333.37
  -7   0   6 4604.34  333.37
  -7   0   6 4441.36  333.27
  -7   0   6 5027.10  333.37
  -7   0   6 4544.25  333.17
  -7   0   6 4987.80  333.37
  -7   0   6 4775.82  333.27
  -6   0   6 1151.98   71.69
  -6   0   6 1185.88   71.69
  -6   0   6 1078.79   71.79
  -6   0   6  997.00   71.79
  -6   0   6  897.61   71.69
   6   0  -6  953.20   71.79
  -6   0   6  976.90   71.69
  -6   0   6  877.41   71.69
  -6   0   6 1105.79   71.69
  -6   0   6 1145.09   71.69
  -6   0   6  906.01   71.69
  -6   0   6 1019.90   71.79
  -6   0   6  925.51   71.79
   6   0  -6 1027.80   71.69
  -6   0   6 1046.30   71.69
  -6   0   6 1070.39   71.69
  -6   0   6 1056.79   71.69
  -6   0   6  988.00   71.69
  -5   0   6  643.44   48.90
  -5   0   6  640.74   48.90
  -5   0   6  687.83   48.90
  -5   0   6  753.72   48.90
  -5   0   6  716.73   48.80
  -5   0   6  662.33   49.00
  -5   0   6  712.93   48.90
  -5   0   6  733.83   49.00
  -5   0   6  693.73   48.90
  -5   0   6  600.24   48.90
  -5   0   6  715.03   48.90
  -5   0   6  750.22   48.90
  -5   0   6  751.52   48.90
   5   0  -6  756.02   48.80
   5   0  -6  632.94   48.90
   4   0  -6   43.90    3.80
   4   0  -6   50.79    3.70
  -4   0   6   53.89    3.80
  -4   0   6   52.69    3.80
  -4   0   6   49.50    3.80
  -4   0   6   49.10    3.80
  -4   0   6   55.59    3.80
  -4   0   6   49.90    3.90
   4   0  -6   58.59    3.70
  -3   0   6  524.95   33.30
   3   0  -6  422.06   33.30
   3   0  -6  482.75   33.20
  -3   0   6  433.06   33.20
  -3   0   6  489.35   33.30
  -3   0   6  478.65   33.20
   2   0  -6 1948.21  149.69
   2   0  -6 2361.66  149.69
  -2   0   6 2072.89  149.69
  -2   0   6 2242.08  149.69
  -2   0   6 2258.87  149.69
   2   0  -6 2004.70  149.69
  -2   0   6 2062.89  149.69
   1   0  -6 2533.55  177.28
  -1   0   6 2372.96  177.28
  -1   0   6 2623.84  177.28
   1   0  -6 2433.46  177.28
  -1   0   6 2643.04  177.28
   1   0  -6 2579.94  177.28
   0   0   6   42.80    3.40
   0   0  -6   52.49    3.40
   0   0  -6   47.30    3.50
   0   0  -6   48.60    3.40
   0   0   6   43.90    3.40
   0   0  -6   42.40    3.40
   0   0   6   44.90    3.50
   0   0  -6   49.60    3.40
   0   0   6   47.10    3.50
   0   0  -6   52.99    3.40
  -1   0  -6 4421.16  297.67
  -1   0  -6 4557.64  297.67
  -1   0  -6 4693.03  297.67
   1   0   6 4048.89  297.57
  -1   0  -6 4464.95  297.67
   1   0   6 3982.10  297.67
  -1   0  -6 4568.04  297.67
   1   0   6 3891.71  297.57
   1   0   6 4171.88  297.67
  -1   0  -6 4104.89  297.67
  -1   0  -6 3851.61  297.67
  -2   0  -6 3367.36  238.18
  -2   0  -6 3058.09  238.18
   2   0   6 3506.15  238.28
  -2   0  -6 3796.02  238.18
   2   0   6 2895.31  238.08
  -2   0  -6 3415.06  238.18
  -2   0  -6 3177.98  238.18
  -2   0  -6 3932.81  238.18
  -2   0  -6 3457.35  238.18
   3   0   6 1747.33  128.49
  -3   0  -6 1944.81  128.39
  -3   0  -6 1782.72  128.39
  -3   0  -6 1781.92  128.39
  -3   0  -6 2004.70  128.49
  -3   0  -6 1907.41  128.39
   3   0   6 1866.21  128.49
  -3   0  -6 1542.95  128.39
  -3   0  -6 1842.02  128.49
  -3   0  -6 1806.62  128.39
  -3   0  -6 1934.11  128.49
  -4   0  -6 1006.80   70.89
  -4   0  -6 1009.30   70.89
   4   0   6  959.40   70.89
  -4   0  -6 1016.10   70.99
  -4   0  -6  965.10   70.79
  -4   0  -6  923.01   70.89
   4   0   6 1065.39   70.89
  -4   0  -6  996.70   70.99
  -4   0  -6 1000.00   70.89
  -4   0  -6  952.30   70.89
  -4   0  -6 1099.69   70.89
  -4   0  -6 1108.19   70.89
  -4   0  -6 1040.90   70.89
  -5   0  -6 1287.57   94.29
   5   0   6 1208.68   94.29
   5   0   6 1422.26   94.29
  -5   0  -6 1337.07   94.39
  -5   0  -6 1280.97   94.39
  -5   0  -6 1332.47   94.19
  -5   0  -6 1317.47   94.29
  -5   0  -6 1392.26   94.29
  -5   0  -6 1360.46   94.19
  -5   0  -6 1401.76   94.29
  -5   0  -6 1361.56   94.29
  -5   0  -6 1341.17   94.19
  -5   0  -6 1431.76   94.29
  -6   0  -6  958.60   65.99
  -6   0  -6  934.21   65.79
  -6   0  -6  950.80   65.79
  -6   0  -6  907.11   65.89
  -6   0  -6  911.71   65.79
  -6   0  -6  870.31   65.99
   6   0   6  992.90   65.89
  -6   0  -6  919.91   65.79
  -6   0  -6  906.91   65.79
  -6   0  -6  911.71   65.79
  -6   0  -6 1008.20   65.89
  -6   0  -6  945.71   65.89
  -6   0  -6  976.60   65.99
  -7   0  -6   34.60    2.70
   7   0   6   34.70    2.80
  -7   0  -6   33.20    2.60
  -7   0  -6   33.80    2.80
  -7   0  -6   35.40    2.60
  -7   0  -6   30.60    3.10
  -7   0  -6   28.10    2.80
  -7   0  -6   32.20    2.50
  -7   0  -6   35.00    2.80
  -7   0  -6   31.10    2.60
  -7   0  -6   29.90    2.50
  -7   0  -6   29.50    2.70
  -7   0  -6   29.90    2.70
  -7   0  -6   31.70    3.10
  -8   0  -6   55.09    4.30
  -8   0  -6   59.79    4.50
  -8   0  -6   63.49    4.80
  -8   0  -6   60.69    4.90
  -8   0  -6   55.49    4.50
  -8   0  -6   56.09    4.40
  -8   0  -6   60.89    4.50
  -8   0  -6   58.59    4.40
  -8   0  -6   64.99    4.60
  -8   0  -6   52.29    4.50
  -8   0  -6   55.89    4.30
   8   0   6   59.09    4.50
  -8   0  -6   60.59    4.40
  -9   0  -6   40.60    3.20
  -9   0  -6   42.70    3.20
  -9   0  -6   37.40    3.20
  -9   0  -6   45.20    3.10
  -9   0  -6   36.10    3.30
  -9   0  -6   37.60    3.10
  -9   0  -6   39.50    3.30
  -9   0  -6   39.30    3.20
  -9   0  -6   45.10    3.90
  -9   0  -6   39.70    3.60
  -9   0  -6   38.40    3.30
   9   0   6   38.80    3.30
 -10   0  -6  185.58   12.30
 -10   0  -6  148.29   12.20
 -10   0  -6  159.38   12.20
 -10   0  -6  173.68   12.30
 -10   0  -6  170.98   12.30
 -10   0  -6  170.68   12.30
  10   0   6  166.28   12.30
 -10   0  -6  182.78   12.40
 -10   0  -6  188.78   12.50
 -11   0  -6   40.40    3.40
  11   0   6   36.70    3.60
 -11   0  -6   41.60    3.70
 -11   0  -6   45.40    3.40
 -11   0  -6   50.09    4.10
 -11   0  -6   47.00    3.40
 -11   0  -6   44.80    3.50
 -12   0  -6  126.49    8.50
 -12   0  -6  111.59    8.60
 -12   0  -6  120.49    8.50
 -12   0  -6  111.79    8.40
 -15  -1   6  122.99    9.20
 -15  -1   6  135.69    9.10
 -15  -1   6  130.29    9.10
 -15   1   6  107.29    9.00
 -15   1   6  135.09    9.20
 -14  -1   6   59.89    4.50
 -14  -1   6   59.39    4.70
 -14  -1   6   64.29    4.40
 -14  -1   6   63.49    4.50
 -14  -1   6   53.59    4.40
 -14  -1   6   50.39    5.00
 -14   1   6   59.79    4.60
 -14   1   6   52.39    4.40
 -14   1   6   61.49    4.60
 -14   1   6   49.30    4.30
 -13  -1   6  177.48   13.20
 -13  -1   6  201.88   13.40
 -13  -1   6  195.08   13.10
 -13  -1   6  191.48   13.20
 -13  -1   6  185.38   13.20
 -13  -1   6  194.88   13.40
 -13  -1   6  182.98   13.20
 -13  -1   6  177.08   13.50
 -13  -1   6  163.88   13.20
 -13   1   6  193.68   13.30
 -13   1   6  178.08   13.10
 -13   1   6  175.08   13.10
 -13   1   6  198.48   13.30
 -13   1   6  175.48   13.00
 -13   1   6  170.78   13.10
 -12  -1   6   79.29    6.80
 -12  -1   6   90.19    5.80
 -12  -1   6   78.39    5.80
 -12  -1   6   80.29    5.80
 -12  -1   6   82.09    6.00
 -12  -1   6   78.79    6.00
 -12  -1   6   63.59    7.20
 -12   1   6   67.89    5.90
 -12   1   6   75.19    5.80
 -12   1   6   78.39    5.80
 -12   1   6   85.39    6.00
 -12   1   6   71.39    6.00
 -11  -1   6   79.89    5.70
 -11  -1   6   70.89    5.60
 -11  -1   6   74.39    5.40
 -11  -1   6   68.29    5.50
 -11  -1   6   78.59    5.40
 -11  -1   6   79.49    5.40
 -11  -1   6   70.59    5.50
 -11  -1   6   70.89    5.40
 -11  -1   6   76.49    5.80
 -11  -1   6   77.29    5.60
 -11   1   6   66.29    5.50
 -11   1   6   70.49    5.30
 -11   1   6   66.29    5.30
 -11   1   6   69.39    5.40
 -11   1   6   75.79    5.60
 -11   1   6   71.99    5.60
 -11   1   6   69.79    5.40
 -10  -1   6  111.79    8.40
  10  -1  -6  104.49    8.20
 -10  -1   6  119.79    8.40
 -10  -1   6  123.29    8.30
 -10  -1   6  127.19    8.60
 -10  -1   6   95.29    8.20
 -10  -1   6  116.49    8.40
 -10  -1   6  104.09    8.30
 -10  -1   6  113.39    8.30
 -10  -1   6  111.09    8.30
 -10  -1   6  126.29    8.40
 -10  -1   6  122.69    8.30
 -10  -1   6  115.49    8.30
 -10  -1   6  123.79    8.50
 -10   1   6  117.89    8.40
 -10   1   6  107.99    8.40
 -10   1   6  113.49    8.20
 -10   1   6  111.19    8.30
 -10   1   6  117.89    8.30
 -10   1   6  121.09    8.30
 -10   1   6  106.99    8.20
  -9  -1   6    5.30    1.10
  -9  -1   6    3.40    0.70
  -9  -1   6    3.10    0.70
  -9  -1   6    3.00    1.10
  -9  -1   6    3.80    1.10
   9  -1  -6    3.80    0.80
  -9  -1   6    4.70    0.80
  -9  -1   6    4.50    1.00
  -9   1   6    5.00    0.90
  -9   1   6    3.40    0.80
  -9   1   6    2.90    0.90
  -9   1   6    4.20    0.70
  -9   1   6    4.10    0.70
  -8  -1   6    1.70    0.60
   8  -1  -6    1.10    0.60
  -8  -1   6    1.10    0.70
  -8  -1   6    0.60    0.90
  -8  -1   6   -0.20    0.80
  -8  -1   6    1.00    0.80
  -8  -1   6   -0.40    0.90
  -8  -1   6    1.30    1.10
  -8  -1   6    0.30    0.40
  -8  -1   6    1.10    0.70
  -8  -1   6    0.90    0.80
  -8  -1   6   -0.90    0.90
  -8  -1   6    0.90    0.60
  -8   1   6    2.30    0.70
  -8   1   6    0.80    1.00
  -8   1   6    1.20    1.00
  -8   1   6    0.60    0.70
  -8   1   6    0.50    0.50
  -8   1   6   -0.20    0.60
  -8   1   6    1.40    0.50
  -8   1   6    0.70    0.70
  -7  -1   6  367.96   26.10
  -7  -1   6  377.56   26.10
  -7  -1   6  374.06   26.10
  -7  -1   6  381.56   26.10
  -7  -1   6  353.36   26.20
   7  -1  -6  423.26   26.10
  -7  -1   6  342.77   26.10
  -7  -1   6  354.86   26.20
  -7  -1   6  364.16   26.10
  -7  -1   6  367.46   26.00
  -7  -1   6  366.06   26.10
  -7  -1   6  374.86   26.00
  -7  -1   6  404.76   26.10
  -7  -1   6  376.66   26.10
  -7   1   6  415.56   26.10
  -7   1   6  358.66   26.20
  -7   1   6  335.57   26.00
  -7   1   6  365.46   26.10
  -7   1   6  379.36   26.00
  -7   1   6  340.97   26.00
  -7   1   6  325.97   26.10
  -7   1   6  379.96   26.20
  -7   1   6  353.96   26.00
  -7   1   6  403.46   26.20
  -7   1   6  368.56   26.10
  -6  -1   6   38.00    3.10
  -6  -1   6   45.00    3.20
  -6  -1   6   46.80    3.10
  -6  -1   6   40.20    3.10
  -6  -1   6   40.20    3.30
  -6  -1   6   36.10    3.20
  -6  -1   6   41.80    3.40
  -6  -1   6   42.60    3.10
   6  -1  -6   37.20    3.10
  -6  -1   6   41.30    3.20
  -6  -1   6   44.60    3.10
  -6  -1   6   42.90    3.20
  -6  -1   6   43.50    3.20
  -6  -1   6   38.30    3.30
  -6   1   6   43.30    3.10
  -6   1   6   42.60    3.20
  -6   1   6   46.80    3.20
  -6   1   6   44.70    3.10
  -6   1   6   34.30    3.20
  -6   1   6   38.00    3.10
  -6   1   6   44.20    3.20
  -6   1   6   44.20    3.10
  -6   1   6   45.20    3.40
   6   1  -6   38.00    3.40
  -6   1   6   38.60    3.40
  -5  -1   6  381.66   23.40
  -5  -1   6  362.16   23.40
  -5  -1   6  324.17   23.40
  -5  -1   6  355.46   23.50
  -5  -1   6  306.97   23.40
  -5  -1   6  322.27   23.40
  -5  -1   6  313.87   23.40
  -5  -1   6  332.57   23.40
  -5  -1   6  315.87   23.50
   5  -1  -6  349.47   23.40
  -5  -1   6  364.06   23.40
   5  -1  -6  360.86   23.40
  -5  -1   6  320.47   23.50
  -5  -1   6  324.07   23.50
  -5  -1   6  314.57   23.40
  -5  -1   6  314.47   23.40
  -5   1   6  330.77   23.40
   5   1  -6  291.87   23.40
  -5   1   6  289.37   23.40
  -5   1   6  334.57   23.50
  -5   1   6  342.37   23.50
  -5   1   6  378.36   23.40
  -5   1   6  336.57   23.40
   5   1  -6  339.47   23.50
  -5   1   6  312.17   23.40
   4  -1  -6 1801.02  114.19
  -4  -1   6 1554.04  114.29
  -4  -1   6 1730.53  114.19
  -4  -1   6 1832.92  114.29
  -4  -1   6 1481.05  114.19
  -4  -1   6 1609.44  114.19
   4  -1  -6 1532.35  114.29
  -4  -1   6 1652.43  114.19
  -4  -1   6 1838.82  114.19
  -4  -1   6 1581.44  114.19
  -4  -1   6 1586.44  114.19
   4  -1  -6 1642.24  114.19
  -4  -1   6 1781.72  114.19
  -4  -1   6 1526.85  114.19
  -4  -1   6 1531.15  114.29
   4   1  -6 1611.44  114.29
  -4   1   6 1651.83  114.19
  -4   1   6 1821.02  114.19
  -4   1   6 1690.93  114.29
  -4   1   6 1538.85  114.19
  -4   1   6 1691.03  114.19
  -4   1   6 1369.96  114.19
  -4   1   6 1547.55  114.29
  -4   1   6 1516.95  114.19
   3  -1  -6  425.46   29.50
   3  -1  -6  450.15   29.50
  -3  -1   6  440.56   29.50
  -3  -1   6  423.96   29.50
  -3  -1   6  417.66   29.50
   3  -1  -6  415.16   29.40
  -3  -1   6  398.86   29.50
  -3  -1   6  394.06   29.60
  -3  -1   6  393.26   29.60
  -3  -1   6  446.46   29.50
  -3  -1   6  371.06   29.50
  -3  -1   6  456.65   29.50
   3  -1  -6  421.36   29.50
  -3   1   6  438.16   29.50
  -3   1   6  414.96   29.50
  -3   1   6  454.75   29.50
   3   1  -6  370.56   29.50
  -3   1   6  394.86   29.50
   3   1  -6  449.95   29.50
   2  -1  -6 3325.77  201.88
  -2  -1   6 2512.35  201.88
  -2  -1   6 2618.14  201.88
  -2  -1   6 2716.33  201.88
  -2  -1   6 2787.72  201.88
  -2  -1   6 2904.51  201.88
   2  -1  -6 2484.65  201.88
  -2  -1   6 2992.60  201.88
   2  -1  -6 3226.48  201.88
   2  -1  -6 2853.61  201.88
  -2   1   6 2859.51  201.88
  -2   1   6 3003.60  201.88
   2   1  -6 2504.65  201.88
  -2   1   6 3016.90  201.98
  -2   1   6 3249.27  201.88
  -2   1   6 3068.29  201.88
  -1  -1   6  889.51   62.09
  -1  -1   6  874.31   61.99
   1  -1  -6  926.21   61.99
  -1  -1   6  780.52   61.99
   1  -1  -6  816.62   61.99
   1  -1  -6  869.51   61.99
  -1  -1   6  871.01   62.09
   1  -1  -6  970.40   61.99
  -1  -1   6  883.01   61.99
  -1  -1   6  852.81   61.99
  -1   1   6  875.51   61.99
  -1   1   6  981.00   62.09
  -1   1   6  895.11   61.99
  -1   1   6  904.01   61.99
   0  -1   6 1869.01  132.09
   0  -1   6 1607.14  132.09
   0  -1  -6 2014.80  131.99
   0  -1  -6 1814.02  132.09
   0  -1   6 1953.10  132.09
   0  -1   6 1904.01  132.09
   0  -1  -6 1810.22  132.09
   0  -1  -6 1989.20  132.09
   0  -1  -6 2060.49  132.09
   0  -1   6 1858.41  131.99
   0  -1  -6 1975.00  131.99
   0   1   6 1975.10  131.99
   0   1   6 1957.20  132.09
   0   1  -6 1605.04  131.99
  -1  -1  -6  114.59    7.70
  -1  -1  -6  106.59    7.70
   1  -1   6  120.59    7.70
   1  -1   6  109.69    7.70
   1  -1   6   99.19    7.70
  -1  -1  -6  113.09    7.70
  -1  -1  -6  104.19    7.70
   1  -1   6  101.79    7.70
  -1  -1  -6  105.39    7.70
  -1  -1  -6  118.19    7.70
  -1  -1  -6  115.19    7.60
  -1  -1  -6  116.09    7.70
  -1  -1  -6   98.39    7.70
  -1   1  -6   96.89    7.70
   1   1   6  104.79    7.70
  -1   1  -6  107.79    7.60
  -1   1  -6  110.59    7.60
   1   1   6  112.49    7.70
  -1   1  -6   98.59    7.70
  -2  -1  -6    3.10    1.00
  -2  -1  -6    6.10    0.70
  -2  -1  -6    5.50    0.80
  -2  -1  -6    4.00    0.70
  -2  -1  -6    6.70    0.80
   2  -1   6    5.60    1.00
  -2  -1  -6    6.40    0.90
  -2  -1  -6    5.20    1.00
  -2  -1  -6    5.90    1.10
  -2  -1  -6    4.30    0.90
   2  -1   6    5.70    1.00
   2   1   6    5.90    1.00
  -2   1  -6    4.60    0.70
  -2   1  -6    5.50    0.60
  -2   1  -6    4.70    0.80
  -2   1  -6    3.60    0.70
  -2   1  -6    6.00    1.60
  -2   1  -6    5.10    0.90
  -3  -1  -6  125.99    9.30
   3  -1   6  135.19    9.30
  -3  -1  -6  120.99    9.40
  -3  -1  -6  131.39    9.30
  -3  -1  -6  135.09    9.30
  -3  -1  -6  134.69    9.30
   3  -1   6  135.69    9.30
  -3  -1  -6  135.89    9.20
  -3  -1  -6  125.89    9.30
  -3  -1  -6  132.59    9.30
  -3  -1  -6  131.79    9.20
  -3  -1  -6  122.59    9.20
   3  -1   6  120.69    9.40
  -3  -1  -6  115.79    9.30
  -3  -1  -6  132.29    9.40
  -3   1  -6  130.49    9.20
  -3   1  -6  128.99    9.30
  -3   1  -6  126.29    9.20
  -3   1  -6  140.09    9.30
   3   1   6  121.99    9.30
  -3   1  -6  134.89    9.20
  -3   1  -6  143.79    9.30
   3   1   6  131.79    9.30
  -3   1  -6  123.69    9.30
  -3   1  -6  142.09    9.60
  -4  -1  -6  423.36   28.10
  -4  -1  -6  382.16   27.90
   4  -1   6  342.47   27.90
  -4  -1  -6  391.36   27.80
  -4  -1  -6  398.96   27.90
  -4  -1  -6  403.96   27.90
  -4  -1  -6  395.36   27.90
  -4  -1  -6  349.17   27.90
  -4  -1  -6  384.46   27.90
  -4  -1  -6  373.76   28.00
  -4  -1  -6  369.06   27.90
   4  -1   6  419.86   28.00
  -4  -1  -6  406.06   28.00
  -4  -1  -6  429.86   28.00
  -4  -1  -6  411.06   27.90
   4  -1   6  403.76   27.90
  -4  -1  -6  406.86   27.90
  -4   1  -6  413.36   28.10
   4   1   6  426.06   27.90
  -4   1  -6  384.06   27.90
  -4   1  -6  411.46   27.80
  -4   1  -6  412.76   27.90
  -4   1  -6  382.76   27.90
  -4   1  -6  398.06   27.90
  -4   1  -6  410.16   28.00
  -4   1  -6  401.16   27.90
  -4   1  -6  381.26   28.00
  -5  -1  -6  167.08   11.90
  -5  -1  -6  166.48   11.80
  -5  -1  -6  154.18   11.70
  -5  -1  -6  170.58   11.90
  -5  -1  -6  173.98   11.80
  -5  -1  -6  165.78   11.90
  -5  -1  -6  175.28   11.90
  -5  -1  -6  162.28   11.80
  -5  -1  -6  175.78   12.10
   5  -1   6  173.88   11.90
  -5  -1  -6  174.38   11.80
  -5  -1  -6  153.28   11.80
  -5  -1  -6  160.58   12.00
  -5  -1  -6  149.49   11.80
  -5  -1  -6  153.98   11.90
  -5  -1  -6  171.58   11.80
  -5   1  -6  169.98   11.80
  -5   1  -6  167.78   11.80
   5   1   6  140.69   12.00
  -5   1  -6  173.88   11.80
  -5   1  -6  147.69   12.00
  -5   1  -6  170.28   11.80
  -5   1  -6  170.48   11.80
  -5   1  -6  181.78   11.80
   5   1   6  176.38   11.90
  -5   1  -6  185.38   12.20
  -5   1  -6  160.28   11.90
  -6  -1  -6  353.76   24.00
  -6  -1  -6  338.17   23.90
  -6  -1  -6  338.27   23.90
  -6  -1  -6  345.27   24.00
  -6  -1  -6  308.57   24.00
  -6  -1  -6  343.07   23.90
   6  -1   6  370.16   24.00
  -6  -1  -6  329.57   23.90
  -6  -1  -6  359.26   24.00
  -6  -1  -6  336.57   24.00
  -6  -1  -6  345.67   24.10
  -6  -1  -6  328.67   23.90
  -6   1  -6  354.46   23.90
  -6   1  -6  340.47   24.00
  -6   1  -6  352.96   24.20
  -6   1  -6  339.57   23.90
   6   1   6  363.26   24.00
  -6   1  -6  302.97   23.90
  -6   1  -6  347.07   23.90
  -6   1  -6  335.17   23.90
   6   1   6  301.97   24.40
  -6   1  -6  328.67   23.80
  -6   1  -6  330.97   23.90
  -7  -1  -6  247.18   17.00
  -7  -1  -6  235.78   16.90
  -7  -1  -6  231.18   16.80
  -7  -1  -6  253.67   16.90
  -7  -1  -6  222.28   16.80
  -7  -1  -6  248.98   17.00
  -7  -1  -6  232.78   17.00
  -7  -1  -6  229.98   16.80
  -7  -1  -6  230.18   16.80
   7  -1   6  244.38   16.90
  -7  -1  -6  236.28   16.70
  -7  -1  -6  242.58   16.70
  -7  -1  -6  235.98   16.80
   7   1   6  241.78   16.90
  -7   1  -6  229.18   16.90
  -7   1  -6  234.18   16.90
  -7   1  -6  256.37   17.10
  -7   1  -6  220.68   16.80
  -7   1  -6  244.98   17.20
  -7   1  -6  227.98   16.80
  -7   1  -6  233.98   16.80
  -8  -1  -6   70.79    5.50
  -8  -1  -6   74.69    5.40
  -8  -1  -6   68.99    5.70
  -8  -1  -6   77.19    5.60
  -8  -1  -6   76.69    5.70
   8  -1   6   77.89    5.60
  -8  -1  -6   76.69    5.50
  -8  -1  -6   73.19    5.40
  -8  -1  -6   69.59    5.50
  -8  -1  -6   67.49    5.30
  -8  -1  -6   78.49    5.60
  -8  -1  -6   73.49    5.40
  -8  -1  -6   74.39    5.50
  -8   1  -6   78.59    6.20
  -8   1  -6   72.99    5.50
  -8   1  -6   72.19    5.60
  -8   1  -6   70.09    5.40
   8   1   6   73.19    5.60
  -8   1  -6   77.29    5.90
  -8   1  -6   71.99    5.40
  -8   1  -6   74.79    5.40
  -8   1  -6   74.09    5.50
  -9  -1  -6  200.48   13.50
  -9  -1  -6  192.08   13.20
  -9  -1  -6  180.88   13.10
  -9  -1  -6  190.08   13.30
  -9  -1  -6  171.38   13.10
  -9  -1  -6  201.68   13.20
   9  -1   6  193.48   13.30
  -9  -1  -6  182.68   13.20
  -9  -1  -6  202.78   13.30
  -9  -1  -6  185.68   13.20
  -9  -1  -6  186.18   13.40
  -9  -1  -6  175.68   13.20
  -9  -1  -6  184.18   13.30
  -9   1  -6  166.98   13.20
  -9   1  -6  182.48   13.20
  -9   1  -6  180.28   13.20
  -9   1  -6  183.38   13.30
  -9   1  -6  193.58   13.50
  -9   1  -6  174.88   13.20
  -9   1  -6  186.58   13.20
  -9   1  -6  177.88   13.20
   9   1   6  179.88   13.30
 -10  -1  -6   48.80    4.00
 -10  -1  -6   50.19    4.20
 -10  -1  -6   52.69    4.00
 -10  -1  -6   61.49    4.40
 -10  -1  -6   54.79    4.00
 -10  -1  -6   50.79    4.00
 -10  -1  -6   58.59    4.10
  10  -1   6   55.09    4.10
 -10  -1  -6   56.19    4.00
 -10  -1  -6   49.40    3.90
 -10   1  -6   52.59    4.40
 -10   1  -6   51.39    4.00
 -10   1  -6   55.19    4.00
 -10   1  -6   48.30    4.00
 -10   1  -6   49.00    4.20
 -10   1  -6   43.70    4.10
 -10   1  -6   48.30    4.30
 -10   1  -6   53.29    4.00
 -11  -1  -6   62.99    4.60
 -11  -1  -6   70.09    4.60
  11  -1   6   58.19    4.70
 -11  -1  -6   52.59    4.50
 -11  -1  -6   56.79    4.60
 -11  -1  -6   63.89    4.60
 -11  -1  -6   61.39    4.70
 -11   1  -6   61.49    4.80
 -11   1  -6   56.89    4.60
 -11   1  -6   57.79    4.60
 -11   1  -6   67.19    4.60
 -14  -2   6    7.60    1.60
 -14  -2   6   11.10    2.10
 -14  -2   6    8.30    1.30
 -13  -2   6   11.20    1.90
 -13  -2   6    7.20    1.40
 -13  -2   6    5.80    1.70
 -13  -2   6    8.50    1.30
 -13   2   6    5.90    1.10
 -12  -2   6    7.90    1.50
 -12  -2   6    4.70    1.20
 -12  -2   6    5.30    1.70
 -12  -2   6    6.80    1.60
 -12  -2   6    4.20    1.60
 -12  -2   6    2.00    1.20
 -12  -2   6    4.00    0.90
 -12   2   6    2.50    0.70
 -12   2   6    2.80    0.90
 -12   2   6    4.60    0.80
 -11  -2   6   80.59    6.00
 -11  -2   6   71.29    6.10
 -11  -2   6   85.39    6.00
 -11  -2   6   75.79    6.10
 -11  -2   6   89.99    6.60
  11  -2  -6   80.89    5.80
 -11  -2   6   81.19    6.10
 -11  -2   6   85.09    5.90
 -11  -2   6   76.29    5.90
 -11  -2   6   69.99    6.10
 -11  -2   6   80.99    6.10
 -11   2   6   74.69    5.90
 -11   2   6   86.09    6.00
 -11   2   6   76.89    6.00
 -11   2   6   80.59    6.00
 -11   2   6   76.29    5.90
 -10  -2   6    5.90    1.20
 -10  -2   6    6.40    1.40
 -10  -2   6    5.40    0.90
 -10  -2   6    5.70    1.10
 -10  -2   6    2.90    1.40
 -10  -2   6    6.30    1.20
  10  -2  -6    6.30    1.20
 -10  -2   6    5.80    1.10
 -10   2   6    4.30    1.00
 -10   2   6    5.60    1.00
 -10   2   6    3.80    1.10
 -10   2   6    5.90    1.50
 -10   2   6    4.20    0.80
  -9  -2   6    2.80    1.00
  -9  -2   6    1.90    0.80
  -9  -2   6   -0.90    1.10
  -9  -2   6    2.00    0.80
  -9  -2   6   -0.60    1.10
  -9  -2   6    0.40    1.00
  -9  -2   6    2.70    1.00
  -9  -2   6    1.60    1.00
  -9  -2   6    2.40    1.00
   9  -2  -6    0.70    0.70
  -9  -2   6    1.40    1.20
  -9   2   6    1.70    1.20
  -9   2   6    0.60    0.60
  -9   2   6    1.40    0.90
  -9   2   6   -0.60    0.90
  -9   2   6    0.90    0.60
  -8  -2   6   31.10    2.70
  -8  -2   6   33.10    2.80
  -8  -2   6   27.20    3.10
  -8  -2   6   26.90    2.70
   8  -2  -6   33.30    2.60
  -8  -2   6   28.90    2.80
  -8  -2   6   36.00    2.90
  -8  -2   6   35.50    2.60
  -8  -2   6   33.80    2.90
   8  -2  -6   28.70    3.00
  -8  -2   6   32.80    2.70
  -8   2   6   28.10    2.70
  -8   2   6   33.50    2.50
  -8   2   6   35.70    2.50
  -8   2   6   35.10    2.70
  -8   2   6   32.70    2.70
  -8   2   6   37.50    2.80
   7  -2  -6    7.60    1.10
  -7  -2   6    5.00    1.40
  -7  -2   6    6.30    1.10
  -7  -2   6    8.50    1.20
   7  -2  -6    8.80    1.50
  -7  -2   6    8.40    1.10
  -7  -2   6    5.90    1.20
  -7  -2   6    4.20    1.00
  -7  -2   6    7.00    1.20
  -7  -2   6    6.30    1.30
  -7  -2   6    6.10    1.20
  -7  -2   6    8.20    1.50
  -7  -2   6    7.90    1.50
  -7  -2   6    5.10    1.40
  -7   2   6    9.20    1.30
  -7   2   6    8.20    1.00
  -7   2   6    7.00    1.30
  -7   2   6    7.70    1.30
  -7   2   6    7.50    0.90
  -6  -2   6   27.40    2.40
  -6  -2   6   28.40    2.50
  -6  -2   6   33.40    2.60
   6  -2  -6   31.60    2.40
  -6  -2   6   32.10    2.60
  -6  -2   6   28.70    2.40
  -6  -2   6   24.60    2.90
  -6  -2   6   33.00    2.40
   6  -2  -6   25.80    2.30
  -6  -2   6   33.60    2.40
  -6  -2   6   25.70    2.60
  -6  -2   6   33.60    2.50
  -6  -2   6   26.20    2.70
  -6  -2   6   26.00    2.60
  -6  -2   6   29.30    2.40
  -6  -2   6   27.60    2.60
   6  -2  -6   27.80    2.50
  -6   2   6   31.40    2.70
  -6   2   6   27.00    2.40
  -6   2   6   27.40    2.40
  -6   2   6   30.40    2.30
  -6   2   6   30.60    2.30
  -5  -2   6   74.49    5.40
  -5  -2   6   74.39    5.50
  -5  -2   6   78.89    5.30
  -5  -2   6   72.29    5.30
   5  -2  -6   82.89    5.30
  -5  -2   6   75.69    5.50
  -5  -2   6   76.49    5.30
  -5  -2   6   71.09    5.40
   5  -2  -6   63.49    5.30
   5  -2  -6   78.29    5.20
  -5  -2   6   69.09    5.30
  -5  -2   6   61.89    5.50
  -5  -2   6   61.19    5.60
  -5  -2   6   69.39    5.40
  -5  -2   6   68.69    5.50
  -5  -2   6   67.79    5.40
  -5   2   6   72.89    5.40
  -5   2   6   77.09    5.30
   5   2  -6   65.39    5.30
  -5   2   6   70.99    5.30
  -5   2   6   82.09    5.30
  -5   2   6   75.79    5.40
  -5   2   6   76.89    5.30
  -5   2   6   81.99    5.30
  -4  -2   6  155.88   12.00
  -4  -2   6  176.58   12.10
  -4  -2   6  163.68   12.00
  -4  -2   6  141.99   12.00
  -4  -2   6  156.58   12.10
   4  -2  -6  173.38   11.90
   4  -2  -6  172.08   11.90
  -4  -2   6  179.48   12.00
  -4  -2   6  155.48   12.00
  -4  -2   6  166.38   12.00
  -4  -2   6  192.88   12.00
  -4  -2   6  168.68   12.10
   4  -2  -6  154.98   12.00
  -4  -2   6  164.88   12.10
  -4  -2   6  163.68   12.00
  -4   2   6  182.68   12.00
  -4   2   6  169.68   11.90
   4   2  -6  164.28   11.90
  -4   2   6  182.38   12.00
  -4   2   6  165.08   12.00
  -4   2   6  179.58   12.00
  -4   2   6  171.98   11.90
  -4   2   6  174.78   12.00
  -3  -2   6    7.80    1.30
  -3  -2   6    8.20    1.30
  -3  -2   6    6.40    1.10
  -3  -2   6    5.00    1.10
   3  -2  -6    6.50    1.00
  -3  -2   6    5.80    1.20
  -3  -2   6    4.80    1.20
  -3  -2   6    7.10    1.20
   3  -2  -6    5.00    1.00
   3  -2  -6    5.90    0.80
   3  -2  -6    4.50    1.20
  -3  -2   6    8.90    1.00
  -3  -2   6    7.90    1.00
  -3  -2   6    7.90    1.10
  -3  -2   6    5.30    1.40
  -3  -2   6    8.30    1.10
   3  -2  -6    7.70    0.90
  -3   2   6    8.40    1.20
  -3   2   6    7.00    1.30
   3   2  -6    5.90    1.00
  -3   2   6    7.70    0.90
  -3   2   6    4.90    0.80
  -3   2   6    6.10    1.10
  -3   2   6    7.30    1.00
  -3   2   6    6.20    1.10
  -2  -2   6   21.70    1.80
   2  -2  -6   24.20    1.70
   2  -2  -6   19.90    1.80
  -2  -2   6   20.10    2.30
  -2  -2   6   17.90    1.80
  -2  -2   6   20.60    1.80
   2  -2  -6   21.10    1.70
  -2  -2   6   21.40    1.90
   2  -2  -6   20.50    2.00
   2  -2  -6   20.40    2.10
   2  -2  -6   22.50    1.60
   2  -2  -6   18.20    1.90
  -2  -2   6   23.50    1.80
  -2  -2   6   21.60    1.80
   2  -2  -6   20.00    1.80
  -2  -2   6   23.80    2.00
  -2  -2   6   19.50    1.80
   2   2  -6   19.50    1.70
  -2   2   6   22.90    1.90
  -2   2   6   22.30    1.80
  -2   2   6   16.90    1.80
   1  -2  -6   12.40    1.40
  -1  -2   6   10.80    1.20
   1  -2  -6    9.20    1.50
   1  -2  -6   11.00    1.00
  -1  -2   6    7.10    1.30
   1  -2  -6   11.00    0.90
   1  -2  -6   11.80    1.10
  -1  -2   6    8.60    1.70
  -1  -2   6    9.50    1.20
  -1  -2   6    8.30    1.10
  -1  -2   6    7.50    1.30
  -1  -2   6    9.30    1.80
  -1  -2   6   10.30    1.20
   1  -2  -6    8.50    1.20
   1  -2  -6   13.00    1.40
  -1  -2   6   11.20    1.30
   1  -2  -6   11.80    1.00
   1   2  -6   10.10    1.10
  -1   2   6   10.00    1.10
  -1   2   6   12.30    1.20
  -1   2   6    8.00    1.20
   0  -2  -6   57.09    3.80
   0  -2  -6   49.99    3.80
   0  -2  -6   50.69    3.80
   0  -2   6   47.20    4.10
   0  -2  -6   46.20    3.70
   0  -2  -6   43.80    3.60
   0  -2   6   49.00    3.70
   0  -2   6   48.40    3.70
   0  -2  -6   51.29    3.60
   0  -2   6   49.80    3.70
   0  -2   6   46.60    3.70
   0  -2   6   43.30    3.70
   0  -2  -6   55.09    3.60
   0  -2  -6   51.79    3.70
   0  -2  -6   53.89    3.70
   0   2   6   48.70    3.70
   0   2   6   53.39    3.70
   0   2   6   56.09    3.70
   0   2  -6   41.30    3.80
   0   2  -6   49.80    3.60
   0   2   6   50.09    3.70
   1  -2   6    1.30    0.70
  -1  -2  -6    1.30    0.50
   1  -2   6    0.20    0.60
  -1  -2  -6    1.10    0.60
  -1  -2  -6    1.60    0.90
   1  -2   6    0.40    0.80
  -1  -2  -6    1.10    0.50
  -1  -2  -6    2.00    0.50
   1  -2   6    1.20    0.60
  -1  -2  -6    1.50    0.40
  -1  -2  -6    0.60    0.70
   1   2   6    1.50    0.60
  -2  -2  -6  606.34   42.10
  -2  -2  -6  641.64   42.20
   2  -2   6  568.24   42.10
  -2  -2  -6  628.44   42.20
  -2  -2  -6  636.74   42.10
   2  -2   6  640.84   42.20
  -2  -2  -6  553.64   42.10
  -2  -2  -6  610.84   42.20
  -2  -2  -6  618.54   42.20
   2  -2   6  592.24   42.20
   2  -2   6  548.05   42.20
   2  -2   6  530.35   42.20
  -2   2  -6  633.54   42.10
  -2   2  -6  580.04   42.10
   2   2   6  610.44   42.10
  -3  -2  -6    7.40    1.20
  -3  -2  -6    5.30    1.10
  -3  -2  -6    6.90    1.20
  -3  -2  -6    7.50    1.00
  -3  -2  -6    6.80    1.10
  -3  -2  -6    6.30    1.10
  -3  -2  -6    6.60    0.80
  -3  -2  -6    6.00    1.00
   3  -2   6    9.40    1.60
   3  -2   6    4.20    0.90
  -3  -2  -6    6.70    0.80
  -3  -2  -6    4.00    1.10
   3   2   6    5.70    1.00
  -3   2  -6    7.10    1.10
  -3   2  -6    5.70    1.30
  -3   2  -6    5.80    1.00
  -3   2  -6    4.70    1.00
  -4  -2  -6    4.80    1.10
   4  -2   6    3.30    1.00
  -4  -2  -6    5.40    0.80
   4  -2   6    2.70    1.00
  -4  -2  -6    5.20    1.00
  -4  -2  -6    5.20    1.00
  -4  -2  -6    4.10    1.10
  -4  -2  -6    4.60    1.10
  -4  -2  -6    3.50    0.80
  -4  -2  -6    4.00    0.70
   4  -2   6    3.30    1.00
  -4  -2  -6    3.00    0.90
  -4  -2  -6    5.70    1.00
   4   2   6    3.20    1.10
  -4   2  -6    5.10    1.00
  -4   2  -6    4.00    0.80
  -4   2  -6    6.50    1.00
  -5  -2  -6  111.89    9.00
  -5  -2  -6  120.59    8.80
  -5  -2  -6  118.59    8.90
  -5  -2  -6  134.79    9.10
  -5  -2  -6  126.59    9.00
  -5  -2  -6  118.89    8.90
  -5  -2  -6  130.99    9.00
   5  -2   6  139.49    9.00
  -5  -2  -6  125.49    8.90
  -5  -2  -6  125.29    8.80
  -5  -2  -6  119.99    8.90
  -5  -2  -6  126.19    9.10
  -5  -2  -6  127.19    9.00
  -5   2  -6  117.89    8.90
  -5   2  -6  124.69    8.90
   5   2   6  117.79    9.00
  -5   2  -6  129.19    8.90
  -5   2  -6  124.59    8.90
  -6  -2  -6   50.29    3.90
   6  -2   6   49.90    3.80
  -6  -2  -6   45.30    3.70
  -6  -2  -6   46.10    3.70
  -6  -2  -6   49.90    3.90
  -6  -2  -6   43.00    3.90
  -6  -2  -6   50.29    3.90
  -6  -2  -6   46.40    3.60
  -6  -2  -6   45.90    3.80
  -6  -2  -6   47.00    3.70
  -6  -2  -6   52.49    3.80
  -6  -2  -6   51.79    3.70
  -6   2  -6   47.10    3.70
  -6   2  -6   48.10    3.70
  -6   2  -6   52.59    4.20
  -6   2  -6   44.80    3.70
  -6   2  -6   51.59    3.80
  -7  -2  -6    3.90    0.80
  -7  -2  -6    3.80    0.90
  -7  -2  -6    3.00    0.90
  -7  -2  -6    2.80    1.00
  -7  -2  -6    2.70    0.90
  -7  -2  -6    1.70    1.10
  -7  -2  -6    3.50    1.00
  -7  -2  -6    3.80    1.00
  -7  -2  -6    3.90    1.20
   7  -2   6    3.50    1.10
  -7  -2  -6    2.80    0.70
  -7   2  -6    4.20    0.90
  -7   2  -6    2.50    1.00
  -7   2  -6    3.40    1.00
  -7   2  -6    2.40    1.20
  -7   2  -6    3.60    0.90
  -7   2  -6    4.10    1.10
  -8  -2  -6    2.40    0.90
  -8  -2  -6    2.10    0.80
  -8  -2  -6    2.40    0.90
  -8  -2  -6    2.20    0.90
  -8  -2  -6    2.40    1.30
  -8  -2  -6    1.30    1.10
  -8  -2  -6    2.40    0.90
  -8  -2  -6    3.10    0.70
  -8  -2  -6    2.00    0.90
  -8  -2  -6    3.00    1.00
   8  -2   6    2.90    1.10
  -8  -2  -6    1.80    1.10
  -8   2  -6    2.40    1.10
  -8   2  -6    2.60    0.90
  -8   2  -6    1.80    1.20
  -8   2  -6    1.00    1.00
  -8   2  -6    2.80    1.00
  -8   2  -6    2.20    1.00
  -9  -2  -6    9.90    1.90
  -9  -2  -6    8.50    1.50
  -9  -2  -6    7.80    1.10
  -9  -2  -6    7.60    1.20
  -9  -2  -6    8.20    1.40
  -9  -2  -6    9.80    1.20
  -9  -2  -6    8.60    1.40
   9  -2   6    9.00    1.60
  -9  -2  -6    7.60    1.60
  -9  -2  -6   10.30    1.80
  -9  -2  -6    8.30    1.70
  -9  -2  -6    9.20    1.30
  -9   2  -6    6.60    1.30
  -9   2  -6    7.20    1.40
  -9   2  -6    7.40    1.20
  -9   2  -6    6.80    1.50
  -9   2  -6    7.70    1.40
 -10  -2  -6    0.00    1.30
  10  -2   6    3.80    1.10
 -10  -2  -6    3.30    0.90
 -10  -2  -6    1.20    0.70
 -10  -2  -6    0.90    1.00
 -10  -2  -6    1.80    2.00
 -10  -2  -6    0.40    0.70
 -10   2  -6    2.50    1.00
 -10   2  -6    0.80    0.90
 -10   2  -6    0.90    1.10
 -10   2  -6    2.00    1.00
 -10   2  -6    1.30    1.00
 -10   2  -6    0.80    1.10
 -11  -2  -6    9.30    1.80
 -11  -2  -6    8.70    1.30
  11  -2   6    7.50    1.50
 -11  -2  -6    6.50    1.30
 -11  -2  -6    8.00    1.30
 -11   2  -6    9.40    1.40
 -13  -3   6   16.60    2.20
 -13  -3   6   22.60    2.00
 -13  -3   6   15.70    2.00
 -13  -3   6   19.30    2.10
 -13   3   6   20.40    1.90
 -13   3   6   23.20    2.10
 -12  -3   6  103.49    6.90
 -12  -3   6   86.29    7.10
 -12  -3   6   88.39    6.90
 -12  -3   6   80.69    6.80
 -12  -3   6   99.29    6.90
 -12   3   6  101.79    7.00
 -12   3   6   96.29    6.80
 -11  -3   6  101.49    7.50
 -11  -3   6  114.49    7.50
 -11  -3   6  112.89    7.60
 -11  -3   6   90.09    7.40
 -11  -3   6   96.59    7.60
 -11  -3   6  113.59    7.40
  11  -3  -6  100.69    7.30
 -11  -3   6   98.39    7.50
 -11   3   6   98.19    7.40
 -11   3   6  102.39    7.30
 -11   3   6   84.09    7.40
 -10  -3   6   15.10    1.90
 -10  -3   6   14.90    2.10
 -10  -3   6   17.90    2.50
 -10  -3   6   15.40    2.20
  10  -3  -6   12.00    1.60
 -10  -3   6   15.30    2.00
 -10  -3   6   13.10    2.00
 -10   3   6   13.20    1.50
 -10   3   6   16.50    2.30
 -10   3   6   11.70    1.70
 -10   3   6   13.20    1.40
  -9  -3   6   47.30    3.70
  -9  -3   6   43.60    3.90
  -9  -3   6   49.30    3.90
  -9  -3   6   50.99    4.30
  -9  -3   6   47.90    3.50
  -9  -3   6   39.70    3.70
   9  -3  -6   44.50    3.50
  -9  -3   6   43.30    3.70
   9   3  -6   49.10    3.70
  -9   3   6   38.70    3.60
  -9   3   6   45.00    3.80
  -9   3   6   40.70    3.50
  -8  -3   6   21.80    2.50
  -8  -3   6   27.80    2.60
  -8  -3   6   27.70    2.80
  -8  -3   6   26.80    2.40
  -8  -3   6   29.20    2.30
  -8  -3   6   27.10    2.40
  -8  -3   6   23.30    2.50
   8  -3  -6   28.30    2.20
  -8  -3   6   23.30    2.70
  -8   3   6   21.30    2.40
   8   3  -6   27.40    2.50
  -8   3   6   26.80    2.10
  -8   3   6   26.90    2.10
  -8   3   6   23.40    2.40
  -7  -3   6   48.80    4.00
  -7  -3   6   50.29    4.10
  -7  -3   6   46.40    4.00
  -7  -3   6   54.89    3.90
  -7  -3   6   45.70    4.10
  -7  -3   6   44.10    4.00
  -7  -3   6   46.10    3.90
  -7  -3   6   41.30    4.10
  -7  -3   6   48.10    3.80
   7  -3  -6   57.69    3.80
  -7   3   6   52.69    3.90
  -7   3   6   48.20    3.90
   7   3  -6   47.30    3.90
  -7   3   6   54.49    3.70
  -7   3   6   56.89    3.70
   6  -3  -6  185.48   13.10
  -6  -3   6  198.68   13.20
  -6  -3   6  166.18   13.30
   6  -3  -6  203.18   13.20
  -6  -3   6  161.58   13.20
  -6  -3   6  184.68   13.20
  -6  -3   6  181.18   13.20
  -6  -3   6  183.68   13.30
  -6  -3   6  159.38   13.20
  -6  -3   6  199.28   13.30
  -6  -3   6  180.38   13.30
  -6   3   6  203.58   13.30
  -6   3   6  205.28   13.10
  -6   3   6  179.18   13.10
   6   3  -6  183.88   13.20
  -5  -3   6  421.56   30.30
  -5  -3   6  466.25   30.30
  -5  -3   6  402.66   30.20
  -5  -3   6  415.66   30.20
   5  -3  -6  448.26   30.10
  -5  -3   6  444.46   30.20
   5  -3  -6  430.66   30.20
  -5  -3   6  435.36   30.30
  -5  -3   6  423.66   30.20
  -5  -3   6  382.76   30.20
  -5  -3   6  403.86   30.30
  -5   3   6  422.66   30.10
   5   3  -6  411.56   30.10
  -5   3   6  447.36   30.20
  -5   3   6  466.45   30.10
   4  -3  -6  513.75   40.40
  -4  -3   6  560.74   40.50
  -4  -3   6  600.24   40.50
  -4  -3   6  598.54   40.50
   4  -3  -6  611.84   40.60
  -4  -3   6  586.64   40.50
  -4  -3   6  618.44   40.40
  -4  -3   6  497.35   40.40
  -4  -3   6  647.84   40.40
  -4  -3   6  576.04   40.50
   4  -3  -6  553.74   40.40
  -4  -3   6  594.84   40.30
  -4  -3   6  532.15   40.50
   4  -3  -6  574.24   40.30
  -4  -3   6  549.25   40.50
  -4   3   6  592.74   40.50
  -4   3   6  528.55   40.30
   4   3  -6  560.24   40.40
  -4   3   6  615.24   40.30
   3  -3  -6  809.12   55.29
  -3  -3   6  739.03   55.39
  -3  -3   6  702.33   55.49
   3  -3  -6  807.32   55.29
  -3  -3   6  914.61   55.49
  -3  -3   6  787.62   55.39
  -3  -3   6  855.91   55.39
   3  -3  -6  830.22   55.59
  -3  -3   6  792.62   55.49
   3  -3  -6  819.02   55.49
  -3  -3   6  733.23   55.39
  -3  -3   6  831.82   55.49
  -3  -3   6  792.52   55.39
   3  -3  -6  734.73   55.39
  -3  -3   6  708.93   55.39
   3  -3  -6  690.63   55.39
   3   3  -6  769.12   55.39
  -3   3   6  836.72   55.29
  -3   3   6  829.12   55.49
  -2  -3   6  358.86   25.20
  -2  -3   6  329.87   25.30
  -2  -3   6  343.47   25.30
   2  -3  -6  383.16   25.30
   2  -3  -6  405.56   25.50
   2  -3  -6  377.06   25.20
   2  -3  -6  405.46   25.30
  -2  -3   6  329.97   25.30
  -2  -3   6  334.77   25.30
  -2  -3   6  352.26   25.40
   2  -3  -6  314.67   25.20
  -2  -3   6  363.56   25.20
   2  -3  -6  346.67   25.20
   2  -3  -6  305.17   25.20
  -2  -3   6  366.56   25.20
   2  -3  -6  364.56   25.10
  -2  -3   6  324.57   25.50
  -2   3   6  381.26   25.30
  -2   3   6  413.56   25.40
   2   3  -6  348.77   25.20
  -1  -3   6  652.23   48.20
   1  -3  -6  698.43   48.10
   1  -3  -6  694.73   48.10
   1  -3  -6  741.33   48.30
   1  -3  -6  742.03   48.10
   1  -3  -6  608.04   48.20
   1  -3  -6  690.43   48.20
   1  -3  -6  626.74   48.20
  -1  -3   6  674.83   48.30
  -1  -3   6  693.23   48.20
  -1  -3   6  702.63   48.20
  -1   3   6  709.93   48.30
   1   3  -6  677.33   48.10
   0  -3  -6  143.89   10.20
   0  -3   6  127.89   10.40
   0  -3  -6  155.08   10.40
   0  -3   6  158.48   10.30
   0  -3  -6  143.29   10.10
   0  -3  -6  149.49   10.30
   0  -3  -6  137.09   10.30
   0  -3   6  147.59   10.30
   0  -3  -6  135.69   10.20
   0  -3   6  140.19   10.30
   0  -3  -6  146.09   10.20
   0  -3  -6  132.19   10.30
   0   3   6  158.58   10.30
   0   3  -6  142.19   10.20
   0   3   6  130.39   10.30
   1  -3   6  102.99    7.10
   1  -3   6   84.19    7.30
   1  -3   6   89.29    7.20
  -1  -3  -6   96.79    7.00
  -1  -3  -6   97.39    7.10
  -1  -3  -6   99.89    7.10
   1  -3   6  103.09    7.20
  -1  -3  -6  105.59    6.90
  -1  -3  -6   89.19    7.50
  -1  -3  -6  105.49    7.20
   1   3   6   95.09    7.10
  -1   3  -6   95.09    7.00
  -2  -3  -6   19.40    1.70
  -2  -3  -6   19.40    1.70
   2  -3   6   16.40    2.00
  -2  -3  -6   18.50    2.20
   2  -3   6   20.60    3.00
  -2  -3  -6   20.40    1.80
   2  -3   6   15.70    2.00
  -2  -3  -6   21.00    1.90
  -2  -3  -6   21.80    2.10
   2  -3   6   18.80    2.10
   2  -3   6   21.50    2.00
  -2  -3  -6   18.70    1.90
  -2   3  -6   22.20    1.80
  -2   3  -6   16.20    2.00
   3  -3   6   23.60    2.40
   3  -3   6   23.00    2.40
  -3  -3  -6   23.10    2.50
   3  -3   6   22.80    2.90
  -3  -3  -6   19.90    2.20
  -3  -3  -6   27.60    2.30
  -3  -3  -6   26.40    2.00
  -3  -3  -6   24.50    2.30
  -3  -3  -6   26.40    2.10
  -3  -3  -6   25.10    2.10
  -3  -3  -6   25.40    2.20
  -3  -3  -6   26.90    2.30
  -3   3  -6   22.00    2.30
   3   3   6   24.70    2.30
  -3   3  -6   24.50    2.40
  -4  -3  -6    1.90    0.90
   4  -3   6    1.00    1.00
   4  -3   6    0.90    1.20
  -4  -3  -6    1.50    0.90
  -4  -3  -6    0.40    0.80
  -4  -3  -6    0.80    0.60
  -4  -3  -6    1.20    0.60
  -4  -3  -6    0.80    0.70
  -4  -3  -6    0.50    1.00
  -4   3  -6    0.60    1.10
  -4   3  -6    0.90    0.70
   4   3   6    0.90    0.80
  -5  -3  -6  305.67   21.20
  -5  -3  -6  304.37   21.30
  -5  -3  -6  293.27   21.40
   5  -3   6  310.77   21.40
  -5  -3  -6  296.47   21.40
  -5  -3  -6  289.97   21.20
  -5  -3  -6  297.47   21.30
  -5  -3  -6  308.77   21.30
  -5  -3  -6  284.67   21.30
   5  -3   6  287.57   21.30
   5  -3   6  322.67   21.30
  -5  -3  -6  304.07   21.40
  -5  -3  -6  329.27   21.40
  -5   3  -6  309.07   21.30
  -5   3  -6  287.37   21.30
   5   3   6  300.67   21.40
  -5   3  -6  284.97   21.60
  -6  -3  -6  175.08   13.60
  -6  -3  -6  187.18   13.70
  -6  -3  -6  185.38   13.70
   6  -3   6  197.78   13.70
  -6  -3  -6  185.18   13.50
  -6  -3  -6  182.48   13.60
  -6  -3  -6  201.58   13.70
  -6  -3  -6  197.58   13.70
  -6  -3  -6  200.88   13.60
  -6  -3  -6  197.08   13.70
  -6   3  -6  188.68   13.60
  -6   3  -6  182.78   13.90
  -6   3  -6  198.28   13.60
   6   3   6  189.58   13.70
  -6   3  -6  195.68   13.70
  -7  -3  -6   88.69    6.30
  -7  -3  -6   87.39    6.40
  -7  -3  -6   83.89    6.10
  -7  -3  -6   97.99    6.40
  -7  -3  -6   87.39    6.40
   7  -3   6   82.49    6.30
  -7  -3  -6   95.19    6.30
  -7  -3  -6   82.99    6.30
  -7  -3  -6   78.19    6.20
  -7   3  -6   85.29    6.30
   7   3   6   86.69    6.40
  -7   3  -6   74.89    6.30
  -7   3  -6   81.49    6.30
  -7   3  -6   86.49    6.20
  -7   3  -6   80.79    6.70
  -8  -3  -6  234.08   16.00
  -8  -3  -6  223.88   16.00
  -8  -3  -6  232.18   16.00
  -8  -3  -6  244.58   16.00
  -8  -3  -6  207.98   15.90
  -8  -3  -6  210.58   15.90
   8  -3   6  232.98   16.20
  -8  -3  -6  236.78   16.10
  -8   3  -6  214.98   16.10
   8   3   6  242.18   16.10
  -8   3  -6  214.28   16.00
  -8   3  -6  207.68   16.20
  -9  -3  -6   54.19    4.10
   9  -3   6   52.39    4.20
  -9  -3  -6   61.79    4.30
  -9   3  -6   50.79    4.20
  -9   3  -6   50.89    4.10
  -9   3  -6   49.30    4.40
   9   3   6   61.49    4.30
 -11  -4   6   75.79    5.20
 -11  -4   6   64.89    4.90
 -11   4   6   58.39    5.00
 -11   4   6   63.49    4.90
 -10  -4   6   58.89    4.40
 -10  -4   6   65.49    4.80
 -10  -4   6   47.20    4.80
  10  -4  -6   62.99    4.40
 -10   4   6   65.59    4.30
 -10   4   6   51.39    4.50
 -10   4   6   54.89    4.40
  -9  -4   6  100.99    8.40
  -9  -4   6  110.39    8.20
  -9  -4   6  116.39    8.40
   9  -4  -6  124.29    8.30
  -9  -4   6  112.99    8.10
  -9  -4   6   96.99    8.20
  -9  -4   6  106.69    8.20
  -9   4   6  103.49    8.20
   9   4  -6  123.69    8.30
  -9   4   6  129.99    8.00
  -9   4   6  102.99    8.10
  -8  -4   6  127.49   10.50
   8  -4  -6  158.58   10.40
  -8  -4   6  144.89   10.50
  -8  -4   6  151.28   10.70
  -8  -4   6  132.79   10.60
  -8  -4   6  141.99   10.50
  -8  -4   6  142.09   10.40
  -8   4   6  138.29   10.40
  -8   4   6  135.09   10.50
   8   4  -6  154.88   10.40
  -8   4   6  165.48   10.30
  -7  -4   6  150.88   10.80
  -7  -4   6  142.19   10.80
  -7  -4   6  150.58   10.70
  -7  -4   6  127.19   10.80
   7  -4  -6  162.08   10.70
  -7  -4   6  157.78   11.00
   7   4  -6  161.18   10.70
  -7   4   6  147.49   10.80
  -7   4   6  139.29   10.70
  -6  -4   6  181.88   15.10
  -6  -4   6  214.48   15.10
  -6  -4   6  220.28   15.00
   6  -4  -6  229.78   15.00
  -6  -4   6  208.48   15.20
  -6  -4   6  197.08   15.20
   6  -4  -6  232.78   15.20
  -6  -4   6  193.28   15.10
  -6  -4   6  193.88   15.10
  -6  -4   6  218.98   15.10
  -6   4   6  207.88   15.10
   6   4  -6  234.08   15.00
  -6   4   6  208.98   15.10
   5  -4  -6   36.60    2.60
  -5  -4   6   25.90    3.90
  -5  -4   6   28.30    3.10
  -5  -4   6   27.50    3.00
   5  -4  -6   36.50    3.20
  -5  -4   6   31.40    2.80
  -5  -4   6   35.60    2.80
  -5  -4   6   25.30    3.20
   5   4  -6   30.20    2.70
  -5   4   6   32.80    2.80
  -5   4   6   35.20    2.90
  -4  -4   6   34.70    3.60
  -4  -4   6   47.70    3.40
   4  -4  -6   37.50    3.80
   4  -4  -6   43.10    3.20
  -4  -4   6   40.50    3.40
  -4  -4   6   45.00    3.40
  -4  -4   6   44.70    3.50
  -4  -4   6   36.40    3.50
   4  -4  -6   47.00    3.80
  -4  -4   6   31.20    5.00
  -4   4   6   43.00    3.50
   4   4  -6   41.30    3.30
  -4   4   6   44.10    3.30
   3  -4  -6   -0.20    1.20
  -3  -4   6    1.00    1.40
  -3  -4   6    0.50    1.10
  -3  -4   6    0.90    0.90
  -3  -4   6   -0.10    0.80
  -3  -4   6    1.60    1.20
   3  -4  -6    0.50    1.60
   3  -4  -6    1.00    1.30
  -3  -4   6   -1.90    1.70
  -3  -4   6    0.50    0.90
   3  -4  -6    1.10    0.60
   3   4  -6    1.70    0.90
  -3   4   6    0.30    1.10
  -3   4   6    0.90    0.90
   2  -4  -6   14.80    1.80
  -2  -4   6   15.30    1.70
  -2  -4   6   15.10    1.60
   2  -4  -6   13.90    1.50
   2  -4  -6   14.60    2.00
  -2  -4   6   14.10    1.90
  -2  -4   6   15.40    1.90
   2  -4  -6   12.40    1.40
   2  -4  -6   15.80    1.90
   2  -4  -6   16.40    2.00
   2   4  -6   14.70    1.60
  -2   4   6   13.80    1.90
   1  -4  -6   47.60    4.10
  -1  -4   6   54.99    4.00
  -1  -4   6   49.70    4.10
   1  -4  -6   50.49    3.80
  -1  -4   6   44.90    4.50
   1  -4  -6   53.19    4.30
   1  -4  -6   48.80    3.80
   1  -4  -6   50.09    4.00
   1  -4  -6   49.70    3.90
   1  -4  -6   57.69    4.10
  -1  -4   6   50.99    4.10
  -1  -4   6   54.49    4.00
  -1   4   6   47.90    4.10
   1   4  -6   47.30    3.80
   0  -4   6  156.38   11.00
   0  -4  -6  151.88   10.90
   0  -4  -6  135.19   11.00
   0  -4   6  151.68   11.30
   0  -4   6  143.79   11.10
   0  -4  -6  135.89   10.80
   0  -4  -6  143.59   11.00
   0  -4  -6  146.39   10.90
   0  -4  -6  161.98   10.80
   0  -4  -6  170.58   11.00
   0  -4  -6  175.58   11.20
   0  -4   6  148.89   11.00
   0  -4   6  171.68   11.00
   0   4   6  136.99   11.00
   0   4  -6  151.18   10.90
  -1  -4  -6   97.29    8.30
  -1  -4  -6  117.29    8.30
   1  -4   6  126.79    8.20
  -1  -4  -6  111.29    8.00
  -1  -4  -6   99.39    8.20
   1  -4   6   99.39    8.60
  -1  -4  -6  121.89    8.50
  -1  -4  -6  117.49    8.10
   1  -4   6  111.79    8.20
   1   4   6  105.29    8.20
  -1   4  -6  118.19    8.10
   2  -4   6  405.36   27.70
   2  -4   6  395.56   27.70
  -2  -4  -6  384.06   27.60
   2  -4   6  356.16   27.70
  -2  -4  -6  397.06   27.70
  -2  -4  -6  394.96   27.60
  -2  -4  -6  375.86   27.70
  -2  -4  -6  345.57   27.60
   2  -4   6  441.46   27.70
  -2  -4  -6  429.56   27.70
  -2   4  -6  399.56   27.60
   2   4   6  369.96   27.70
  -3  -4  -6  185.28   13.20
   3  -4   6  205.88   13.40
  -3  -4  -6  188.68   13.30
  -3  -4  -6  196.18   13.40
  -3  -4  -6  181.38   13.40
  -3  -4  -6  183.98   13.30
   3  -4   6  174.38   13.40
   3  -4   6  197.28   13.40
   3  -4   6  165.88   13.40
  -3  -4  -6  186.88   13.40
  -3  -4  -6  175.08   13.30
  -3   4  -6  200.78   13.20
   3   4   6  175.08   13.40
  -4  -4  -6  112.69    8.00
   4  -4   6  118.39    8.10
  -4  -4  -6  101.79    8.00
  -4  -4  -6  111.99    7.90
  -4  -4  -6  108.39    8.00
  -4  -4  -6  106.59    7.90
   4  -4   6  110.69    8.00
  -4  -4  -6  110.39    8.00
  -4  -4  -6  111.29    8.00
   4  -4   6   99.89    8.10
  -4   4  -6  115.69    7.90
   4   4   6  101.59    8.00
   5  -4   6  119.99    8.90
  -5  -4  -6  113.39    9.00
  -5  -4  -6  121.89    8.80
  -5  -4  -6  119.49    8.80
  -5  -4  -6  117.09    8.80
  -5  -4  -6  117.89    8.70
  -5  -4  -6  121.29    8.70
  -5  -4  -6  130.99    8.80
  -5   4  -6  134.89    8.70
   5   4   6  114.69    9.00
  -6  -4  -6   28.80    2.60
  -6  -4  -6   27.90    2.60
  -6  -4  -6   33.60    2.60
  -6  -4  -6   28.30    2.80
  -6  -4  -6   30.60    2.60
  -6  -4  -6   32.70    2.70
  -6  -4  -6   32.70    2.50
   6  -4   6   27.90    3.10
  -6   4  -6   31.40    2.60
  -6   4  -6   34.40    2.60
   6   4   6   29.70    2.90
  -7  -4  -6   46.40    4.00
  -7  -4  -6   50.19    3.90
  -7  -4  -6   54.19    3.80
  -7  -4  -6   55.39    3.80
   7   4   6   46.60    4.10
  -7   4  -6   50.89    3.80
  -7   4  -6   46.70    3.90
  -7  -5   6    0.50    1.60
  -7  -5   6    0.80    1.60
  -7  -5   6    0.20    1.00
   7  -5  -6    0.50    0.60
   7  -5  -6    1.50    1.40
  -7   5   6    1.10    0.90
  -7   5   6    0.50    1.10
  -7   5   6    0.20    1.40
   7   5  -6    0.20    1.10
  -7   5   6    0.30    0.90
  -6  -5   6   -0.70    1.40
   6  -5  -6    0.10    1.00
   6  -5  -6    0.00    0.60
   6  -5  -6    0.40    1.30
  -6  -5   6    0.80    1.50
  -6  -5   6   -0.10    1.40
  -6  -5   6    0.40    1.00
  -6   5   6   -0.60    1.10
  -6   5   6    0.00    0.90
   5  -5  -6    2.50    0.60
  -5  -5   6    2.50    0.90
  -5  -5   6    3.50    1.20
   5  -5  -6    3.30    1.00
  -5  -5   6    3.30    1.40
  -5  -5   6    3.40    1.10
   5  -5  -6    5.40    1.50
  -5   5   6    1.50    1.20
  -5   5   6    2.20    1.00
   5   5  -6    2.10    1.00
   4  -5  -6    7.00    1.00
  -4  -5   6    7.00    1.60
  -4  -5   6    6.90    1.30
   4  -5  -6    8.70    1.70
  -4  -5   6    7.20    1.60
   4  -5  -6    7.00    1.60
   4  -5  -6    6.50    1.30
  -4  -5   6    7.90    1.40
  -4   5   6    5.10    1.10
  -4   5   6    6.80    1.30
   4   5  -6    8.80    1.40
   3  -5  -6   12.80    1.60
  -3  -5   6   10.40    1.60
  -3  -5   6   10.80    1.70
  -3  -5   6   13.70    1.80
   3  -5  -6   11.60    1.80
   3  -5  -6   11.60    1.30
  -3  -5   6   10.50    1.90
  -3   5   6    7.90    1.40
  -3   5   6   10.40    1.70
   3   5  -6   15.90    1.70
  -2  -5   6    3.10    1.10
  -2  -5   6    2.00    0.80
   2  -5  -6    2.00    0.90
   2  -5  -6    3.20    1.40
   2  -5  -6    1.10    1.20
  -2  -5   6    2.40    1.00
  -2  -5   6   -1.10    1.40
   2  -5  -6   -0.40    1.30
   2  -5  -6    0.90    1.30
  -2  -5   6    2.30    1.10
   2  -5  -6    0.90    0.70
  -2   5   6   -0.90    0.90
  -1  -5   6   50.39    4.20
   1  -5  -6   52.39    4.20
  -1  -5   6   55.29    4.20
   1  -5  -6   51.89    4.10
  -1  -5   6   55.49    4.20
   1  -5  -6   61.89    4.30
   1  -5  -6   50.79    4.00
  -1  -5   6   50.59    4.10
  -1  -5   6   57.29    4.10
   1  -5  -6   51.19    4.10
   1   5  -6   52.39    4.40
  -1   5   6   46.00    4.20
  -1   5   6   48.40    4.10
   0  -5   6    5.70    1.00
   0  -5   6    8.20    1.50
   0  -5  -6    5.70    1.20
   0  -5  -6    6.60    1.40
   0  -5   6    5.80    1.40
   0  -5  -6    6.00    1.10
   0  -5   6    5.20    1.20
   0  -5   6    4.60    1.10
   0  -5  -6    4.80    0.90
   0   5   6    4.40    1.10
   0   5   6    3.10    1.00
   0   5  -6    6.70    1.20
  -1  -5  -6   -0.10    0.90
  -1  -5  -6   -0.40    0.80
   1  -5   6   -0.40    0.80
   1  -5   6   -0.10    0.80
   1  -5   6    0.80    1.40
   1  -5   6   -1.20    0.90
  -1  -5  -6    0.40    0.90
  -1  -5  -6    1.40    1.20
   1  -5   6    0.10    1.20
   1   5   6   -0.40    1.00
  -1   5  -6    0.40    0.80
  -2  -5  -6   13.90    1.70
   2  -5   6   14.00    1.80
  -2  -5  -6   12.30    1.50
  -2  -5  -6   13.10    1.60
   2  -5   6    9.30    1.60
   2  -5   6   11.00    1.60
   2  -5   6   11.30    1.90
  -2   5  -6   14.10    1.50
   2   5   6   12.20    1.80
  -3  -5  -6    1.00    1.10
  -3  -5  -6    2.30    0.90
  -3  -5  -6    1.30    1.10
  -3  -5  -6    0.60    1.10
   3  -5   6   -1.80    1.30
   3  -5   6    0.00    0.80
   3  -5   6    0.40    1.00
   3  -5   6   -0.30    1.00
  -3  -5  -6   -1.00    0.80
   3   5   6    1.10    1.10
  -3   5  -6   -1.00    0.80
  -4  -5  -6    1.90    0.80
  -4  -5  -6   -0.20    1.10
  -4  -5  -6    1.80    1.10
   4  -5   6    1.00    1.40
  -4  -5  -6    2.10    0.70
   4  -5   6    0.20    1.30
  -4   5  -6    0.70    0.90
 -15   0   7    0.70    0.40
 -15   0   7    2.00    0.90
 -14   0   7   -0.20    0.50
 -14   0   7   -0.20    0.70
 -13   0   7    1.60    0.80
 -13   0   7    1.80    1.30
 -13   0   7   -0.80    1.80
 -13   0   7    0.10    0.90
 -13   0   7   -0.80    1.00
 -13   0   7    0.40    0.80
 -13   0   7    0.80    0.60
 -12   0   7   -0.50    0.90
 -12   0   7   -1.30    0.60
 -12   0   7    0.50    1.10
 -12   0   7   -1.10    1.10
 -12   0   7   -0.80    0.80
 -11   0   7   -2.60    1.60
 -11   0   7   -1.30    0.90
 -11   0   7    0.20    1.00
 -11   0   7    0.40    0.90
 -11   0   7    0.30    1.00
 -11   0   7    0.50    0.80
 -11   0   7   -0.10    0.70
 -11   0   7   -0.70    0.60
 -10   0   7   -0.80    0.90
 -10   0   7   -1.30    0.80
 -10   0   7   -0.40    1.00
 -10   0   7   -0.60    0.60
 -10   0   7   -1.30    0.80
 -10   0   7    0.30    0.90
  10   0  -7    0.30    0.90
 -10   0   7    1.60    1.00
 -10   0   7   -0.90    1.30
 -10   0   7    1.60    0.80
 -10   0   7   -0.80    0.60
 -10   0   7   -0.60    0.80
  -9   0   7    0.60    0.80
  -9   0   7   -0.70    0.70
  -9   0   7   -0.50    0.40
  -9   0   7    1.50    0.70
  -9   0   7   -0.40    0.80
  -9   0   7   -0.50    0.60
  -9   0   7    0.70    0.60
  -9   0   7   -1.00    0.70
  -9   0   7    0.40    0.90
  -9   0   7   -0.90    1.10
  -9   0   7    0.00    0.80
  -8   0   7    1.80    0.60
  -8   0   7    1.60    0.60
  -8   0   7   -0.40    0.60
  -8   0   7    0.40    0.70
  -8   0   7    0.00    0.80
  -8   0   7   -0.60    0.80
  -8   0   7    0.60    0.90
  -8   0   7   -0.30    0.70
  -8   0   7    0.70    1.00
  -8   0   7   -0.30    0.70
  -8   0   7    0.90    0.70
  -7   0   7    0.30    0.60
  -7   0   7    1.10    0.80
  -7   0   7   -0.20    1.00
  -7   0   7   -0.50    0.50
  -7   0   7    1.00    0.70
  -7   0   7    0.10    0.90
  -7   0   7   -0.70    0.70
   7   0  -7   -1.20    0.70
  -7   0   7    0.20    0.60
  -7   0   7   -1.30    0.70
  -7   0   7    0.30    0.60
  -7   0   7   -0.10    0.70
  -7   0   7    1.00    0.80
  -6   0   7    0.00    0.50
  -6   0   7   -0.40    0.70
  -6   0   7    0.80    0.50
  -6   0   7   -0.50    0.70
  -6   0   7   -0.10    0.60
  -6   0   7    0.70    1.00
  -6   0   7    0.30    0.80
   6   0  -7   -0.30    0.70
  -6   0   7    0.30    0.80
  -6   0   7   -0.50    0.40
  -6   0   7   -0.40    0.70
  -6   0   7   -0.50    0.80
  -6   0   7    0.10    0.60
  -6   0   7   -0.30    0.50
  -6   0   7    0.20    0.70
  -5   0   7   -0.10    0.40
  -5   0   7    0.30    0.50
   5   0  -7    0.90    0.50
  -5   0   7    0.40    0.50
  -5   0   7   -0.70    0.70
   5   0  -7   -0.40    0.50
  -5   0   7    0.40    0.70
  -5   0   7    0.30    0.30
  -5   0   7    0.50    1.10
  -5   0   7    1.30    0.50
  -5   0   7    1.30    0.60
  -5   0   7   -0.10    0.60
  -5   0   7    0.00    0.80
  -5   0   7    0.60    0.60
  -5   0   7    0.20    0.60
  -4   0   7    0.50    0.70
  -4   0   7    0.30    0.50
  -4   0   7    0.40    0.70
   4   0  -7    0.90    0.40
  -4   0   7    0.40    0.60
  -4   0   7    0.20    0.30
  -4   0   7    1.00    0.40
  -4   0   7    0.30    0.60
   4   0  -7   -0.30    0.60
  -4   0   7    1.20    0.50
   4   0  -7    0.00    0.50
  -4   0   7   -0.60    0.50
  -3   0   7    0.40    0.40
  -3   0   7    0.90    0.60
  -3   0   7    0.40    0.50
  -3   0   7    0.10    0.60
   3   0  -7    0.60    0.60
  -3   0   7    0.00    0.60
  -3   0   7    0.30    0.60
   3   0  -7    0.10    0.40
   3   0  -7    0.30    0.50
   3   0  -7    1.30    0.40
  -2   0   7   -0.10    0.60
   2   0  -7   -0.40    0.50
   2   0  -7    1.20    0.40
  -2   0   7    1.70    0.50
   2   0  -7    1.00    0.60
   2   0  -7    0.50    0.50
   2   0  -7    0.10    0.40
  -2   0   7    0.20    0.60
  -2   0   7    1.30    0.40
   1   0  -7   -0.30    0.40
  -1   0   7   -0.30    0.60
  -1   0   7    0.20    0.60
   1   0  -7   -0.60    0.50
   1   0  -7   -0.30    0.50
   1   0  -7   -0.70    0.50
  -1   0   7    0.80    0.60
  -1   0   7   -0.20    0.60
   1   0  -7   -0.80    0.40
  -1   0   7   -0.50    0.50
   0   0  -7    0.40    0.50
   0   0  -7    1.90    0.70
   0   0  -7    0.50    0.40
   0   0  -7    0.20    0.50
   0   0   7    0.90    0.50
   0   0   7    0.40    0.60
   0   0  -7   -0.30    0.40
   0   0  -7    1.00    0.50
   0   0   7    0.10    0.70
   0   0  -7   -0.60    0.60
  -1   0  -7    0.40    0.60
  -1   0  -7    0.30    0.50
  -1   0  -7    0.10    0.50
   1   0   7    0.80    0.50
  -1   0  -7    0.20    0.50
  -1   0  -7    0.50    0.60
  -1   0  -7    0.30    0.50
   1   0   7   -0.80    0.70
  -1   0  -7    1.20    0.50
  -2   0  -7    0.80    0.50
  -2   0  -7    0.00    0.70
  -2   0  -7    0.40    0.50
  -2   0  -7    1.00    0.60
  -2   0  -7    1.70    1.30
  -2   0  -7    0.00    0.50
  -2   0  -7    3.20    1.10
   2   0   7   -0.70    0.80
   2   0   7    0.60    0.60
   2   0   7    1.90    0.70
  -2   0  -7   -0.30    0.80
   3   0   7    0.00    0.80
   3   0   7    1.30    0.80
  -3   0  -7    1.40    0.60
  -3   0  -7    0.70    0.60
  -3   0  -7    0.60    1.20
   3   0   7    1.60    1.00
  -3   0  -7    1.60    0.70
  -3   0  -7    2.10    0.60
  -3   0  -7    2.20    0.60
  -3   0  -7    0.00    1.00
  -3   0  -7    0.80    0.60
  -4   0  -7    2.10    0.70
  -4   0  -7    1.80    0.70
  -4   0  -7    1.20    0.70
  -4   0  -7    2.60    0.70
  -4   0  -7    2.00    0.60
  -4   0  -7    1.20    1.00
  -4   0  -7    1.80    0.80
  -4   0  -7    1.00    1.30
  -4   0  -7    1.40    0.70
  -4   0  -7    2.70    0.70
   4   0   7    2.60    1.80
   4   0   7    2.00    0.80
  -5   0  -7    0.80    0.70
  -5   0  -7    0.70    0.80
  -5   0  -7    2.10    0.80
  -5   0  -7    0.30    1.00
  -5   0  -7    1.80    0.70
  -5   0  -7    1.90    0.80
  -5   0  -7    1.30    1.40
  -5   0  -7    2.90    0.70
  -5   0  -7    2.20    0.80
   5   0   7    0.70    0.90
  -5   0  -7    2.10    0.70
   5   0   7    2.70    1.90
  -6   0  -7    2.90    1.30
  -6   0  -7    2.60    0.80
  -6   0  -7    2.50    0.90
  -6   0  -7    2.70    0.80
  -6   0  -7    3.00    1.50
  -6   0  -7    1.60    0.90
  -6   0  -7    0.90    1.10
  -6   0  -7    2.70    0.80
  -6   0  -7    2.10    0.90
  -7   0  -7    2.00    0.80
  -7   0  -7    0.70    1.10
  -7   0  -7    2.00    0.90
   7   0   7    0.60    1.10
  -7   0  -7    1.10    1.60
  -7   0  -7    1.50    1.00
  -7   0  -7    0.90    0.80
  -7   0  -7    1.70    1.00
  -7   0  -7    1.60    1.00
  -7   0  -7    1.20    1.00
  -7   0  -7    1.30    0.80
  -7   0  -7    1.70    0.90
  -7   0  -7    0.80    0.80
  -7   0  -7    0.90    0.50
  -8   0  -7    0.20    1.80
  -8   0  -7    0.90    0.80
  -8   0  -7    0.60    0.90
   8   0   7   -1.30    1.10
  -8   0  -7    0.20    0.80
  -8   0  -7    0.10    1.10
  -8   0  -7   -1.00    1.10
  -8   0  -7    0.50    1.10
  -8   0  -7    0.60    0.80
  -8   0  -7    1.30    1.10
  -8   0  -7    1.60    1.20
  -8   0  -7   -0.60    0.90
   9   0   7    0.40    1.20
  -9   0  -7    0.10    1.90
  -9   0  -7   -0.20    0.90
  -9   0  -7   -0.40    0.80
  -9   0  -7   -0.40    1.10
  -9   0  -7   -0.60    0.90
  -9   0  -7   -0.30    0.80
  -9   0  -7   -1.50    1.20
  -9   0  -7    0.20    0.90
  -9   0  -7   -0.40    1.00
  -9   0  -7   -0.10    0.50
  -9   0  -7   -0.60    1.00
 -10   0  -7   -0.60    0.90
 -10   0  -7   -0.90    0.90
  10   0   7   -0.80    1.20
 -10   0  -7    0.00    0.90
 -10   0  -7   -0.10    0.40
 -10   0  -7   -0.90    1.00
 -10   0  -7   -0.80    0.90
 -10   0  -7    0.50    1.90
 -10   0  -7    0.90    0.90
  11   0   7   -1.70    1.50
 -11   0  -7    0.00    0.90
 -11   0  -7   -0.10    1.00
 -11   0  -7    1.10    0.90
 -11   0  -7    0.30    0.90
 -11   0  -7    0.40    0.80
 -11   0  -7   -0.60    0.40
 -15  -1   7   25.70    4.00
 -15  -1   7   28.70    2.40
 -15   1   7   22.00    2.50
 -15   1   7   30.20    2.60
 -14  -1   7   46.50    3.50
 -14  -1   7   39.00    3.70
 -14  -1   7   38.80    3.50
 -14  -1   7   43.20    4.20
 -14  -1   7   47.30    3.70
 -14  -1   7   40.80    3.40
 -14   1   7   42.10    3.20
 -14   1   7   46.90    3.60
 -14   1   7   41.60    3.80
 -14   1   7   39.80    3.30
 -14   1   7   38.70    3.40
 -13  -1   7   35.90    3.10
 -13  -1   7   41.00    2.90
 -13  -1   7   34.50    3.10
 -13  -1   7   39.20    3.30
 -13  -1   7   36.50    4.10
 -13  -1   7   38.40    3.00
 -13  -1   7   39.30    3.70
 -13   1   7   38.10    3.20
 -13   1   7   35.20    2.70
 -13   1   7   30.30    2.90
 -13   1   7   33.00    2.80
 -13   1   7   29.20    2.90
 -13   1   7   30.70    3.10
 -13   1   7   29.30    3.10
 -12  -1   7    3.60    1.30
 -12  -1   7    2.60    1.10
 -12  -1   7    1.00    1.20
 -12  -1   7    3.40    1.00
 -12  -1   7    3.90    1.30
 -12   1   7    2.30    0.90
 -12   1   7    1.40    0.70
 -12   1   7    2.80    2.00
 -11  -1   7   15.00    2.10
 -11  -1   7   10.20    2.10
 -11  -1   7   16.20    3.20
 -11  -1   7   13.10    1.80
 -11  -1   7   11.60    1.40
 -11  -1   7   15.20    1.60
 -11  -1   7   13.00    1.60
 -11  -1   7   13.50    2.30
 -11  -1   7   12.50    1.40
 -11  -1   7   13.30    1.70
 -11   1   7   13.40    1.40
 -11   1   7   14.70    1.90
 -11   1   7   12.10    1.90
 -11   1   7   14.30    1.40
 -11   1   7   14.20    1.60
 -11   1   7   15.40    1.80
 -11   1   7   12.10    1.60
 -10  -1   7   11.10    1.40
 -10  -1   7   11.20    1.90
 -10  -1   7   15.20    2.00
 -10  -1   7   13.10    1.40
 -10  -1   7   11.40    1.60
 -10  -1   7   12.90    2.00
 -10  -1   7   16.10    1.60
  10  -1  -7   12.60    1.50
 -10  -1   7   13.00    1.50
 -10  -1   7   11.70    1.70
 -10  -1   7   14.10    3.00
 -10   1   7   13.30    1.90
 -10   1   7   12.60    1.90
 -10   1   7   14.30    1.40
 -10   1   7   10.90    1.50
 -10   1   7   15.00    1.30
 -10   1   7   13.30    1.60
  -9  -1   7  249.38   17.70
  -9  -1   7  264.17   17.90
  -9  -1   7  266.27   17.70
  -9  -1   7  258.97   17.70
  -9  -1   7  251.27   17.80
  -9  -1   7  271.37   17.80
  -9  -1   7  237.58   17.80
  -9  -1   7  241.88   17.70
  -9  -1   7  275.37   17.80
  -9  -1   7  211.48   17.70
  -9  -1   7  260.97   17.70
  -9  -1   7  215.58   17.60
  -9  -1   7  241.18   17.60
   9  -1  -7  263.67   17.70
  -9   1   7  245.98   17.70
  -9   1   7  257.17   17.80
  -9   1   7  212.18   17.70
  -9   1   7  238.18   17.80
  -9   1   7  257.77   17.80
  -9   1   7  253.37   17.70
  -9   1   7  250.27   17.70
  -9   1   7  267.67   17.60
  -9   1   7  256.57   17.80
  -8  -1   7  723.83   50.09
  -8  -1   7  673.63   50.09
  -8  -1   7  654.13   49.99
  -8  -1   7  728.33   50.09
  -8  -1   7  747.53   49.99
  -8  -1   7  699.33   49.99
  -8  -1   7  698.83   49.99
  -8  -1   7  649.93   49.99
  -8  -1   7  740.63   49.99
  -8  -1   7  734.63   50.19
  -8  -1   7  687.03   49.99
  -8  -1   7  764.22   50.09
  -8  -1   7  684.13   49.99
  -8  -1   7  654.83   49.99
   8  -1  -7  738.63   49.99
  -8   1   7  775.42   49.99
  -8   1   7  690.43   49.99
  -8   1   7  768.72   49.99
  -8   1   7  680.73   49.99
  -8   1   7  636.94   49.99
  -8   1   7  706.23   50.09
  -8   1   7  705.83   50.09
  -8   1   7  764.22   49.99
  -8   1   7  780.02   50.09
  -7  -1   7  761.62   56.59
  -7  -1   7  756.72   56.59
   7  -1  -7  823.22   56.49
  -7  -1   7  744.43   56.59
  -7  -1   7  790.52   56.59
  -7  -1   7  885.91   56.59
  -7  -1   7  744.93   56.69
   7  -1  -7  830.52   56.59
  -7  -1   7  857.61   56.69
  -7  -1   7  821.52   56.59
  -7  -1   7  785.12   56.69
  -7  -1   7  767.12   56.59
  -7  -1   7  803.82   56.69
   7  -1  -7  787.22   56.79
  -7  -1   7  844.62   56.79
  -7  -1   7  863.31   56.59
  -7   1   7  824.12   56.69
  -7   1   7  738.93   56.69
  -7   1   7  802.62   56.59
  -7   1   7  777.12   56.59
  -7   1   7  912.61   56.59
  -7   1   7  773.22   56.69
  -7   1   7  791.22   56.59
  -7   1   7  869.71   56.69
  -6  -1   7  803.12   50.29
  -6  -1   7  794.62   50.49
   6  -1  -7  753.62   50.39
  -6  -1   7  739.33   50.49
  -6  -1   7  685.83   50.39
  -6  -1   7  726.23   50.39
   6  -1  -7  716.93   50.29
  -6  -1   7  753.22   50.39
  -6  -1   7  758.92   50.39
  -6  -1   7  644.34   50.39
  -6  -1   7  613.14   50.39
  -6  -1   7  646.34   50.29
  -6  -1   7  727.33   50.39
  -6  -1   7  677.03   50.49
  -6  -1   7  698.13   50.39
  -6  -1   7  724.63   50.39
  -6  -1   7  742.43   50.39
  -6   1   7  749.73   50.39
  -6   1   7  761.72   50.29
  -6   1   7  686.83   50.39
  -6   1   7  725.93   50.39
  -6   1   7  770.52   50.39
  -6   1   7  693.73   50.49
  -6   1   7  665.43   50.39
  -6   1   7  815.72   50.39
  -6   1   7  664.33   50.39
  -6   1   7  640.64   50.39
  -6   1   7  715.03   50.39
  -5  -1   7 1897.71  121.69
  -5  -1   7 1829.92  121.69
  -5  -1   7 1522.05  121.69
  -5  -1   7 1590.54  121.69
  -5  -1   7 1863.01  121.79
  -5  -1   7 1683.93  121.69
  -5  -1   7 1743.43  121.59
   5  -1  -7 1698.43  121.59
  -5  -1   7 1932.61  121.69
  -5  -1   7 1773.62  121.69
  -5  -1   7 1505.15  121.69
  -5  -1   7 1722.23  121.79
   5  -1  -7 1844.12  121.69
  -5  -1   7 1637.54  121.79
  -5  -1   7 1587.14  121.69
  -5  -1   7 1644.74  121.69
  -5  -1   7 1990.70  121.69
  -5   1   7 1929.31  121.69
  -5   1   7 1625.24  121.79
  -5   1   7 1710.93  121.59
  -5   1   7 1630.24  121.69
  -5   1   7 1718.63  121.69
  -5   1   7 1643.54  121.79
  -5   1   7 1563.34  121.69
  -5   1   7 1804.62  121.69
  -5   1   7 1937.91  121.69
  -5   1   7 1857.41  121.69
  -4  -1   7 1433.16  112.09
  -4  -1   7 1690.93  112.29
  -4  -1   7 1609.54  112.19
  -4  -1   7 1518.65  112.09
   4  -1  -7 1723.23  112.09
  -4  -1   7 1477.15  112.19
  -4  -1   7 1561.64  112.09
  -4  -1   7 1444.56  112.09
   4  -1  -7 1712.93  112.09
  -4  -1   7 1419.26  112.09
  -4  -1   7 1579.34  112.09
   4  -1  -7 1416.56  112.09
  -4   1   7 1474.55  112.09
  -4   1   7 1848.42  112.19
  -4   1   7 1628.44  112.19
  -4   1   7 1830.92  112.19
  -4   1   7 1558.44  112.09
  -4   1   7 1769.02  112.09
  -4   1   7 1630.44  112.09
  -4   1   7 1676.43  112.19
  -3  -1   7   48.90    3.70
   3  -1  -7   51.79    3.60
  -3  -1   7   50.09    3.70
  -3  -1   7   48.10    3.70
  -3  -1   7   50.39    3.70
  -3  -1   7   47.20    3.70
  -3  -1   7   44.10    3.70
   3  -1  -7   48.40    3.60
   3  -1  -7   55.59    3.60
  -3  -1   7   54.19    4.00
  -3  -1   7   44.90    3.70
  -3  -1   7   49.10    3.90
  -3   1   7   53.99    3.80
  -3   1   7   51.19    3.70
  -3   1   7   45.90    3.70
  -3   1   7   41.40    4.00
  -3   1   7   57.69    3.70
  -3   1   7   54.29    3.70
  -3   1   7   49.30    3.70
   2  -1  -7  221.48   17.00
   2  -1  -7  264.17   16.90
  -2  -1   7  217.78   17.00
  -2  -1   7  226.58   17.00
  -2  -1   7  242.98   17.00
  -2  -1   7  208.68   17.10
   2  -1  -7  264.87   17.00
  -2  -1   7  225.88   16.90
  -2  -1   7  243.28   17.00
  -2  -1   7  223.58   17.00
  -2   1   7  237.18   17.00
  -2   1   7  255.17   17.00
  -2   1   7  260.67   17.00
  -2   1   7  250.97   17.00
  -2   1   7  266.87   17.00
  -1  -1   7  469.95   35.90
  -1  -1   7  520.25   35.90
   1  -1  -7  553.54   35.90
  -1  -1   7  510.65   35.90
   1  -1  -7  501.75   35.90
  -1  -1   7  490.85   35.90
   1  -1  -7  515.65   35.90
   1  -1  -7  455.15   35.90
   1  -1  -7  488.65   35.90
  -1  -1   7  475.65   36.00
  -1   1   7  531.55   35.90
  -1   1   7  589.84   35.90
  -1   1   7  539.55   35.90
  -1   1   7  513.25   35.90
   0  -1   7  349.27   26.30
   0  -1  -7  326.87   26.40
   0  -1  -7  364.36   26.40
   0  -1  -7  394.46   26.40
   0  -1  -7  377.96   26.30
   0  -1   7  343.97   26.40
   0  -1  -7  392.16   26.30
   0  -1  -7  427.96   26.40
   0  -1  -7  416.06   26.40
   0  -1   7  348.67   26.40
   0  -1   7  390.46   26.40
   0  -1   7  399.56   26.40
   0  -1  -7  365.86   26.40
   0   1  -7  374.16   26.40
   0   1   7  366.56   26.40
   0   1   7  376.86   26.40
   0   1   7  363.36   26.40
  -1  -1  -7  842.02   57.49
   1  -1   7  785.42   57.49
  -1  -1  -7  877.91   57.39
  -1  -1  -7  688.73   57.39
  -1  -1  -7  880.71   57.39
  -1  -1  -7  829.32   57.39
  -1  -1  -7  878.51   57.39
   1  -1   7  851.61   57.49
  -1  -1  -7  860.41   57.49
  -1  -1  -7  865.41   57.39
  -1  -1  -7  736.93   57.49
   1  -1   7  745.73   57.39
  -1  -1  -7  894.81   57.39
  -1   1  -7  730.53   57.39
  -1   1  -7  725.83   57.39
   1   1   7  823.92   57.49
   1   1   7  756.62   57.39
  -1   1  -7  798.02   57.39
  -1   1  -7  816.12   57.39
  -1   1  -7  837.62   57.39
   1   1   7  922.71   57.49
  -1   1  -7  869.81   57.39
  -2  -1  -7  115.99    8.10
  -2  -1  -7  104.29    8.20
   2  -1   7  100.99    8.10
  -2  -1  -7  117.29    8.10
  -2  -1  -7  113.19    8.10
  -2  -1  -7  112.79    8.10
  -2  -1  -7  114.89    8.00
  -2  -1  -7  115.59    8.00
   2  -1   7  115.19    8.10
   2  -1   7  111.99    8.10
  -2  -1  -7  111.69    8.10
  -2  -1  -7  122.39    8.00
  -2  -1  -7  108.59    8.10
  -2   1  -7  116.39    8.00
  -2   1  -7  102.59    8.10
  -2   1  -7  119.09    8.00
  -2   1  -7  114.09    8.00
  -2   1  -7  101.89    8.00
  -2   1  -7  111.49    8.10
   2   1   7  111.69    8.20
  -2   1  -7  119.49    8.00
   2   1   7  127.99    8.10
  -3  -1  -7  602.24   44.80
  -3  -1  -7  662.43   44.80
  -3  -1  -7  598.04   44.80
   3  -1   7  670.83   44.80
  -3  -1  -7  662.23   44.80
  -3  -1  -7  640.44   44.80
  -3  -1  -7  628.34   44.80
  -3  -1  -7  641.24   44.70
  -3  -1  -7  663.03   44.80
   3  -1   7  588.94   44.80
  -3  -1  -7  657.03   44.80
   3  -1   7  622.74   44.80
  -3  -1  -7  646.04   44.70
  -3  -1  -7  637.94   44.80
  -3  -1  -7  649.54   44.80
  -3   1  -7  661.03   44.80
  -3   1  -7  656.43   44.80
  -3   1  -7  623.74   44.80
   3   1   7  579.14   44.80
   3   1   7  701.63   44.80
  -3   1  -7  679.83   45.00
  -3   1  -7  608.44   44.80
  -3   1  -7  609.14   44.70
  -3   1  -7  613.54   44.70
  -4  -1  -7  710.03   48.90
  -4  -1  -7  694.33   48.80
  -4  -1  -7  746.93   48.90
  -4  -1  -7  724.53   48.90
  -4  -1  -7  648.94   48.80
  -4  -1  -7  689.23   48.80
  -4  -1  -7  673.23   48.80
  -4  -1  -7  677.53   48.90
  -4  -1  -7  655.53   48.90
  -4  -1  -7  721.83   48.90
  -4  -1  -7  759.62   49.00
   4  -1   7  690.63   48.90
  -4  -1  -7  696.53   48.90
   4  -1   7  635.74   48.90
   4  -1   7  643.04   49.00
  -4  -1  -7  724.83   49.00
  -4  -1  -7  678.13   48.80
  -4  -1  -7  721.43   48.80
  -4   1  -7  629.04   48.90
   4   1   7  747.53   48.90
  -4   1  -7  706.03   48.80
  -4   1  -7  697.03   48.90
  -4   1  -7  700.33   48.80
  -4   1  -7  709.83   48.90
  -4   1  -7  717.13   49.00
  -4   1  -7  715.53   48.80
  -4   1  -7  757.22   49.10
  -4   1  -7  668.43   48.80
   4   1   7  634.14   48.90
  -5  -1  -7  368.06   27.50
  -5  -1  -7  362.46   27.60
  -5  -1  -7  386.56   27.60
  -5  -1  -7  348.87   27.70
  -5  -1  -7  406.06   27.70
  -5  -1  -7  390.66   27.70
  -5  -1  -7  409.56   27.80
  -5  -1  -7  383.06   27.70
  -5  -1  -7  385.26   27.70
  -5  -1  -7  388.06   27.60
  -5  -1  -7  396.66   27.70
   5  -1   7  428.46   27.70
  -5  -1  -7  408.56   27.80
  -5   1  -7  394.86   27.70
  -5   1  -7  401.06   27.90
  -5   1  -7  417.96   27.60
  -5   1  -7  392.46   27.60
  -5   1  -7  375.96   27.60
   5   1   7  409.86   27.70
  -5   1  -7  381.06   27.60
  -5   1  -7  396.86   27.60
  -5   1  -7  397.96   27.60
  -6  -1  -7  610.34   40.50
  -6  -1  -7  530.45   40.20
  -6  -1  -7  581.24   40.30
   6  -1   7  641.34   40.40
  -6  -1  -7  614.04   40.40
  -6  -1  -7  563.44   40.40
  -6  -1  -7  598.94   40.40
  -6  -1  -7  557.04   40.30
  -6  -1  -7  558.54   40.40
  -6  -1  -7  528.25   40.30
  -6  -1  -7  597.94   40.30
  -6   1  -7  543.25   40.30
  -6   1  -7  558.84   40.30
  -6   1  -7  599.74   40.40
  -6   1  -7  538.35   40.30
  -6   1  -7  565.14   40.30
  -6   1  -7  566.14   40.40
  -6   1  -7  610.64   40.60
   6   1   7  589.94   40.30
  -6   1  -7  505.05   40.30
  -7  -1  -7  216.28   15.80
  -7  -1  -7  218.88   15.80
  -7  -1  -7  212.98   15.80
  -7  -1  -7  234.98   15.90
  -7  -1  -7  228.08   15.80
  -7  -1  -7  213.78   15.80
  -7  -1  -7  234.58   16.00
   7  -1   7  241.98   15.90
  -7  -1  -7  208.88   15.70
  -7  -1  -7  218.78   15.80
  -7  -1  -7  215.58   15.80
  -7  -1  -7  229.88   16.00
  -7  -1  -7  229.58   16.00
  -7   1  -7  213.18   15.80
   7   1   7  228.08   15.90
  -7   1  -7  229.68   16.30
  -7   1  -7  212.58   15.80
  -7   1  -7  223.58   15.90
  -7   1  -7  225.98   16.20
  -7   1  -7  218.78   15.80
  -7   1  -7  228.58   15.80
  -7   1  -7  215.48   15.90
  -8  -1  -7   35.20    2.80
  -8  -1  -7   36.60    2.80
  -8  -1  -7   33.10    4.00
  -8  -1  -7   34.30    3.00
  -8  -1  -7   37.90    3.00
  -8  -1  -7   31.30    3.00
  -8  -1  -7   34.30    3.00
   8  -1   7   37.50    3.00
  -8  -1  -7   36.10    2.80
  -8  -1  -7   34.70    2.80
  -8  -1  -7   34.40    3.20
  -8  -1  -7   34.80    2.70
  -8  -1  -7   32.70    2.70
  -8   1  -7   36.10    3.40
  -8   1  -7   30.70    2.80
  -8   1  -7   33.30    2.80
  -8   1  -7   32.50    2.90
  -8   1  -7   32.30    2.80
  -8   1  -7   36.60    2.80
  -8   1  -7   33.50    3.00
   8   1   7   32.20    3.10
  -9  -1  -7   47.80    3.90
  -9  -1  -7   51.39    4.10
  -9  -1  -7   54.19    3.90
  -9  -1  -7   47.40    4.10
  -9  -1  -7   49.40    3.80
   9  -1   7   51.59    4.00
  -9  -1  -7   52.89    3.90
  -9  -1  -7   51.09    3.90
  -9  -1  -7   57.89    4.30
  -9  -1  -7   52.39    3.90
  -9  -1  -7   51.69    3.80
  -9   1  -7   51.59    3.90
   9   1   7   42.20    4.20
  -9   1  -7   48.50    3.90
  -9   1  -7   47.40    4.40
  -9   1  -7   50.89    4.10
  -9   1  -7   50.89    4.30
  -9   1  -7   55.19    3.90
  -9   1  -7   47.60    4.00
  -9   1  -7   46.50    3.90
 -10  -1  -7   11.50    1.40
 -10  -1  -7   13.10    2.30
 -10  -1  -7   13.90    1.60
  10  -1   7   12.40    1.70
 -10  -1  -7   11.80    1.70
 -10  -1  -7   13.80    1.50
 -10  -1  -7   12.40    1.50
 -10  -1  -7   11.40    1.50
 -10  -1  -7   13.20    1.60
 -10   1  -7   12.10    1.60
 -10   1  -7   12.90    1.60
 -10   1  -7   10.60    2.00
 -10   1  -7   11.50    1.70
 -10   1  -7   11.80    1.50
 -10   1  -7   11.70    1.90
 -10   1  -7   12.30    1.50
 -11  -1  -7    3.40    0.90
 -11  -1  -7    1.50    0.40
 -11  -1  -7    2.30    0.80
  11  -1   7    3.10    1.20
 -11  -1  -7    4.10    1.00
 -11  -1  -7    1.90    1.70
 -11  -1  -7    2.60    0.90
 -11   1  -7    2.60    0.90
 -11   1  -7    2.50    1.00
 -11   1  -7    1.60    0.90
 -11   1  -7    1.90    1.00
 -14  -2   7   42.70    3.70
 -14  -2   7   52.29    3.70
 -14  -2   7   38.30    3.90
 -14  -2   7   48.30    3.60
 -14  -2   7   45.80    3.70
 -14   2   7   48.40    3.60
 -14   2   7   47.20    3.50
 -14   2   7   47.60    3.80
 -13  -2   7  128.09    9.50
 -13  -2   7  132.09    9.30
 -13  -2   7  132.39    9.20
 -13  -2   7  128.79    9.30
 -13  -2   7  115.99    9.20
 -13  -2   7  146.39    9.30
 -13  -2   7  119.89    9.40
 -13  -2   7  108.69    9.50
 -13   2   7  130.19    9.20
 -13   2   7  135.99    9.10
 -13   2   7  127.79    9.30
 -13   2   7  114.69    9.20
 -13   2   7  135.19    9.10
 -12  -2   7  320.87   22.20
 -12  -2   7  297.27   22.20
 -12  -2   7  315.57   22.10
 -12  -2   7  336.47   22.10
 -12  -2   7  304.07   22.20
 -12  -2   7  326.97   22.10
 -12  -2   7  307.57   22.20
 -12  -2   7  310.97   22.10
 -12  -2   7  312.87   22.20
 -12   2   7  322.37   22.20
 -12   2   7  300.57   22.10
 -12   2   7  305.07   22.10
 -12   2   7  306.97   22.00
 -12   2   7  303.67   22.10
 -11  -2   7  461.75   32.10
 -11  -2   7  482.35   32.10
 -11  -2   7  418.16   32.40
  11  -2  -7  489.65   32.10
 -11  -2   7  471.05   32.20
 -11  -2   7  443.96   32.80
 -11  -2   7  486.95   32.20
 -11  -2   7  457.65   32.50
 -11  -2   7  525.65   32.50
 -11  -2   7  461.45   32.20
 -11   2   7  475.55   32.00
 -11   2   7  462.55   32.10
 -11   2   7  403.86   32.70
 -11   2   7  396.86   32.10
 -11   2   7  399.66   32.50
 -11   2   7  443.06   32.10
 -10  -2   7  363.76   26.30
 -10  -2   7  391.76   26.30
 -10  -2   7  374.26   26.20
 -10  -2   7  375.36   26.20
 -10  -2   7  404.76   26.50
 -10  -2   7  353.46   26.30
 -10  -2   7  378.76   26.30
  10  -2  -7  394.16   26.20
 -10  -2   7  347.67   26.40
 -10  -2   7  361.56   26.20
 -10  -2   7  368.46   26.30
 -10   2   7  398.76   26.30
 -10   2   7  388.46   26.10
 -10   2   7  380.36   26.20
 -10   2   7  343.87   26.40
 -10   2   7  377.66   26.20
 -10   2   7  323.67   26.20
 -10   2   7  358.26   26.20
  -9  -2   7  194.98   15.70
  -9  -2   7  209.98   15.70
  -9  -2   7  243.18   15.90
  -9  -2   7  228.78   15.70
  -9  -2   7  228.38   15.80
  -9  -2   7  235.28   15.80
  -9  -2   7  233.18   15.70
  -9  -2   7  204.28   15.80
   9  -2  -7  243.98   15.70
  -9  -2   7  204.28   15.90
  -9  -2   7  205.48   15.70
  -9  -2   7  231.68   15.80
  -9   2   7  213.18   15.80
  -9   2   7  213.58   15.60
  -9   2   7  235.78   15.60
  -9   2   7  230.58   15.80
  -9   2   7  219.48   15.70
  -9   2   7  192.38   15.70
  -9   2   7  230.78   15.80
  -8  -2   7  282.17   20.10
  -8  -2   7  302.97   20.20
  -8  -2   7  261.67   20.10
  -8  -2   7  278.27   20.10
   8  -2  -7  290.37   20.30
   8  -2  -7  316.27   20.10
  -8  -2   7  316.07   20.10
  -8  -2   7  251.47   20.10
  -8  -2   7  286.27   20.10
  -8  -2   7  253.07   20.20
  -8  -2   7  274.77   20.00
  -8  -2   7  242.88   20.10
  -8  -2   7  303.87   20.20
  -8  -2   7  292.67   20.20
  -8   2   7  327.57   20.00
  -8   2   7  302.47   20.10
  -8   2   7  300.97   20.20
  -8   2   7  256.37   20.20
  -8   2   7  290.27   20.10
  -8   2   7  282.37   20.10
  -8   2   7  252.07   20.10
  -7  -2   7   40.00    3.90
  -7  -2   7   43.80    3.60
  -7  -2   7   52.49    3.70
  -7  -2   7   54.49    3.70
  -7  -2   7   39.60    4.00
  -7  -2   7   55.29    3.70
   7  -2  -7   55.29    3.60
  -7  -2   7   54.59    3.90
  -7  -2   7   40.50    3.90
  -7  -2   7   47.00    3.70
  -7  -2   7   40.80    4.00
  -7  -2   7   50.29    3.90
  -7  -2   7   52.79    3.70
   7  -2  -7   47.80    3.90
  -7  -2   7   49.10    3.70
   7  -2  -7   42.40    3.60
  -7   2   7   46.80    3.70
   7   2  -7   39.10    3.70
  -7   2   7   53.09    3.70
  -7   2   7   50.39    3.60
  -6  -2   7  123.19    9.00
  -6  -2   7  127.89    8.90
  -6  -2   7  118.09    9.30
  -6  -2   7  120.59    9.00
  -6  -2   7  121.29    9.00
  -6  -2   7  117.49    9.00
   6  -2  -7  127.39    8.90
  -6  -2   7  130.79    9.10
  -6  -2   7  132.89    9.00
   6  -2  -7  114.59    9.00
  -6  -2   7  106.09    9.10
   6  -2  -7  136.49    9.00
  -6  -2   7  136.39    9.00
  -6  -2   7  132.99    9.00
  -6  -2   7  133.19    9.10
  -6  -2   7  117.99    9.10
  -6  -2   7  113.49    9.10
  -6   2   7  133.59    9.00
   6   2  -7  109.69    8.90
  -6   2   7  133.69    9.00
  -6   2   7  134.09    8.90
  -6   2   7  133.69    9.20
  -6   2   7  124.69    8.90
  -6   2   7  122.59    9.10
  -6   2   7  134.09    9.00
   5  -2  -7   19.80    2.00
  -5  -2   7   19.60    2.40
   5  -2  -7   18.80    1.60
  -5  -2   7   19.70    1.80
  -5  -2   7   15.90    2.30
  -5  -2   7   21.40    2.10
  -5  -2   7   17.70    2.20
  -5  -2   7   23.80    1.80
  -5  -2   7   19.60    1.90
   5  -2  -7   22.30    1.80
  -5  -2   7   20.60    1.80
  -5  -2   7   21.50    1.80
  -5  -2   7   18.60    1.90
  -5  -2   7   23.40    2.10
  -5  -2   7   18.50    2.00
  -5   2   7   19.80    1.70
  -5   2   7   22.00    1.70
  -5   2   7   21.90    1.90
   5   2  -7   15.90    1.80
  -5   2   7   22.70    1.70
  -5   2   7   20.10    1.90
  -5   2   7   20.20    2.10
  -5   2   7   22.40    2.00
  -4  -2   7  176.48   13.80
  -4  -2   7  197.38   13.80
   4  -2  -7  198.88   13.70
  -4  -2   7  198.88   13.70
   4  -2  -7  176.78   13.70
  -4  -2   7  178.88   13.80
   4  -2  -7  199.28   13.70
   4  -2  -7  181.38   13.70
  -4  -2   7  205.78   13.90
  -4  -2   7  213.18   13.70
  -4  -2   7  205.28   13.80
  -4  -2   7  185.18   13.90
  -4  -2   7  197.88   13.90
  -4  -2   7  169.98   13.80
  -4   2   7  193.58   13.70
  -4   2   7  199.78   13.80
  -4   2   7  191.78   13.80
  -4   2   7  204.98   13.80
  -4   2   7  200.58   13.70
  -4   2   7  214.18   13.80
  -4   2   7  198.58   13.70
   4   2  -7  179.88   13.70
  -4   2   7  194.58   13.80
  -3  -2   7 1343.67  100.79
  -3  -2   7 1258.27  100.79
   3  -2  -7 1451.35  100.79
  -3  -2   7 1481.65  100.79
   3  -2  -7 1399.06  100.69
  -3  -2   7 1543.25  100.89
  -3  -2   7 1535.55  100.79
   3  -2  -7 1323.77  100.69
   3  -2  -7 1305.77  100.79
  -3  -2   7 1448.56  100.79
   3  -2  -7 1341.77  100.79
  -3  -2   7 1337.07  100.79
  -3  -2   7 1545.45  100.79
  -3  -2   7 1460.85  100.79
   3  -2  -7 1427.36  100.79
   3  -2  -7 1429.46  100.69
  -3  -2   7 1273.17  100.79
  -3   2   7 1577.74  100.79
  -3   2   7 1500.15  100.79
  -3   2   7 1567.24  100.79
  -3   2   7 1511.15  100.79
   3   2  -7 1376.06  100.79
  -3   2   7 1410.06  100.69
  -3   2   7 1578.84  100.89
  -3   2   7 1515.95  100.79
   2  -2  -7 1196.68   85.59
  -2  -2   7 1157.78   85.59
   2  -2  -7 1172.88   85.59
  -2  -2   7 1061.89   85.59
   2  -2  -7 1288.07   85.59
  -2  -2   7 1258.17   85.59
  -2  -2   7 1264.47   85.69
  -2  -2   7 1149.98   85.69
  -2  -2   7 1142.69   85.59
   2  -2  -7 1125.09   85.59
   2  -2  -7 1189.78   85.59
   2  -2  -7 1276.17   85.59
  -2  -2   7 1395.96   85.59
  -2  -2   7 1262.37   85.59
   2  -2  -7 1196.78   85.59
   2  -2  -7 1170.18   85.59
  -2  -2   7 1088.59   85.59
  -2   2   7 1246.08   85.59
  -2   2   7 1376.26   85.69
   2   2  -7 1199.68   85.59
  -2   2   7 1305.67   85.69
  -2   2   7 1210.48   85.59
  -2   2   7 1350.86   85.59
   1  -2  -7  919.01   58.89
  -1  -2   7  846.62   58.89
   1  -2  -7  869.31   58.79
  -1  -2   7  870.11   58.99
   1  -2  -7  860.11   58.79
   1  -2  -7  923.11   58.79
  -1  -2   7  717.93   58.89
  -1  -2   7  814.52   58.99
  -1  -2   7  806.42   58.79
   1  -2  -7  892.91   58.89
  -1  -2   7  738.53   58.89
   1  -2  -7  803.82   58.89
   1  -2  -7  800.12   58.79
   1  -2  -7  880.71   58.89
  -1   2   7  858.61   58.89
  -1   2   7  826.12   58.79
  -1   2   7  887.81   58.89
   1   2  -7  765.72   58.79
  -1   2   7  861.11   58.89
   0  -2  -7 1122.79   81.09
   0  -2  -7 1266.77   80.99
   0  -2   7 1105.99   81.09
   0  -2  -7 1191.48   81.09
   0  -2   7 1076.59   81.09
   0  -2  -7 1225.28   81.09
   0  -2  -7 1176.68   80.99
   0  -2  -7 1092.99   80.99
   0  -2   7 1031.30   81.09
   0  -2  -7 1186.08   81.09
   0  -2   7 1156.58   81.09
   0  -2  -7 1164.28   81.09
   0   2  -7 1101.49   81.09
   0   2   7 1175.98   81.09
   0   2   7 1320.17   81.09
   0   2   7 1306.57   81.09
   0   2  -7 1023.70   80.99
   0   2   7 1087.19   81.09
  -1  -2  -7 1173.28   81.09
  -1  -2  -7 1049.99   81.09
   1  -2   7 1144.49   81.19
   1  -2   7 1067.99   81.09
  -1  -2  -7 1258.87   81.09
   1  -2   7  975.60   81.09
  -1  -2  -7 1244.68   80.99
  -1  -2  -7 1230.58   81.09
  -1  -2  -7 1224.38   81.09
  -1  -2  -7 1187.18   80.99
   1  -2   7 1175.38   81.09
   1   2   7 1126.09   81.09
  -1   2  -7 1105.49   81.09
  -1   2  -7 1154.98   81.09
   1   2   7 1223.68   81.09
  -2  -2  -7 1122.09   69.89
   2  -2   7  962.60   69.79
   2  -2   7  976.50   69.89
  -2  -2  -7 1091.99   69.89
  -2  -2  -7  995.00   69.89
  -2  -2  -7  945.01   69.79
  -2  -2  -7 1043.90   69.79
  -2  -2  -7  910.51   69.79
  -2  -2  -7 1066.29   69.89
  -2  -2  -7 1062.79   69.79
   2  -2   7  953.60   69.89
   2  -2   7  840.12   69.79
   2   2   7 1029.30   69.79
  -2   2  -7  981.30   69.79
  -2   2  -7  949.40   69.79
   3  -2   7  319.77   26.60
  -3  -2  -7  357.76   26.70
  -3  -2  -7  388.06   26.50
  -3  -2  -7  410.16   26.50
  -3  -2  -7  397.56   26.70
  -3  -2  -7  379.66   26.60
  -3  -2  -7  391.66   26.60
  -3  -2  -7  374.36   26.70
   3  -2   7  387.96   26.70
  -3  -2  -7  387.16   26.60
   3  -2   7  406.56   26.60
  -3  -2  -7  407.86   26.60
   3  -2   7  374.06   26.70
  -3  -2  -7  380.56   26.70
  -3  -2  -7  331.57   26.60
  -3  -2  -7  361.16   26.50
   3   2   7  376.76   26.60
  -3   2  -7  383.76   26.60
  -3   2  -7  356.66   26.60
  -4  -2  -7   25.20    2.50
  -4  -2  -7   30.40    2.70
  -4  -2  -7   30.40    2.80
  -4  -2  -7   29.80    2.70
  -4  -2  -7   34.90    2.50
   4  -2   7   26.60    2.70
  -4  -2  -7   28.30    2.50
  -4  -2  -7   30.00    2.30
  -4  -2  -7   34.60    2.50
  -4  -2  -7   31.90    2.30
   4  -2   7   31.90    2.60
  -4  -2  -7   33.40    2.50
  -4  -2  -7   30.90    2.60
  -4   2  -7   31.00    2.50
  -4   2  -7   30.40    2.50
  -4   2  -7   31.50    2.40
   4   2   7   28.20    2.60
  -4   2  -7   26.80    2.60
  -5  -2  -7    0.90    0.60
  -5  -2  -7    0.70    0.70
  -5  -2  -7    0.30    0.70
  -5  -2  -7    0.00    0.70
  -5  -2  -7    0.60    0.70
  -5  -2  -7    0.80    1.10
  -5  -2  -7    0.90    0.80
  -5  -2  -7   -0.40    1.00
  -5  -2  -7    1.90    0.80
   5  -2   7   -0.70    1.00
   5   2   7    0.70    1.20
  -5   2  -7    1.50    0.90
  -5   2  -7    2.10    0.80
  -5   2  -7    0.70    0.80
  -5   2  -7    2.10    1.00
  -6  -2  -7   52.79    4.00
  -6  -2  -7   52.59    4.10
  -6  -2  -7   50.39    3.90
  -6  -2  -7   49.99    4.10
  -6  -2  -7   50.69    4.10
  -6  -2  -7   49.30    3.90
  -6  -2  -7   54.99    3.80
   6  -2   7   58.69    4.10
  -6  -2  -7   57.09    4.10
  -6  -2  -7   49.99    4.00
  -6  -2  -7   53.49    4.20
  -6   2  -7   54.49    4.00
  -6   2  -7   51.89    3.90
  -6   2  -7   50.39    4.50
  -6   2  -7   44.30    4.00
  -6   2  -7   53.79    4.00
   7  -2   7   85.69    6.10
  -7  -2  -7   87.99    6.10
  -7  -2  -7   90.79    6.10
  -7  -2  -7   78.29    5.80
  -7  -2  -7   78.09    6.10
  -7  -2  -7   81.69    5.90
  -7  -2  -7   81.79    6.10
  -7  -2  -7   79.89    5.90
  -7  -2  -7   78.79    6.00
  -7  -2  -7   76.59    5.90
  -7  -2  -7   87.59    6.10
  -7   2  -7   80.29    6.00
  -7   2  -7   75.49    6.00
  -7   2  -7   77.59    5.90
  -7   2  -7   79.99    5.90
  -7   2  -7   84.89    6.40
  -7   2  -7   71.39    6.00
  -8  -2  -7  100.89    7.60
  -8  -2  -7  107.79    7.90
  -8  -2  -7   96.59    7.80
  -8  -2  -7  101.09    7.60
  -8  -2  -7  119.69    7.80
  -8  -2  -7  113.39    7.80
  -8  -2  -7  114.59    7.80
  -8  -2  -7  103.19    7.60
  -8  -2  -7  110.49    7.70
   8  -2   7  111.89    7.80
  -8  -2  -7   98.49    7.70
  -8   2  -7  110.29    7.70
  -8   2  -7  103.29    7.70
  -8   2  -7  102.49    7.70
  -8   2  -7   92.79    7.70
  -8   2  -7  109.49    8.10
  -9  -2  -7  240.08   17.90
  -9  -2  -7  265.77   17.90
  -9  -2  -7  238.08   17.90
  -9  -2  -7  254.47   17.90
  -9  -2  -7  257.47   18.00
   9  -2   7  250.77   18.00
  -9  -2  -7  292.77   18.00
  -9  -2  -7  287.37   18.10
  -9  -2  -7  272.47   18.00
  -9   2  -7  273.67   18.00
  -9   2  -7  213.08   17.90
  -9   2  -7  255.97   18.20
  -9   2  -7  230.38   17.90
  -9   2  -7  243.98   17.90
  -9   2  -7  223.18   18.00
 -10  -2  -7  168.78   11.70
 -10  -2  -7  168.08   11.70
  10  -2   7  157.18   11.80
 -10  -2  -7  156.28   12.10
 -10   2  -7  186.58   11.80
 -10   2  -7  142.09   11.70
 -10   2  -7  147.59   11.70
 -10   2  -7  149.39   11.90
  10   2   7  184.38   11.80
 -10   2  -7  183.98   11.90
 -13  -3   7    2.30    0.90
 -13  -3   7    0.80    1.50
 -13  -3   7    1.90    1.20
 -13   3   7   -0.90    0.70
 -12  -3   7    1.80    1.50
 -12  -3   7    3.90    1.50
 -12  -3   7    3.30    1.10
 -12  -3   7    5.10    1.30
 -11  -3   7    0.80    1.50
 -11  -3   7    2.90    1.20
 -11  -3   7    1.90    1.20
  11  -3  -7   -0.70    0.80
 -11  -3   7    1.20    1.30
 -11   3   7   -1.00    0.90
 -11   3   7    2.50    1.60
 -11   3   7   -1.00    0.90
 -11   3   7   -0.70    0.60
 -10  -3   7    3.70    1.20
 -10  -3   7    0.60    1.40
  10  -3  -7    3.10    0.80
 -10  -3   7    4.30    0.90
 -10  -3   7    1.70    1.30
 -10  -3   7    2.40    1.20
 -10  -3   7    4.60    1.30
 -10  -3   7    3.10    1.70
 -10   3   7    1.70    1.00
 -10   3   7    2.60    1.50
 -10   3   7    1.40    0.90
 -10   3   7    2.00    0.70
 -10   3   7    3.10    0.70
  -9  -3   7   28.00    2.30
  -9  -3   7   26.50    2.50
   9  -3  -7   31.00    2.30
  -9  -3   7   20.80    2.80
  -9  -3   7   25.60    2.60
  -9  -3   7   22.80    2.70
  -9  -3   7   28.70    3.30
  -9  -3   7   26.40    2.60
  -9   3   7   29.80    2.50
  -9   3   7   24.90    2.50
  -9   3   7   26.70    2.20
   8  -3  -7   30.50    2.30
  -8  -3   7   26.90    2.80
  -8  -3   7   29.00    2.40
  -8  -3   7   29.90    2.80
  -8  -3   7   26.80    2.50
  -8  -3   7   27.40    2.50
  -8   3   7   29.40    2.20
  -8   3   7   22.10    2.40
  -8   3   7   24.20    2.50
   8   3  -7   23.30    2.60
  -8   3   7   28.30    2.20
  -7  -3   7   82.59    6.00
  -7  -3   7   87.19    5.80
  -7  -3   7   65.89    5.90
  -7  -3   7   74.79    5.90
  -7  -3   7   78.29    6.10
  -7  -3   7   67.79    5.90
   7  -3  -7   83.39    5.80
  -7  -3   7   80.39    5.90
  -7   3   7   81.69    5.70
  -7   3   7   76.19    5.90
   7   3  -7   74.39    5.80
  -7   3   7   86.89    5.70
  -7   3   7   81.99    5.90
   6  -3  -7  197.58   13.00
  -6  -3   7  161.88   13.30
  -6  -3   7  191.58   13.10
  -6  -3   7  174.38   13.20
  -6  -3   7  177.08   13.20
  -6  -3   7  188.98   13.20
  -6  -3   7  185.18   13.20
  -6  -3   7  154.08   13.10
  -6  -3   7  189.28   13.10
  -6   3   7  190.28   13.20
  -6   3   7  198.28   13.00
  -6   3   7  188.38   13.00
   6   3  -7  186.08   13.00
  -5  -3   7  176.08   15.00
  -5  -3   7  205.48   15.00
  -5  -3   7  232.88   15.00
  -5  -3   7  213.18   15.00
  -5  -3   7  214.98   15.10
  -5  -3   7  220.98   14.90
   5  -3  -7  209.78   15.00
  -5  -3   7  204.78   15.10
  -5  -3   7  215.58   15.10
  -5  -3   7  211.18   15.10
   5  -3  -7  207.08   14.90
  -5  -3   7  210.68   15.10
   5   3  -7  215.08   14.90
  -5   3   7  206.08   14.90
  -5   3   7  218.48   14.90
  -4  -3   7  119.59    8.90
  -4  -3   7  115.79    9.20
  -4  -3   7  105.29    9.00
  -4  -3   7  120.69    9.00
   4  -3  -7  122.59    8.80
  -4  -3   7  133.19    9.00
   4  -3  -7  132.39    9.10
   4  -3  -7  129.09    8.80
  -4  -3   7  112.49    9.00
  -4  -3   7  111.19    9.00
  -4  -3   7  128.49    8.90
  -4  -3   7  138.19    8.80
  -4  -3   7  123.19    9.00
  -4   3   7  133.69    9.00
  -4   3   7  114.59    8.80
  -4   3   7  138.89    8.80
   4   3  -7  118.49    8.80
   3  -3  -7   82.59    5.80
   3  -3  -7   81.79    5.80
   3  -3  -7   85.39    6.10
  -3  -3   7   92.69    6.10
   3  -3  -7   69.99    6.00
  -3  -3   7   81.59    6.00
  -3  -3   7   69.59    6.20
  -3  -3   7   76.79    6.00
  -3  -3   7   77.29    6.00
   3  -3  -7   77.89    6.00
  -3  -3   7   81.39    5.90
  -3  -3   7   77.59    6.10
  -3  -3   7   85.89    5.90
   3   3  -7   78.79    5.80
  -3   3   7   81.49    5.90
  -3   3   7   81.39    6.00
  -2  -3   7  108.19    9.00
  -2  -3   7  121.19    8.90
   2  -3  -7  135.49    8.80
   2  -3  -7  125.29    8.70
  -2  -3   7  109.69    8.90
   2  -3  -7  124.59    8.70
  -2  -3   7  107.59    8.90
   2  -3  -7  115.09    8.80
   2  -3  -7  132.39    8.90
  -2  -3   7  126.69    8.80
  -2  -3   7  141.59    8.80
   2  -3  -7  117.59    8.80
  -2   3   7  126.29    8.90
   2   3  -7  114.19    8.70
  -1  -3   7   10.30    1.40
  -1  -3   7    8.90    1.40
  -1  -3   7    9.20    1.30
   1  -3  -7    8.80    1.00
   1  -3  -7    7.30    1.50
  -1  -3   7    7.10    1.80
   1  -3  -7    6.30    1.40
   1  -3  -7    8.50    1.10
   1  -3  -7    8.60    1.50
  -1   3   7    8.50    1.40
   1   3  -7    8.30    1.20
   0  -3  -7   29.60    2.30
   0  -3  -7   27.40    2.30
   0  -3  -7   29.30    2.40
   0  -3   7   33.70    2.60
   0  -3  -7   22.50    3.00
   0  -3  -7   34.00    2.70
   0  -3  -7   28.40    2.50
   0  -3   7   27.20    2.50
   0  -3  -7   29.80    2.30
   0  -3   7   29.30    2.50
   0   3  -7   27.10    2.40
   0   3   7   30.00    2.60
   0   3   7   30.90    2.70
   1  -3   7   25.00    2.50
  -1  -3  -7   29.30    2.20
   1  -3   7   25.40    2.50
   1  -3   7   21.80    2.60
  -1  -3  -7   30.30    2.30
   1  -3   7   28.60    2.50
  -1  -3  -7   27.90    2.30
  -1  -3  -7   31.20    2.60
  -1  -3  -7   29.60    2.20
   1  -3   7   24.10    3.20
   1   3   7   27.30    2.50
  -1   3  -7   27.20    2.30
  -2  -3  -7   50.49    4.30
   2  -3   7   47.10    4.40
  -2  -3  -7   58.89    4.30
   2  -3   7   51.69    4.40
  -2  -3  -7   60.19    4.10
  -2  -3  -7   59.19    4.30
  -2  -3  -7   59.29    4.10
  -2  -3  -7   58.49    4.50
   2  -3   7   59.39    4.40
   2  -3   7   57.19    4.80
  -2  -3  -7   62.29    4.40
   2   3   7   56.69    4.40
  -2   3  -7   52.19    4.40
  -3  -3  -7   70.39    5.00
  -3  -3  -7   63.59    4.80
  -3  -3  -7   69.49    4.80
  -3  -3  -7   70.29    5.10
  -3  -3  -7   61.69    4.90
   3  -3   7   57.49    4.90
  -3  -3  -7   73.49    4.90
  -3  -3  -7   65.39    4.70
   3  -3   7   62.39    5.00
  -3  -3  -7   69.19    4.90
  -3  -3  -7   62.99    4.70
  -3   3  -7   65.09    4.80
  -3   3  -7   58.49    4.90
   3   3   7   63.09    5.00
   4  -3   7   22.60    2.40
  -4  -3  -7   26.90    3.20
   4  -3   7   21.30    2.60
  -4  -3  -7   26.70    2.30
  -4  -3  -7   26.80    2.10
  -4  -3  -7   25.20    2.00
  -4  -3  -7   25.70    2.10
  -4  -3  -7   24.60    2.60
   4   3   7   27.30    2.40
  -4   3  -7   21.80    2.40
  -4   3  -7   25.40    2.20
  -5  -3  -7   85.99    5.90
  -5  -3  -7   70.59    5.90
  -5  -3  -7   71.59    5.90
  -5  -3  -7   85.09    5.80
  -5  -3  -7   76.49    5.60
  -5  -3  -7   79.39    5.90
   5  -3   7   75.89    5.90
  -5  -3  -7   85.39    5.90
  -5  -3  -7   78.99    6.00
  -5  -3  -7   80.39    5.70
  -5  -3  -7   79.69    5.70
  -5   3  -7   73.39    5.70
  -5   3  -7   69.89    6.20
  -5   3  -7   77.09    5.80
  -5   3  -7   84.99    5.80
   5   3   7   79.59    5.90
  -6  -3  -7   62.99    4.80
  -6  -3  -7   64.09    4.60
  -6  -3  -7   63.39    4.80
  -6  -3  -7   63.49    4.70
  -6  -3  -7   68.59    4.80
  -6  -3  -7   60.09    4.50
  -6  -3  -7   62.49    4.80
   6  -3   7   62.99    4.80
  -6  -3  -7   53.69    4.70
  -6  -3  -7   64.69    4.70
  -6   3  -7   59.39    4.60
  -6   3  -7   62.69    4.60
  -6   3  -7   63.29    4.80
   6   3   7   66.89    4.80
  -6   3  -7   52.99    5.10
  -7  -3  -7   33.40    2.90
   7  -3   7   30.70    3.00
  -7  -3  -7   36.00    2.80
  -7  -3  -7   37.80    2.90
  -7  -3  -7   34.50    2.60
  -7  -3  -7   32.90    2.70
  -7  -3  -7   34.70    2.80
  -7  -3  -7   34.10    3.00
  -7  -3  -7   38.00    2.70
  -7   3  -7   32.70    2.90
  -7   3  -7   31.90    2.80
   7   3   7   37.70    3.30
  -7   3  -7   27.40    3.00
  -7   3  -7   33.60    2.70
  -7   3  -7   26.70    3.30
  -8  -3  -7   23.00    1.90
  -8  -3  -7   22.00    2.20
  -8  -3  -7   22.60    2.10
  -8  -3  -7   26.40    2.10
  -8  -3  -7   26.90    2.30
   8  -3   7   17.90    2.20
  -8  -3  -7   22.80    2.40
  -8   3  -7   19.60    2.50
  -8   3  -7   19.70    2.10
  -8   3  -7   20.40    2.10
   8   3   7   27.30    2.40
  -8   3  -7   18.80    2.20
   9  -3   7    1.20    1.20
  -9  -3  -7    1.80    0.40
  -9  -3  -7    3.80    1.30
  -9  -3  -7    2.80    0.70
  -9   3  -7    1.30    0.90
  11  -4  -7    0.50    1.10
 -11  -4   7    3.70    1.30
 -11   4   7   -1.50    1.70
 -11   4   7    2.20    0.60
 -10  -4   7    2.10    1.40
 -10  -4   7    1.90    2.00
  10  -4  -7    0.40    0.70
 -10  -4   7    0.60    1.30
 -10  -4   7    0.30    1.10
 -10   4   7   -0.10    0.60
 -10   4   7   -0.20    1.70
 -10   4   7    0.80    0.90
 -10   4   7   -0.10    0.90
  -9  -4   7   14.30    2.00
  -9  -4   7   12.90    1.80
   9  -4  -7    9.50    1.90
  -9  -4   7   15.70    2.40
   9  -4  -7    9.90    2.80
  -9  -4   7   16.20    2.30
  -9   4   7   13.60    2.10
  -9   4   7   10.20    1.60
  -9   4   7   12.10    1.40
  -8  -4   7   15.30    1.90
   8  -4  -7   11.80    2.60
   8  -4  -7   13.60    1.60
  -8  -4   7   19.20    2.00
  -8  -4   7   20.10    2.50
  -8  -4   7   13.70    2.30
  -8   4   7   13.40    1.90
  -8   4   7   17.20    1.60
  -8   4   7   15.30    1.90
   7  -4  -7    2.20    1.60
  -7  -4   7    0.40    1.40
  -7  -4   7    0.00    1.10
  -7  -4   7   -0.40    1.50
  -7  -4   7    0.80    1.00
  -7  -4   7    2.90    1.20
   7  -4  -7   -0.40    0.60
  -7  -4   7    1.90    1.00
  -7  -4   7    1.50    1.40
  -7  -4   7   -0.30    1.20
  -7   4   7    0.10    0.90
  -7   4   7    1.00    1.00
  -7   4   7    0.80    0.80
  -6  -4   7   -0.40    1.40
  -6  -4   7    1.10    1.20
  -6  -4   7    1.70    1.00
   6  -4  -7    0.30    0.70
  -6  -4   7    0.60    1.50
  -6  -4   7    1.10    1.00
  -6  -4   7    0.70    1.50
  -6  -4   7    1.50    1.10
  -6  -4   7    2.00    1.30
   6  -4  -7    1.00    1.60
  -6   4   7    1.40    1.00
   6   4  -7   -0.90    1.00
  -6   4   7    0.70    0.90
  -6   4   7    1.00    0.80
  -5  -4   7    0.60    1.60
  -5  -4   7   -0.80    1.10
  -5  -4   7    0.60    1.40
  -5  -4   7   -1.30    1.20
  -5  -4   7   -0.40    1.30
  -5  -4   7   -0.30    1.00
   5  -4  -7    0.50    0.60
  -5  -4   7   -0.40    1.40
  -5  -4   7    0.70    0.90
  -5   4   7    0.30    0.90
  -4  -4   7   13.20    1.90
  -4  -4   7    7.60    2.70
   4  -4  -7   13.00    2.10
  -4  -4   7   12.70    1.90
  -4  -4   7    9.90    1.90
   4  -4  -7   14.20    1.40
  -4  -4   7   13.60    1.70
  -4  -4   7   13.90    1.70
  -4   4   7   12.50    1.80
   3  -4  -7   72.49    5.80
   3  -4  -7   77.99    5.60
  -3  -4   7   64.99    5.60
   3  -4  -7   73.89    5.70
   3  -4  -7   71.19    5.60
   3  -4  -7   75.69    5.80
  -3  -4   7   87.19    5.70
   3  -4  -7   87.09    5.90
  -3  -4   7   80.59    5.80
  -3   4   7   79.39    5.80
   3   4  -7   70.89    5.60
  -2  -4   7   35.20    3.70
   2  -4  -7   35.10    2.80
   2  -4  -7   38.40    3.30
   2  -4  -7   36.60    3.10
  -2  -4   7   41.70    3.00
  -2  -4   7   32.00    3.50
   2  -4  -7   41.50    3.20
  -2  -4   7   35.70    3.10
   2  -4  -7   34.70    2.80
   2  -4  -7   32.90    3.20
  -2   4   7   35.30    3.20
   2   4  -7   36.30    2.90
   1  -4  -7   31.30    2.50
  -1  -4   7   32.30    2.50
   1  -4  -7   27.20    2.60
   1  -4  -7   27.10    2.30
   1  -4  -7   28.50    2.20
  -1  -4   7   28.50    2.50
   1  -4  -7   27.00    2.70
   1  -4  -7   24.60    2.20
  -1  -4   7   21.20    2.90
  -1   4   7   22.20    2.60
   1   4  -7   26.80    2.30
   0  -4   7   73.09    5.70
   0  -4   7   86.59    5.50
   0  -4  -7   76.79    5.50
   0  -4   7   78.19    5.60
   0  -4  -7   77.39    5.40
   0  -4  -7   78.79    5.70
   0  -4  -7   68.69    5.60
   0  -4   7   74.09    5.80
   0  -4  -7   62.99    5.40
   0  -4  -7   66.39    5.70
   0  -4   7   71.09    5.60
   0   4   7   73.39    5.60
   0   4  -7   74.29    5.40
   1  -4   7    6.60    1.40
   1  -4   7    7.20    1.60
  -1  -4  -7    2.70    1.20
  -1  -4  -7    5.40    1.40
  -1  -4  -7    7.30    1.40
   1  -4   7    3.60    1.20
  -1  -4  -7    4.40    1.10
  -1  -4  -7    5.70    1.00
  -1  -4  -7    3.50    1.00
  -1  -4  -7    6.60    1.40
   1   4   7    5.00    1.10
  -1   4  -7    7.60    1.20
  -2  -4  -7    1.40    0.80
   2  -4   7    1.60    1.20
   2  -4   7    0.70    0.90
  -2  -4  -7    1.70    1.20
   2  -4   7   -1.80    1.20
  -2  -4  -7   -0.60    1.00
  -2  -4  -7    0.60    0.80
  -2  -4  -7    1.00    0.90
   2   4   7    1.60    0.90
  -2   4  -7   -0.20    0.80
  -3  -4  -7    5.70    1.10
   3  -4   7    4.00    1.10
   3  -4   7    4.00    1.30
  -3  -4  -7    3.60    1.00
  -3  -4  -7    3.40    1.10
  -3  -4  -7    5.40    1.30
  -3  -4  -7    5.20    1.20
  -3  -4  -7    6.10    1.10
  -3  -4  -7    5.40    1.20
  -3   4  -7    4.90    0.90
   3   4   7    5.10    1.10
   4  -4   7    2.60    0.90
  -4  -4  -7    0.80    1.00
   4  -4   7    2.40    1.20
  -4  -4  -7    4.10    1.10
  -4  -4  -7    4.40    1.20
  -4  -4  -7    3.50    0.90
  -4  -4  -7    0.70    1.00
  -4  -4  -7    4.70    1.00
   4  -4   7    2.40    1.30
  -4   4  -7   -0.20    1.60
   4   4   7    2.20    1.70
  -4   4  -7    3.10    0.80
   5  -4   7    5.80    1.50
  -5  -4  -7    4.90    1.20
  -5  -4  -7    5.30    1.00
  -5  -4  -7    7.30    1.20
  -5  -4  -7    3.70    1.00
  -5  -4  -7    4.10    1.20
  -5   4  -7    3.50    0.90
   5   4   7    5.70    1.10
  -5   4  -7    3.10    1.00
  -6  -4  -7    0.90    1.00
   6  -4   7    0.70    0.90
   6  -4   7    0.90    1.60
  -6  -4  -7    0.30    0.80
  -6  -4  -7    1.80    1.10
  -6  -4  -7    0.60    1.00
  -6  -4  -7    1.20    0.60
  -6  -4  -7    1.60    0.80
  -6   4  -7    1.90    1.00
  -6   4  -7    1.00    0.90
  -6   4  -7   -0.10    1.30
   6   4   7    1.70    1.10
  -7  -4  -7   11.20    1.50
  -7  -4  -7   12.20    1.80
  -7  -4  -7   12.60    1.50
  -7  -4  -7   13.90    1.30
  -7  -5   7   28.70    2.60
  -7  -5   7   25.20    3.10
  -7   5   7   30.80    2.70
  -7   5   7   33.30    2.60
   6  -5  -7   61.19    4.10
  -6  -5   7   47.90    4.40
  -6   5   7   56.79    4.30
   6   5  -7   60.69    4.30
  -6   5   7   49.90    4.30
  -5  -5   7   62.69    4.70
  -5  -5   7   55.79    4.70
  -5  -5   7   60.69    4.60
   5  -5  -7   54.99    4.70
   5  -5  -7   68.59    5.10
   5  -5  -7   61.09    4.50
   5   5  -7   65.79    4.60
  -5   5   7   56.79    4.70
   4  -5  -7   16.60    2.10
   4  -5  -7   17.40    1.60
  -4  -5   7   17.10    1.90
  -4  -5   7   20.10    2.10
  -4  -5   7   16.90    1.90
   4  -5  -7   17.20    1.90
  -4  -5   7   14.50    2.30
  -4   5   7   14.10    2.00
  -4   5   7   15.30    2.00
   4   5  -7   19.10    1.80
   3  -5  -7   11.80    1.40
  -3  -5   7   11.80    1.60
  -3  -5   7   14.90    1.90
   3  -5  -7   13.20    1.50
  -3  -5   7   12.50    1.70
  -3  -5   7    8.80    2.00
   3  -5  -7   13.20    2.70
   3  -5  -7   15.10    2.20
   3   5  -7   11.30    1.60
  -2  -5   7   15.10    1.90
  -2  -5   7   16.80    1.80
   2  -5  -7   14.20    1.50
  -2  -5   7   13.60    1.70
  -2  -5   7    9.80    2.10
   2  -5  -7   11.40    1.50
   2  -5  -7   13.90    2.00
  -2  -5   7   13.60    1.60
  -2   5   7   10.50    1.80
   2   5  -7   14.20    1.50
  -1  -5   7    3.60    1.00
   1  -5  -7    5.10    2.40
  -1  -5   7    4.80    1.30
  -1  -5   7    5.50    1.60
  -1  -5   7    3.40    0.90
   1  -5  -7    5.80    1.20
   1  -5  -7    5.30    1.10
  -1  -5   7    4.60    1.00
   1  -5  -7    8.00    1.60
   1   5  -7    5.00    0.90
   0  -5  -7    1.20    1.30
   0  -5   7   -0.10    0.80
   0  -5  -7    1.30    1.00
   0  -5  -7   -0.50    0.80
   0  -5   7    0.40    1.40
   0  -5   7    0.10    1.20
   0  -5   7   -0.20    0.90
   0  -5  -7    0.80    1.00
   0  -5  -7    0.70    1.60
   0  -5   7    0.80    0.80
   0   5   7    1.00    1.10
   0   5   7    0.20    0.90
   0   5  -7    1.00    0.80
   1  -5   7   14.20    2.20
  -1  -5  -7   19.00    2.10
  -1  -5  -7   17.80    1.70
  -1  -5  -7   13.30    1.70
  -1  -5  -7   19.70    1.70
  -1  -5  -7   14.00    2.10
   1  -5   7   17.90    1.90
  -1  -5  -7   17.80    2.00
   1  -5   7   13.70    1.80
   1  -5   7   17.70    1.80
  -1   5  -7   17.00    1.70
   1   5   7   13.40    2.00
   2  -5   7   14.20    1.70
   2  -5   7   11.20    1.60
   2  -5   7   14.90    1.90
  -2  -5  -7   17.00    1.50
  -2  -5  -7   15.80    1.50
  -2  -5  -7   13.20    1.90
   2  -5   7   13.80    2.20
  -2  -5  -7   12.70    1.60
  -2   5  -7   14.90    1.60
   2   5   7   13.20    1.90
   3  -5   7   27.70    2.80
   3  -5   7   30.60    2.80
  -3  -5  -7   30.80    2.80
   3  -5   7   38.20    3.20
  -3  -5  -7   37.70    2.70
  -3  -5  -7   33.10    2.90
   3  -5   7   33.00    3.20
  -3  -5  -7   33.80    2.70
  -3  -5  -7   33.80    2.70
  -3   5  -7   35.60    2.70
 -15   0   8  161.68   12.60
 -15   0   8  191.68   12.70
 -14   0   8  200.18   15.60
 -14   0   8  205.18   15.60
 -14   0   8  208.88   15.70
 -14   0   8  239.08   15.80
 -14   0   8  217.28   15.70
 -14   0   8  255.67   15.90
 -13   0   8  224.88   17.10
 -13   0   8  244.98   17.30
 -13   0   8  240.48   17.20
 -13   0   8  234.68   17.10
 -13   0   8  253.57   17.30
 -13   0   8  262.67   17.40
 -13   0   8  233.68   17.20
 -12   0   8  165.78   10.70
 -12   0   8  142.69   10.50
 -12   0   8  135.59   11.00
 -12   0   8  149.49   10.60
 -12   0   8  143.99   10.50
 -12   0   8  146.39   10.60
 -12   0   8  145.19   10.50
 -12   0   8  151.18   10.70
 -11   0   8  100.29    7.50
 -11   0   8  109.59    7.70
 -11   0   8  112.59    7.90
 -11   0   8  103.39    7.70
 -11   0   8  105.89    7.50
 -11   0   8  106.89    7.70
 -11   0   8  110.09    7.80
 -11   0   8   88.89    7.90
 -11   0   8  114.89    7.80
 -11   0   8   98.49    7.60
 -10   0   8    0.70    0.60
 -10   0   8   -0.40    0.90
 -10   0   8    0.80    0.80
 -10   0   8    0.70    1.10
 -10   0   8   -0.60    0.90
 -10   0   8    0.40    0.90
 -10   0   8    0.20    0.70
 -10   0   8   -0.50    0.50
 -10   0   8    0.20    0.90
 -10   0   8   -0.50    0.40
  10   0  -8   -0.70    0.80
 -10   0   8   -1.20    1.30
 -10   0   8    0.80    0.60
  -9   0   8    0.10    0.80
  -9   0   8    0.90    0.70
  -9   0   8    0.30    0.70
  -9   0   8    0.40    0.60
  -9   0   8   -0.30    0.80
  -9   0   8   -0.30    0.60
  -9   0   8   -0.20    0.40
  -9   0   8   -0.60    0.80
  -9   0   8    1.50    1.10
  -9   0   8    1.50    0.80
  -9   0   8    0.50    0.80
  -9   0   8    1.90    1.10
  -9   0   8   -0.10    0.50
   8   0  -8  226.98   15.60
  -8   0   8  230.28   15.80
  -8   0   8  227.58   15.70
  -8   0   8  217.28   15.70
  -8   0   8  230.88   15.90
  -8   0   8  211.88   15.70
  -8   0   8  220.18   15.60
  -8   0   8  223.38   15.80
   8   0  -8  225.58   15.60
  -8   0   8  211.48   15.60
  -8   0   8  231.68   15.80
  -8   0   8  212.78   15.60
  -8   0   8  211.48   15.70
  -8   0   8  213.68   15.70
  -8   0   8  222.68   15.60
  -7   0   8  775.82   55.39
  -7   0   8  787.72   55.39
  -7   0   8  828.72   55.49
  -7   0   8  737.63   55.49
  -7   0   8  783.62   55.49
  -7   0   8  844.72   55.49
  -7   0   8  748.73   55.39
   7   0  -8  768.42   55.29
  -7   0   8  763.92   55.39
  -7   0   8  799.52   55.39
  -7   0   8  760.62   55.39
  -7   0   8  777.52   55.39
  -7   0   8  811.72   55.39
  -7   0   8  776.12   55.39
   7   0  -8  872.81   55.29
  -6   0   8  513.55   36.70
   6   0  -8  511.25   36.50
  -6   0   8  501.85   36.60
  -6   0   8  512.85   36.60
  -6   0   8  480.95   36.60
  -6   0   8  527.45   36.60
  -6   0   8  556.34   36.60
  -6   0   8  553.34   36.60
  -6   0   8  513.05   36.60
   6   0  -8  585.34   36.50
  -6   0   8  504.95   36.60
  -6   0   8  518.25   36.70
  -6   0   8  507.75   36.60
  -6   0   8  504.15   36.60
  -5   0   8 2148.09  148.99
  -5   0   8 2129.69  148.79
   5   0  -8 2421.16  148.79
  -5   0   8 2149.98  148.79
  -5   0   8 2034.50  148.89
  -5   0   8 2210.08  148.79
  -5   0   8 1886.81  148.79
  -5   0   8 2049.79  148.79
  -5   0   8 2023.70  148.79
  -5   0   8 2178.28  148.79
  -5   0   8 2127.99  148.79
   5   0  -8 2124.19  148.79
  -4   0   8  929.31   62.69
  -4   0   8  837.32   62.69
  -4   0   8  970.80   62.69
  -4   0   8  858.91   62.69
  -4   0   8  937.61   62.69
  -4   0   8  925.11   62.59
   4   0  -8  862.41   62.59
  -4   0   8  880.11   62.79
  -4   0   8  838.72   62.69
  -3   0   8 3671.33  232.78
  -3   0   8 3236.68  232.68
  -3   0   8 3251.17  232.78
  -3   0   8 3166.78  232.78
  -3   0   8 3532.45  232.78
  -3   0   8 3216.08  232.88
   3   0  -8 3187.58  232.78
  -2   0   8 3991.30  309.57
  -2   0   8 4569.04  309.67
   2   0  -8 4619.04  309.67
  -2   0   8 4807.92  309.47
  -2   0   8 4305.47  309.67
  -2   0   8 4583.94  309.57
  -2   0   8 4383.06  309.57
   2   0  -8 4287.17  309.57
   2   0  -8 4245.68  309.57
  -1   0   8  202.18   14.60
  -1   0   8  210.28   14.70
   1   0  -8  231.88   14.60
   1   0  -8  209.78   14.60
   1   0  -8  202.38   14.60
  -1   0   8  183.38   14.60
  -1   0   8  203.78   14.60
   1   0  -8  201.98   14.60
  -1   0   8  195.88   14.60
   1   0  -8  232.28   14.60
   0   0   8  820.82   59.39
   0   0  -8  948.11   59.39
   0   0   8  834.82   59.39
   0   0  -8  788.12   59.29
   0   0  -8  874.21   59.39
   0   0   8  766.62   59.39
   0   0  -8  882.51   59.39
   0   0   8  782.92   59.39
   0   0  -8  843.32   59.39
   0   0  -8  922.51   59.29
   1   0   8  139.99   11.80
  -1   0  -8  160.48   11.70
  -1   0  -8  189.58   11.70
   1   0   8  174.38   11.70
  -1   0  -8  172.08   11.70
   1   0   8  150.38   11.80
  -1   0  -8  175.48   11.70
  -1   0  -8  176.48   11.70
   1   0   8  147.79   11.70
  -1   0  -8  165.58   11.70
  -2   0  -8   98.09    6.80
   2   0   8   83.39    7.00
  -2   0  -8  107.79    7.00
   2   0   8   91.29    6.80
  -2   0  -8  100.69    6.80
  -2   0  -8  102.39    6.80
  -2   0  -8   87.49    7.10
  -2   0  -8   97.79    6.70
   2   0   8   79.49    7.00
  -2   0  -8   96.69    6.80
  -3   0  -8   23.60    2.00
  -3   0  -8   22.30    1.90
  -3   0  -8   24.80    1.90
   3   0   8   22.20    2.50
  -3   0  -8   22.70    2.50
  -3   0  -8   20.10    1.80
  -3   0  -8   24.00    1.90
   3   0   8   23.50    2.00
  -3   0  -8   24.20    1.90
  -3   0  -8   19.80    2.50
  -4   0  -8  419.86   30.90
   4   0   8  475.85   30.90
  -4   0  -8  439.86   31.00
  -4   0  -8  430.76   30.90
  -4   0  -8  451.55   31.00
  -4   0  -8  448.16   30.90
  -4   0  -8  421.96   30.90
  -4   0  -8  450.15   30.90
  -4   0  -8  486.35   31.00
  -4   0  -8  441.46   30.80
  -4   0  -8  429.96   30.80
   4   0   8  398.56   31.00
  -4   0  -8  406.96   30.80
  -5   0  -8 1706.53  119.69
  -5   0  -8 1660.63  119.69
  -5   0  -8 1785.22  119.69
  -5   0  -8 1642.34  119.69
   5   0   8 1797.92  119.69
  -5   0  -8 1733.33  119.79
  -5   0  -8 1560.84  119.69
  -5   0  -8 1755.32  119.79
  -5   0  -8 1632.74  119.69
  -5   0  -8 1786.92  119.69
  -5   0  -8 1681.73  119.59
  -5   0  -8 1737.93  119.69
  -6   0  -8  232.68   16.50
  -6   0  -8  217.48   16.20
  -6   0  -8  218.88   16.20
   6   0   8  247.78   16.30
  -6   0  -8  216.08   16.20
  -6   0  -8  222.98   16.20
  -6   0  -8  224.28   16.20
  -6   0  -8  224.98   16.20
  -6   0  -8  222.58   16.30
  -6   0  -8  235.68   16.20
  -6   0  -8  243.98   16.50
  -6   0  -8  227.48   16.20
  -6   0  -8  234.38   16.40
  -6   0  -8  231.38   16.30
  -7   0  -8  149.79   11.70
  -7   0  -8  154.38   11.60
  -7   0  -8  154.48   11.60
  -7   0  -8  160.58   11.70
  -7   0  -8  166.68   11.60
  -7   0  -8  148.29   11.70
  -7   0  -8  161.78   11.60
  -7   0  -8  176.98   12.00
  -7   0  -8  159.48   11.60
  -7   0  -8  163.48   11.60
  -7   0  -8  182.38   12.10
   7   0   8  178.58   11.70
  -7   0  -8  168.58   11.80
  -7   0  -8  153.68   11.70
  -8   0  -8  559.64   39.00
   8   0   8  570.94   39.10
  -8   0  -8  572.24   39.00
  -8   0  -8  541.65   38.90
  -8   0  -8  505.25   39.00
  -8   0  -8  609.34   39.30
  -8   0  -8  509.65   39.00
  -8   0  -8  558.94   39.00
  -8   0  -8  512.95   39.00
  -8   0  -8  533.05   38.90
  -8   0  -8  575.24   39.20
  -8   0  -8  600.04   39.10
   9   0   8  147.19   10.80
  -9   0  -8  141.59   10.80
  -9   0  -8  161.08   10.80
  -9   0  -8  141.49   10.70
  -9   0  -8  166.88   10.80
  -9   0  -8  147.09   10.90
  -9   0  -8  153.28   11.20
  -9   0  -8  141.69   10.70
  10   0   8   64.79    5.50
 -10   0  -8   69.09    5.40
 -10   0  -8   68.49    5.40
 -10   0  -8   75.99    5.40
 -10   0  -8   67.29    5.50
 -10   0  -8   82.79    5.40
 -10   0  -8   84.89    5.50
 -15   1   8   -0.20    1.20
 -15   1   8    0.10    0.80
 -14  -1   8    1.20    1.30
 -14  -1   8    1.70    1.50
 -14  -1   8    1.10    0.80
 -14   1   8   -1.30    1.00
 -14   1   8   -0.20    0.70
 -13  -1   8   35.50    2.90
 -13  -1   8   32.70    3.00
 -13  -1   8   30.00    3.00
 -13  -1   8   30.90    3.60
 -13  -1   8   36.00    3.30
 -13  -1   8   39.90    3.00
 -13  -1   8   33.20    3.00
 -13   1   8   33.10    3.10
 -13   1   8   34.00    3.00
 -13   1   8   30.70    2.80
 -13   1   8   33.30    2.70
 -13   1   8   31.70    2.90
 -13   1   8   35.40    2.60
 -12  -1   8   46.70    4.40
 -12  -1   8   46.60    3.80
 -12  -1   8   51.89    4.20
 -12  -1   8   42.70    3.90
 -12  -1   8   51.09    4.00
 -12  -1   8   50.59    3.80
 -12  -1   8   49.90    3.90
 -12  -1   8   49.60    4.00
 -12  -1   8   47.30    3.80
 -12   1   8   49.80    4.00
 -12   1   8   54.69    4.10
 -12   1   8   51.29    4.10
 -12   1   8   51.09    3.70
 -12   1   8   49.70    3.80
 -12   1   8   47.90    3.60
 -12   1   8   44.00    3.80
 -11  -1   8   94.99    6.70
 -11  -1   8   88.49    6.70
 -11  -1   8   89.79    6.80
 -11  -1   8   88.99    7.00
 -11  -1   8   92.89    6.70
 -11  -1   8   98.29    6.70
 -11  -1   8   86.69    6.80
 -11  -1   8  100.69    7.00
 -11  -1   8   87.69    6.70
 -11  -1   8   83.59    6.60
  11  -1  -8   87.89    6.60
 -11  -1   8   97.29    6.80
 -11   1   8   93.99    6.80
 -11   1   8   87.99    6.60
 -11   1   8   87.89    6.90
 -11   1   8   94.49    6.60
 -11   1   8   86.79    6.70
 -11   1   8   93.19    6.60
 -11   1   8   88.69    6.70
 -10  -1   8  321.47   21.40
  10  -1  -8  319.07   21.30
 -10  -1   8  304.97   21.40
 -10  -1   8  293.57   21.30
 -10  -1   8  275.57   21.60
 -10  -1   8  300.97   21.50
 -10  -1   8  284.87   21.20
 -10  -1   8  321.17   21.30
 -10  -1   8  317.77   21.40
 -10  -1   8  291.17   21.40
 -10  -1   8  311.97   21.60
 -10  -1   8  256.17   21.20
 -10  -1   8  306.47   21.50
 -10   1   8  294.87   21.50
 -10   1   8  311.37   21.30
 -10   1   8  296.47   21.30
 -10   1   8  307.17   21.50
 -10   1   8  306.97   21.40
 -10   1   8  316.07   21.30
 -10   1   8  292.27   21.30
  -9  -1   8  381.96   27.90
  -9  -1   8  365.16   27.70
  -9  -1   8  397.36   27.80
  -9  -1   8  402.46   27.70
  -9  -1   8  403.56   27.60
  -9  -1   8  392.16   27.80
   9  -1  -8  356.76   27.70
  -9  -1   8  413.66   27.70
  -9  -1   8  402.16   27.80
   9  -1  -8  417.96   27.70
  -9  -1   8  398.86   27.70
  -9  -1   8  362.16   27.60
  -9  -1   8  395.06   27.80
  -9  -1   8  414.46   27.90
  -9   1   8  391.26   27.60
  -9   1   8  337.87   27.60
  -9   1   8  411.96   27.70
  -9   1   8  394.06   27.70
  -9   1   8  412.26   27.80
  -9   1   8  388.36   27.70
  -9   1   8  373.16   27.80
  -9   1   8  398.26   27.80
  -9   1   8  422.36   27.70
  -8  -1   8  502.25   39.90
  -8  -1   8  577.64   39.90
   8  -1  -8  533.45   39.90
  -8  -1   8  546.25   40.00
  -8  -1   8  578.24   40.10
  -8  -1   8  584.84   40.00
  -8  -1   8  560.24   39.90
  -8  -1   8  569.74   40.10
  -8  -1   8  592.84   40.00
  -8  -1   8  558.44   40.00
  -8  -1   8  580.84   40.00
  -8  -1   8  573.64   40.00
  -8  -1   8  541.45   39.90
  -8  -1   8  627.24   40.00
  -8  -1   8  528.85   40.10
  -8   1   8  559.14   40.00
  -8   1   8  563.24   39.90
  -8   1   8  561.34   40.20
  -8   1   8  587.84   39.90
  -8   1   8  629.34   40.00
  -8   1   8  548.15   40.10
  -8   1   8  618.24   39.90
  -8   1   8  543.05   40.00
  -7  -1   8  137.09    9.80
  -7  -1   8  124.39    9.60
  -7  -1   8  139.79    9.60
  -7  -1   8  142.39    9.80
  -7  -1   8  120.49    9.70
  -7  -1   8  122.39    9.60
  -7  -1   8  121.59    9.60
  -7  -1   8  137.59    9.60
  -7  -1   8  138.29    9.80
  -7  -1   8  134.39    9.60
   7  -1  -8  122.79    9.50
   7  -1  -8  142.99    9.60
  -7  -1   8  132.39    9.70
  -7  -1   8  142.39    9.60
  -7  -1   8  143.09    9.60
  -7   1   8  121.19    9.80
  -7   1   8  138.19    9.70
  -7   1   8  152.28    9.60
  -7   1   8  137.29    9.60
  -7   1   8  152.68    9.60
  -7   1   8  117.99    9.60
  -7   1   8  144.99    9.60
  -7   1   8  124.99    9.70
  -7   1   8  138.89    9.60
  -7   1   8  131.29    9.70
  -7   1   8  135.99    9.60
  -6  -1   8  731.83   53.29
  -6  -1   8  765.22   53.29
  -6  -1   8  777.32   53.29
   6  -1  -8  768.32   53.29
  -6  -1   8  689.73   53.29
  -6  -1   8  760.32   53.29
  -6  -1   8  687.93   53.29
  -6  -1   8  790.02   53.49
   6  -1  -8  808.62   53.29
  -6  -1   8  791.02   53.29
  -6  -1   8  735.23   53.39
  -6  -1   8  843.62   53.29
  -6  -1   8  793.32   53.39
  -6  -1   8  754.52   53.29
  -6  -1   8  714.03   53.29
  -6  -1   8  778.52   53.49
  -6  -1   8  791.42   53.29
  -6  -1   8  800.52   53.29
  -6   1   8  718.13   53.29
  -6   1   8  788.52   53.29
  -6   1   8  691.83   53.29
  -6   1   8  748.23   53.39
  -6   1   8  801.42   53.29
  -6   1   8  740.93   53.29
  -6   1   8  739.63   53.29
  -6   1   8  789.02   53.29
  -6   1   8  765.02   53.29
  -6   1   8  758.92   53.39
  -6   1   8  753.52   53.39
  -6   1   8  707.33   53.39
  -5  -1   8  147.99   11.30
  -5  -1   8  171.08   11.30
  -5  -1   8  151.58   11.30
  -5  -1   8  179.58   11.30
  -5  -1   8  145.19   11.30
  -5  -1   8  178.18   11.30
   5  -1  -8  147.89   11.20
  -5  -1   8  161.98   11.30
  -5  -1   8  171.48   11.40
  -5  -1   8  153.68   11.50
  -5  -1   8  164.08   11.30
  -5  -1   8  151.58   11.30
   5  -1  -8  159.68   11.30
  -5  -1   8  161.18   11.50
  -5   1   8  165.68   11.30
  -5   1   8  179.08   11.20
  -5   1   8  164.78   11.30
  -5   1   8  158.28   11.40
  -5   1   8  158.58   11.40
  -5   1   8  138.79   11.60
  -5   1   8  157.68   11.30
  -5   1   8  144.09   11.30
  -5   1   8  161.18   11.50
  -5   1   8  152.28   11.30
  -5   1   8  148.29   11.30
  -4  -1   8  418.76   30.60
  -4  -1   8  418.76   30.40
   4  -1  -8  437.56   30.40
  -4  -1   8  491.65   30.40
   4  -1  -8  395.16   30.30
  -4  -1   8  417.26   30.40
   4  -1  -8  425.56   30.40
  -4  -1   8  437.16   30.40
  -4  -1   8  399.76   30.40
  -4  -1   8  431.96   30.40
  -4  -1   8  410.46   30.50
  -4  -1   8  451.25   30.40
  -4  -1   8  428.16   30.40
  -4  -1   8  469.65   30.40
  -4   1   8  408.36   30.50
  -4   1   8  427.36   30.40
  -4   1   8  422.06   30.40
  -4   1   8  454.55   30.40
  -4   1   8  426.96   30.40
  -4   1   8  474.45   30.40
  -4   1   8  443.26   30.40
  -4   1   8  458.45   30.40
  -4   1   8  408.96   30.50
  -4   1   8  424.16   30.40
  -3  -1   8    3.10    0.80
  -3  -1   8    3.90    0.90
  -3  -1   8    6.40    0.90
  -3  -1   8    4.60    1.00
  -3  -1   8    4.60    0.80
  -3  -1   8    4.30    0.90
   3  -1  -8    4.80    0.70
   3  -1  -8    6.00    0.80
  -3  -1   8    3.20    0.90
  -3  -1   8    4.90    0.80
  -3   1   8    3.90    0.70
   3   1  -8    3.00    0.70
  -3   1   8    3.60    0.70
  -3   1   8    3.40    0.70
  -3   1   8    4.80    1.10
  -3   1   8    5.40    0.80
  -3   1   8    6.10    1.10
  -3   1   8    2.70    1.10
   2  -1  -8  247.98   16.30
   2  -1  -8  234.98   16.30
  -2  -1   8  253.27   16.40
  -2  -1   8  213.78   16.30
   2  -1  -8  233.58   16.30
  -2  -1   8  206.98   16.40
  -2  -1   8  227.08   16.30
  -2  -1   8  220.08   16.40
  -2   1   8  259.47   16.40
  -2   1   8  234.98   16.40
   2   1  -8  218.78   16.30
  -2   1   8  237.78   16.30
   2   1  -8  223.08   16.30
  -2   1   8  208.28   16.30
  -2   1   8  246.78   16.60
  -2   1   8  241.58   16.40
  -1  -1   8  326.07   24.80
   1  -1  -8  339.07   24.80
  -1  -1   8  354.16   24.80
  -1  -1   8  369.96   24.80
  -1  -1   8  326.07   24.80
   1  -1  -8  359.76   24.70
  -1  -1   8  360.86   24.80
   1  -1  -8  387.96   24.70
   1  -1  -8  349.77   24.80
  -1   1   8  349.96   24.80
  -1   1   8  361.66   24.80
  -1   1   8  369.16   24.90
  -1   1   8  373.06   24.80
  -1   1   8  369.96   24.80
   1   1  -8  343.17   24.80
   1   1  -8  303.37   24.80
   1   1  -8  344.97   24.70
   0  -1  -8  307.77   22.50
   0  -1  -8  319.87   22.50
   0  -1   8  274.27   22.50
   0  -1   8  292.67   22.50
   0  -1  -8  363.56   22.50
   0  -1  -8  309.37   22.50
   0  -1   8  336.77   22.60
   0  -1  -8  362.86   22.60
   0  -1  -8  290.07   22.60
   0  -1  -8  338.77   22.50
   0  -1   8  344.17   22.60
   0  -1  -8  312.97   22.50
   0   1   8  325.97   22.50
   0   1  -8  275.77   22.50
   0   1   8  337.37   22.60
   0   1  -8  327.47   22.50
   0   1   8  322.77   22.60
   0   1  -8  321.77   22.50
  -1  -1  -8  822.52   52.99
  -1  -1  -8  815.42   53.09
  -1  -1  -8  756.02   52.99
  -1  -1  -8  702.83   53.09
  -1  -1  -8  727.53   52.99
   1  -1   8  637.34   52.99
  -1  -1  -8  766.72   52.99
  -1  -1  -8  808.42   52.99
  -1  -1  -8  765.12   52.99
   1  -1   8  728.03   52.99
   1  -1   8  727.53   53.09
   1   1   8  708.93   52.99
  -1   1  -8  779.02   52.99
   1   1   8  816.12   53.09
  -1   1  -8  691.63   52.99
  -1   1  -8  783.32   52.99
   1   1   8  859.51   53.09
  -1   1  -8  709.23   52.99
  -1   1  -8  752.32   52.99
  -2  -1  -8  441.26   30.20
  -2  -1  -8  457.45   30.20
   2  -1   8  362.86   30.20
  -2  -1  -8  414.66   30.20
  -2  -1  -8  448.86   30.20
  -2  -1  -8  422.46   30.20
  -2  -1  -8  432.26   30.10
  -2  -1  -8  438.46   30.20
   2  -1   8  453.55   30.30
  -2  -1  -8  431.66   30.20
  -2  -1  -8  402.56   30.20
   2  -1   8  424.86   30.20
  -2  -1  -8  386.16   30.20
  -2   1  -8  435.66   30.20
  -2   1  -8  463.25   30.20
   2   1   8  452.65   30.20
  -2   1  -8  397.16   30.20
  -2   1  -8  486.85   30.20
  -2   1  -8  421.66   30.20
   2   1   8  407.26   30.30
  -2   1  -8  433.36   30.10
  -3  -1  -8  248.88   17.10
  -3  -1  -8  237.28   17.20
  -3  -1  -8  247.88   17.10
  -3  -1  -8  224.68   17.10
  -3  -1  -8  258.27   17.10
   3  -1   8  259.97   17.20
  -3  -1  -8  244.58   17.20
  -3  -1  -8  256.17   17.20
   3  -1   8  241.08   17.20
  -3  -1  -8  239.08   17.00
  -3  -1  -8  235.48   17.20
  -3  -1  -8  244.58   17.10
  -3  -1  -8  236.38   17.10
  -3  -1  -8  233.58   17.00
  -3  -1  -8  254.47   17.10
   3  -1   8  225.98   17.30
  -3   1  -8  247.38   17.10
  -3   1  -8  257.07   17.10
  -3   1  -8  230.58   17.10
  -3   1  -8  240.48   17.00
  -3   1  -8  241.08   17.10
   3   1   8  257.47   17.10
  -3   1  -8  228.08   17.10
  -3   1  -8  235.58   17.00
   3   1   8  219.28   17.20
  -4  -1  -8  253.37   17.20
  -4  -1  -8  245.48   17.00
  -4  -1  -8  242.18   17.00
  -4  -1  -8  240.48   17.00
  -4  -1  -8  246.68   17.10
   4  -1   8  237.98   17.20
  -4  -1  -8  247.28   17.10
   4  -1   8  241.58   17.10
  -4  -1  -8  228.78   17.00
   4  -1   8  228.08   17.10
  -4  -1  -8  211.98   17.10
  -4  -1  -8  243.28   16.90
  -4  -1  -8  258.97   17.20
  -4  -1  -8  238.18   17.00
  -4  -1  -8  217.78   17.00
  -4  -1  -8  262.17   17.10
  -4  -1  -8  267.47   17.10
  -4   1  -8  235.18   17.00
  -4   1  -8  236.98   16.90
   4   1   8  248.38   17.00
  -4   1  -8  261.87   17.20
  -4   1  -8  236.88   17.00
  -4   1  -8  220.08   17.00
  -4   1  -8  249.48   17.00
   4   1   8  207.78   17.20
  -4   1  -8  238.08   17.10
  -5  -1  -8  158.88   11.30
  -5  -1  -8  157.68   11.10
  -5  -1  -8  160.98   11.20
  -5  -1  -8  145.39   11.50
  -5  -1  -8  160.18   11.30
  -5  -1  -8  164.08   11.20
  -5  -1  -8  152.68   11.30
  -5  -1  -8  170.28   11.40
  -5  -1  -8  156.58   11.20
  -5  -1  -8  157.38   11.20
   5   1   8  166.58   11.30
  -5   1  -8  145.89   11.20
   5   1   8  133.39   11.90
  -5   1  -8  156.38   11.20
  -5   1  -8  151.48   11.20
  -5   1  -8  156.28   11.40
  -5   1  -8  164.38   11.20
  -6  -1  -8   91.29    6.80
  -6  -1  -8   92.19    6.70
   6  -1   8   95.59    6.80
  -6  -1  -8   95.99    6.80
  -6  -1  -8   95.09    6.70
  -6  -1  -8   90.89    6.70
  -6  -1  -8   94.89    6.70
  -6  -1  -8   87.89    6.90
  -6  -1  -8   85.69    7.10
  -6  -1  -8   94.49    6.90
  -6  -1  -8   92.29    6.60
  -6  -1  -8   91.89    6.60
  -6  -1  -8   86.49    6.70
  -6   1  -8   89.09    6.80
  -6   1  -8   93.09    6.70
  -6   1  -8   95.49    6.70
  -6   1  -8   88.29    6.70
   6   1   8   97.39    6.80
  -6   1  -8   88.09    6.80
  -6   1  -8   93.49    6.70
  -6   1  -8   99.99    7.20
  -6   1  -8   79.69    7.00
  -7  -1  -8   46.50    4.30
  -7  -1  -8   49.60    3.60
  -7  -1  -8   49.20    3.70
  -7  -1  -8   49.40    3.80
   7  -1   8   51.19    3.80
  -7  -1  -8   44.50    3.70
  -7  -1  -8   44.30    3.50
  -7  -1  -8   47.60    3.60
  -7  -1  -8   47.40    4.00
  -7  -1  -8   44.50    3.60
  -7   1  -8   45.80    3.70
  -7   1  -8   46.50    3.60
  -7   1  -8   45.10    3.60
  -7   1  -8   42.20    3.60
   7   1   8   45.10    3.80
  -7   1  -8   45.50    3.60
  -7   1  -8   44.60    4.20
  -8  -1  -8   61.09    4.50
  -8  -1  -8   63.99    4.50
  -8  -1  -8   60.49    4.60
  -8  -1  -8   64.99    4.70
  -8  -1  -8   56.89    4.50
  -8  -1  -8   65.09    4.90
   8  -1   8   64.09    4.70
  -8  -1  -8   57.59    4.70
  -8  -1  -8   60.89    4.50
  -8  -1  -8   59.49    4.40
  -8  -1  -8   59.49    4.70
  -8  -1  -8   64.29    4.50
  -8   1  -8   52.49    4.50
  -8   1  -8   60.09    4.50
  -8   1  -8   60.09    4.50
  -8   1  -8   55.09    4.70
  -8   1  -8   61.09    4.50
  -8   1  -8   64.09    5.00
   8   1   8   56.19    4.70
  -8   1  -8   57.09    4.60
  -8   1  -8   53.49    4.60
  -9  -1  -8   11.00    1.50
  -9  -1  -8   12.70    1.40
  -9  -1  -8   12.70    1.70
  -9  -1  -8   11.20    2.30
  -9  -1  -8   11.60    1.40
  -9  -1  -8   15.90    1.70
  -9  -1  -8   13.00    1.60
  -9  -1  -8   14.50    1.60
  -9  -1  -8   11.80    1.70
  -9  -1  -8   13.10    2.40
  -9  -1  -8   13.30    2.00
  -9   1  -8   12.20    2.10
  -9   1  -8   12.20    2.00
  -9   1  -8   11.40    1.60
  -9   1  -8   15.30    2.20
  -9   1  -8   12.50    2.10
  -9   1  -8   12.70    1.50
  -9   1  -8   16.40    1.60
  -9   1  -8    9.80    1.60
 -10  -1  -8    6.50    1.20
  10  -1   8    5.10    1.20
 -10  -1  -8    4.10    1.00
 -10  -1  -8    8.00    1.50
 -10  -1  -8    4.60    1.10
 -10  -1  -8    6.70    1.20
 -10  -1  -8    4.50    0.90
 -10  -1  -8    8.10    2.00
 -10   1  -8    4.20    1.00
 -10   1  -8    5.00    1.00
 -10   1  -8    3.80    1.00
 -10   1  -8    7.30    1.20
 -10   1  -8    7.30    1.80
 -10   1  -8    4.70    1.10
 -14  -2   8   -0.10    1.10
 -14  -2   8    4.20    1.50
 -14  -2   8    4.60    1.30
 -14  -2   8    6.90    2.60
 -14   2   8    2.00    0.70
 -14   2   8    0.80    1.00
 -14   2   8    2.70    0.90
 -13  -2   8    1.60    1.20
 -13  -2   8    1.40    0.60
 -13   2   8    0.90    0.60
 -13   2   8    2.40    0.70
 -13   2   8   -0.20    0.70
 -13   2   8    3.00    1.70
 -13   2   8    0.60    0.90
 -13   2   8    0.30    1.00
 -12  -2   8    1.20    0.60
  12  -2  -8    0.30    0.90
 -12   2   8   -0.90    0.80
 -12   2   8    2.30    0.70
 -12   2   8    0.10    1.10
 -12   2   8    1.60    0.60
 -12   2   8    1.00    0.90
 -12   2   8    4.10    1.40
 -11  -2   8   -0.90    1.20
 -11  -2   8    0.70    1.40
 -11  -2   8   -0.30    0.60
  11  -2  -8    0.80    0.80
 -11  -2   8    1.70    1.00
 -11   2   8    0.90    0.70
 -11   2   8    1.70    0.80
 -11   2   8   -0.20    0.60
 -11   2   8    3.50    1.40
 -11   2   8    0.70    1.00
 -11   2   8   -1.10    0.90
 -11   2   8   -1.10    1.10
 -10  -2   8   34.70    2.80
 -10  -2   8   26.40    2.90
 -10  -2   8   26.10    2.70
 -10  -2   8   31.30    2.60
 -10  -2   8   32.90    2.80
 -10  -2   8   24.00    3.00
 -10  -2   8   29.40    2.60
  10  -2  -8   35.30    2.60
 -10  -2   8   36.70    3.10
 -10  -2   8   36.80    2.90
 -10   2   8   30.30    2.50
 -10   2   8   25.10    2.70
 -10   2   8   28.80    2.70
 -10   2   8   33.30    2.80
 -10   2   8   32.20    2.40
 -10   2   8   24.90    3.00
  -9  -2   8    2.20    1.00
  -9  -2   8    1.90    0.80
  -9  -2   8    1.10    0.60
  -9  -2   8    2.40    1.10
  -9  -2   8    1.10    1.10
  -9  -2   8    3.10    1.00
  -9  -2   8    1.60    1.10
  -9  -2   8    1.60    0.50
  -9  -2   8    3.30    0.80
  -9  -2   8    1.30    1.00
  -9  -2   8    2.70    1.20
  -9  -2   8    2.00    0.90
  -9   2   8    2.80    0.70
  -9   2   8    1.30    1.10
  -9   2   8    3.60    1.20
  -9   2   8    0.80    0.90
  -9   2   8    2.10    0.60
  -9   2   8    1.40    0.50
  -8  -2   8   17.00    1.80
  -8  -2   8   15.00    2.20
  -8  -2   8   15.70    2.10
  -8  -2   8   20.00    1.90
  -8  -2   8   21.40    1.90
  -8  -2   8   17.40    1.80
   8  -2  -8   21.60    1.80
  -8  -2   8   16.90    1.90
  -8  -2   8   16.80    2.40
  -8  -2   8   22.80    2.00
  -8  -2   8   19.80    1.80
  -8  -2   8   18.60    2.20
  -8   2   8   14.60    2.00
  -8   2   8   18.50    1.90
  -8   2   8   21.80    2.00
  -8   2   8   19.70    2.00
  -8   2   8   22.10    1.70
   7  -2  -8    1.60    1.40
  -7  -2   8    3.60    0.90
  -7  -2   8    1.60    0.70
  -7  -2   8    1.20    0.60
  -7  -2   8    2.50    1.10
  -7  -2   8    1.80    1.10
  -7  -2   8    4.60    1.10
  -7  -2   8    2.90    1.10
  -7  -2   8    1.20    1.80
  -7  -2   8    2.60    0.80
  -7  -2   8    2.80    0.90
  -7  -2   8    3.20    0.80
   7  -2  -8    2.90    0.80
  -7  -2   8    2.30    0.90
  -7  -2   8    1.40    0.50
  -7  -2   8    1.40    1.60
  -7  -2   8    2.90    0.80
  -7   2   8    2.80    0.70
  -7   2   8    1.70    0.70
  -7   2   8    2.70    0.60
  -7   2   8    1.50    0.50
  -7   2   8    1.20    1.20
  -7   2   8    2.10    0.80
  -6  -2   8  162.88   10.50
   6  -2  -8  150.98   10.50
  -6  -2   8  154.18   10.70
   6  -2  -8  155.28   10.40
   6  -2  -8  140.29   10.60
  -6  -2   8  143.99   10.60
  -6  -2   8  143.19   10.50
  -6  -2   8  135.69   10.80
  -6  -2   8  150.98   10.50
  -6  -2   8  128.39   11.00
  -6  -2   8  145.79   10.60
  -6  -2   8  139.09   10.50
  -6  -2   8  124.89   10.50
  -6  -2   8  158.08   10.50
  -6   2   8  157.48   10.60
  -6   2   8  134.69   11.00
  -6   2   8  165.48   10.50
  -6   2   8  152.48   10.50
  -6   2   8  154.08   10.50
  -5  -2   8   40.80    3.70
   5  -2  -8   43.70    3.20
  -5  -2   8   38.10    3.60
  -5  -2   8   36.30    3.50
  -5  -2   8   44.70    3.40
  -5  -2   8   43.00    3.40
  -5  -2   8   42.70    3.60
  -5  -2   8   41.90    3.40
  -5  -2   8   40.00    3.40
   5  -2  -8   46.20    3.30
  -5  -2   8   49.90    3.40
  -5  -2   8   45.80    3.40
   5  -2  -8   36.90    3.40
  -5  -2   8   48.10    3.60
  -5  -2   8   49.80    3.30
  -5   2   8   48.70    3.40
  -5   2   8   41.50    3.50
  -5   2   8   44.80    3.30
  -5   2   8   45.90    3.30
  -5   2   8   47.60    3.50
  -5   2   8   39.20    3.60
  -5   2   8   46.20    3.30
  -5   2   8   47.70    3.40
   4  -2  -8   44.00    3.80
  -4  -2   8   52.29    3.80
  -4  -2   8   48.50    3.80
  -4  -2   8   48.40    3.80
   4  -2  -8   51.09    3.70
  -4  -2   8   48.10    3.90
  -4  -2   8   46.10    3.80
  -4  -2   8   45.90    3.80
  -4  -2   8   53.49    4.00
  -4  -2   8   57.49    3.80
  -4  -2   8   48.60    3.80
   4  -2  -8   53.19    3.60
  -4  -2   8   46.50    3.90
  -4   2   8   53.79    3.70
  -4   2   8   52.89    3.80
  -4   2   8   50.79    3.70
  -4   2   8   51.69    3.90
  -4   2   8   46.60    3.70
  -4   2   8   54.59    3.80
  -4   2   8   47.70    4.00
  -3  -2   8   17.70    1.50
   3  -2  -8   13.70    1.80
  -3  -2   8   16.80    1.60
   3  -2  -8   15.50    1.40
  -3  -2   8   16.60    1.70
  -3  -2   8   13.00    1.50
  -3  -2   8   13.60    1.70
  -3  -2   8   16.30    1.50
  -3  -2   8   14.00    1.60
  -3  -2   8   15.50    1.50
   3  -2  -8   15.80    1.60
  -3  -2   8   13.00    2.50
   3  -2  -8   13.90    1.30
   3  -2  -8   15.10    1.30
  -3   2   8   13.60    1.80
  -3   2   8   15.20    1.50
   3   2  -8   12.10    1.40
  -3   2   8   15.10    1.50
  -3   2   8   15.10    1.70
  -3   2   8   15.00    1.80
  -3   2   8   12.90    1.50
  -3   2   8   16.90    1.40
  -3   2   8   18.00    1.60
   2  -2  -8    6.30    0.70
   2  -2  -8    5.70    0.90
  -2  -2   8    4.20    1.40
   2  -2  -8    5.50    1.00
   2  -2  -8    6.20    0.90
   2  -2  -8    6.50    1.30
   2  -2  -8    6.20    1.30
   2  -2  -8    6.30    0.90
  -2  -2   8    6.40    1.10
  -2  -2   8    6.20    1.00
  -2  -2   8    8.10    1.50
  -2  -2   8    6.10    1.10
  -2  -2   8    8.80    1.70
  -2  -2   8    6.70    1.10
   2   2  -8    5.60    0.90
  -2   2   8    5.50    0.90
  -2   2   8    6.70    1.10
  -2   2   8    6.00    1.50
  -1  -2   8   17.40    1.50
   1  -2  -8   13.30    1.60
  -1  -2   8   11.90    1.60
   1  -2  -8   13.90    2.20
  -1  -2   8   16.10    1.70
   1  -2  -8   13.10    1.50
   1  -2  -8   15.90    1.20
  -1  -2   8   13.90    1.40
   1  -2  -8   11.40    1.50
  -1  -2   8   16.10    1.50
   1  -2  -8   13.50    1.30
   1  -2  -8   14.40    1.40
  -1  -2   8   15.20    2.10
  -1  -2   8   12.90    1.50
   1  -2  -8   15.70    1.30
  -1   2   8   16.30    1.50
  -1   2   8   15.70    1.40
   1   2  -8   13.30    1.40
  -1   2   8   12.70    1.80
   0  -2  -8   17.70    1.60
   0  -2  -8   16.00    1.30
   0  -2  -8   15.20    1.40
   0  -2  -8   15.70    1.30
   0  -2  -8   15.40    1.60
   0  -2  -8   12.90    1.80
   0  -2   8   12.20    1.60
   0  -2   8   15.30    1.50
   0  -2   8   15.60    1.80
   0  -2  -8   12.00    1.40
   0  -2   8   12.30    1.50
   0   2   8   16.20    1.50
   0   2   8   12.80    1.50
   0   2  -8   16.40    1.40
   0   2  -8   14.80    1.70
   0   2   8   17.60    1.60
   1  -2   8    2.60    1.20
   1  -2   8    1.20    0.90
  -1  -2  -8    0.20    0.90
   1  -2   8    0.80    0.90
   1  -2   8    1.80    0.70
  -1  -2  -8    1.20    0.80
  -1  -2  -8    1.30    0.60
  -1  -2  -8    2.20    1.00
  -1  -2  -8    1.60    0.60
  -1  -2  -8    1.10    0.50
  -1  -2  -8    1.50    0.70
  -1  -2  -8    1.30    1.10
   1  -2   8    1.50    0.70
   1   2   8    2.30    0.70
   1   2   8    1.70    0.80
  -1   2  -8    1.60    0.70
  -1   2  -8    1.20    1.00
  -2  -2  -8   15.10    1.40
  -2  -2  -8   11.30    1.70
  -2  -2  -8   13.90    1.40
  -2  -2  -8   12.00    1.50
   2  -2   8    9.70    1.80
  -2  -2  -8   14.30    1.80
   2  -2   8   11.10    1.60
  -2  -2  -8   13.90    1.50
  -2  -2  -8   15.60    1.20
  -2  -2  -8   13.60    1.20
   2  -2   8   13.70    1.60
   2  -2   8    9.70    1.60
  -2  -2  -8   12.00    1.80
   2   2   8   12.10    1.50
  -2   2  -8   13.20    1.40
  -2   2  -8   12.20    1.50
   2   2   8   14.10    1.50
  -3  -2  -8    0.70    0.60
  -3  -2  -8    0.50    0.70
  -3  -2  -8    0.00    1.00
  -3  -2  -8    2.20    0.60
   3  -2   8    0.00    2.80
   3  -2   8    0.40    1.00
   3  -2   8    0.90    0.90
  -3  -2  -8    0.60    0.80
  -3  -2  -8    0.70    1.10
   3  -2   8    0.60    0.80
  -3  -2  -8    1.00    0.80
  -3  -2  -8    0.70    0.70
   3   2   8    0.40    1.00
  -3   2  -8    1.00    0.70
  -3   2  -8    1.20    0.80
  -3   2  -8    0.10    0.90
  -3   2  -8    1.00    0.90
  -4  -2  -8    5.60    1.30
  -4  -2  -8    6.30    1.30
  -4  -2  -8    3.90    1.00
  -4  -2  -8    3.90    0.80
   4  -2   8    3.60    1.10
  -4  -2  -8    5.60    0.80
  -4  -2  -8    5.80    1.10
  -4   2  -8    4.00    1.00
  -4   2  -8    4.10    0.90
   4   2   8    3.20    1.20
  -4   2  -8    4.80    1.00
  -5  -2  -8   26.70    2.20
  -5  -2  -8   26.90    2.30
  -5  -2  -8   27.00    2.10
  -5  -2  -8   20.30    2.40
  -5  -2  -8   28.10    2.00
  -5  -2  -8   26.60    2.50
   5  -2   8   22.90    2.40
  -5  -2  -8   21.70    2.20
  -5   2  -8   26.70    2.30
  -5   2  -8   26.10    2.20
  -5   2  -8   25.60    2.20
  -6  -2  -8    6.90    1.30
  -6  -2  -8    7.80    1.00
   6  -2   8    5.70    1.30
  -6  -2  -8    9.40    1.40
  -6  -2  -8    6.70    1.50
  -6  -2  -8    8.50    1.20
  -6   2  -8    4.60    1.00
  -6   2  -8    6.70    1.40
  -6   2  -8    5.10    1.40
  -6   2  -8    4.10    1.40
  -6   2  -8    7.60    1.30
  -6   2  -8    5.90    1.20
  -7  -2  -8    0.80    0.70
  -7  -2  -8    1.00    1.30
   7  -2   8    0.30    1.10
  -7  -2  -8    0.80    1.00
  -7  -2  -8    0.60    0.90
  -7  -2  -8    1.00    0.90
  -7  -2  -8    0.20    0.90
  -7  -2  -8    0.40    0.70
  -7   2  -8   -0.20    1.00
  -7   2  -8   -1.30    0.90
  -7   2  -8    0.30    1.00
  -7   2  -8    2.00    1.20
  -7   2  -8   -1.80    0.80
  -7   2  -8   -1.70    1.20
  -8  -2  -8   41.00    2.90
  -8  -2  -8   38.30    3.00
  -8  -2  -8   38.40    2.90
  -8  -2  -8   38.00    2.80
  -8  -2  -8   35.00    3.10
  -8  -2  -8   42.50    3.10
   8  -2   8   38.40    3.10
  -8  -2  -8   31.50    3.20
  -8  -2  -8   36.30    2.90
  -8  -2  -8   31.60    3.00
  -8  -2  -8   36.60    3.30
  -8   2  -8   31.30    3.00
  -8   2  -8   34.00    2.90
  -8   2  -8   34.40    3.40
  -8   2  -8   37.80    3.00
  -8   2  -8   36.00    3.00
  -9  -2  -8    8.20    1.70
   9  -2   8    6.00    1.20
  -9  -2  -8    7.10    1.20
  -9  -2  -8    9.20    1.10
  -9  -2  -8    9.30    1.30
  -9  -2  -8    8.50    1.50
  -9  -2  -8    7.00    1.30
  -9   2  -8    8.70    1.30
   9   2   8    9.50    1.60
  -9   2  -8    9.70    1.40
  -9   2  -8    6.60    1.20
  -9   2  -8    5.30    1.20
 -13  -3   8   26.70    2.30
 -13  -3   8   25.80    2.30
 -13   3   8   22.40    2.30
  12  -3  -8   66.39    4.90
 -12  -3   8   59.99    5.30
 -12  -3   8   69.29    4.90
 -12  -3   8   66.99    5.00
 -12   3   8   62.79    5.50
 -12   3   8   64.99    4.90
 -12   3   8   69.09    4.80
 -11  -3   8   62.59    4.80
 -11  -3   8   64.79    4.70
 -11  -3   8   53.29    5.00
  11  -3  -8   66.29    4.70
 -11  -3   8   59.89    4.90
 -11   3   8   67.59    4.90
 -11   3   8   58.79    4.70
 -11   3   8   64.29    4.60
 -11   3   8   64.39    4.60
 -10  -3   8  143.69   11.40
 -10  -3   8  155.88   11.50
 -10  -3   8  153.88   11.50
  10  -3  -8  171.78   11.40
 -10  -3   8  148.29   11.80
 -10   3   8  176.28   11.50
 -10   3   8  163.78   11.30
 -10   3   8  149.19   11.40
 -10   3   8  169.08   11.30
   9  -3  -8  447.56   29.50
  -9  -3   8  459.35   29.70
  -9  -3   8  404.06   29.50
  -9  -3   8  414.16   29.70
  -9  -3   8  391.76   29.60
  -9  -3   8  402.46   29.60
  -9   3   8  425.96   29.40
  -9   3   8  410.36   29.50
  -9   3   8  439.66   29.60
  -9   3   8  388.16   29.50
  -8  -3   8   52.59    3.90
   8  -3  -8   52.69    3.80
  -8  -3   8   50.29    4.00
  -8  -3   8   49.70    4.20
  -8  -3   8   48.30    4.00
  -8  -3   8   54.99    4.20
  -8   3   8   42.70    3.90
  -8   3   8   54.59    3.80
  -8   3   8   49.60    3.70
  -8   3   8   53.69    4.00
   8   3  -8   40.90    4.40
  -8   3   8   46.50    3.90
  -7  -3   8  111.19    9.20
  -7  -3   8  131.49    9.20
  -7  -3   8  123.09    9.20
   7  -3  -8  126.79    9.00
   7  -3  -8  123.79    9.20
  -7  -3   8  127.09    9.10
  -7  -3   8  117.89    9.20
  -7  -3   8  123.79    9.30
  -7  -3   8  131.19    9.20
  -7   3   8  138.49    9.00
  -7   3   8  121.59    9.10
  -7   3   8  131.39    9.00
  -6  -3   8  284.47   20.10
  -6  -3   8  284.77   20.20
  -6  -3   8  312.87   20.00
   6  -3  -8  275.07   20.30
   6  -3  -8  291.07   20.00
  -6  -3   8  293.07   20.10
  -6  -3   8  279.37   20.00
  -6  -3   8  285.17   20.20
  -6  -3   8  286.37   20.10
  -6  -3   8  279.57   20.10
  -6  -3   8  271.57   20.10
   6  -3  -8  301.07   20.00
  -6   3   8  273.67   20.10
   6   3  -8  254.17   20.00
  -6   3   8  274.57   19.90
  -5  -3   8   20.20    2.00
  -5  -3   8   19.40    2.30
   5  -3  -8   20.40    2.60
  -5  -3   8   16.70    1.90
   5  -3  -8   21.20    1.80
  -5  -3   8   19.20    2.00
  -5  -3   8   21.40    2.20
  -5  -3   8   23.00    2.00
  -5  -3   8   19.50    2.10
  -5  -3   8   18.20    2.30
  -5  -3   8   19.20    2.20
   5   3  -8   17.20    1.90
  -5   3   8   20.80    1.90
  -5   3   8   21.80    2.10
  -4  -3   8    3.90    0.90
  -4  -3   8    6.70    1.40
   4  -3  -8    7.30    1.00
   4  -3  -8    7.30    1.00
  -4  -3   8    4.40    1.20
  -4  -3   8    3.60    1.90
  -4  -3   8    7.50    1.60
  -4  -3   8    6.70    1.20
  -4  -3   8    6.80    1.20
  -4  -3   8    6.10    1.40
  -4  -3   8    6.20    0.90
   4  -3  -8    5.60    1.60
  -4  -3   8    5.20    1.20
  -4   3   8    4.90    1.00
  -4   3   8    6.10    2.30
   4   3  -8    4.90    0.90
  -4   3   8    4.90    1.10
   3  -3  -8   22.50    1.80
  -3  -3   8   21.70    2.40
   3  -3  -8   21.40    2.40
   3  -3  -8   19.00    2.10
  -3  -3   8   22.50    2.10
  -3  -3   8   20.50    2.30
   3  -3  -8   22.40    1.80
  -3  -3   8   17.90    2.60
  -3  -3   8   23.10    1.90
  -3  -3   8   18.90    2.30
  -3  -3   8   22.10    2.10
   3   3  -8   19.70    1.90
  -2  -3   8   33.10    3.00
   2  -3  -8   31.20    2.40
   2  -3  -8   31.20    2.30
   2  -3  -8   30.30    2.70
  -2  -3   8   28.70    2.60
   2  -3  -8   31.30    2.80
   2  -3  -8   31.10    2.60
  -2  -3   8   28.50    2.60
  -2  -3   8   27.20    2.90
  -2  -3   8   34.50    2.60
   2  -3  -8   29.40    2.90
   2   3  -8   29.50    2.50
  -2   3   8   32.80    2.70
   1  -3  -8  266.17   19.30
  -1  -3   8  257.67   19.40
   1  -3  -8  292.37   19.40
   1  -3  -8  245.78   19.40
   1  -3  -8  305.97   19.50
  -1  -3   8  306.17   19.40
   1  -3  -8  271.57   19.30
   1  -3  -8  261.77   19.30
  -1  -3   8  239.28   19.50
  -1  -3   8  260.97   19.40
  -1   3   8  288.97   19.50
   1   3  -8  266.87   19.40
  -1   3   8  297.27   19.40
   0  -3   8  255.57   20.80
   0  -3  -8  264.37   20.70
   0  -3   8  254.47   20.80
   0  -3  -8  301.27   20.70
   0  -3  -8  278.87   20.80
   0  -3  -8  317.77   20.80
   0  -3  -8  319.67   20.70
   0  -3  -8  309.57   20.70
   0  -3   8  335.77   21.00
   0   3   8  310.87   20.80
   0   3   8  293.27   20.80
   0   3  -8  281.47   20.70
  -1  -3  -8  427.06   28.70
   1  -3   8  406.26   28.80
  -1  -3  -8  381.86   28.90
  -1  -3  -8  447.56   28.80
   1  -3   8  399.26   28.90
  -1  -3  -8  420.76   28.80
  -1  -3  -8  419.66   28.90
  -1  -3  -8  418.06   28.80
   1  -3   8  403.56   28.90
   1  -3   8  371.56   28.80
  -1   3  -8  373.16   28.80
   1   3   8  443.36   28.90
   1   3   8  410.76   28.90
  -1   3  -8  400.96   28.80
  -2  -3  -8  435.86   30.90
  -2  -3  -8  433.86   31.00
  -2  -3  -8  449.26   31.10
  -2  -3  -8  425.36   31.00
  -2  -3  -8  445.76   30.90
   2  -3   8  441.56   31.00
   2  -3   8  436.76   31.10
  -2  -3  -8  430.66   30.90
  -2  -3  -8  484.65   31.00
  -2  -3  -8  420.66   31.00
  -2  -3  -8  446.96   30.90
  -2  -3  -8  448.56   31.00
  -2   3  -8  444.66   30.90
   2   3   8  414.86   31.00
  -2   3  -8  428.76   31.00
  -3  -3  -8  170.28   12.20
  -3  -3  -8  159.28   12.10
  -3  -3  -8  180.38   12.00
  -3  -3  -8  174.58   12.00
   3  -3   8  173.08   12.10
  -3  -3  -8  174.98   12.10
  -3  -3  -8  182.98   12.10
   3  -3   8  169.88   12.20
  -3  -3  -8  186.88   12.20
  -3  -3  -8  169.38   12.30
   3  -3   8  146.19   12.10
  -3  -3  -8  160.58   12.10
  -3  -3  -8  159.18   12.20
  -3   3  -8  164.28   12.10
  -3   3  -8  165.58   12.10
   3   3   8  173.78   12.20
  -4  -3  -8  124.09    8.40
  -4  -3  -8  119.49    8.60
  -4  -3  -8  126.09    8.50
   4  -3   8  115.99    8.70
  -4  -3  -8  115.99    8.40
  -4  -3  -8  115.19    8.30
  -4  -3  -8  115.89    8.30
  -4  -3  -8  110.29    8.50
  -4  -3  -8  126.39    8.50
   4  -3   8  112.99    8.50
  -4  -3  -8  115.39    8.50
  -4  -3  -8  103.19    8.50
  -4   3  -8  121.79    8.40
  -4   3  -8  114.59    8.50
   4   3   8  118.99    8.50
  -4   3  -8  113.09    8.40
  -5  -3  -8   72.79    4.90
  -5  -3  -8   66.89    5.10
  -5  -3  -8   68.89    4.90
  -5  -3  -8   57.39    5.00
  -5  -3  -8   67.89    4.80
  -5  -3  -8   65.49    4.90
  -5  -3  -8   55.59    5.50
  -5  -3  -8   71.19    5.00
  -5  -3  -8   68.09    5.10
  -5  -3  -8   64.89    5.10
   5  -3   8   65.99    5.10
  -5   3  -8   64.29    4.90
  -5   3  -8   58.39    5.40
   5   3   8   71.89    5.10
  -5   3  -8   70.29    4.90
  -5   3  -8   65.09    5.00
  -6  -3  -8   19.60    2.00
   6  -3   8   17.10    2.10
  -6  -3  -8   15.70    2.00
  -6  -3  -8   20.60    1.70
  -6  -3  -8   17.90    1.60
  -6  -3  -8   20.30    2.00
  -6  -3  -8   18.50    2.10
  -6  -3  -8   18.60    1.80
  -6  -3  -8   15.70    3.00
  -6  -3  -8   18.00    2.00
  -6   3  -8   18.00    1.80
  -6   3  -8   15.80    1.80
  -6   3  -8   19.30    2.00
   6   3   8   20.90    2.00
  -6   3  -8   12.80    2.50
   7  -3   8    0.10    1.20
  -7  -3  -8    0.30    1.20
  -7  -3  -8   -0.40    0.60
  -7  -3  -8   -0.20    0.70
  -7  -3  -8    0.10    0.90
  -7  -3  -8   -0.50    0.40
   7  -3   8    0.90    1.60
  -7  -3  -8    0.60    0.90
  -7  -3  -8    0.50    1.00
  -7  -3  -8    0.00    0.80
  -7   3  -8   -0.70    0.80
  -7   3  -8   -0.60    1.00
  -7   3  -8    0.30    1.00
  -7   3  -8   -0.60    1.00
   7   3   8    0.70    0.90
  -8  -3  -8    9.00    1.40
  -8  -3  -8   11.00    1.40
  -8  -3  -8   11.50    1.90
   8  -3   8    9.50    1.70
  -8  -3  -8   10.50    1.80
   8   3   8   11.20    1.90
  -8   3  -8    6.40    1.90
  -8   3  -8    7.30    1.20
  -8   3  -8    7.60    1.60
 -11  -4   8    3.50    1.00
 -11   4   8    3.30    0.90
 -11   4   8    3.10    0.70
 -10  -4   8   -0.40    0.90
  10  -4  -8    0.60    0.70
 -10  -4   8    1.90    1.10
 -10  -4   8    1.00    1.30
 -10   4   8    2.10    1.40
 -10   4   8    0.70    0.70
 -10   4   8    1.20    0.90
 -10   4   8    1.30    0.90
  -9  -4   8   -0.10    1.10
  -9  -4   8    0.00    1.10
  -9  -4   8   -0.90    1.40
   9  -4  -8   -0.40    0.60
  -9  -4   8   -0.10    0.90
  -9  -4   8   -3.70    2.10
  -9  -4   8   -1.90    1.40
  -9   4   8    0.50    1.30
  -9   4   8   -0.50    0.90
  -9   4   8   -0.30    1.10
  -9   4   8    0.00    0.70
  -8  -4   8    7.40    1.60
  -8  -4   8    7.90    1.60
  -8  -4   8    5.80    1.50
  -8  -4   8    7.80    1.60
   8  -4  -8    8.00    1.20
  -8  -4   8    4.80    1.50
  -8   4   8   10.80    1.70
  -8   4   8    6.50    1.30
  -8   4   8    7.60    1.50
  -7  -4   8   71.19    5.30
  -7  -4   8   59.49    5.10
  -7  -4   8   72.79    5.10
  -7  -4   8   57.19    5.10
  -7  -4   8   74.39    5.20
  -7  -4   8   61.19    5.30
   7  -4  -8   75.69    4.90
  -7  -4   8   63.59    5.00
  -7   4   8   64.69    5.10
   7   4  -8   61.39    5.00
  -7   4   8   63.59    5.00
  -6  -4   8  161.08   11.70
  -6  -4   8  150.78   11.60
  -6  -4   8  164.78   11.60
  -6  -4   8  150.08   11.50
   6  -4  -8  178.78   11.80
  -6  -4   8  150.68   11.60
  -6  -4   8  166.78   11.60
   6  -4  -8  169.48   11.40
   6   4  -8  150.88   11.40
  -6   4   8  161.48   11.60
  -6   4   8  161.18   11.60
  -5  -4   8   37.00    3.70
   5  -4  -8   47.90    3.40
  -5  -4   8   43.10    3.70
  -5  -4   8   41.90    3.90
  -5  -4   8   45.80    3.60
  -5  -4   8   47.90    3.60
  -5  -4   8   44.50    3.70
   5  -4  -8   49.00    3.90
   5   4  -8   38.50    3.50
  -5   4   8   46.10    3.70
  -5   4   8   43.60    3.60
  -4  -4   8  206.98   13.50
  -4  -4   8  182.38   13.50
   4  -4  -8  173.88   13.40
   4  -4  -8  214.58   13.70
  -4  -4   8  182.98   13.60
   4  -4  -8  191.08   13.40
  -4  -4   8  183.58   13.60
  -4   4   8  188.18   13.60
   4   4  -8  175.78   13.40
   3  -4  -8  293.57   21.80
   3  -4  -8  301.37   21.90
   3  -4  -8  307.67   22.00
   3  -4  -8  312.87   21.80
  -3  -4   8  299.87   22.00
  -3  -4   8  300.37   22.00
  -3  -4   8  330.27   22.00
  -3  -4   8  304.77   21.80
   3  -4  -8  340.17   22.00
  -3   4   8  323.07   22.00
   3   4  -8  293.57   21.90
   2  -4  -8  145.69   10.80
  -2  -4   8  142.59   10.90
   2  -4  -8  153.98   10.90
   2  -4  -8  155.88   10.70
   2  -4  -8  157.48   10.80
  -2  -4   8  153.28   10.90
   2  -4  -8  139.49   10.70
   2  -4  -8  149.49   10.90
  -2  -4   8  149.88   10.90
   2   4  -8  151.08   10.70
  -2   4   8  151.88   10.90
   1  -4  -8   76.59    6.00
  -1  -4   8   90.29    5.90
  -1  -4   8   79.99    6.10
   1  -4  -8   82.29    5.70
  -1  -4   8   66.59    6.20
   1  -4  -8   69.49    5.70
   1  -4  -8   83.19    5.90
  -1  -4   8   80.79    6.00
   1  -4  -8   78.09    6.10
  -1  -4   8   78.29    6.00
   1  -4  -8   88.49    5.90
   1   4  -8   81.19    5.80
  -1   4   8   74.59    6.00
   0  -4  -8   27.90    2.40
   0  -4   8   27.80    2.70
   0  -4   8   30.30    2.50
   0  -4   8   26.90    3.00
   0  -4  -8   31.70    2.50
   0  -4   8   24.00    2.60
   0  -4  -8   26.50    2.50
   0  -4  -8   27.60    2.80
   0  -4  -8   27.00    2.20
   0  -4   8   26.80    2.70
   0   4  -8   25.40    2.30
   0   4   8   28.70    2.70
   1  -4   8    8.80    1.90
  -1  -4  -8    9.60    2.00
  -1  -4  -8   13.30    1.60
  -1  -4  -8    9.90    1.50
   1  -4   8    9.70    1.80
  -1  -4  -8   10.50    1.50
   1  -4   8    7.70    1.50
  -1  -4  -8   12.80    1.90
  -1  -4  -8   11.30    1.90
   1  -4   8   11.60    1.80
  -1  -4  -8   12.00    1.20
   1   4   8   11.70    1.80
  -1   4  -8   11.30    1.40
   2  -4   8    0.70    1.10
   2  -4   8   -0.40    0.80
  -2  -4  -8    1.70    0.90
  -2  -4  -8    0.40    0.80
  -2  -4  -8    0.50    0.60
  -2  -4  -8    0.70    0.80
   2  -4   8   -0.30    0.90
  -2  -4  -8    1.20    1.30
   2  -4   8   -0.90    1.40
  -2  -4  -8   -1.40    1.00
  -2  -4  -8   -1.00    1.20
  -2   4  -8    0.40    0.70
   2   4   8    0.60    0.90
   3  -4   8    3.90    1.10
  -3  -4  -8    5.20    1.10
  -3  -4  -8    5.60    1.00
  -3  -4  -8    2.60    1.00
  -3  -4  -8    5.80    1.30
  -3  -4  -8    2.50    1.10
   3  -4   8    4.40    1.30
  -3  -4  -8    7.30    1.30
  -3  -4  -8    4.60    1.20
   3  -4   8    3.70    1.00
  -3   4  -8    3.70    0.80
   3   4   8    5.30    1.50
  -4  -4  -8   51.39    3.60
  -4  -4  -8   44.60    3.80
  -4  -4  -8   46.50    3.80
  -4  -4  -8   40.60    3.70
  -4  -4  -8   50.09    3.60
   4  -4   8   41.10    3.90
  -4  -4  -8   43.20    3.70
   4  -4   8   43.40    4.10
  -4   4  -8   47.30    3.60
  -4   4  -8   50.89    3.90
   4   4   8   50.19    3.80
   5  -4   8   71.49    6.40
  -5  -4  -8   77.69    5.60
  -5  -4  -8   86.69    5.50
  -5  -4  -8   75.69    5.60
  -5  -4  -8   64.79    5.60
  -5  -4  -8   67.99    5.70
  -5   4  -8   74.79    5.50
  -5   4  -8   76.19    5.50
   5   4   8   76.59    5.70
   6  -4   8   57.69    5.30
  -6  -4  -8   73.39    4.70
  -6  -4  -8   59.89    4.70
  -6  -4  -8   65.79    4.90
  -6  -4  -8   59.89    4.70
  -6   4  -8   59.99    4.70
  -7   5   8   11.40    1.70
  -6  -5   8    0.30    0.90
   6  -5  -8    0.80    0.60
  -6  -5   8   -0.40    0.90
   6   5  -8    0.40    1.10
  -6   5   8    0.20    0.90
  -6   5   8   -0.40    1.00
   5  -5  -8    1.60    0.60
  -5  -5   8    0.70    1.20
   5  -5  -8    2.00    1.10
   5   5  -8    1.40    1.00
   4  -5  -8    1.60    0.90
   4  -5  -8    2.00    0.60
  -4  -5   8    1.70    0.80
  -4  -5   8    1.70    0.90
  -4  -5   8    3.20    1.20
   4   5  -8    0.00    0.90
  -4   5   8    0.20    1.00
  -4   5   8    0.30    0.90
  -3  -5   8    8.80    1.40
  -3  -5   8    8.50    1.80
   3  -5  -8    7.60    1.20
   3  -5  -8    7.90    1.30
  -3  -5   8    8.40    1.50
   3   5  -8    9.00    1.30
   2  -5  -8    0.40    0.80
  -2  -5   8    0.60    0.90
  -2  -5   8    0.50    0.70
  -2  -5   8    1.50    1.20
  -2  -5   8    0.60    1.00
   2  -5  -8    1.80    2.10
   2   5  -8    0.90    0.80
   1  -5  -8    1.10    1.50
   1  -5  -8    2.10    1.10
   1  -5  -8    1.10    0.80
  -1  -5   8    0.80    0.70
   1  -5  -8    0.50    1.20
  -1  -5   8    0.20    0.90
  -1  -5   8   -0.30    1.50
  -1  -5   8    0.20    0.90
   1  -5  -8    0.00    1.70
   1   5  -8    0.80    0.80
  -1   5   8   -0.20    0.90
   0  -5   8   10.00    1.50
   0  -5  -8   12.00    2.10
   0  -5  -8    9.40    1.50
   0  -5  -8    8.90    1.50
   0  -5  -8    7.40    1.30
   0  -5   8    9.80    1.50
   0  -5  -8    8.70    2.10
   0  -5   8    6.50    1.30
   0  -5  -8    6.60    1.20
   0   5   8    9.20    1.60
   0   5  -8    8.30    1.30
  -1  -5  -8    2.60    0.80
  -1  -5  -8    1.90    0.90
  -1  -5  -8    1.80    0.90
  -1  -5  -8    2.10    1.60
   1  -5   8    1.40    0.90
   1  -5   8    2.40    0.90
   1  -5   8    1.90    0.90
  -1  -5  -8    2.20    1.00
  -1   5  -8    1.50    0.80
   1   5   8    1.80    1.00
   2  -5   8    3.30    0.90
   2  -5   8    3.50    1.00
  -2   5  -8    3.50    0.90
 -15   0   9    3.80    1.60
 -14   0   9   -0.40    0.80
 -14   0   9    0.00    0.90
 -14   0   9   -0.30    0.60
 -13   0   9   -0.70    0.50
 -13   0   9   -0.60    0.80
 -13   0   9   -0.70    0.60
 -13   0   9    0.20    1.10
 -13   0   9   -0.80    0.50
 -12   0   9   -0.40    0.90
 -12   0   9   -0.30    0.50
 -12   0   9   -0.60    1.10
 -12   0   9   -2.10    1.90
 -11   0   9   -0.40    1.50
 -11   0   9    0.70    1.10
 -11   0   9   -0.10    0.40
 -11   0   9   -0.40    0.60
 -11   0   9    1.30    1.00
 -11   0   9    1.20    1.00
 -11   0   9    0.20    0.70
  11   0  -9    1.00    1.10
 -11   0   9    0.50    0.50
 -11   0   9   -0.90    1.50
 -11   0   9    0.90    1.00
 -10   0   9    0.10    0.50
 -10   0   9   -0.50    1.10
 -10   0   9    0.30    0.60
 -10   0   9    0.10    0.40
 -10   0   9    0.00    0.90
 -10   0   9   -0.20    0.60
 -10   0   9    0.00    1.20
 -10   0   9    0.30    0.70
 -10   0   9    0.00    0.90
 -10   0   9    0.20    0.90
  -9   0   9   -0.20    0.70
  -9   0   9   -0.10    0.90
  -9   0   9   -0.20    0.40
  -9   0   9   -1.20    1.20
  -9   0   9    0.30    0.80
  -9   0   9    0.80    0.90
  -9   0   9    0.30    0.60
  -9   0   9    1.10    0.60
  -9   0   9    0.50    0.50
  -9   0   9    0.10    0.90
  -8   0   9    1.80    2.00
  -8   0   9   -0.30    0.80
  -8   0   9    1.40    0.70
  -8   0   9   -0.40    0.60
  -8   0   9   -0.10    1.10
  -8   0   9    1.00    0.60
   8   0  -9    0.70    0.80
  -8   0   9    0.90    0.50
  -8   0   9    0.90    0.90
  -8   0   9    0.40    0.80
  -8   0   9    1.80    0.90
  -8   0   9    0.80    0.40
  -7   0   9    0.30    0.60
  -7   0   9    0.70    0.60
   7   0  -9   -0.30    0.60
  -7   0   9   -0.30    0.40
  -7   0   9    0.90    0.90
  -7   0   9    1.30    1.10
  -7   0   9    0.60    0.60
  -7   0   9    2.90    1.20
   7   0  -9    1.10    1.30
  -7   0   9    0.00    0.80
  -7   0   9    0.70    0.80
  -7   0   9    0.10    0.80
  -6   0   9    0.80    0.60
  -6   0   9   -0.10    0.80
   6   0  -9   -0.40    0.70
  -6   0   9   -0.10    0.30
  -6   0   9    1.80    1.20
  -6   0   9   -1.20    0.70
  -6   0   9    0.70    0.60
  -6   0   9   -0.30    0.80
  -6   0   9    0.20    0.70
  -6   0   9    1.60    1.00
  -6   0   9    0.00    0.60
  -6   0   9    0.20    0.90
   6   0  -9    0.70    0.60
  -5   0   9   -0.10    0.70
  -5   0   9    1.20    0.70
  -5   0   9    0.70    0.80
   5   0  -9    0.50    0.50
  -5   0   9   -0.60    1.20
  -5   0   9   -0.10    0.30
  -5   0   9    0.10    0.80
  -5   0   9    1.10    0.60
  -5   0   9    0.70    0.50
  -5   0   9    0.00    0.60
   5   0  -9    0.80    0.60
  -5   0   9    0.50    0.90
   4   0  -9    0.90    0.60
  -4   0   9   -0.30    0.60
  -4   0   9    0.30    0.30
  -4   0   9    0.30    0.80
  -4   0   9    0.80    0.60
   4   0  -9   -0.40    0.50
  -4   0   9    0.40    0.80
  -4   0   9    0.30    0.70
  -4   0   9    1.00    0.50
  -4   0   9    0.60    0.70
  -4   0   9   -1.00    0.80
  -3   0   9    2.10    0.50
  -3   0   9    0.70    0.70
  -3   0   9    2.00    0.70
  -3   0   9    1.60    0.60
   3   0  -9    0.40    0.70
   3   0  -9    0.10    0.50
  -3   0   9    0.20    0.90
  -3   0   9    0.40    0.80
   3   0  -9    1.00    0.60
   3   0  -9    0.90    0.70
  -3   0   9    0.60    0.80
  -3   0   9    1.20    0.70
  -2   0   9    0.20    1.10
  -2   0   9    0.00    0.70
   2   0  -9    0.50    0.60
  -2   0   9    0.70    0.80
   2   0  -9    0.80    0.50
   2   0  -9    0.70    0.90
  -2   0   9    1.40    0.60
  -2   0   9    1.70    0.60
   2   0  -9    0.50    0.70
  -2   0   9    0.70    0.60
  -2   0   9    2.10    0.60
  -2   0   9    1.20    0.90
   2   0  -9    1.60    0.60
   1   0  -9    2.10    0.60
  -1   0   9    1.60    0.90
   1   0  -9    0.50    0.80
   1   0  -9    0.60    1.00
  -1   0   9    1.20    0.60
  -1   0   9    0.50    0.90
  -1   0   9    1.40    0.70
  -1   0   9    0.20    0.60
  -1   0   9    1.40    0.70
   1   0  -9    0.80    0.50
   1   0  -9    1.80    0.60
   0   0   9   -0.60    0.60
   0   0  -9    0.40    0.50
   0   0   9    1.00    0.80
   0   0  -9    1.00    0.80
   0   0   9   -0.30    1.10
   0   0  -9    1.00    0.60
   0   0  -9   -0.10    0.60
   0   0  -9    0.00    0.60
   0   0   9    0.90    0.70
  -1   0  -9    0.60    1.00
   1   0   9    1.80    1.10
   1   0   9    0.00    0.70
  -1   0  -9    0.30    0.60
   1   0   9    0.90    0.70
   1   0   9   -1.40    1.00
  -1   0  -9    1.40    0.60
  -1   0  -9    1.00    0.70
  -1   0  -9    0.90    0.80
  -1   0  -9    0.30    0.60
  -2   0  -9    0.90    0.80
  -2   0  -9    0.90    0.70
  -2   0  -9    1.50    0.60
   2   0   9    0.50    0.80
  -2   0  -9   -0.20    0.70
   2   0   9    0.60    1.30
  -2   0  -9   -0.60    1.20
   2   0   9   -0.40    0.80
  -2   0  -9    0.90    0.60
  -2   0  -9    0.70    0.90
  -3   0  -9   -0.30    0.80
  -3   0  -9   -0.90    0.70
   3   0   9   -1.70    1.40
   3   0   9   -0.30    1.70
  -3   0  -9    0.70    0.70
  -3   0  -9   -0.80    2.00
  -3   0  -9   -0.20    0.70
  -3   0  -9    0.10    0.80
   3   0   9    0.20    0.90
  -3   0  -9   -0.10    0.60
  -3   0  -9   -0.80    1.90
  -3   0  -9   -0.20    0.70
  -4   0  -9   -0.40    2.00
  -4   0  -9   -0.40    0.80
  -4   0  -9   -1.40    1.20
   4   0   9   -0.30    2.40
  -4   0  -9    0.60    0.80
  -4   0  -9    0.70    0.80
  -4   0  -9   -1.00    0.90
  -4   0  -9    0.30    0.70
  -4   0  -9   -0.60    1.00
  -4   0  -9   -0.30    0.50
   4   0   9    0.20    1.00
  -4   0  -9   -1.20    0.80
  -4   0  -9   -0.30    0.80
  -5   0  -9    1.40    0.90
  -5   0  -9    1.10    2.10
  -5   0  -9   -0.50    0.80
  -5   0  -9   -1.50    0.80
  -5   0  -9    0.50    0.80
  -5   0  -9    0.70    0.90
  -5   0  -9    0.00    0.90
  -6   0  -9   -0.70    0.80
  -6   0  -9    0.20    0.80
  -6   0  -9   -0.30    0.90
  -6   0  -9   -0.70    1.00
  -6   0  -9   -0.40    0.90
  -6   0  -9   -0.50    0.90
  -6   0  -9   -0.90    1.10
  -6   0  -9    0.00    0.70
  -6   0  -9   -1.50    1.20
  -6   0  -9   -0.80    0.90
  -6   0  -9    1.00    2.20
  -7   0  -9    0.80    1.30
  -7   0  -9    2.50    1.00
  -7   0  -9    2.30    0.90
  -7   0  -9    3.30    1.30
  -7   0  -9    0.40    1.20
  -7   0  -9    2.90    0.90
  -7   0  -9    3.60    1.00
   7   0   9    2.30    1.20
  -7   0  -9    2.50    2.30
  -7   0  -9    2.00    1.00
  -7   0  -9    2.10    1.00
  -7   0  -9    1.60    0.90
  -8   0  -9    0.00    1.40
  -8   0  -9    0.10    0.90
  -8   0  -9   -0.20    0.80
  -8   0  -9   -0.20    0.50
  -8   0  -9    0.60    1.10
  -8   0  -9   -0.30    0.90
  -8   0  -9   -0.20    0.90
   8   0   9   -0.90    1.10
  -8   0  -9    0.70    0.90
  -8   0  -9   -0.70    1.10
  -8   0  -9   -2.20    2.10
  -9   0  -9    1.90    0.90
  -9   0  -9    0.90    0.80
   9   0   9    0.00    1.20
  -9   0  -9   -0.40    0.80
  -9   0  -9    0.40    0.50
  -9   0  -9    1.30    0.90
  -9   0  -9    1.40    1.10
  -9   0  -9    1.30    0.90
 -10   0  -9    1.00    0.80
 -10   0  -9    0.20    0.40
 -10   0  -9   -0.10    1.10
 -10   0  -9   -0.10    0.90
 -10   0  -9    0.00    0.70
 -15  -1   9   25.90    3.60
 -15  -1   9   29.50    4.00
 -15  -1   9   27.50    2.80
 -15   1   9   30.00    2.40
 -15   1   9   28.50    2.20
 -14  -1   9  139.49    9.90
 -14  -1   9  141.19   10.20
 -14  -1   9  140.49    9.80
 -14  -1   9  151.98   10.00
 -14  -1   9  130.49    9.80
 -14   1   9  127.19    9.80
 -14   1   9  128.49    9.80
 -14   1   9  122.69    9.70
 -14   1   9  135.29    9.70
 -14   1   9  143.69    9.90
 -14   1   9  135.09    9.70
 -13  -1   9  104.49    7.30
 -13  -1   9  100.29    7.00
 -13  -1   9   96.79    7.10
 -13  -1   9   96.19    7.20
 -13  -1   9   82.19    6.80
 -13  -1   9   81.79    7.00
 -13  -1   9  100.09    7.50
 -13  -1   9   93.69    7.20
 -13   1   9  100.69    6.80
 -13   1   9   99.49    6.90
 -13   1   9   88.99    6.90
 -13   1   9  106.19    7.20
 -13   1   9   81.69    7.10
 -13   1   9   99.59    7.00
 -12  -1   9  108.69    7.80
 -12  -1   9  102.69    7.90
 -12  -1   9   98.29    7.80
 -12  -1   9   95.79    7.60
 -12  -1   9  106.59    7.80
 -12  -1   9  109.79    7.90
  12  -1  -9   97.79    7.80
 -12  -1   9  105.99    8.10
 -12  -1   9  119.59    8.10
 -12  -1   9  105.29    7.80
 -12  -1   9  114.69    7.80
 -12   1   9  115.09    7.70
 -12   1   9  109.99    7.80
 -12   1   9  103.29    7.70
 -12   1   9  105.39    7.60
 -12   1   9  113.69    8.00
 -12   1   9  100.89    7.80
  11  -1  -9  358.06   25.40
 -11  -1   9  352.56   25.30
 -11  -1   9  366.56   25.50
 -11  -1   9  385.96   25.70
 -11  -1   9  371.26   25.40
 -11  -1   9  373.16   25.60
 -11  -1   9  358.26   25.60
 -11  -1   9  352.16   25.50
 -11  -1   9  337.07   25.40
 -11  -1   9  364.46   25.60
 -11  -1   9  306.27   25.30
 -11  -1   9  371.26   25.50
 -11   1   9  362.86   25.40
 -11   1   9  345.57   25.40
 -11   1   9  355.06   25.50
 -11   1   9  351.06   25.40
 -11   1   9  386.46   25.40
 -11   1   9  384.96   25.70
 -10  -1   9  272.47   18.70
 -10  -1   9  262.87   18.80
 -10  -1   9  268.67   19.00
 -10  -1   9  251.57   18.80
 -10  -1   9  256.87   18.70
 -10  -1   9  261.27   18.70
 -10  -1   9  235.08   18.60
 -10  -1   9  245.78   18.70
 -10  -1   9  269.17   18.80
 -10  -1   9  269.67   18.60
 -10  -1   9  277.97   18.90
 -10  -1   9  276.07   19.00
 -10   1   9  262.87   18.60
 -10   1   9  272.67   18.90
 -10   1   9  281.37   18.70
 -10   1   9  259.77   18.70
 -10   1   9  278.77   18.80
 -10   1   9  257.37   18.70
 -10   1   9  262.97   18.90
  -9  -1   9   24.20    2.10
  -9  -1   9   20.30    2.30
  -9  -1   9   25.30    2.60
  -9  -1   9   27.80    2.30
  -9  -1   9   23.20    2.40
  -9  -1   9   19.10    2.00
  -9  -1   9   20.90    2.10
   9  -1  -9   25.20    2.10
  -9  -1   9   21.90    2.40
  -9  -1   9   19.40    2.30
  -9  -1   9   24.90    2.20
  -9  -1   9   26.00    2.20
  -9  -1   9   26.00    2.40
  -9  -1   9   22.30    2.00
  -9   1   9   25.60    2.00
  -9   1   9   24.40    2.10
  -9   1   9   27.40    2.30
  -9   1   9   21.10    2.20
  -9   1   9   23.60    2.20
  -9   1   9   23.40    2.50
  -9   1   9   26.40    2.00
   8  -1  -9    9.50    1.70
  -8  -1   9   14.00    2.00
   8  -1  -9   12.70    1.50
   8  -1  -9   15.20    1.40
  -8  -1   9   14.60    1.50
  -8  -1   9   10.50    1.80
  -8  -1   9   13.90    1.30
  -8  -1   9   11.80    1.30
  -8  -1   9   13.20    1.60
  -8  -1   9   12.10    1.80
  -8  -1   9   12.70    1.50
  -8  -1   9   10.90    1.60
  -8  -1   9   12.50    1.80
  -8  -1   9   15.70    1.70
  -8  -1   9   11.30    1.70
  -8  -1   9   13.60    1.60
  -8   1   9   13.00    1.40
  -8   1   9   12.40    1.60
  -8   1   9   11.20    1.50
  -8   1   9   10.70    1.50
  -8   1   9   13.70    1.50
  -8   1   9   13.80    1.30
  -8   1   9   10.90    1.90
  -7  -1   9    1.20    0.70
  -7  -1   9    0.40    0.40
  -7  -1   9    2.50    0.80
   7  -1  -9    0.20    0.70
   7  -1  -9    0.40    1.00
  -7  -1   9    1.30    0.60
  -7  -1   9    2.80    0.80
  -7  -1   9    1.00    0.80
  -7  -1   9    0.50    0.90
  -7  -1   9    3.10    1.20
  -7  -1   9    1.70    1.00
  -7  -1   9    2.80    0.70
  -7  -1   9    1.20    0.70
  -7   1   9    0.30    0.40
  -7   1   9    2.20    0.70
  -7   1   9    1.70    0.90
  -7   1   9    2.00    1.40
  -7   1   9    1.80    0.60
  -7   1   9    1.50    1.30
  -7   1   9    0.50    1.70
  -7   1   9    2.10    1.00
  -7   1   9    1.00    0.80
  -7   1   9    0.70    0.60
  -7   1   9    1.20    0.80
  -7   1   9    1.00    0.80
  -7   1   9    1.20    0.90
  -6  -1   9   75.29    5.00
  -6  -1   9   66.69    5.30
  -6  -1   9   77.49    5.10
   6  -1  -9   71.09    5.30
  -6  -1   9   73.09    5.10
  -6  -1   9   72.39    5.10
  -6  -1   9   62.29    5.10
  -6  -1   9   67.09    5.20
   6  -1  -9   70.69    5.00
  -6  -1   9   64.69    5.10
  -6  -1   9   68.99    5.10
  -6  -1   9   75.79    5.40
  -6  -1   9   68.99    5.00
  -6  -1   9   73.29    5.10
  -6   1   9   59.69    5.30
  -6   1   9   64.49    5.50
  -6   1   9   64.49    5.20
  -6   1   9   59.39    5.10
  -6   1   9   74.39    5.20
  -6   1   9   62.19    5.30
  -6   1   9   69.29    5.10
  -6   1   9   69.99    5.10
  -6   1   9   67.09    5.10
  -6   1   9   78.79    5.00
  -6   1   9   73.49    5.10
  -6   1   9   70.59    5.00
  -5  -1   9  175.88   13.00
  -5  -1   9  177.08   13.10
  -5  -1   9  185.78   13.00
   5  -1  -9  181.98   12.90
  -5  -1   9  176.18   13.00
  -5  -1   9  186.98   13.20
  -5  -1   9  198.88   13.00
  -5  -1   9  179.78   13.30
   5  -1  -9  193.38   13.00
  -5  -1   9  209.98   13.00
  -5  -1   9  179.48   13.00
  -5  -1   9  185.38   13.00
  -5  -1   9  177.68   13.00
  -5   1   9  160.78   13.00
  -5   1   9  165.28   13.10
  -5   1   9  182.58   13.00
  -5   1   9  181.28   13.00
  -5   1   9  194.88   13.00
  -5   1   9  180.18   13.00
  -5   1   9  178.18   13.10
  -5   1   9  183.08   13.00
  -5   1   9  173.58   13.00
  -5   1   9  187.88   12.90
  -5   1   9  197.68   13.00
  -4  -1   9  605.34   44.10
  -4  -1   9  690.03   44.10
  -4  -1   9  624.64   44.10
   4  -1  -9  635.64   44.10
  -4  -1   9  678.23   44.10
  -4  -1   9  624.74   44.10
   4  -1  -9  682.83   44.10
  -4  -1   9  656.43   44.30
   4  -1  -9  528.95   44.00
  -4  -1   9  642.54   44.10
  -4  -1   9  629.54   44.10
  -4  -1   9  638.84   44.30
  -4  -1   9  576.24   44.10
  -4   1   9  647.94   44.10
  -4   1   9  613.94   44.10
  -4   1   9  680.13   44.00
  -4   1   9  591.44   44.20
  -4   1   9  588.84   44.20
  -4   1   9  667.93   44.20
  -4   1   9  613.34   44.10
  -4   1   9  548.05   44.10
  -4   1   9  651.13   44.10
  -3  -1   9  677.23   51.59
  -3  -1   9  742.23   51.79
   3  -1  -9  773.62   51.59
   3  -1  -9  755.42   51.59
  -3  -1   9  781.62   51.59
   3  -1  -9  704.13   51.59
  -3  -1   9  813.92   51.59
  -3  -1   9  715.03   51.59
  -3  -1   9  686.73   51.59
  -3   1   9  780.12   51.49
  -3   1   9  700.13   51.59
  -3   1   9  737.33   51.59
  -3   1   9  740.43   51.59
   3   1  -9  621.24   51.49
   3   1  -9  715.73   51.59
  -3   1   9  747.73   51.69
  -3   1   9  745.23   51.69
  -3   1   9  798.52   51.59
   2  -1  -9  582.94   39.80
  -2  -1   9  548.45   39.80
   2  -1  -9  582.14   39.80
  -2  -1   9  644.24   39.80
  -2  -1   9  502.85   39.80
  -2  -1   9  557.54   39.80
   2  -1  -9  575.94   39.70
  -2  -1   9  538.15   39.80
   2  -1  -9  503.05   39.80
   2  -1  -9  557.44   39.70
  -2  -1   9  611.14   39.90
  -2   1   9  592.64   39.80
  -2   1   9  525.75   39.80
  -2   1   9  605.64   39.70
  -2   1   9  603.44   39.80
   2   1  -9  538.95   39.70
  -2   1   9  542.45   39.80
   2   1  -9  583.04   39.70
   1  -1  -9  759.92   60.59
  -1  -1   9  799.72   60.59
   1  -1  -9  856.91   60.49
  -1  -1   9  812.72   60.59
  -1  -1   9  915.81   60.59
   1  -1  -9  944.91   60.49
   1  -1  -9  904.41   60.59
   1  -1  -9  952.80   60.59
  -1  -1   9  877.61   60.59
  -1  -1   9  817.52   60.59
  -1   1   9  851.71   60.59
   1   1  -9  866.01   60.49
  -1   1   9  905.51   60.59
  -1   1   9  881.31   60.49
  -1   1   9  864.81   60.49
   1   1  -9  826.62   60.49
  -1   1   9  903.91   60.69
   1   1  -9  797.82   60.49
   0  -1  -9  473.05   33.00
   0  -1   9  424.46   33.10
   0  -1  -9  489.75   33.10
   0  -1  -9  538.75   33.00
   0  -1  -9  488.85   33.00
   0  -1   9  528.85   33.10
   0  -1  -9  441.26   33.10
   0  -1   9  468.55   33.10
   0  -1   9  415.76   33.10
   0  -1  -9  453.45   33.10
   0  -1   9  512.15   33.10
   0  -1  -9  401.46   33.20
   0   1   9  440.56   33.00
   0   1  -9  455.35   33.00
   0   1   9  483.35   33.20
   0   1  -9  499.25   33.00
   0   1   9  506.15   33.10
   0   1  -9  417.86   33.00
   0   1  -9  499.65   33.10
  -1  -1  -9  317.07   21.90
  -1  -1  -9  315.97   21.90
  -1  -1  -9  296.17   21.90
  -1  -1  -9  336.07   21.90
  -1  -1  -9  311.47   21.90
   1  -1   9  301.17   21.90
  -1  -1  -9  327.77   22.00
   1  -1   9  293.47   21.90
  -1  -1  -9  294.47   21.90
  -1  -1  -9  323.87   22.00
   1  -1   9  334.37   22.00
   1   1   9  284.47   21.90
  -1   1  -9  324.87   21.90
  -1   1  -9  296.47   21.90
  -1   1  -9  302.97   21.90
   1   1   9  323.17   21.90
   1   1   9  303.67   22.10
  -2  -1  -9  677.23   46.70
   2  -1   9  576.54   46.70
  -2  -1  -9  704.13   46.70
  -2  -1  -9  624.64   46.60
  -2  -1  -9  703.73   46.70
   2  -1   9  677.53   46.70
  -2  -1  -9  669.43   46.70
   2  -1   9  622.64   46.80
  -2  -1  -9  722.13   46.80
  -2  -1  -9  617.84   46.70
  -2  -1  -9  646.54   46.80
  -2  -1  -9  675.73   46.60
  -2  -1  -9  712.53   47.10
   2   1   9  687.43   46.70
  -2   1  -9  726.93   46.70
  -2   1  -9  664.93   46.70
  -2   1  -9  670.53   46.70
   2   1   9  643.64   46.90
  -2   1  -9  617.14   46.70
  -2   1  -9  658.33   46.70
  -3  -1  -9    3.20    0.90
  -3  -1  -9    3.70    0.80
  -3  -1  -9    3.10    1.30
  -3  -1  -9    2.10    1.50
   3  -1   9    3.10    1.80
   3  -1   9    2.70    1.00
   3  -1   9    3.50    1.00
   3  -1   9    5.00    1.00
  -3  -1  -9    4.20    0.70
  -3  -1  -9    4.40    0.80
  -3  -1  -9    2.30    1.10
  -3  -1  -9    4.60    0.90
  -3  -1  -9    3.30    0.90
  -3  -1  -9    5.10    0.80
  -3  -1  -9    5.90    1.10
  -3   1  -9    3.80    0.90
   3   1   9    4.90    1.00
  -3   1  -9    4.10    0.90
   3   1   9    2.70    1.90
  -3   1  -9    5.40    1.00
  -3   1  -9    5.80    1.20
  -4  -1  -9  147.59   10.60
   4  -1   9  164.18   10.90
   4  -1   9  135.59   10.70
  -4  -1  -9  151.58   10.60
  -4  -1  -9  140.09   10.50
  -4  -1  -9  160.48   10.70
  -4  -1  -9  145.29   10.40
  -4  -1  -9  142.49   10.70
  -4  -1  -9  144.99   10.50
  -4  -1  -9  156.88   10.80
  -4  -1  -9  151.78   10.60
  -4  -1  -9  147.49   10.50
  -4  -1  -9  136.69   10.90
  -4   1  -9  146.49   10.70
  -4   1  -9  134.49   10.50
  -4   1  -9  145.89   10.50
  -4   1  -9  139.09   10.50
  -4   1  -9  154.88   10.60
   4   1   9  154.68   10.60
  -5  -1  -9   23.50    2.10
  -5  -1  -9   19.60    2.50
  -5  -1  -9   22.80    2.00
  -5  -1  -9   18.00    2.30
  -5  -1  -9   22.00    1.80
  -5  -1  -9   20.40    2.00
   5  -1   9   20.20    2.10
  -5  -1  -9   17.90    2.40
  -5  -1  -9   25.40    2.00
  -5  -1  -9   24.50    2.10
  -5   1  -9   25.90    2.00
  -5   1  -9   16.90    2.40
  -5   1  -9   18.40    2.20
  -5   1  -9   24.30    1.90
  -5   1  -9   23.30    2.10
  -5   1  -9   20.10    2.20
  -5   1  -9   21.00    2.00
   5   1   9   22.50    2.20
  -6  -1  -9   19.10    2.90
  -6  -1  -9   24.50    2.20
  -6  -1  -9   18.90    2.00
  -6  -1  -9   20.40    1.80
  -6  -1  -9   23.80    2.20
   6  -1   9   19.70    2.20
  -6  -1  -9   20.50    2.30
  -6  -1  -9   20.40    2.00
  -6  -1  -9   22.30    1.90
  -6  -1  -9   26.40    2.70
   6   1   9   15.90    2.20
  -6   1  -9   21.80    2.00
  -6   1  -9   20.40    3.00
  -6   1  -9   23.00    1.90
  -6   1  -9   20.80    2.10
  -6   1  -9   17.70    2.00
  -7  -1  -9  333.77   23.10
  -7  -1  -9  339.27   23.10
   7  -1   9  341.87   23.20
  -7  -1  -9  357.96   23.20
  -7  -1  -9  304.57   23.10
  -7  -1  -9  325.47   23.30
  -7  -1  -9  336.37   23.10
  -7  -1  -9  315.87   23.00
  -7  -1  -9  318.77   23.00
  -7  -1  -9  303.67   23.00
  -7  -1  -9  333.07   23.10
   7   1   9  329.07   23.10
  -7   1  -9  358.66   23.40
  -7   1  -9  321.87   23.10
  -7   1  -9  297.57   23.10
  -7   1  -9  333.27   23.10
  -7   1  -9  326.47   23.10
  -7   1  -9  332.07   23.20
  -7   1  -9  297.57   23.10
  -8  -1  -9   83.49    6.90
   8  -1   9   98.39    6.80
  -8  -1  -9   97.39    6.80
  -8  -1  -9   87.49    6.70
  -8  -1  -9   99.89    7.20
  -8  -1  -9   87.99    6.80
  -8  -1  -9  100.09    6.70
  -8  -1  -9   82.29    6.70
  -8  -1  -9  105.49    6.90
  -8  -1  -9   92.69    6.70
  -8  -1  -9   86.69    6.90
  -8  -1  -9   94.59    6.60
  -8   1  -9   87.49    6.80
  -8   1  -9   88.69    6.70
  -8   1  -9   82.69    6.70
  -8   1  -9   91.09    6.90
  -8   1  -9   96.59    7.10
  -8   1  -9   98.19    6.80
  -8   1  -9   96.59    6.70
   8   1   9   86.59    7.50
  -9  -1  -9   42.20    4.00
   9  -1   9   49.30    3.70
  -9  -1  -9   47.40    3.60
  -9  -1  -9   48.50    3.50
  -9  -1  -9   49.99    4.40
  -9  -1  -9   53.89    3.60
  -9  -1  -9   43.30    3.60
  -9   1  -9   40.40    3.60
  -9   1  -9   45.00    3.90
  -9   1  -9   48.70    3.60
  -9   1  -9   41.80    3.60
  -9   1  -9   44.40    3.50
  -9   1  -9   40.10    3.70
  -9   1  -9   55.29    3.60
 -14  -2   9    7.90    1.90
 -14  -2   9    3.70    1.40
 -14  -2   9    3.50    1.10
 -14   2   9    5.00    0.90
 -14   2   9    4.90    1.00
 -14   2   9    1.80    1.20
 -14   2   9    4.20    0.60
 -13  -2   9   -0.30    0.70
 -13  -2   9    1.00    0.80
 -13  -2   9    0.10    1.40
 -13  -2   9    1.40    1.10
 -13  -2   9   -0.70    1.40
 -13  -2   9    1.60    1.10
 -13   2   9   -0.80    1.70
 -13   2   9    0.10    1.00
 -13   2   9   -0.10    0.60
 -13   2   9    1.00    1.30
 -13   2   9    0.20    0.60
 -13   2   9    0.80    0.50
  12  -2  -9    2.20    0.90
 -12  -2   9    0.40    1.20
 -12  -2   9    1.80    0.80
 -12  -2   9    2.60    1.10
 -12  -2   9    1.10    1.10
 -12  -2   9    0.60    0.60
 -12  -2   9    1.60    1.30
 -12  -2   9    1.20    0.60
 -12  -2   9    0.80    1.70
 -12  -2   9    1.10    1.40
 -12  -2   9    0.20    1.00
 -12   2   9    1.50    0.90
 -12   2   9    1.40    1.10
 -12   2   9    0.80    0.70
 -12   2   9    0.40    0.60
 -12   2   9    1.80    0.60
 -12   2   9    2.20    1.30
 -11  -2   9   81.49    6.50
  11  -2  -9   94.59    6.40
 -11  -2   9   90.69    6.50
 -11  -2   9   91.79    6.50
 -11  -2   9   82.19    6.80
 -11  -2   9   89.89    6.60
 -11  -2   9   87.49    6.50
 -11  -2   9   80.49    6.70
 -11  -2   9   90.59    6.60
 -11  -2   9   83.09    6.60
 -11   2   9   87.69    6.80
 -11   2   9   86.59    6.50
 -11   2   9   85.59    6.50
 -11   2   9   87.99    6.40
 -11   2   9   96.89    6.60
 -11   2   9   88.49    6.30
 -10  -2   9  127.19    9.90
 -10  -2   9  129.29   10.30
 -10  -2   9  157.38   10.30
 -10  -2   9  126.19   10.00
 -10  -2   9  123.49   10.10
  10  -2  -9  152.88   10.00
 -10  -2   9  136.49   10.00
 -10  -2   9  140.69   10.10
 -10  -2   9  140.69   10.10
 -10  -2   9  142.59   10.00
 -10  -2   9  136.59   10.00
 -10  -2   9  135.39   10.10
 -10   2   9  145.89    9.90
 -10   2   9  151.38   10.00
 -10   2   9  137.79   10.00
 -10   2   9  150.78   10.10
 -10   2   9  132.19   10.00
 -10   2   9  136.99   10.20
  -9  -2   9  119.59    8.50
  -9  -2   9  118.09    8.50
  -9  -2   9   99.39    8.40
   9  -2  -9  122.99    8.40
  -9  -2   9  113.89    8.40
  -9  -2   9  119.19    8.60
  -9  -2   9  110.79    8.50
  -9  -2   9  125.89    8.40
  -9  -2   9  113.09    8.70
  -9  -2   9  110.99    8.30
  -9  -2   9  116.19    8.40
  -9   2   9  123.79    8.30
  -9   2   9  106.19    8.70
  -9   2   9  125.69    8.30
  -9   2   9  115.59    8.40
  -9   2   9  114.99    8.50
  -9   2   9  113.99    8.40
  -8  -2   9  498.45   34.30
  -8  -2   9  472.95   34.40
  -8  -2   9  508.05   34.10
  -8  -2   9  457.65   34.20
  -8  -2   9  485.45   34.10
  -8  -2   9  453.05   34.20
  -8  -2   9  500.25   34.20
  -8  -2   9  477.75   34.40
  -8  -2   9  489.65   34.10
  -8  -2   9  505.35   34.20
  -8  -2   9  521.85   34.30
  -8   2   9  495.65   34.20
  -8   2   9  481.85   34.10
  -8   2   9  461.15   34.20
  -8   2   9  507.15   34.20
  -8   2   9  498.95   34.20
  -8   2   9  431.86   34.10
  -8   2   9  529.95   34.10
  -8   2   9  437.46   34.30
   7  -2  -9 1102.29   78.19
  -7  -2   9 1135.69   78.29
  -7  -2   9  990.20   78.29
  -7  -2   9 1038.80   78.29
  -7  -2   9 1192.88   78.39
  -7  -2   9 1153.68   78.09
  -7  -2   9 1236.08   78.19
  -7  -2   9 1083.69   78.19
  -7  -2   9 1096.69   78.29
  -7  -2   9 1247.78   78.19
  -7  -2   9 1129.69   78.19
  -7  -2   9 1111.09   78.19
   7  -2  -9 1003.80   78.09
  -7  -2   9 1104.59   78.09
  -7   2   9 1230.08   78.19
  -7   2   9 1124.09   78.09
  -7   2   9  968.60   78.29
  -7   2   9 1030.10   78.19
  -7   2   9 1084.19   78.29
  -7   2   9 1216.98   78.19
  -6  -2   9  489.55   41.20
   6  -2  -9  540.95   41.30
  -6  -2   9  670.33   41.20
  -6  -2   9  618.64   41.30
  -6  -2   9  595.24   41.40
  -6  -2   9  563.34   41.50
  -6  -2   9  578.74   41.30
  -6  -2   9  511.25   41.30
  -6  -2   9  584.64   41.40
   6  -2  -9  550.14   41.20
  -6  -2   9  618.84   41.20
  -6  -2   9  627.14   41.30
  -6  -2   9  549.25   41.30
   6  -2  -9  637.54   41.30
  -6  -2   9  571.94   41.40
  -6   2   9  590.94   41.30
  -6   2   9  577.54   41.30
  -6   2   9  623.04   41.30
  -6   2   9  601.74   41.30
  -6   2   9  639.04   41.20
  -5  -2   9  369.16   27.20
  -5  -2   9  426.36   27.10
  -5  -2   9  400.36   27.20
   5  -2  -9  404.66   27.20
  -5  -2   9  345.97   27.20
  -5  -2   9  356.76   27.20
  -5  -2   9  333.77   27.20
  -5  -2   9  351.66   27.30
   5  -2  -9  392.66   27.10
  -5  -2   9  421.66   27.10
  -5  -2   9  379.96   27.20
  -5  -2   9  412.16   27.40
   5  -2  -9  334.77   27.10
  -5  -2   9  389.06   27.20
  -5   2   9  413.66   27.20
  -5   2   9  423.46   27.10
  -5   2   9  400.56   27.10
  -5   2   9  409.66   27.20
  -5   2   9  358.26   27.20
  -5   2   9  394.86   27.10
  -5   2   9  371.26   27.20
  -4  -2   9  651.43   44.90
  -4  -2   9  648.44   45.10
  -4  -2   9  558.94   44.90
  -4  -2   9  604.54   45.00
   4  -2  -9  581.54   44.90
  -4  -2   9  681.03   44.80
  -4  -2   9  698.53   44.90
  -4  -2   9  631.04   44.90
  -4  -2   9  651.83   44.90
   4  -2  -9  639.24   44.90
  -4  -2   9  626.24   44.90
   4  -2  -9  633.14   44.80
  -4  -2   9  638.74   45.00
  -4   2   9  656.23   44.90
  -4   2   9  708.93   44.90
   4   2  -9  581.44   44.80
  -4   2   9  656.63   44.90
  -4   2   9  610.64   45.00
  -4   2   9  673.13   45.00
  -4   2   9  648.84   45.00
  -3  -2   9  165.88   12.10
  -3  -2   9  169.78   12.30
   3  -2  -9  173.58   12.00
  -3  -2   9  180.48   12.10
  -3  -2   9  167.68   12.10
   3  -2  -9  173.58   12.00
   3  -2  -9  152.08   12.10
  -3  -2   9  167.28   12.10
   3  -2  -9  150.28   12.00
   3  -2  -9  143.59   12.00
  -3  -2   9  185.08   12.10
  -3  -2   9  173.98   12.10
  -3  -2   9  181.48   12.00
  -3  -2   9  173.98   12.10
  -3   2   9  181.68   12.10
  -3   2   9  177.38   12.10
  -3   2   9  172.88   12.20
  -3   2   9  181.28   12.00
  -3   2   9  163.38   12.00
  -3   2   9  157.08   12.00
  -3   2   9  181.78   12.10
   3   2  -9  149.19   12.00
  -3   2   9  174.98   12.20
  -2  -2   9   22.60    2.00
  -2  -2   9   24.10    2.50
   2  -2  -9   16.40    2.10
  -2  -2   9   23.00    2.50
   2  -2  -9   20.10    2.10
  -2  -2   9   23.60    2.20
  -2  -2   9   23.70    2.00
  -2  -2   9   19.30    2.00
   2  -2  -9   21.70    1.80
   2  -2  -9   21.60    1.80
  -2  -2   9   22.90    2.00
   2  -2  -9   22.70    1.70
  -2   2   9   26.10    2.50
  -2   2   9   24.10    1.80
  -2   2   9   23.80    2.00
  -2   2   9   20.80    2.10
  -2   2   9   17.50    2.40
  -1  -2   9    0.30    0.60
   1  -2  -9    0.10    0.60
  -1  -2   9   -0.20    0.90
  -1  -2   9    0.30    0.60
   1  -2  -9    0.40    0.60
  -1  -2   9    2.10    1.20
  -1  -2   9   -1.00    0.90
  -1  -2   9   -1.10    1.10
  -1  -2   9   -0.50    0.70
   1  -2  -9    0.40    0.40
   1  -2  -9    0.80    0.90
   1  -2  -9    0.00    0.50
   1  -2  -9   -0.40    0.90
   1  -2  -9    0.50    0.90
   1   2  -9    0.00    0.60
  -1   2   9    2.80    1.40
  -1   2   9    1.30    0.60
  -1   2   9    0.40    0.80
  -1   2   9   -0.10    0.70
   0  -2  -9  485.45   31.50
   0  -2  -9  463.45   31.40
   0  -2   9  453.65   31.50
   0  -2  -9  444.36   31.50
   0  -2  -9  406.56   31.40
   0  -2   9  423.56   31.50
   0  -2  -9  480.35   31.40
   0  -2  -9  444.46   31.50
   0  -2   9  404.76   31.50
   0  -2   9  460.45   31.40
   0  -2   9  387.06   31.50
   0  -2  -9  422.16   31.40
   0   2   9  494.45   31.60
   0   2  -9  436.66   31.40
   0   2   9  434.06   31.40
   0   2   9  474.95   31.40
   0   2  -9  461.15   31.50
   0   2   9  462.75   31.50
  -1  -2  -9  469.75   32.50
  -1  -2  -9  486.15   32.80
  -1  -2  -9  469.65   32.60
   1  -2   9  482.35   32.60
   1  -2   9  410.46   32.60
  -1  -2  -9  499.05   32.60
  -1  -2  -9  501.45   32.60
  -1  -2  -9  444.56   32.70
  -1  -2  -9  486.75   32.60
   1  -2   9  426.76   32.60
   1  -2   9  389.46   32.60
   1  -2   9  421.16   32.60
  -1   2  -9  489.65   32.50
   1   2   9  449.95   32.60
  -1   2  -9  470.55   32.60
   1   2   9  495.35   32.60
  -1   2  -9  436.36   32.60
   1   2   9  502.35   32.80
  -2  -2  -9  123.19    8.30
  -2  -2  -9  107.19    8.40
  -2  -2  -9  113.49    8.30
  -2  -2  -9  118.89    8.20
   2  -2   9  106.39    8.60
  -2  -2  -9  120.39    8.30
   2  -2   9  110.29    8.40
   2  -2   9   97.19    8.30
   2  -2   9  111.09    8.30
  -2  -2  -9  127.79    8.50
  -2  -2  -9  123.79    8.20
  -2  -2  -9  115.29    8.30
  -2  -2  -9  120.09    8.30
  -2   2  -9  124.59    8.20
  -2   2  -9  113.19    8.30
   2   2   9  119.69    8.30
  -2   2  -9  105.79    8.20
  -2   2  -9  109.29    8.20
  -3  -2  -9  510.75   35.40
  -3  -2  -9  550.84   35.50
  -3  -2  -9  498.35   35.30
  -3  -2  -9  445.56   35.60
  -3  -2  -9  514.45   35.60
  -3  -2  -9  494.65   35.40
  -3  -2  -9  506.25   35.40
   3  -2   9  529.45   35.50
  -3  -2  -9  472.25   35.40
  -3  -2  -9  571.94   35.50
  -3  -2  -9  501.75   35.40
   3  -2   9  493.95   35.50
  -3   2  -9  544.45   35.40
   3   2   9  497.55   35.40
   3   2   9  508.55   35.40
  -3   2  -9  453.55   35.40
  -3   2  -9  522.15   35.40
  -3   2  -9  435.06   35.30
  -4  -2  -9  469.85   33.80
  -4  -2  -9  481.55   33.90
  -4  -2  -9  438.76   33.90
  -4  -2  -9  463.55   33.80
   4  -2   9  491.35   33.90
  -4  -2  -9  477.25   33.80
  -4  -2  -9  462.15   33.90
   4  -2   9  497.85   33.90
  -4  -2  -9  448.26   33.90
  -4  -2  -9  532.75   34.00
  -4  -2  -9  519.75   34.00
  -4   2  -9  498.45   33.80
  -4   2  -9  484.35   33.90
  -4   2  -9  468.25   33.80
   4   2   9  478.15   33.90
  -5  -2  -9  306.97   22.30
   5  -2   9  327.07   22.40
  -5  -2  -9  304.57   22.40
  -5  -2  -9  309.77   22.50
  -5  -2  -9  334.87   22.60
  -5  -2  -9  306.97   22.50
  -5  -2  -9  300.87   22.30
  -5  -2  -9  344.07   22.40
  -5  -2  -9  338.07   22.40
  -5  -2  -9  350.46   23.00
   5   2   9  292.77   22.40
  -5   2  -9  318.87   22.30
  -5   2  -9  302.67   22.30
  -5   2  -9  292.77   22.50
  -6  -2  -9  213.68   14.50
  -6  -2  -9  222.38   14.60
  -6  -2  -9  223.98   14.60
  -6  -2  -9  194.98   14.50
  -6  -2  -9  210.78   14.40
   6  -2   9  203.48   14.60
  -6  -2  -9  194.68   14.60
  -6   2  -9  200.98   14.90
  -6   2  -9  195.28   14.50
  -6   2  -9  180.28   14.50
  -6   2  -9  201.38   14.50
  -6   2  -9  204.18   14.50
  -7  -2  -9   20.80    2.20
   7  -2   9   20.80    2.10
  -7  -2  -9   21.60    2.10
  -7  -2  -9   22.00    1.90
  -7  -2  -9   17.90    2.20
  -7  -2  -9   21.60    2.10
  -7  -2  -9   21.00    2.50
  -7  -2  -9   16.10    1.90
  -7  -2  -9   20.20    1.70
  -7  -2  -9   23.20    1.90
  -7   2  -9   19.40    1.90
  -7   2  -9   18.90    2.10
  -7   2  -9   18.00    1.90
  -7   2  -9   21.60    2.00
  -7   2  -9   15.80    2.50
  -8  -2  -9   40.30    2.90
  -8  -2  -9   38.90    3.00
  -8  -2  -9   37.00    2.80
  -8  -2  -9   35.90    3.40
  -8  -2  -9   36.10    3.20
  -8  -2  -9   40.40    2.90
   8  -2   9   36.10    3.10
  -8   2  -9   35.50    3.00
  -8   2  -9   39.40    3.00
  -8   2  -9   30.70    3.00
   8   2   9   43.60    3.20
  -8   2  -9   34.70    3.40
  -8   2  -9   32.60    3.00
  -9  -2  -9   39.20    2.80
  -9  -2  -9   36.80    3.60
   9  -2   9   31.20    2.90
  -9  -2  -9   39.00    2.70
  -9  -2  -9   34.80    2.80
  -9   2  -9   39.90    2.80
  -9   2  -9   29.90    2.90
  -9   2  -9   31.90    3.00
  -9   2  -9   30.50    2.80
  -9   2  -9   32.90    3.20
 -13  -3   9   25.90    2.40
 -13  -3   9   28.00    2.30
 -13   3   9   23.10    2.30
 -13   3   9   26.60    2.10
 -12  -3   9   36.40    3.50
 -12  -3   9   36.80    3.10
 -12  -3   9   38.30    3.00
  12  -3  -9   37.00    3.00
 -12   3   9   37.40    3.30
 -12   3   9   38.30    2.80
 -12   3   9   38.60    2.90
 -12   3   9   33.90    3.00
 -11  -3   9   21.20    2.30
 -11  -3   9   24.80    2.50
 -11  -3   9   22.10    2.60
  11  -3  -9   25.50    2.20
 -11  -3   9   29.30    2.80
 -11  -3   9   22.00    2.90
 -11   3   9   22.60    2.00
 -11   3   9   28.30    2.50
 -11   3   9   21.00    2.20
 -11   3   9   23.00    2.00
 -10  -3   9   60.49    5.20
  10  -3  -9   71.99    4.90
 -10  -3   9   60.39    5.40
 -10  -3   9   62.49    5.00
 -10  -3   9   66.29    4.90
 -10   3   9   60.09    5.00
 -10   3   9   65.39    4.80
 -10   3   9   69.09    4.90
 -10   3   9   71.99    5.10
  -9  -3   9   30.80    2.90
  -9  -3   9   32.10    3.10
  -9  -3   9   33.30    2.90
  -9  -3   9   33.00    2.70
   9  -3  -9   33.50    2.70
  -9  -3   9   36.60    3.20
  -9   3   9   34.40    3.00
  -9   3   9   32.30    2.60
  -9   3   9   28.70    2.80
  -9   3   9   30.00    2.50
  -8  -3   9    4.40    1.60
  -8  -3   9    4.90    1.30
  -8  -3   9    5.50    2.10
  -8  -3   9    6.20    1.30
  -8  -3   9    7.80    1.40
  -8  -3   9    3.20    1.30
   8  -3  -9    6.20    1.10
  -8  -3   9    5.00    1.00
  -8   3   9    4.80    1.10
  -8   3   9    3.10    1.00
  -8   3   9    4.50    1.10
   7  -3  -9    0.30    0.60
  -7  -3   9    1.50    0.90
  -7  -3   9    0.30    1.00
  -7  -3   9    0.70    0.90
  -7  -3   9    1.30    1.40
  -7  -3   9    2.00    1.00
  -7  -3   9    0.70    1.10
  -7  -3   9    1.30    1.20
  -7  -3   9    2.20    0.90
   7  -3  -9    1.20    0.90
  -7  -3   9    1.60    1.10
  -7  -3   9    0.20    0.80
  -7   3   9    0.90    0.70
  -7   3   9    1.70    0.90
  -7   3   9    1.10    0.80
  -6  -3   9    0.40    1.10
  -6  -3   9    0.90    0.90
  -6  -3   9   -0.30    0.80
  -6  -3   9    0.50    0.90
  -6  -3   9    0.70    0.90
  -6  -3   9    0.80    0.90
   6  -3  -9    1.10    0.60
  -6  -3   9    1.00    1.20
  -6  -3   9    1.00    0.90
  -6  -3   9    1.50    1.30
   6  -3  -9   -0.20    0.80
  -6  -3   9    2.70    1.20
  -6   3   9    1.30    0.70
   6   3  -9    0.50    1.00
  -6   3   9   -0.10    0.80
  -6   3   9    0.40    0.80
  -5  -3   9   53.29    4.10
  -5  -3   9   49.40    3.80
   5  -3  -9   51.59    3.70
  -5  -3   9   52.09    4.00
  -5  -3   9   51.39    4.00
  -5  -3   9   51.49    3.90
  -5  -3   9   46.00    4.10
  -5  -3   9   43.40    3.80
  -5  -3   9   47.30    4.10
  -5  -3   9   51.99    4.10
   5  -3  -9   52.99    3.80
   5   3  -9   40.90    3.90
  -5   3   9   55.19    3.80
  -5   3   9   49.90    4.00
  -4  -3   9   45.10    3.60
  -4  -3   9   44.40    3.40
  -4  -3   9   43.50    3.70
  -4  -3   9   48.10    3.70
   4  -3  -9   46.10    3.30
  -4  -3   9   45.10    3.50
  -4  -3   9   42.90    3.70
  -4  -3   9   37.00    3.60
   4  -3  -9   46.20    3.30
  -4   3   9   43.60    3.50
  -4   3   9   49.50    3.70
   4   3  -9   39.30    3.40
  -3  -3   9   75.49    5.60
  -3  -3   9   73.29    5.60
  -3  -3   9   81.39    5.80
   3  -3  -9   73.19    5.40
  -3  -3   9   67.79    5.70
  -3  -3   9   79.89    5.70
   3  -3  -9   72.19    5.70
   3  -3  -9   71.29    5.60
  -3   3   9   80.49    5.70
   3   3  -9   74.29    5.50
  -3   3   9   80.19    5.70
   2  -3  -9   54.69    4.20
  -2  -3   9   51.69    4.50
   2  -3  -9   56.79    4.30
  -2  -3   9   60.29    4.30
  -2  -3   9   51.39    4.30
   2  -3  -9   51.09    4.40
  -2  -3   9   55.39    4.40
   2  -3  -9   63.99    4.10
   2  -3  -9   57.59    4.30
  -2   3   9   60.89    4.50
   2   3  -9   54.89    4.40
  -2   3   9   60.59    4.40
   1  -3  -9   18.60    1.50
  -1  -3   9   17.90    1.80
   1  -3  -9   15.70    2.60
  -1  -3   9   20.00    1.90
  -1  -3   9   13.70    1.90
   1  -3  -9   22.10    1.90
   1  -3  -9   18.40    1.80
   1  -3  -9   15.10    1.90
   1  -3  -9   17.30    1.70
   1  -3  -9   19.00    1.60
  -1   3   9   19.50    2.00
   1   3  -9   14.00    1.60
  -1   3   9   19.30    2.00
   0  -3  -9  118.19   10.00
   0  -3   9  140.39   10.00
   0  -3  -9  147.79    9.90
   0  -3   9  119.49   10.00
   0  -3  -9  140.99   10.00
   0  -3  -9  141.39   10.10
   0  -3  -9  156.18   10.00
   0  -3  -9  140.39    9.90
   0  -3  -9  147.19   10.00
   0  -3   9  133.09   10.10
   0   3   9  150.08   10.10
   0   3  -9  135.09    9.90
  -1  -3  -9  123.09    8.90
   1  -3   9  117.79    8.90
   1  -3   9  108.49    8.90
   1  -3   9  119.09    8.80
  -1  -3  -9  121.09    8.80
  -1  -3  -9  126.99    8.70
  -1  -3  -9  121.29    8.90
  -1  -3  -9  115.49    8.90
  -1  -3  -9  123.39    8.80
  -1  -3  -9  127.99    8.80
  -1  -3  -9  129.39    8.70
  -1  -3  -9  126.29    8.70
   1   3   9  122.79    8.90
  -1   3  -9  110.09    8.80
   1   3   9  125.29    8.80
  -1   3  -9  124.59    8.70
  -2  -3  -9   53.49    4.40
  -2  -3  -9   55.49    4.80
  -2  -3  -9   59.39    4.40
   2  -3   9   61.59    4.60
  -2  -3  -9   58.39    4.60
  -2  -3  -9   60.99    4.20
   2  -3   9   47.20    4.40
   2  -3   9   54.89    4.40
  -2  -3  -9   63.09    4.30
  -2  -3  -9   60.19    4.20
  -2  -3  -9   50.69    4.60
  -2  -3  -9   59.69    4.30
  -2  -3  -9   65.89    4.50
  -2   3  -9   54.19    4.30
   2   3   9   58.49    4.50
  -2   3  -9   56.19    4.50
  -2   3  -9   57.89    4.30
  -3  -3  -9   22.00    2.00
  -3  -3  -9   14.80    2.20
  -3  -3  -9   18.30    1.90
  -3  -3  -9   14.60    2.20
  -3  -3  -9   17.00    2.20
   3  -3   9   17.30    2.30
  -3  -3  -9   18.30    1.60
   3  -3   9   15.30    2.10
  -3  -3  -9   21.30    1.80
  -3  -3  -9   20.90    1.80
   3  -3   9   15.40    2.00
  -3  -3  -9   21.00    1.60
  -3   3  -9   18.10    2.10
   3   3   9   19.70    2.00
  -3   3  -9   19.60    1.80
  -3   3  -9   21.00    1.80
  -4  -3  -9    1.20    1.40
  -4  -3  -9    1.50    0.60
  -4  -3  -9    0.80    0.70
  -4  -3  -9    2.40    0.90
   4  -3   9   -1.10    0.90
  -4  -3  -9    1.00    0.90
  -4  -3  -9   -1.40    1.80
   4  -3   9   -0.40    1.20
  -4  -3  -9   -0.10    0.50
  -4  -3  -9    1.00    0.70
   4  -3   9    0.50    1.20
   4   3   9    0.50    0.80
  -4   3  -9    0.60    1.20
  -4   3  -9    0.10    0.80
  -4   3  -9    1.20    0.90
  -5  -3  -9    2.30    0.70
  -5  -3  -9    2.50    1.00
   5  -3   9   -0.80    1.20
  -5  -3  -9    2.80    0.70
  -5  -3  -9    5.50    1.50
  -5   3  -9    1.80    1.20
  -5   3  -9    1.90    1.00
  -5   3  -9    0.90    0.80
  -6  -3  -9    6.50    1.00
  -6  -3  -9    3.40    1.10
   6  -3   9    2.50    1.30
  -6  -3  -9    4.70    1.00
   6  -3   9    4.00    1.30
  -6  -3  -9    7.90    1.90
  -6  -3  -9    6.50    0.90
  -6   3  -9    4.60    1.10
  -6   3  -9    5.60    1.20
   6   3   9    6.40    1.10
  -6   3  -9    5.30    1.00
  -6   3  -9    4.90    1.20
  -7  -3  -9   14.60    1.60
  -7  -3  -9   13.80    1.30
   7  -3   9    8.80    1.80
  -7  -3  -9    9.90    1.50
  -7  -3  -9   13.80    1.30
  -7  -3  -9   12.00    1.40
  -7  -3  -9   15.90    2.30
  -7   3  -9   10.90    1.50
  -7   3  -9    9.80    1.60
   7   3   9   14.10    1.90
 -11   4   9    2.40    1.70
 -10  -4   9   26.70    2.50
 -10  -4   9   27.80    2.60
  10  -4  -9   30.80    2.40
 -10   4   9   25.10    2.50
 -10   4   9   33.10    2.70
 -10   4   9   29.00    2.70
  -9  -4   9    3.40    1.30
  -9  -4   9    3.20    1.10
   9  -4  -9    3.10    0.70
  -9  -4   9    3.00    1.20
  -9  -4   9    1.70    1.00
  -9   4   9    3.00    1.00
  -9   4   9    2.80    0.80
  -9   4   9    3.70    1.30
  -9   4   9    2.70    1.00
  -8  -4   9   15.00    1.90
  -8  -4   9    9.30    2.00
  -8  -4   9   13.10    1.80
  -8  -4   9   17.00    2.30
  -8  -4   9   10.90    1.80
   8  -4  -9   15.20    1.50
  -8   4   9   10.20    1.80
  -8   4   9   16.10    1.90
  -8   4   9   13.70    1.60
  -8   4   9   12.80    1.70
  -7  -4   9   37.90    3.70
  -7  -4   9   43.30    3.70
  -7  -4   9   49.60    3.70
   7  -4  -9   50.29    3.40
  -7  -4   9   40.60    3.70
  -7  -4   9   47.90    3.90
   7   4  -9   37.80    3.50
  -7   4   9   46.50    3.60
  -7   4   9   44.80    3.60
  -6  -4   9   -0.10    0.90
   6  -4  -9    0.00    0.60
  -6  -4   9    0.80    1.30
  -6  -4   9    1.80    1.70
  -6  -4   9    0.40    1.20
  -6  -4   9   -0.90    1.40
  -6  -4   9   -0.50    1.50
   6   4  -9    1.90    1.00
  -6   4   9    0.00    0.90
  -6   4   9    2.30    1.10
  -5  -4   9    5.60    1.10
  -5  -4   9    5.30    1.20
   5  -4  -9    4.90    1.00
   5  -4  -9    5.80    1.00
  -5  -4   9    4.70    1.50
  -5  -4   9    5.40    1.30
  -5  -4   9    3.40    1.00
  -5   4   9    3.50    1.00
   5   4  -9    4.60    1.00
   4  -4  -9    3.10    0.70
  -4  -4   9    3.60    1.00
  -4  -4   9    3.30    1.00
  -4  -4   9    3.60    0.90
   4  -4  -9    3.20    0.80
  -4  -4   9    3.70    1.10
  -4  -4   9    5.00    1.20
  -4   4   9    2.90    1.00
   4   4  -9    3.80    0.90
  -3  -4   9   13.10    1.80
  -3  -4   9   10.90    1.50
   3  -4  -9   10.80    1.30
  -3  -4   9   13.40    1.80
   3  -4  -9   12.80    2.10
   3  -4  -9   11.50    1.30
  -3  -4   9   12.20    1.80
  -3  -4   9   14.50    1.60
   3   4  -9   11.20    1.50
  -3   4   9   13.50    1.80
  -2  -4   9    5.50    1.20
   2  -4  -9    7.10    1.00
  -2  -4   9    6.20    1.50
   2  -4  -9    6.90    1.30
   2  -4  -9    4.00    0.80
  -2  -4   9    5.40    1.30
   2  -4  -9    5.00    1.30
  -2  -4   9    8.30    1.30
   2   4  -9    5.30    0.90
  -2   4   9    3.30    1.10
  -1  -4   9   -0.20    0.80
   1  -4  -9    0.90    1.00
  -1  -4   9   -0.10    1.20
   1  -4  -9    0.70    0.60
   1  -4  -9    0.30    1.70
   1  -4  -9    0.00    1.00
  -1  -4   9    0.70    0.80
   1  -4  -9    0.80    1.00
   1  -4  -9   -0.40    0.80
  -1  -4   9    0.50    1.10
  -1   4   9   -0.30    0.90
   1   4  -9   -0.30    0.80
   0  -4  -9   25.30    2.00
   0  -4   9   26.40    2.30
   0  -4  -9   22.80    2.70
   0  -4  -9   25.30    2.30
   0  -4   9   21.70    2.50
   0  -4  -9   20.00    2.50
   0  -4  -9   27.90    2.30
   0  -4  -9   27.10    2.20
   0  -4   9   21.20    2.40
   0   4  -9   21.80    2.10
   0   4   9   26.20    2.40
  -1  -4  -9    0.30    0.60
   1  -4   9    0.20    1.10
   1  -4   9   -0.80    0.80
  -1  -4  -9    0.70    0.80
  -1  -4  -9    1.70    1.50
   1  -4   9    2.70    2.90
   1  -4   9    0.20    0.90
  -1  -4  -9   -0.90    1.50
  -1  -4  -9   -0.70    0.80
   1  -4   9   -1.20    1.40
  -1  -4  -9    0.50    0.80
  -1  -4  -9    0.70    0.90
  -1   4  -9    1.60    0.80
   1   4   9    0.50    0.90
   2  -4   9   10.10    1.90
   2  -4   9    8.70    1.60
  -2  -4  -9   13.90    1.40
  -2  -4  -9   14.20    2.00
   2  -4   9    9.20    1.80
  -2  -4  -9   13.40    1.50
  -2  -4  -9   13.30    1.20
  -2  -4  -9   11.20    1.40
  -2  -4  -9    9.10    1.90
   2   4   9   11.70    2.10
  -2   4  -9    8.20    1.50
  -2   4  -9   11.70    1.40
  -3  -4  -9   35.70    3.70
  -3  -4  -9   29.00    2.90
   3  -4   9   31.00    2.90
  -3  -4  -9   39.60    2.80
   3  -4   9   28.00    3.10
  -3  -4  -9   38.70    2.80
   3  -4   9   31.10    3.20
  -3  -4  -9   38.10    3.10
  -3  -4  -9   33.70    3.00
   3   4   9   37.50    3.00
  -3   4  -9   36.80    2.90
  -3   4  -9   33.70    2.80
  -4  -4  -9   22.40    1.80
  -4  -4  -9   19.30    2.00
  -4  -4  -9   16.50    2.50
  -4  -4  -9   20.40    1.70
  -4   4  -9   14.70    1.80
  -5  -4  -9    5.20    0.90
   5  -4   9    4.10    1.40
  -5   4  -9    3.60    0.90
   5   4   9    8.40    1.70
  -6  -5   9    0.60    0.80
  -6  -5   9    1.00    1.00
  -6   5   9   -0.90    1.00
  -5  -5   9    1.50    0.80
   5  -5  -9    2.10    0.60
  -5  -5   9    1.70    0.90
  -5   5   9    0.60    1.00
  -5   5   9    0.40    0.90
   5   5  -9    2.80    1.10
  -4  -5   9   59.39    4.50
  -4  -5   9   64.29    4.60
   4  -5  -9   63.39    4.40
   4  -5  -9   58.29    4.40
  -4   5   9   53.19    4.50
  -4   5   9   56.49    4.60
   4   5  -9   57.59    4.40
  -3  -5   9   48.30    4.20
   3  -5  -9   53.39    3.60
   3   5  -9   44.50    3.60
  -3   5   9   40.00    3.70
  -2  -5   9   36.10    3.70
   2  -5  -9   44.10    3.20
  -2  -5   9   42.80    3.70
  -2  -5   9   42.70    3.30
   2   5  -9   36.80    3.20
   1  -5  -9   63.09    4.30
   1  -5  -9   48.80    4.50
  -1  -5   9   58.09    4.40
  -1  -5   9   56.69    4.40
   1  -5  -9   58.09    4.50
  -1  -5   9   60.09    4.40
   1   5  -9   59.39    4.30
   0  -5  -9   21.20    1.70
   0  -5   9   13.70    2.10
   0  -5   9   20.00    2.00
   0  -5   9   16.40    1.90
   0  -5  -9   17.20    2.00
   0  -5  -9   21.40    2.00
   0  -5   9   16.00    1.80
   0  -5  -9   19.10    2.00
   0  -5  -9   18.10    1.70
   0   5  -9   15.20    1.70
 -15   0  10   28.40    2.40
 -15   0  10   26.40    2.50
 -15   0  10   30.40    2.80
 -15   0  10   36.20    2.80
 -14   0  10    0.30    0.50
 -14   0  10    0.20    0.80
 -14   0  10    0.50    0.60
 -14   0  10    0.70    0.90
 -14   0  10    2.10    1.10
 -13   0  10   48.10    3.80
 -13   0  10   52.49    4.20
 -13   0  10   50.09    4.10
 -13   0  10   51.69    3.90
 -13   0  10   46.30    3.70
 -12   0  10  419.86   30.10
 -12   0  10  421.86   30.00
 -12   0  10  452.05   30.30
 -12   0  10  431.86   30.00
 -12   0  10  386.76   30.20
 -12   0  10  443.96   30.10
 -12   0  10  425.56   30.10
  11   0 -10  379.36   28.80
 -11   0  10  415.46   28.80
 -11   0  10  391.06   29.00
 -11   0  10  444.16   29.10
 -11   0  10  412.46   28.80
 -11   0  10  446.06   29.00
 -11   0  10  345.17   28.80
 -11   0  10  447.06   29.00
 -11   0  10  404.56   28.90
 -10   0  10  331.97   23.50
 -10   0  10  347.27   23.40
 -10   0  10  340.57   23.40
 -10   0  10  298.97   23.60
 -10   0  10  300.87   23.40
 -10   0  10  355.76   23.70
 -10   0  10  350.56   23.60
 -10   0  10  332.67   23.50
  -9   0  10  790.82   54.89
  -9   0  10  778.32   54.99
  -9   0  10  828.52   55.19
  -9   0  10  787.62   54.99
  -9   0  10  752.92   54.89
  -9   0  10  788.02   54.99
  -9   0  10  792.12   55.09
   9   0 -10  792.72   54.89
  -9   0  10  729.33   54.89
  -8   0  10  587.64   38.80
  -8   0  10  567.04   38.60
  -8   0  10  537.15   38.60
  -8   0  10  521.15   38.70
  -8   0  10  525.45   38.60
   8   0 -10  536.95   38.60
  -8   0  10  571.14   38.80
  -7   0  10  687.53   49.70
  -7   0  10  739.03   49.80
  -7   0  10  672.53   49.60
  -7   0  10  702.93   49.60
  -7   0  10  669.63   49.60
   7   0 -10  696.23   49.60
  -7   0  10  743.33   49.60
  -7   0  10  597.24   49.60
  -7   0  10  738.33   49.60
  -7   0  10  777.32   49.80
  -7   0  10  746.53   49.60
  -6   0  10  138.79    9.10
  -6   0  10  116.79    9.20
  -6   0  10  126.49    9.10
   6   0 -10  118.99    9.00
  -6   0  10  133.69    9.30
  -6   0  10  127.89    9.40
  -6   0  10  128.19    9.10
  -6   0  10  129.69    9.10
  -6   0  10  130.99    9.10
  -6   0  10  113.49    9.10
  -6   0  10  132.09    9.10
   5   0 -10   58.99    4.10
  -5   0  10   58.99    4.50
  -5   0  10   52.59    4.30
  -5   0  10   56.79    4.20
  -5   0  10   56.19    4.20
  -5   0  10   55.89    4.20
  -5   0  10   58.29    4.10
  -5   0  10   59.19    4.30
  -5   0  10   58.89    4.60
  -5   0  10   47.80    4.20
  -4   0  10   23.20    1.80
  -4   0  10   20.30    1.80
  -4   0  10   21.30    1.70
  -4   0  10   17.00    1.90
  -4   0  10   18.40    1.90
  -4   0  10   21.20    1.80
  -4   0  10   19.10    1.70
   4   0 -10   20.20    1.70
   4   0 -10   19.30    1.70
  -4   0  10   21.50    2.20
  -4   0  10   19.30    1.90
  -3   0  10  615.04   46.90
   3   0 -10  666.03   46.80
  -3   0  10  669.23   46.80
   3   0 -10  709.33   46.80
   3   0 -10  600.54   46.80
  -3   0  10  670.13   47.00
   3   0 -10  664.53   46.80
  -3   0  10  725.13   46.90
  -3   0  10  688.83   46.90
  -3   0  10  644.64   46.90
  -3   0  10  667.53   46.90
  -3   0  10  672.93   46.90
   3   0 -10  685.13   46.90
  -2   0  10  278.97   19.30
   2   0 -10  264.57   19.30
   2   0 -10  287.67   19.30
   2   0 -10  293.77   19.30
  -2   0  10  274.07   19.30
  -2   0  10  270.37   19.30
   2   0 -10  270.07   19.30
   2   0 -10  287.67   19.30
  -2   0  10  254.77   19.30
  -2   0  10  248.68   19.40
  -2   0  10  291.67   19.40
  -2   0  10  264.17   19.30
   1   0 -10  752.12   52.49
  -1   0  10  742.03   52.59
  -1   0  10  712.03   52.49
   1   0 -10  731.73   52.49
  -1   0  10  713.23   52.49
  -1   0  10  802.92   52.49
   1   0 -10  705.13   52.49
   1   0 -10  862.61   52.49
   1   0 -10  744.33   52.49
  -1   0  10  715.53   52.49
   0   0 -10 1369.46   92.49
   0   0  10 1273.87   92.49
   0   0 -10 1363.06   92.49
   0   0  10 1244.88   92.59
   0   0  10 1329.27   92.69
   0   0  10 1228.68   92.49
   0   0 -10 1356.76   92.49
   0   0 -10 1394.86   92.59
  -1   0 -10  881.31   66.09
  -1   0 -10  978.90   66.09
  -1   0 -10 1004.90   66.09
   1   0  10  955.00   66.09
   1   0  10  975.20   66.19
  -1   0 -10  904.21   66.09
   1   0  10  892.01   66.09
  -1   0 -10  944.31   66.09
  -2   0 -10  507.95   37.80
  -2   0 -10  574.54   37.70
   2   0  10  459.45   37.80
  -2   0 -10  531.65   37.80
   2   0  10  581.64   37.80
  -2   0 -10  576.54   37.80
  -2   0 -10  573.44   37.80
  -2   0 -10  514.15   37.70
   2   0  10  505.75   37.90
  -2   0 -10  583.94   37.80
  -2   0 -10  502.25   37.80
  -3   0 -10   27.20    2.00
   3   0  10   27.00    2.20
   3   0  10   21.90    3.50
  -3   0 -10   25.00    2.10
  -3   0 -10   22.90    2.00
  -3   0 -10   23.90    2.00
  -3   0 -10   20.90    2.20
  -3   0 -10   21.50    2.00
  -3   0 -10   22.80    2.20
  -3   0 -10   18.80    2.10
  -3   0 -10   24.60    2.60
  -4   0 -10 1051.69   67.49
  -4   0 -10  947.91   66.79
  -4   0 -10  912.31   66.79
  -4   0 -10  951.50   66.69
  -4   0 -10  990.10   66.79
  -4   0 -10  898.41   66.79
   4   0  10  932.01   66.79
  -4   0 -10  962.70   66.79
  -4   0 -10 1004.40   66.99
  -4   0 -10  862.11   66.79
  -5   0 -10  169.88   12.50
  -5   0 -10  173.68   12.20
  -5   0 -10  158.48   12.10
  -5   0 -10  152.98   12.00
  -5   0 -10  172.18   12.10
  -5   0 -10  165.98   12.00
  -5   0 -10  164.18   12.00
  -5   0 -10  174.68   12.40
  -5   0 -10  173.38   12.10
  -5   0 -10  183.38   12.30
   5   0  10  178.38   12.10
  -5   0 -10  160.08   12.10
  -5   0 -10  170.08   12.00
  -6   0 -10   52.79    3.70
  -6   0 -10   45.10    3.90
  -6   0 -10   52.49    3.90
  -6   0 -10   55.79    3.80
  -6   0 -10   44.40    3.90
  -6   0 -10   53.49    3.70
  -6   0 -10   49.30    4.40
  -6   0 -10   49.70    4.00
  -6   0 -10   43.70    3.80
  -6   0 -10   40.80    4.90
  -6   0 -10   47.60    3.80
  -6   0 -10   44.80    3.80
   6   0  10   49.70    3.90
  -7   0 -10    8.80    1.70
  -7   0 -10    9.40    1.40
  -7   0 -10    9.90    2.80
  -7   0 -10   12.60    1.60
  -7   0 -10    6.80    1.40
   7   0  10    8.50    1.60
  -7   0 -10    9.50    1.40
  -7   0 -10    8.70    1.30
  -7   0 -10    5.60    1.50
  -7   0 -10   10.10    1.40
  -7   0 -10    7.00    1.60
  -7   0 -10    6.80    1.20
  -8   0 -10   59.49    4.50
  -8   0 -10   54.09    4.50
  -8   0 -10   52.69    4.80
   8   0  10   63.59    4.60
  -8   0 -10   57.99    4.40
  -8   0 -10   64.69    4.60
  -8   0 -10   57.39    4.50
  -8   0 -10   66.19    4.50
  -9   0 -10   35.20    3.20
  -9   0 -10   43.30    3.10
  -9   0 -10   46.30    3.20
  -9   0 -10   34.60    3.50
  -9   0 -10   37.50    3.20
   9   0  10   39.20    3.30
 -15  -1  10   42.30    4.60
 -15  -1  10   44.30    3.80
 -15  -1  10   51.89    3.90
 -15   1  10   50.49    3.90
 -15   1  10   47.70    3.60
 -15   1  10   45.00    3.50
 -14  -1  10   61.09    4.90
 -14  -1  10   66.19    5.40
 -14  -1  10   72.89    5.20
 -14  -1  10   67.29    5.00
 -14   1  10   63.39    4.90
 -14   1  10   55.99    4.90
 -14   1  10   68.29    4.80
 -14   1  10   64.89    4.70
 -14   1  10   66.99    5.10
 -13  -1  10   31.30    3.50
 -13  -1  10   35.00    3.10
 -13  -1  10   26.40    2.60
 -13  -1  10   38.00    2.90
 -13  -1  10   31.80    2.80
 -13   1  10   32.60    2.50
 -13   1  10   31.50    2.80
 -13   1  10   30.70    2.80
 -13   1  10   34.30    2.60
 -13   1  10   35.00    3.10
 -12  -1  10    7.40    1.60
 -12  -1  10    4.70    1.20
 -12  -1  10    4.80    0.80
 -12  -1  10    6.90    1.40
 -12  -1  10    7.00    1.30
 -12  -1  10    4.70    0.90
 -12  -1  10    6.30    1.30
 -12  -1  10    2.10    1.50
  12  -1 -10    4.30    1.00
 -12   1  10    4.80    1.10
 -12   1  10    5.70    1.30
 -12   1  10    3.00    0.60
 -12   1  10    4.70    0.80
 -12   1  10    4.60    0.80
 -12   1  10    3.70    1.10
 -11  -1  10    7.40    1.10
 -11  -1  10    4.60    1.50
 -11  -1  10    5.60    1.30
 -11  -1  10    5.60    1.50
 -11  -1  10    7.00    1.20
 -11  -1  10    8.30    1.30
  11  -1 -10    6.90    1.30
 -11  -1  10    8.90    1.30
 -11   1  10    5.60    1.30
 -11   1  10    6.60    1.20
 -11   1  10    8.90    1.10
 -11   1  10    7.20    1.20
 -10  -1  10    0.00    0.90
 -10  -1  10    0.30    0.90
 -10  -1  10    0.10    0.90
 -10  -1  10    0.80    0.70
 -10  -1  10    0.30    0.80
 -10  -1  10    0.30    0.60
 -10  -1  10    0.30    1.10
  10  -1 -10    0.50    0.80
 -10  -1  10   -0.40    1.00
 -10  -1  10    0.20    0.50
 -10   1  10    0.90    1.00
 -10   1  10   -1.00    0.70
 -10   1  10    0.00    0.50
 -10   1  10    0.00    0.60
 -10   1  10    1.50    1.10
 -10   1  10    0.70    0.70
  -9  -1  10  113.49    8.20
  -9  -1  10  110.09    8.20
  -9  -1  10  116.39    8.20
  -9  -1  10  125.19    8.50
  -9  -1  10  120.89    8.30
   9  -1 -10  121.09    8.20
  -9  -1  10  108.99    8.10
  -9  -1  10  112.59    8.40
  -9  -1  10  117.59    8.20
  -9  -1  10  105.69    8.10
  -9   1  10  106.09    8.20
  -9   1  10  115.19    8.10
  -9   1  10  105.39    8.10
   9   1 -10  103.19    8.10
  -9   1  10  120.79    8.30
  -9   1  10  109.09    8.20
  -9   1  10  117.49    8.20
  -9   1  10  111.79    8.40
  -8  -1  10  126.49    9.20
  -8  -1  10  133.29    9.10
  -8  -1  10  109.39    9.20
  -8  -1  10  132.49    9.40
  -8  -1  10  125.59    9.30
  -8  -1  10  137.49    9.50
  -8  -1  10  127.39    9.20
  -8  -1  10  124.69    9.10
   8  -1 -10  120.89    9.10
  -8  -1  10  131.09    9.20
  -8  -1  10  132.09    9.20
  -8   1  10  122.89    9.20
  -8   1  10  133.59    9.20
  -8   1  10  136.39    9.20
  -8   1  10  125.39    9.20
  -8   1  10  136.59    9.10
  -8   1  10  121.59    9.40
  -8   1  10  132.79    9.30
   8   1 -10  118.39    9.10
  -7  -1  10   57.49    4.30
  -7  -1  10   56.79    4.40
   7  -1 -10   50.99    4.50
  -7  -1  10   65.29    4.70
  -7  -1  10   56.09    4.30
  -7  -1  10   60.99    4.30
  -7  -1  10   52.09    4.40
  -7  -1  10   65.09    4.40
   7  -1 -10   60.49    4.30
  -7  -1  10   61.39    4.30
  -7  -1  10   61.89    4.70
  -7  -1  10   61.39    4.40
  -7  -1  10   51.89    4.40
  -7  -1  10   50.09    4.60
  -7   1  10   64.39    4.30
  -7   1  10   57.49    4.40
   7   1 -10   55.49    4.30
  -7   1  10   65.39    4.30
  -7   1  10   56.39    4.40
  -7   1  10   50.09    4.90
  -7   1  10   52.49    4.40
  -7   1  10   59.19    4.40
  -7   1  10   60.39    4.30
  -7   1  10   58.19    4.70
  -6  -1  10  455.75   31.10
  -6  -1  10  441.26   31.10
  -6  -1  10  425.36   31.10
   6  -1 -10  462.75   31.00
  -6  -1  10  450.25   31.00
  -6  -1  10  443.66   31.30
  -6  -1  10  458.95   31.30
  -6  -1  10  475.85   31.10
  -6  -1  10  464.95   31.00
  -6  -1  10  440.86   31.10
  -6  -1  10  458.85   31.10
   6  -1 -10  394.76   31.00
  -6  -1  10  428.06   31.10
  -6  -1  10  434.26   31.10
  -6   1  10  459.75   31.00
  -6   1  10  442.06   31.10
  -6   1  10  441.36   31.00
  -6   1  10  439.76   31.10
  -6   1  10  445.96   31.20
  -6   1  10  450.45   31.10
  -6   1  10  425.86   31.10
  -6   1  10  399.66   31.10
  -6   1  10  458.65   31.30
  -6   1  10  418.56   31.10
  -6   1  10  414.96   31.00
  -5  -1  10  128.79    8.20
  -5  -1  10  110.79    8.40
  -5  -1  10  116.89    8.30
  -5  -1  10  108.79    8.20
  -5  -1  10  116.49    8.20
   5  -1 -10  115.59    8.10
  -5  -1  10  124.29    8.20
  -5  -1  10  117.59    8.20
  -5  -1  10  116.89    8.40
  -5  -1  10  114.19    8.20
  -5  -1  10  113.49    8.20
  -5  -1  10  106.89    8.30
   5  -1 -10  105.79    8.20
  -5   1  10  100.79    8.20
  -5   1  10  109.19    8.30
  -5   1  10  120.69    8.20
  -5   1  10  117.39    8.20
  -5   1  10  113.79    8.20
  -5   1  10  120.79    8.20
  -5   1  10  110.09    8.20
  -5   1  10  114.29    8.40
  -5   1  10  110.19    8.20
   4  -1 -10  460.65   34.90
  -4  -1  10  472.95   34.80
   4  -1 -10  457.75   34.80
  -4  -1  10  482.25   34.90
  -4  -1  10  535.65   35.10
  -4  -1  10  509.35   34.90
  -4  -1  10  452.95   34.90
  -4  -1  10  491.05   34.90
  -4  -1  10  548.45   34.80
   4  -1 -10  542.05   34.80
  -4  -1  10  488.55   35.00
  -4  -1  10  534.25   34.90
  -4  -1  10  491.15   34.90
  -4   1  10  504.75   34.90
   4   1 -10  420.06   34.80
  -4   1  10  474.95   34.80
  -4   1  10  481.15   34.80
  -4   1  10  526.85   34.90
  -4   1  10  504.65   34.90
  -4   1  10  512.05   34.90
  -4   1  10  494.45   35.00
  -4   1  10  521.95   34.90
  -3  -1  10  745.73   47.10
  -3  -1  10  653.13   47.10
  -3  -1  10  692.23   47.00
  -3  -1  10  667.63   47.20
  -3  -1  10  644.14   47.10
  -3  -1  10  693.73   47.10
   3  -1 -10  633.94   47.00
   3  -1 -10  711.13   47.00
   3  -1 -10  618.34   47.00
  -3  -1  10  662.43   47.10
   3   1 -10  574.14   47.00
  -3   1  10  694.83   47.00
  -3   1  10  682.43   47.20
   3   1 -10  682.53   47.10
  -3   1  10  698.23   47.10
  -3   1  10  715.23   47.10
  -3   1  10  611.24   47.10
  -3   1  10  688.33   47.10
   2  -1 -10  187.38   13.40
   2  -1 -10  189.28   13.40
  -2  -1  10  180.78   13.40
  -2  -1  10  181.18   13.40
  -2  -1  10  189.08   13.50
  -2  -1  10  187.08   13.40
   2  -1 -10  197.98   13.30
  -2  -1  10  205.88   13.40
   2  -1 -10  188.68   13.30
   2  -1 -10  179.88   13.40
   2   1 -10  196.78   13.40
   2   1 -10  190.38   13.40
  -2   1  10  184.28   13.40
  -2   1  10  201.58   13.40
   2   1 -10  186.78   13.30
  -2   1  10  191.68   13.40
  -2   1  10  198.38   13.50
  -2   1  10  171.88   13.40
  -2   1  10  183.88   13.40
   1  -1 -10  145.19   10.60
   1  -1 -10  131.99   10.60
  -1  -1  10  142.99   10.60
  -1  -1  10  161.68   10.60
  -1  -1  10  140.79   10.60
   1  -1 -10  164.18   10.50
   1  -1 -10  162.58   10.60
  -1  -1  10  146.49   10.70
   1  -1 -10  146.49   10.50
  -1  -1  10  161.88   10.60
  -1   1  10  153.78   10.60
   1   1 -10  153.48   10.50
  -1   1  10  141.19   10.60
   1   1 -10  133.49   10.60
  -1   1  10  137.19   10.50
  -1   1  10  156.08   10.80
  -1   1  10  154.98   10.60
   1   1 -10  150.18   10.60
   1   1 -10  138.59   10.50
   0  -1 -10    3.20    0.90
   0  -1 -10    2.40    0.80
   0  -1 -10    1.50    0.90
   0  -1 -10    2.00    0.60
   0  -1 -10    2.90    0.70
   0  -1  10    1.40    0.80
   0  -1  10    1.30    1.20
   0  -1 -10    2.50    0.70
   0  -1  10    2.40    0.70
   0  -1  10    1.40    0.90
   0   1  10    2.40    0.80
   0   1  10    1.30    1.40
   0   1 -10    0.60    0.70
   0   1 -10    1.50    0.70
   0   1  10    2.80    0.80
   0   1  10    2.20    0.70
   0   1 -10    2.30    0.80
  -1  -1 -10  212.38   14.10
  -1  -1 -10  206.18   14.00
   1  -1  10  198.78   14.00
  -1  -1 -10  207.58   14.00
  -1  -1 -10  210.78   14.00
  -1  -1 -10  172.68   14.00
   1  -1  10  168.88   14.00
   1  -1  10  192.08   14.20
  -1  -1 -10  203.68   13.90
  -1   1 -10  207.78   14.00
  -1   1 -10  225.48   14.00
   1   1  10  189.58   14.20
  -1   1 -10  189.38   14.00
   1   1  10  182.28   14.00
  -1   1 -10  183.98   14.00
   1   1  10  206.78   14.00
  -2  -1 -10   64.99    5.70
  -2  -1 -10   85.49    6.00
  -2  -1 -10   75.09    5.60
  -2  -1 -10   79.09    6.40
  -2  -1 -10   82.29    5.70
  -2  -1 -10   78.09    5.70
   2  -1  10   72.09    6.20
  -2  -1 -10   79.59    5.70
   2  -1  10   82.29    5.80
   2  -1  10   77.19    6.00
  -2  -1 -10   84.09    5.80
  -2   1 -10   88.09    5.70
  -2   1 -10   79.99    5.70
   2   1  10   72.69    6.40
  -2   1 -10   75.69    5.70
  -2   1 -10   77.29    5.70
   2   1  10   81.59    5.80
  -3  -1 -10  290.37   23.10
  -3  -1 -10  314.77   23.10
  -3  -1 -10  331.37   23.20
  -3  -1 -10  313.77   23.10
  -3  -1 -10  361.36   23.30
   3  -1  10  329.87   23.30
  -3  -1 -10  347.37   23.20
  -3  -1 -10  349.07   23.20
  -3   1 -10  327.07   23.20
  -3   1 -10  339.67   23.30
   3   1  10  354.56   23.30
  -3   1 -10  315.67   23.20
  -3   1 -10  302.17   23.10
  -3   1 -10  286.47   23.20
  -3   1 -10  359.96   23.20
  -4  -1 -10   29.80    2.40
  -4  -1 -10   23.30    2.30
   4  -1  10   21.50    2.70
  -4  -1 -10   28.70    2.70
  -4  -1 -10   27.90    2.20
  -4  -1 -10   31.30    2.30
  -4  -1 -10   27.60    3.50
   4  -1  10   26.70    2.50
  -4  -1 -10   25.00    2.20
  -4  -1 -10   29.90    2.40
  -4  -1 -10   22.40    2.70
  -4  -1 -10   30.30    2.40
  -4   1 -10   27.50    2.30
   4   1  10   28.50    2.40
  -4   1 -10   23.00    2.80
  -4   1 -10   28.60    2.40
  -4   1 -10   27.10    2.40
  -5  -1 -10  311.77   20.40
  -5  -1 -10  314.67   20.30
  -5  -1 -10  281.27   20.60
  -5  -1 -10  301.87   20.30
  -5  -1 -10  297.47   20.30
  -5  -1 -10  281.37   20.10
  -5  -1 -10  255.27   20.10
   5  -1  10  298.37   20.30
  -5  -1 -10  289.57   20.20
  -5  -1 -10  280.77   20.10
  -5  -1 -10  279.47   20.20
  -5   1 -10  270.07   20.20
  -5   1 -10  300.47   20.30
  -5   1 -10  286.17   20.20
  -5   1 -10  315.17   20.30
  -5   1 -10  270.57   20.20
  -5   1 -10  249.38   20.20
  -5   1 -10  243.58   20.20
   5   1  10  295.27   20.20
  -6  -1 -10   29.20    2.20
  -6  -1 -10   20.60    2.40
  -6  -1 -10   20.60    2.50
  -6  -1 -10   28.10    2.40
   6  -1  10   25.80    2.40
  -6  -1 -10   27.10    2.30
  -6  -1 -10   22.30    2.20
  -6  -1 -10   27.60    3.30
  -6  -1 -10   25.50    2.20
  -6  -1 -10   22.50    2.20
  -6  -1 -10   27.10    2.00
  -6  -1 -10   20.10    2.50
  -6   1 -10   19.70    2.30
  -6   1 -10   27.40    2.20
  -6   1 -10   20.40    2.30
  -6   1 -10   26.60    2.20
  -6   1 -10   24.20    2.20
   6   1  10   22.70    2.40
  -6   1 -10   24.30    3.00
  -7  -1 -10   79.69    5.30
  -7  -1 -10   78.49    5.50
  -7  -1 -10   63.49    5.50
  -7  -1 -10   74.09    6.00
  -7  -1 -10   65.59    5.30
  -7  -1 -10   68.19    5.40
   7  -1  10   72.89    5.40
  -7  -1 -10   67.79    5.40
  -7  -1 -10   74.79    5.20
  -7  -1 -10   77.99    5.40
   7   1  10   68.39    5.40
  -7   1 -10   65.39    5.50
  -7   1 -10   68.69    5.40
  -7   1 -10   70.49    5.80
  -7   1 -10   74.89    5.30
  -7   1 -10   76.99    5.30
  -7   1 -10   64.89    5.40
  -7   1 -10   76.79    5.30
  -8  -1 -10   95.99    6.00
  -8  -1 -10   85.29    6.00
   8  -1  10   84.09    6.10
  -8  -1 -10   85.69    5.90
  -8  -1 -10   75.09    6.10
  -8  -1 -10   73.69    6.00
  -8  -1 -10   93.19    7.30
  -8   1 -10   92.99    6.00
   8   1  10   79.39    6.20
  -8   1 -10   76.79    6.10
  -8   1 -10   75.19    6.00
  -8   1 -10   75.49    6.50
  -8   1 -10   86.29    6.00
  -8   1 -10   82.09    6.00
  -8   1 -10   70.29    6.10
  -8   1 -10   83.49    6.30
  -9  -1 -10    3.00    0.90
  -9  -1 -10    3.00    0.80
   9  -1  10    1.90    1.10
  -9   1 -10    3.70    1.40
  -9   1 -10    3.70    0.90
  -9   1 -10    3.10    0.90
 -14  -2  10   -0.10    1.00
 -14  -2  10    0.50    1.90
 -14  -2  10   -0.80    2.40
 -14   2  10   -0.20    1.40
 -14   2  10   -0.50    0.60
 -14   2  10    0.10    1.00
 -14   2  10    0.10    0.50
 -14   2  10    0.80    1.00
 -13  -2  10   -0.40    1.00
 -13  -2  10    0.50    1.10
 -13  -2  10    0.80    0.80
 -13  -2  10   -0.80    1.40
 -13  -2  10   -0.20    1.30
 -13   2  10   -0.10    1.20
 -13   2  10    0.80    1.10
 -13   2  10    0.20    0.60
 -13   2  10   -0.40    0.50
 -13   2  10   -0.30    0.70
 -13   2  10    0.50    1.00
 -12  -2  10   25.80    2.80
 -12  -2  10   25.30    2.70
 -12  -2  10   18.20    2.30
 -12  -2  10   25.10    2.20
 -12  -2  10   25.10    2.30
 -12  -2  10   21.60    2.40
  12  -2 -10   21.80    2.20
 -12  -2  10   25.20    2.50
 -12   2  10   23.60    2.40
 -12   2  10   27.20    1.90
 -12   2  10   25.10    2.00
 -12   2  10   18.90    2.70
 -12   2  10   18.80    2.20
 -12   2  10   23.40    2.40
 -11  -2  10    4.80    1.00
  11  -2 -10    7.80    1.30
 -11  -2  10    7.70    1.50
 -11  -2  10    9.20    1.50
 -11  -2  10    8.40    1.60
 -11  -2  10    5.40    1.30
 -11  -2  10    7.60    1.30
 -11   2  10    8.10    1.60
 -11   2  10    7.60    1.20
 -11   2  10    7.70    1.00
 -11   2  10    5.10    1.40
 -11   2  10    6.10    1.20
 -10  -2  10    3.40    1.10
 -10  -2  10    0.80    0.80
 -10  -2  10    2.50    0.90
 -10  -2  10    2.70    1.20
  10  -2 -10    1.20    0.70
 -10  -2  10    3.00    1.80
 -10  -2  10    1.40    0.60
 -10  -2  10    1.00    0.80
 -10   2  10    1.50    0.60
 -10   2  10    2.60    1.00
 -10   2  10    2.20    1.10
 -10   2  10    3.40    1.80
 -10   2  10    2.30    1.00
  10   2 -10    1.90    1.10
 -10   2  10    1.80    1.20
 -10   2  10    2.70    1.30
  -9  -2  10    5.60    1.10
  -9  -2  10    6.00    1.10
  -9  -2  10    4.30    1.20
  -9  -2  10    3.80    0.90
  -9  -2  10    6.40    1.20
  -9  -2  10    4.60    0.90
  -9  -2  10    3.50    0.70
  -9  -2  10    8.40    1.60
   9  -2 -10    5.60    1.10
  -9  -2  10    6.70    1.20
  -9   2  10    3.30    1.00
  -9   2  10    6.50    1.10
  -9   2  10    4.10    1.40
  -9   2  10    5.00    0.80
  -9   2  10    7.10    1.30
  -9   2  10    6.40    1.10
  -8  -2  10    2.20    0.90
  -8  -2  10    1.50    1.10
  -8  -2  10    1.30    1.00
  -8  -2  10    1.40    0.90
  -8  -2  10    0.90    0.90
  -8  -2  10    0.70    0.80
  -8  -2  10    1.20    0.50
  -8  -2  10    1.20    0.80
  -8  -2  10    0.40    0.70
   8  -2 -10    0.00    1.00
  -8  -2  10    2.20    1.10
   8  -2 -10    1.20    0.70
  -8   2  10    1.30    0.70
  -8   2  10    1.00    0.50
  -8   2  10    2.60    1.10
  -8   2  10    1.40    0.70
  -8   2  10    1.70    0.70
  -8   2  10    1.60    1.40
  -8   2  10    0.70    1.00
   7  -2 -10    3.30    0.80
  -7  -2  10    4.00    0.90
  -7  -2  10    4.00    1.00
   7  -2 -10    1.60    0.80
  -7  -2  10    4.10    1.00
  -7  -2  10    2.60    0.90
  -7  -2  10    4.20    1.00
  -7  -2  10    4.00    1.10
  -7  -2  10    4.10    0.90
  -7  -2  10    1.80    1.20
  -7  -2  10    2.90    0.80
  -7   2  10    3.20    0.70
  -7   2  10    2.90    0.80
  -7   2  10    1.60    1.00
  -7   2  10    2.90    0.70
  -7   2  10    3.40    1.20
  -6  -2  10   11.60    1.40
  -6  -2  10    9.50    1.40
   6  -2 -10   12.30    1.30
  -6  -2  10    9.80    1.40
  -6  -2  10    8.90    1.50
  -6  -2  10   11.40    1.50
   6  -2 -10    9.60    1.10
  -6  -2  10    9.50    1.80
  -6  -2  10   12.50    1.40
  -6  -2  10    9.90    1.30
  -6  -2  10    8.50    1.90
  -6  -2  10    7.10    1.80
   6  -2 -10    5.20    2.00
  -6   2  10    8.30    1.30
  -6   2  10   11.70    1.20
  -6   2  10   13.80    1.60
  -6   2  10   12.70    1.30
  -5  -2  10    7.00    1.60
   5  -2 -10    8.50    1.10
  -5  -2  10    7.40    1.20
  -5  -2  10    5.40    1.30
  -5  -2  10    7.90    1.30
  -5  -2  10    5.80    1.00
  -5  -2  10    8.50    1.20
   5  -2 -10    4.60    1.40
  -5  -2  10    8.20    1.10
  -5  -2  10    6.80    1.40
  -5  -2  10    7.00    1.40
  -5  -2  10   10.30    1.80
   5  -2 -10    9.20    0.90
  -5   2  10    6.80    1.20
  -5   2  10    6.80    2.00
   5   2 -10    4.40    1.00
  -5   2  10    5.00    1.10
  -5   2  10    7.10    1.20
  -5   2  10    7.40    1.40
  -5   2  10    7.70    1.40
  -4  -2  10    8.40    1.70
  -4  -2  10    8.70    1.70
  -4  -2  10   11.30    1.50
  -4  -2  10   10.80    1.90
  -4  -2  10    9.70    1.50
  -4  -2  10   11.90    1.30
  -4  -2  10   10.70    1.30
   4  -2 -10   11.20    1.10
  -4  -2  10   11.70    1.40
   4  -2 -10   13.10    1.30
  -4  -2  10   11.30    2.00
  -4  -2  10   12.10    1.40
  -4   2  10   13.00    1.20
  -4   2  10   10.80    1.40
  -4   2  10    8.70    1.90
  -4   2  10   13.20    1.50
  -4   2  10   11.10    1.50
  -4   2  10   11.60    1.40
  -4   2  10   11.40    1.60
   3  -2 -10   46.90    3.30
  -3  -2  10   41.70    3.70
  -3  -2  10   48.40    3.90
   3  -2 -10   43.60    3.40
  -3  -2  10   44.00    3.40
  -3  -2  10   44.90    3.70
  -3  -2  10   44.40    3.50
  -3  -2  10   41.30    3.50
  -3  -2  10   43.40    3.50
   3  -2 -10   44.90    3.40
  -3  -2  10   44.80    3.50
  -3   2  10   47.40    3.50
  -3   2  10   49.90    3.40
  -3   2  10   47.50    3.50
  -3   2  10   44.60    3.60
  -3   2  10   47.30    4.00
   3   2 -10   37.10    3.40
   2  -2 -10  173.68   14.10
   2  -2 -10  204.18   14.00
   2  -2 -10  183.48   14.10
  -2  -2  10  197.18   14.10
  -2  -2  10  205.68   14.10
  -2  -2  10  203.08   14.10
  -2  -2  10  197.98   14.20
   2  -2 -10  208.38   14.00
   2  -2 -10  184.28   14.10
  -2  -2  10  199.38   14.10
  -2  -2  10  201.88   14.30
   2  -2 -10  182.78   14.00
  -2  -2  10  188.18   14.10
  -2  -2  10  209.38   14.10
   2   2 -10  187.68   14.00
  -2   2  10  206.68   14.10
  -2   2  10  208.48   14.10
  -2   2  10  208.08   14.20
  -2   2  10  230.38   14.40
   2   2 -10  191.18   14.00
   1  -2 -10    1.70    0.90
  -1  -2  10    1.00    1.30
   1  -2 -10    2.40    0.70
   1  -2 -10    2.40    1.20
  -1  -2  10    1.40    0.80
   1  -2 -10    3.10    0.70
   1  -2 -10    1.60    0.60
  -1  -2  10    1.00    0.70
  -1  -2  10    3.40    1.00
   1  -2 -10    2.10    0.50
  -1  -2  10    2.60    1.50
   1  -2 -10    1.70    1.00
  -1  -2  10    2.20    1.10
  -1   2  10    1.70    0.90
  -1   2  10    0.30    0.80
  -1   2  10    2.60    1.80
   1   2 -10    1.80    0.80
  -1   2  10    2.10    0.70
   1   2 -10    2.00    0.90
   0  -2  10    3.10    1.70
   0  -2  10    0.40    0.70
   0  -2 -10    2.00    0.90
   0  -2 -10    1.50    0.50
   0  -2 -10    1.60    0.80
   0  -2  10   -0.30    0.80
   0  -2  10   -0.20    1.00
   0  -2 -10    2.00    0.70
   0  -2  10    0.70    1.30
   0  -2 -10    1.30    0.80
   0  -2 -10    0.60    0.70
   0  -2 -10    0.70    0.70
   0   2  10    1.20    0.80
   0   2 -10    0.60    0.70
   0   2 -10    0.20    1.20
   0   2 -10    0.70    1.10
   0   2  10    3.00    0.90
   1  -2  10  275.17   19.70
  -1  -2 -10  283.27   19.50
   1  -2  10  262.47   19.60
  -1  -2 -10  278.57   19.60
  -1  -2 -10  284.17   19.60
  -1  -2 -10  289.27   19.70
  -1  -2 -10  263.87   19.60
  -1  -2 -10  284.57   19.60
   1  -2  10  283.57   19.60
   1   2  10  302.87   19.60
  -1   2 -10  276.47   19.60
  -1   2 -10  272.77   19.60
  -1   2 -10  255.67   19.60
  -1   2 -10  271.67   19.60
   1   2  10  273.27   19.70
  -2  -2 -10   15.50    1.40
  -2  -2 -10   17.90    1.40
  -2  -2 -10   16.40    2.00
  -2  -2 -10   13.40    1.80
   2  -2  10   13.80    1.80
  -2  -2 -10   16.50    1.60
  -2  -2 -10   16.40    1.80
   2  -2  10   15.40    1.90
  -2  -2 -10   16.20    1.60
  -2  -2 -10   15.40    1.60
   2  -2  10   12.60    1.70
   2   2  10   14.30    1.70
   2   2  10   16.40    1.70
  -2   2 -10   14.90    1.60
  -2   2 -10   12.50    1.60
  -2   2 -10   15.90    1.70
   3  -2  10   18.40    2.00
   3  -2  10   14.40    2.00
  -3  -2 -10   20.40    1.80
  -3  -2 -10   18.20    2.20
   3  -2  10   17.90    2.20
  -3  -2 -10   20.50    1.70
  -3  -2 -10   21.40    2.00
  -3  -2 -10   19.50    1.80
  -3  -2 -10   21.40    1.60
  -3  -2 -10   19.20    1.90
   3   2  10   20.20    2.00
   3   2  10   18.80    2.00
  -3   2 -10   20.20    1.80
  -3   2 -10   18.20    1.90
  -3   2 -10   18.00    1.80
   4  -2  10    3.00    1.10
  -4  -2 -10    1.80    1.00
  -4  -2 -10    1.20    1.20
  -4  -2 -10    2.60    0.70
  -4  -2 -10    0.40    0.70
   4  -2  10    2.90    1.00
  -4  -2 -10    3.30    0.90
  -4  -2 -10    3.00    0.90
  -4  -2 -10    3.10    1.90
  -4  -2 -10    2.40    0.80
   4  -2  10    1.60    1.20
  -4   2 -10    2.80    1.50
   4   2  10    2.50    0.80
  -4   2 -10    2.20    0.80
   4   2  10    1.50    1.20
  -4   2 -10    2.00    1.00
  -5  -2 -10    2.90    1.80
  -5  -2 -10    4.60    0.90
  -5  -2 -10    3.30    0.70
   5  -2  10    2.90    1.20
  -5  -2 -10    2.40    1.20
  -5  -2 -10    3.10    0.80
  -5  -2 -10    0.50    1.00
  -5   2 -10    2.80    0.80
  -5   2 -10    3.90    1.00
   5   2  10    2.10    1.40
  -5   2 -10    2.80    1.10
  -6  -2 -10   -0.30    0.90
  -6  -2 -10    1.40    0.70
  -6  -2 -10    0.90    1.00
   6  -2  10    0.40    1.10
  -6  -2 -10    1.80    1.00
  -6  -2 -10    1.00    0.70
  -6  -2 -10    2.70    1.90
  -6  -2 -10    2.50    1.30
  -6   2 -10   -0.20    1.00
  -6   2 -10    1.00    1.00
  -6   2 -10    1.60    0.80
  -6   2 -10    0.60    0.90
   6   2  10    2.40    0.90
  -7  -2 -10   21.70    1.80
  -7  -2 -10   23.30    1.90
  -7  -2 -10   20.60    2.10
   7  -2  10   18.30    2.10
  -7  -2 -10   21.40    2.10
  -7  -2 -10   19.40    2.20
  -7   2 -10   18.60    1.90
  -7   2 -10   20.20    2.00
  -7   2 -10   17.60    2.00
   8  -2  10    1.90    1.10
  -8  -2 -10    2.50    0.70
  -8  -2 -10    1.30    0.60
   8   2  10    1.80    1.00
  -8   2 -10    2.30    0.80
  -8   2 -10    1.90    0.90
  -8   2 -10    2.30    1.00
  -8   2 -10    1.70    1.20
 -13  -3  10   18.90    1.90
 -13  -3  10   18.00    1.90
 -13  -3  10   22.30    2.30
 -13   3  10   19.80    1.60
 -13   3  10   14.10    1.90
 -12  -3  10    5.80    1.50
 -12  -3  10    8.10    1.40
  12  -3 -10    6.50    1.40
 -12  -3  10    7.60    1.50
 -12  -3  10    8.30    1.40
 -12   3  10    7.60    1.00
 -12   3  10    9.10    1.80
 -12   3  10    7.40    1.10
 -11  -3  10    4.70    1.40
 -11  -3  10    3.80    1.20
 -11  -3  10    3.50    1.00
 -11  -3  10    3.30    1.10
  11  -3 -10    5.60    1.10
 -11   3  10    5.30    1.40
 -11   3  10    2.00    1.10
 -11   3  10    2.90    0.70
 -11   3  10    3.50    0.80
 -11   3  10    3.70    1.00
 -10  -3  10    1.20    1.20
 -10  -3  10    1.90    1.10
  10  -3 -10    0.20    0.70
 -10  -3  10    1.20    0.90
 -10  -3  10    1.90    1.10
 -10   3  10    1.70    0.70
 -10   3  10    0.80    0.90
 -10   3  10    2.20    1.30
 -10   3  10    1.00    1.00
 -10   3  10    0.70    0.60
  -9  -3  10   28.90    2.60
   9  -3 -10   32.70    2.50
  -9  -3  10   29.90    2.70
  -9  -3  10   31.10    2.90
  -9  -3  10   27.20    2.50
  -9   3  10   27.30    2.60
  -9   3  10   32.00    2.80
  -9   3  10   30.60    2.40
  -9   3  10   26.70    2.30
  -8  -3  10  109.29    7.80
  -8  -3  10  101.19    7.70
  -8  -3  10  109.19    7.70
  -8  -3  10   89.39    7.60
  -8  -3  10  100.69    7.80
  -8  -3  10  118.29    7.90
   8  -3 -10  115.89    7.60
  -8   3  10   89.69    7.70
  -8   3  10   99.69    7.70
  -8   3  10  106.79    7.50
  -8   3  10  106.29    7.80
  -8   3  10  116.29    7.60
  -7  -3  10   88.39    7.60
  -7  -3  10   93.99    7.40
  -7  -3  10  105.79    7.50
  -7  -3  10  113.59    7.70
   7  -3 -10   99.09    7.30
   7  -3 -10  104.09    7.40
  -7  -3  10  103.09    7.50
  -7  -3  10   95.79    7.30
  -7  -3  10  108.39    7.40
  -7  -3  10  103.19    7.60
  -7   3  10   95.79    7.50
  -7   3  10  114.49    7.40
  -7   3  10   98.79    7.30
  -6  -3  10  205.48   14.60
  -6  -3  10  202.38   14.60
  -6  -3  10  205.28   14.60
  -6  -3  10  215.18   14.70
   6  -3 -10  204.18   14.40
  -6  -3  10  207.98   14.60
  -6  -3  10  208.58   14.40
  -6  -3  10  218.48   14.50
   6  -3 -10  206.18   14.40
  -6  -3  10  201.98   14.50
  -6  -3  10  175.38   14.50
  -6   3  10  208.38   14.60
  -6   3  10  186.78   14.40
  -5  -3  10  344.17   23.50
  -5  -3  10  339.17   23.70
  -5  -3  10  324.27   23.70
   5  -3 -10  330.27   23.50
  -5  -3  10  362.66   23.80
  -5  -3  10  312.67   23.70
  -5  -3  10  348.27   23.60
   5  -3 -10  313.67   23.60
  -5  -3  10  350.66   23.70
  -5  -3  10  286.17   23.60
  -5   3  10  341.47   23.70
  -5   3  10  359.96   23.60
  -4  -3  10   96.09    6.70
  -4  -3  10   93.69    6.60
   4  -3 -10   93.99    6.60
  -4  -3  10   88.19    6.80
   4  -3 -10   86.79    6.60
  -4  -3  10  105.19    7.00
  -4  -3  10   94.49    6.80
  -4  -3  10   87.49    6.90
  -4  -3  10   93.79    6.90
  -4   3  10   95.59    6.90
   4   3 -10   77.59    6.70
  -3  -3  10  478.15   35.10
  -3  -3  10  470.95   35.20
  -3  -3  10  496.35   35.20
   3  -3 -10  462.35   35.00
   3  -3 -10  508.45   35.00
  -3  -3  10  519.55   35.10
   3  -3 -10  501.65   35.20
  -3   3  10  543.45   35.20
  -3   3  10  543.55   35.20
   3   3 -10  461.05   35.00
   2  -3 -10  142.69   11.40
   2  -3 -10  166.38   11.30
   2  -3 -10  146.19   11.30
   2  -3 -10  157.68   11.40
  -2  -3  10  146.49   11.50
  -2  -3  10  163.08   11.50
   2  -3 -10  171.78   11.40
  -2  -3  10  146.19   11.40
  -2  -3  10  171.38   11.40
   2   3 -10  145.39   11.30
  -2   3  10  177.08   11.50
  -2   3  10  175.38   11.40
  -1  -3  10   60.19    4.70
   1  -3 -10   66.29    4.60
  -1  -3  10   56.39    4.70
   1  -3 -10   61.89    4.50
   1  -3 -10   55.59    4.50
   1  -3 -10   68.29    4.70
   1  -3 -10   65.79    4.50
   1  -3 -10   56.89    4.70
  -1  -3  10   66.19    4.70
  -1   3  10   63.49    4.70
   1   3 -10   58.39    4.60
  -1   3  10   60.09    4.80
   0  -3 -10  121.19    8.70
   0  -3 -10  130.39    8.70
   0  -3 -10  122.59    8.60
   0  -3 -10  106.99    8.80
   0  -3  10  114.49    8.80
   0  -3 -10  130.29    8.60
   0  -3 -10  137.29    8.70
   0  -3 -10  122.39    8.50
   0  -3  10  104.89    9.10
   0  -3  10  102.99    8.70
   0  -3  10  114.19    8.70
   0   3 -10  119.29    8.60
   0   3 -10  116.49    8.60
   0   3  10  130.69    8.70
   0   3  10  123.89    8.80
  -1  -3 -10   -0.30    0.60
  -1  -3 -10    0.70    0.70
  -1  -3 -10   -0.30    0.80
   1  -3  10   -0.80    0.80
  -1  -3 -10    0.50    1.20
   1  -3  10    0.80    2.00
  -1  -3 -10    0.00    0.50
   1  -3  10    0.40    1.20
  -1  -3 -10    0.30    0.80
   1   3  10   -0.10    0.80
   1   3  10   -0.30    1.30
  -1   3 -10    0.20    0.70
  -1   3 -10    0.00    0.90
  -2  -3 -10   72.69    5.50
  -2  -3 -10   76.49    5.40
  -2  -3 -10   77.09    5.30
   2  -3  10   64.59    5.50
  -2  -3 -10   73.29    5.70
  -2  -3 -10   77.99    5.40
  -2  -3 -10   77.39    5.40
  -2  -3 -10   84.19    5.50
   2  -3  10   73.49    5.60
  -2  -3 -10   77.19    5.30
   2  -3  10   63.19    5.50
  -2  -3 -10   65.89    5.60
  -2   3 -10   76.19    5.40
  -2   3 -10   67.89    5.40
  -2   3 -10   67.19    5.60
   2   3  10   72.99    5.50
  -3  -3 -10   36.90    2.70
  -3  -3 -10   39.30    2.80
  -3  -3 -10   38.60    2.70
   3  -3  10   29.40    3.10
  -3  -3 -10   34.00    3.20
  -3  -3 -10   38.00    2.80
   3  -3  10   32.40    3.30
   3  -3  10   29.50    2.90
  -3  -3 -10   31.10    3.10
  -3  -3 -10   36.80    3.00
   3   3  10   40.30    3.10
  -3   3 -10   37.30    2.90
  -3   3 -10   33.10    3.10
  -3   3 -10   34.70    2.80
  -4  -3 -10  127.79    9.30
  -4  -3 -10  130.89    9.50
  -4  -3 -10  122.59    9.30
  -4  -3 -10  141.49    9.50
   4  -3  10  113.99    9.50
   4  -3  10  116.09    9.60
  -4  -3 -10  143.09    9.50
  -4  -3 -10  135.09    9.40
  -4  -3 -10  140.19    9.40
  -4  -3 -10  143.49    9.60
  -4   3 -10  132.09    9.50
  -4   3 -10  116.49    9.40
   4   3  10  139.19    9.50
  -4   3 -10  129.69    9.40
  -5  -3 -10   40.50    3.40
  -5  -3 -10   43.90    3.20
  -5  -3 -10   42.80    3.10
  -5  -3 -10   39.50    3.40
  -5  -3 -10   45.40    3.20
  -5  -3 -10   45.10    3.40
   5  -3  10   35.00    3.50
  -5   3 -10   42.40    3.40
  -5   3 -10   40.40    3.30
  -6  -3 -10   96.29    6.20
  -6  -3 -10   85.89    6.10
  -6  -3 -10   90.69    6.30
   6  -3  10   69.99    6.30
  -6  -3 -10   91.69    6.20
  -6   3 -10   81.09    6.20
  -6   3 -10   77.89    6.50
  -6   3 -10   78.19    6.20
   6   3  10   92.79    6.40
  10  -4 -10   37.80    2.90
 -10  -4  10   40.70    3.30
 -10  -4  10   34.80    3.20
 -10  -4  10   35.50    3.70
 -10   4  10   34.70    2.80
 -10   4  10   29.20    2.90
 -10   4  10   39.40    3.10
  -9  -4  10   50.29    3.90
  -9  -4  10   41.00    3.70
   9  -4 -10   49.40    3.50
  -9  -4  10   45.10    3.60
  -9   4  10   44.20    3.50
  -9   4  10   37.50    3.50
  -9   4  10   49.80    3.70
  -8  -4  10   83.99    6.10
  -8  -4  10   72.69    5.90
   8  -4 -10   83.39    5.70
  -8  -4  10   76.09    5.90
  -8   4  10   82.79    5.90
  -8   4  10   63.19    5.80
  -8   4  10   82.09    5.80
  -8   4  10   85.49    5.90
  -7  -4  10   32.50    2.80
  -7  -4  10   31.90    2.70
  -7  -4  10   29.30    2.80
  -7  -4  10   25.20    2.80
  -7  -4  10   34.00    3.00
  -7   4  10   31.20    2.70
  -7   4  10   29.90    2.70
  -7   4  10   25.70    2.70
   6  -4 -10   29.10    2.20
  -6  -4  10   27.60    2.80
  -6  -4  10   29.30    2.50
  -6  -4  10   26.00    2.60
  -6  -4  10   24.90    2.50
  -6  -4  10   28.80    3.30
  -6   4  10   23.80    2.70
   6   4 -10   20.90    2.40
  -5  -4  10    0.40    0.90
  -5  -4  10    0.30    1.40
  -5  -4  10    0.60    1.10
  -5  -4  10    0.00    1.00
  -5  -4  10   -0.50    0.80
   5  -4 -10   -0.20    0.60
  -5   4  10    0.10    0.90
  -4  -4  10   37.60    2.80
   4  -4 -10   30.70    2.70
  -4  -4  10   36.10    3.00
  -4  -4  10   35.10    3.00
  -4  -4  10   34.30    2.90
   4  -4 -10   34.20    2.70
  -4   4  10   35.30    3.00
   4   4 -10   27.70    2.70
   3  -4 -10    1.50    0.70
  -3  -4  10   -0.30    0.80
  -3  -4  10    1.30    1.10
   3  -4 -10    1.00    0.60
  -3  -4  10    0.90    0.80
  -3  -4  10    0.50    1.20
  -3  -4  10    0.60    0.80
  -3   4  10   -0.60    1.00
   3   4 -10    1.20    0.80
  -2  -4  10   32.70    3.00
  -2  -4  10   30.80    2.90
   2  -4 -10   33.00    2.70
   2  -4 -10   31.50    3.00
  -2  -4  10   32.50    2.90
  -2  -4  10   37.20    2.80
   2  -4 -10   35.20    2.50
   2  -4 -10   34.20    3.10
  -2   4  10   31.90    2.90
   2   4 -10   27.90    2.70
  -1  -4  10   55.19    4.70
   1  -4 -10   58.79    4.60
   1  -4 -10   64.29    4.60
  -1  -4  10   59.79    4.70
   1  -4 -10   62.69    4.30
  -1  -4  10   56.49    4.60
   1  -4 -10   55.49    4.70
  -1  -4  10   64.79    4.60
   1  -4 -10   63.09    4.50
  -1   4  10   57.89    4.70
   1   4 -10   55.39    4.40
   0  -4  10  197.28   13.50
   0  -4  10  180.88   13.50
   0  -4 -10  192.48   13.60
   0  -4 -10  202.58   13.40
   0  -4 -10  192.88   13.50
   0  -4 -10  206.18   13.50
   0  -4  10  182.98   13.50
   0  -4 -10  200.58   13.30
   0   4 -10  178.08   13.40
   0   4  10  178.98   13.60
   0   4 -10  158.98   13.40
   1  -4  10  135.09    9.90
  -1  -4 -10  145.19    9.90
  -1  -4 -10  139.99   10.00
  -1  -4 -10  140.69    9.80
   1  -4  10  136.29   10.00
   1  -4  10  127.49    9.90
  -1  -4 -10  150.38    9.80
   1   4  10  136.59   10.00
  -1   4 -10  134.59    9.80
  -1   4 -10  123.29    9.80
  -2  -4 -10    3.20    0.90
   2  -4  10    2.10    1.00
   2  -4  10    2.70    0.90
  -2  -4 -10    5.00    0.90
  -2  -4 -10    4.00    0.80
  -2  -4 -10    2.90    1.00
  -2  -4 -10    4.70    1.00
   2  -4  10    2.40    1.20
  -2   4 -10    3.30    1.10
   2   4  10    3.70    1.00
  -2   4 -10    0.20    1.50
  -2   4 -10    3.30    0.80
   3  -4  10   91.99    7.20
  -3  -4 -10  107.19    7.20
  -3  -4 -10  109.09    7.10
   3  -4  10   89.79    7.10
  -3  -4 -10   86.19    7.20
   3  -4  10   92.89    7.30
  -3  -4 -10  113.69    7.10
  -3   4 -10   93.09    7.10
  -3   4 -10   99.59    7.10
   3   4  10   95.49    7.20
  -4  -4 -10   40.90    3.30
   4  -4  10   37.30    3.50
  -4  -4 -10   43.30    3.20
  -4  -4 -10   49.10    3.20
  -4   4 -10   38.20    3.20
   4   4  10   40.20    3.50
   3  -5 -10    3.50    1.20
   3   5 -10    0.70    1.70
 -15   0  11    0.10    1.10
 -15   0  11   -0.70    0.90
 -15   0  11   -0.50    0.60
 -15   0  11    0.00    0.80
 -14   0  11   -0.70    0.70
 -14   0  11   -0.10    0.50
 -14   0  11   -1.40    0.90
 -14   0  11    1.10    1.00
 -14   0  11   -1.10    0.60
 -13   0  11    0.00    0.70
 -13   0  11   -0.60    1.00
 -13   0  11   -0.40    0.60
 -13   0  11    0.90    1.00
 -13   0  11    0.40    0.50
  12   0 -11    0.80    1.00
 -12   0  11    1.10    1.10
 -12   0  11    0.30    1.10
 -12   0  11   -0.30    0.70
 -12   0  11   -0.90    1.70
 -12   0  11   -0.80    1.00
 -12   0  11   -0.40    0.50
 -12   0  11   -0.50    0.90
 -12   0  11    0.00    0.60
 -11   0  11   -1.10    1.10
 -11   0  11    0.70    1.00
  11   0 -11   -0.10    0.80
 -11   0  11    0.10    0.80
 -11   0  11    0.20    0.70
 -11   0  11    0.50    1.40
 -11   0  11   -0.50    1.00
 -11   0  11   -0.70    0.50
 -11   0  11   -0.30    0.80
 -10   0  11   -0.70    0.50
 -10   0  11   -1.00    0.70
 -10   0  11    0.00    0.80
 -10   0  11    0.30    0.90
 -10   0  11   -1.40    1.00
 -10   0  11   -0.10    0.70
 -10   0  11   -0.10    1.00
  -9   0  11    1.00    0.70
  -9   0  11    0.80    1.00
   9   0 -11    0.10    1.00
  -9   0  11    0.70    1.00
  -9   0  11   -0.10    1.30
  -9   0  11    1.00    0.80
  -9   0  11   -0.10    0.90
  -9   0  11    0.10    0.40
  -9   0  11    1.00    0.70
  -8   0  11    0.30    0.70
  -8   0  11   -0.50    1.00
  -8   0  11   -0.60    0.40
  -8   0  11    1.20    0.70
   8   0 -11   -0.20    0.80
  -8   0  11    0.30    0.70
  -8   0  11    0.20    0.90
  -8   0  11    1.30    1.30
  -8   0  11   -0.60    0.90
  -7   0  11    0.50    0.70
  -7   0  11    0.00    0.70
  -7   0  11    0.30    0.90
  -7   0  11    0.30    1.00
  -7   0  11    0.60    0.90
   7   0 -11    1.30    0.70
  -7   0  11    0.30    1.60
  -7   0  11    0.90    0.70
  -7   0  11    0.40    1.30
  -6   0  11    1.50    1.20
  -6   0  11    0.40    0.60
  -6   0  11    0.80    0.60
  -6   0  11   -0.30    0.90
  -6   0  11   -0.10    0.40
  -6   0  11    0.90    0.70
   6   0 -11    0.40    0.60
  -6   0  11   -1.20    1.30
  -6   0  11   -0.40    0.80
  -6   0  11   -1.00    0.90
  -6   0  11    0.00    0.90
  -5   0  11   -0.20    0.40
  -5   0  11    0.00    0.90
  -5   0  11    0.30    0.90
  -5   0  11    0.40    0.60
  -5   0  11    0.30    1.20
  -5   0  11   -0.90    1.30
  -5   0  11    0.20    0.90
  -5   0  11    0.40    0.60
  -5   0  11    1.40    0.80
  -5   0  11    0.40    0.60
   5   0 -11   -0.90    0.60
  -4   0  11   -0.10    0.60
  -4   0  11    0.10    1.20
  -4   0  11    0.10    0.30
  -4   0  11    0.20    0.60
  -4   0  11    0.20    0.90
  -4   0  11    0.80    0.60
   4   0 -11   -0.40    0.60
  -4   0  11    0.40    0.70
  -4   0  11   -0.80    1.30
  -4   0  11    0.20    0.90
   3   0 -11    0.20    0.60
  -3   0  11    0.00    0.60
   3   0 -11   -1.10    1.10
   3   0 -11    0.50    0.90
  -3   0  11    0.40    0.70
  -3   0  11    0.70    1.00
  -3   0  11   -0.20    0.60
  -3   0  11    0.90    1.10
   3   0 -11   -0.30    1.00
  -3   0  11    0.20    1.10
  -3   0  11   -0.50    0.70
  -2   0  11    0.40    0.60
  -2   0  11   -0.30    0.70
   2   0 -11    0.10    0.60
   2   0 -11    0.90    0.70
   2   0 -11   -0.20    1.00
   2   0 -11    0.30    0.90
  -2   0  11    0.00    0.60
   2   0 -11   -0.40    0.70
  -2   0  11   -0.60    1.20
   1   0 -11   -0.50    0.60
   1   0 -11    0.90    1.50
   1   0 -11   -0.20    0.90
  -1   0  11   -0.70    1.40
  -1   0  11    0.90    0.70
  -1   0  11    0.50    0.70
  -1   0  11    0.40    1.10
   1   0 -11   -0.60    0.70
   1   0 -11   -0.10    0.70
  -1   0  11    1.00    0.70
   0   0 -11    0.10    0.70
   0   0  11    1.50    0.80
   0   0  11    0.00    0.70
   0   0  11   -1.30    1.50
   0   0  11    1.10    0.80
   0   0 -11    0.30    0.80
   0   0 -11   -0.90    0.70
   0   0 -11   -0.90    0.60
   0   0 -11   -0.10    1.10
   0   0  11    1.50    1.30
  -1   0 -11    0.40    1.30
  -1   0 -11    1.70    1.30
   1   0  11    0.10    0.90
  -1   0 -11   -0.10    0.90
  -1   0 -11    0.00    0.70
  -1   0 -11    1.00    1.10
  -1   0 -11    3.10    1.70
   1   0  11    0.20    0.80
  -1   0 -11    0.00    0.70
   1   0  11   -1.10    1.90
   1   0  11    1.30    0.80
  -1   0 -11    0.60    0.80
  -2   0 -11    1.10    1.20
  -2   0 -11    1.90    0.90
   2   0  11    1.90    0.90
   2   0  11    0.30    1.00
  -2   0 -11    0.80    0.80
  -2   0 -11    0.10    1.00
  -2   0 -11   -0.50    1.00
  -2   0 -11    1.20    0.80
   2   0  11    0.50    1.10
  -2   0 -11    1.20    0.70
  -3   0 -11    3.10    1.00
  -3   0 -11    3.40    1.10
  -3   0 -11    1.70    1.10
   3   0  11    3.40    1.00
  -3   0 -11    5.00    0.90
  -3   0 -11    3.10    1.10
  -3   0 -11    3.40    0.90
  -3   0 -11    2.50    1.40
  -4   0 -11    1.60    0.90
  -4   0 -11    2.10    1.00
  -4   0 -11    1.70    0.80
  -4   0 -11    2.30    1.00
  -4   0 -11    2.20    1.00
  -4   0 -11    3.50    1.10
   4   0  11    0.50    1.00
  -4   0 -11    3.40    1.50
  -4   0 -11    1.50    0.80
  -4   0 -11    0.80    1.20
  -5   0 -11    2.00    1.00
  -5   0 -11   -1.60    1.40
  -5   0 -11   -1.30    1.50
  -5   0 -11    1.90    1.00
  -5   0 -11   -0.10    1.10
  -5   0 -11    2.40    0.80
   5   0  11    0.20    1.10
  -5   0 -11    0.20    0.90
  -5   0 -11    1.40    1.00
  -5   0 -11   -0.90    1.20
  -5   0 -11    1.80    0.80
  -6   0 -11   -1.30    1.60
  -6   0 -11    1.20    1.00
  -6   0 -11    0.10    0.80
  -6   0 -11   -2.30    1.30
  -6   0 -11   -0.20    1.20
  -6   0 -11    0.40    1.00
  -6   0 -11    0.80    0.80
   6   0  11   -0.80    1.10
  -6   0 -11   -0.50    0.50
  -6   0 -11    1.90    0.90
  -7   0 -11   -0.70    0.50
  -7   0 -11    0.00    0.80
  -7   0 -11   -0.40    1.00
  -7   0 -11   -0.70    1.00
  -7   0 -11   -0.50    0.80
  -7   0 -11    2.00    0.90
   8   0  11   -0.80    1.10
  -8   0 -11   -1.60    1.20
  -8   0 -11   -0.90    0.80
  -8   0 -11    0.20    0.90
  -8   0 -11    0.40    1.10
  -8   0 -11    1.00    0.80
 -15  -1  11   21.30    4.30
 -15  -1  11   26.80    2.50
 -15  -1  11   20.60    2.30
 -15   1  11   22.40    1.90
 -15   1  11   25.50    2.00
 -15   1  11   25.60    2.40
 -15   1  11   20.80    2.30
 -14  -1  11   -0.60    1.00
 -14  -1  11   -0.50    1.60
 -14  -1  11    0.00    0.50
 -14  -1  11   -0.20    1.00
 -14   1  11    0.20    0.90
 -14   1  11    0.30    0.60
 -14   1  11   -0.20    0.50
 -14   1  11    0.10    1.10
 -14   1  11   -0.40    0.50
 -13  -1  11   17.90    2.00
 -13  -1  11   20.20    2.40
 -13  -1  11   19.00    2.80
 -13  -1  11   22.90    2.20
 -13  -1  11   23.00    2.60
 -13  -1  11   20.80    2.10
 -13   1  11   22.10    1.80
 -13   1  11   21.80    1.90
 -13   1  11   20.70    2.20
 -13   1  11   22.90    2.20
 -13   1  11   24.20    2.50
 -12  -1  11    9.80    2.10
 -12  -1  11    9.00    1.30
 -12  -1  11   11.70    1.80
 -12  -1  11    8.60    1.70
  12  -1 -11    9.50    1.50
 -12  -1  11    9.40    1.60
 -12  -1  11   10.50    1.40
 -12  -1  11    7.80    1.20
 -12   1  11    9.50    1.60
 -12   1  11    8.60    1.10
 -12   1  11    8.90    1.30
 -12   1  11    6.80    1.30
 -12   1  11    8.80    2.00
 -12   1  11    9.30    1.60
 -11  -1  11   88.29    6.40
 -11  -1  11   95.69    6.40
 -11  -1  11   88.39    6.80
 -11  -1  11   83.99    6.50
 -11  -1  11   81.29    6.30
  11  -1 -11   87.49    6.40
 -11  -1  11   91.89    6.60
 -11   1  11   98.29    6.50
 -11   1  11   80.19    6.30
 -11   1  11   72.99    6.40
 -11   1  11   89.89    6.40
 -11   1  11   81.69    6.50
 -11   1  11   91.99    6.30
 -10  -1  11  128.19    9.30
 -10  -1  11  131.99    9.20
 -10  -1  11  129.09    9.30
 -10  -1  11  127.79    9.50
 -10  -1  11  127.69    9.40
  10  -1 -11  131.09    9.30
 -10  -1  11  137.89    9.30
 -10  -1  11  122.39    9.20
 -10  -1  11  118.79    9.30
 -10  -1  11  131.19    9.60
 -10   1  11  138.59    9.60
 -10   1  11  135.59    9.20
 -10   1  11  115.09    9.30
 -10   1  11  125.99    9.30
 -10   1  11  121.19    9.30
 -10   1  11  132.79    9.30
 -10   1  11  140.39    9.40
  -9  -1  11  117.69    8.40
  -9  -1  11  116.89    8.50
  -9  -1  11  112.79    8.40
  -9  -1  11  123.99    8.50
  -9  -1  11  119.99    8.50
  -9  -1  11  113.79    8.50
  -9  -1  11  105.69    8.50
   9  -1 -11  118.69    8.40
  -9  -1  11  120.19    8.70
  -9  -1  11  126.59    8.80
  -9   1  11  122.29    8.60
  -9   1  11  125.59    8.40
  -9   1  11  116.39    8.40
  -9   1  11  105.79    8.40
  -9   1  11  121.19    8.70
  -9   1  11  120.79    8.40
  -9   1  11  109.99    8.50
   9   1 -11  104.69    8.40
  -8  -1  11  689.13   45.30
   8  -1 -11  646.24   45.30
  -8  -1  11  672.73   45.40
  -8  -1  11  636.64   45.40
  -8  -1  11  667.63   45.40
  -8  -1  11  595.84   45.30
  -8  -1  11  702.73   45.50
  -8  -1  11  642.34   45.30
  -8  -1  11  555.74   45.40
  -8  -1  11  644.84   45.30
  -8  -1  11  649.14   45.60
  -8  -1  11  582.84   45.60
  -8   1  11  681.53   45.30
  -8   1  11  669.93   45.40
  -8   1  11  620.64   45.40
  -8   1  11  687.93   45.40
  -8   1  11  623.04   45.30
  -8   1  11  676.23   45.60
  -8   1  11  667.63   45.50
   8   1 -11  625.54   45.30
  -8   1  11  607.14   45.40
  -7  -1  11  439.06   31.60
  -7  -1  11  423.06   31.40
  -7  -1  11  380.56   31.50
  -7  -1  11  487.25   31.60
   7  -1 -11  450.65   31.30
  -7  -1  11  473.95   31.40
  -7  -1  11  438.26   31.50
  -7  -1  11  414.96   31.40
  -7  -1  11  455.35   31.40
  -7  -1  11  494.75   31.50
  -7  -1  11  445.06   31.40
  -7  -1  11  440.76   31.40
  -7  -1  11  445.26   31.40
  -7   1  11  450.15   31.40
  -7   1  11  430.06   31.40
   7   1 -11  419.56   31.30
  -7   1  11  487.05   31.30
  -7   1  11  462.95   31.40
  -7   1  11  465.05   31.60
  -7   1  11  449.46   31.40
  -7   1  11  429.06   31.60
  -7   1  11  425.36   31.50
  -6  -1  11   59.69    4.50
   6  -1 -11   64.89    4.30
  -6  -1  11   63.19    4.70
  -6  -1  11   49.60    4.40
  -6  -1  11   61.09    4.40
  -6  -1  11   67.29    4.30
  -6  -1  11   50.79    4.50
   6  -1 -11   48.80    4.50
  -6  -1  11   56.49    4.40
  -6  -1  11   59.49    4.40
  -6  -1  11   61.09    4.70
  -6  -1  11   63.39    4.40
  -6   1  11   52.19    4.70
  -6   1  11   55.09    4.50
  -6   1  11   55.69    4.90
  -6   1  11   62.49    4.40
  -6   1  11   56.29    4.40
   6   1 -11   56.89    4.30
  -6   1  11   64.19    4.30
  -6   1  11   57.99    5.00
  -6   1  11   58.79    4.30
  -5  -1  11  284.47   19.40
  -5  -1  11  284.57   19.20
   5  -1 -11  227.88   19.10
  -5  -1  11  272.67   19.20
  -5  -1  11  276.07   19.20
  -5  -1  11  251.47   19.10
  -5  -1  11  260.37   19.20
  -5  -1  11  266.37   19.10
  -5  -1  11  291.67   19.40
   5  -1 -11  272.47   19.10
  -5  -1  11  287.07   19.20
  -5  -1  11  275.17   19.20
  -5   1  11  278.07   19.20
  -5   1  11  244.68   19.20
  -5   1  11  268.87   19.30
   5   1 -11  270.97   19.10
  -5   1  11  264.97   19.30
  -5   1  11  279.97   19.10
  -5   1  11  278.07   19.20
  -5   1  11  291.17   19.10
  -5   1  11  264.57   19.20
   4  -1 -11  206.98   14.00
  -4  -1  11  202.18   14.10
  -4  -1  11  212.08   14.00
  -4  -1  11  209.68   14.30
  -4  -1  11  192.48   14.20
  -4  -1  11  195.38   14.10
  -4  -1  11  196.08   14.10
  -4  -1  11  190.58   14.00
   4  -1 -11  179.68   14.00
  -4  -1  11  196.08   14.40
  -4  -1  11  199.98   14.10
  -4  -1  11  207.18   14.10
  -4   1  11  202.08   14.00
  -4   1  11  198.38   14.10
  -4   1  11  212.18   14.00
  -4   1  11  204.28   14.10
  -4   1  11  183.18   14.20
  -4   1  11  192.68   14.10
  -4   1  11  182.48   14.10
   4   1 -11  198.78   14.00
  -4   1  11  200.98   14.10
   3  -1 -11    1.40    0.80
   3  -1 -11    1.70    0.90
  -3  -1  11    2.20    1.20
  -3  -1  11    1.90    1.30
  -3  -1  11    1.70    1.00
  -3  -1  11    0.60    0.70
   3  -1 -11    2.70    0.60
  -3  -1  11   -0.50    0.80
  -3  -1  11    0.90    0.80
  -3  -1  11    1.30    0.60
  -3   1  11    3.00    1.60
  -3   1  11    1.20    0.70
   3   1 -11    2.80    0.70
  -3   1  11    1.40    0.70
   3   1 -11    2.40    0.80
  -3   1  11    1.00    1.20
  -3   1  11    0.30    1.30
  -2  -1  11   11.00    1.40
   2  -1 -11   13.30    1.10
   2  -1 -11   11.00    1.60
  -2  -1  11   12.80    1.30
   2  -1 -11    9.60    1.20
   2  -1 -11    9.90    1.80
   2  -1 -11   12.80    1.30
  -2  -1  11   10.20    1.70
  -2  -1  11   12.20    1.80
  -2  -1  11   12.70    1.40
   2   1 -11    9.80    1.30
  -2   1  11    8.60    1.60
  -2   1  11    9.90    1.30
  -2   1  11    9.50    1.50
  -2   1  11   10.10    1.40
   2   1 -11   10.80    1.30
  -2   1  11    8.00    1.50
   2   1 -11   11.90    1.20
  -2   1  11   12.10    2.10
  -1  -1  11  119.59    8.80
   1  -1 -11  129.59    8.70
  -1  -1  11  119.79    8.80
   1  -1 -11  106.19    8.80
   1  -1 -11  120.59    8.80
   1  -1 -11  129.89    8.80
  -1  -1  11  111.69    8.90
  -1  -1  11  116.19    8.80
   1  -1 -11  129.99    8.70
  -1   1  11  116.49    9.10
   1   1 -11  115.89    8.80
  -1   1  11  132.79    8.80
   1   1 -11  130.39    8.80
   1   1 -11  133.79    8.70
   1   1 -11  123.99    8.80
  -1   1  11  115.99    8.80
  -1   1  11  130.79    8.80
   0  -1  11  255.87   19.10
   0  -1 -11  283.97   19.00
   0  -1  11  256.97   19.10
   0  -1 -11  289.47   19.00
   0  -1  11  264.47   19.20
   0  -1 -11  293.37   19.10
   0  -1 -11  228.58   19.00
   0  -1 -11  265.37   19.00
   0   1  11  262.07   19.00
   0   1 -11  279.67   19.00
   0   1  11  246.48   19.00
   0   1  11  273.87   19.30
   0   1 -11  285.97   19.00
   0   1  11  280.07   19.10
   0   1 -11  272.07   19.00
   0   1 -11  273.17   19.00
  -1  -1 -11  134.19    9.40
  -1  -1 -11  128.99    9.50
   1  -1  11  129.69    9.50
  -1  -1 -11  141.99    9.60
  -1  -1 -11  130.59    9.50
  -1  -1 -11  142.39    9.40
   1  -1  11  112.39    9.40
   1   1  11  132.29    9.50
  -1   1 -11  134.49    9.40
  -1   1 -11  137.89    9.40
  -1   1 -11  128.79    9.40
  -1   1 -11  127.09    9.40
   2  -1  11  177.78   13.70
  -2  -1 -11  208.68   13.80
   2  -1  11  162.18   13.70
  -2  -1 -11  195.98   13.70
  -2  -1 -11  189.48   13.60
   2  -1  11  202.38   13.80
  -2  -1 -11  198.68   13.70
  -2   1 -11  182.88   13.60
  -2   1 -11  199.48   13.70
   2   1  11  200.88   13.70
  -2   1 -11  196.58   13.60
   3  -1  11  367.16   26.80
   3  -1  11  394.36   26.80
  -3  -1 -11  384.76   26.70
  -3  -1 -11  352.26   26.60
  -3  -1 -11  390.66   26.80
  -3  -1 -11  383.76   26.80
  -3  -1 -11  412.26   26.80
  -3  -1 -11  368.96   26.70
  -3  -1 -11  366.36   26.90
  -3  -1 -11  373.06   26.80
   3   1  11  382.06   26.80
  -3   1 -11  363.86   26.70
  -3   1 -11  392.16   26.70
  -3   1 -11  397.06   26.70
  -3   1 -11  340.47   26.70
  -3   1 -11  393.26   26.90
  -4  -1 -11  189.38   12.30
   4  -1  11  175.68   11.90
  -4  -1 -11  163.98   11.90
   4  -1  11  153.88   11.90
  -4  -1 -11  177.88   12.20
  -4  -1 -11  165.28   11.70
  -4  -1 -11  171.38   11.90
  -4  -1 -11  150.48   11.70
  -4  -1 -11  154.88   11.70
  -4  -1 -11  157.38   11.90
  -4   1 -11  168.38   12.00
  -4   1 -11  181.88   11.90
  -4   1 -11  144.39   11.80
   4   1  11  166.68   11.80
  -4   1 -11  162.18   11.80
  -4   1 -11  163.28   11.80
  -5  -1 -11   71.19    5.20
  -5  -1 -11   69.49    5.00
  -5  -1 -11   68.69    5.40
  -5  -1 -11   74.79    5.20
   5  -1  11   75.39    5.20
  -5  -1 -11   62.19    5.30
  -5  -1 -11   58.59    5.20
  -5  -1 -11   65.59    5.10
  -5  -1 -11   72.19    5.10
  -5   1 -11   58.39    5.10
  -5   1 -11   63.09    5.70
  -5   1 -11   70.59    5.10
  -5   1 -11   70.79    5.10
   5   1  11   71.69    5.20
  -5   1 -11   64.39    5.40
  -5   1 -11   72.49    5.10
  -6  -1 -11   41.40    3.00
  -6  -1 -11   34.30    3.30
  -6  -1 -11   39.20    3.20
  -6  -1 -11   33.40    3.00
   6  -1  11   39.70    3.10
  -6  -1 -11   33.90    3.10
  -6  -1 -11   41.40    3.00
  -6  -1 -11   33.60    3.20
  -6  -1 -11   36.70    2.80
  -6   1 -11   35.40    2.90
   6   1  11   36.60    3.10
  -6   1 -11   36.90    2.90
  -6   1 -11   34.00    3.00
  -6   1 -11   39.40    3.00
  -6   1 -11   33.00    3.60
  -6   1 -11   33.90    3.30
  -7  -1 -11    6.30    1.20
  -7  -1 -11    9.00    1.20
  -7  -1 -11    6.10    1.10
  -7  -1 -11    4.00    1.20
   7  -1  11    7.60    1.50
  -7   1 -11    5.90    1.00
   7   1  11    7.50    1.40
  -7   1 -11    7.50    1.20
  -7   1 -11    7.50    1.30
  -7   1 -11    6.70    1.40
  -7   1 -11    9.20    1.40
  -8  -1 -11   11.40    1.50
   8  -1  11    7.90    1.60
  -8  -1 -11    9.50    1.40
  -8   1 -11    8.10    1.30
  -8   1 -11    9.10    1.50
 -14  -2  11   64.09    4.90
 -14  -2  11   59.99    5.10
 -14   2  11   58.89    4.90
 -14   2  11   66.89    4.70
 -14   2  11   72.29    4.70
 -13  -2  11   97.09    6.60
 -13  -2  11   90.69    6.80
  13  -2 -11   87.79    6.70
 -13  -2  11   86.39    6.70
 -13   2  11   75.09    6.60
 -13   2  11   91.89    6.40
 -13   2  11   76.19    6.50
 -13   2  11   95.89    6.60
 -13   2  11   84.49    6.80
 -13   2  11  101.99    6.40
 -12  -2  11  201.18   13.80
 -12  -2  11  196.08   14.00
 -12  -2  11  201.48   13.90
 -12  -2  11  191.88   13.90
  12  -2 -11  195.78   13.80
 -12  -2  11  181.68   13.80
 -12   2  11  173.98   13.80
 -12   2  11  193.28   14.00
 -12   2  11  201.58   13.70
 -12   2  11  200.48   13.70
 -12   2  11  213.48   13.90
 -12   2  11  173.18   13.80
 -11  -2  11  162.68   13.00
 -11  -2  11  184.18   13.30
 -11  -2  11  179.68   13.30
 -11  -2  11  183.68   13.10
  11  -2 -11  191.58   13.10
 -11  -2  11  169.98   13.00
 -11  -2  11  195.48   13.20
 -11  -2  11  195.38   13.20
 -11   2  11  205.18   13.20
 -11   2  11  182.58   13.40
 -11   2  11  188.98   13.00
 -11   2  11  186.28   13.00
 -11   2  11  176.18   13.10
 -11   2  11  165.38   13.10
 -10  -2  11   19.20    2.20
 -10  -2  11   16.70    1.70
 -10  -2  11   17.90    2.50
 -10  -2  11   14.40    1.80
  10  -2 -11   19.10    1.70
 -10  -2  11   14.20    1.70
 -10  -2  11   17.90    1.80
 -10  -2  11   18.10    1.90
 -10  -2  11   14.70    2.00
 -10   2  11   15.00    2.00
 -10   2  11   18.40    2.10
 -10   2  11   17.50    2.70
 -10   2  11   16.70    1.60
  10   2 -11   12.70    1.80
 -10   2  11   14.60    1.80
 -10   2  11   14.30    1.70
   9  -2 -11   28.70    2.30
  -9  -2  11   22.10    2.40
  -9  -2  11   26.10    2.30
  -9  -2  11   24.80    2.20
  -9  -2  11   26.10    2.30
  -9  -2  11   23.00    2.20
  -9  -2  11   28.80    2.70
  -9  -2  11   26.40    2.30
  -9  -2  11   26.10    2.40
  -9  -2  11   23.70    2.90
  -9   2  11   21.70    2.50
  -9   2  11   23.70    2.40
  -9   2  11   29.70    2.10
  -9   2  11   28.30    2.50
  -9   2  11   26.00    2.20
  -8  -2  11    0.50    0.80
   8  -2 -11   -0.10    0.90
  -8  -2  11   -0.50    0.90
  -8  -2  11    0.30    0.90
  -8  -2  11   -0.60    0.90
  -8  -2  11   -0.40    0.50
  -8  -2  11   -0.90    1.00
   8  -2 -11    0.20    0.60
  -8  -2  11    0.50    1.10
  -8  -2  11    0.00    0.70
  -8  -2  11   -0.90    0.90
  -8  -2  11    0.20    0.80
  -8   2  11   -0.40    0.50
  -8   2  11   -0.10    0.60
  -8   2  11   -0.10    1.10
  -8   2  11   -1.70    2.00
  -8   2  11    0.60    1.00
  -8   2  11    1.00    1.00
  -8   2  11   -0.70    0.70
  -8   2  11   -0.10    0.60
  -7  -2  11   81.09    6.40
  -7  -2  11   86.99    6.70
  -7  -2  11   93.09    6.60
  -7  -2  11   91.89    6.40
  -7  -2  11   84.39    6.40
  -7  -2  11   79.39    6.30
   7  -2 -11   86.49    6.30
  -7  -2  11   89.19    6.40
  -7  -2  11   90.19    6.40
  -7  -2  11   90.69    6.30
  -7   2  11   83.49    6.40
  -7   2  11   72.99    6.90
  -7   2  11   91.39    6.30
  -7   2  11   93.39    6.30
  -7   2  11   86.79    6.30
  -7   2  11   83.99    6.50
  -6  -2  11   17.80    1.80
  -6  -2  11   19.50    1.70
  -6  -2  11   20.90    2.30
  -6  -2  11   15.50    1.90
  -6  -2  11   14.00    2.50
   6  -2 -11   15.90    2.20
   6  -2 -11   18.60    1.60
  -6  -2  11   20.80    1.90
  -6  -2  11   18.50    2.00
  -6  -2  11   17.20    1.90
  -6  -2  11   19.20    2.40
  -6  -2  11   19.10    1.80
  -6  -2  11   18.50    1.90
  -6   2  11   20.80    1.80
  -6   2  11   17.00    1.80
  -6   2  11   19.80    1.90
  -6   2  11   15.20    1.70
  -6   2  11   15.20    1.90
  -6   2  11   17.50    2.10
  -6   2  11   19.60    2.50
  -5  -2  11  311.97   23.50
  -5  -2  11  346.27   23.50
   5  -2 -11  348.37   23.50
  -5  -2  11  328.17   23.50
  -5  -2  11  328.17   23.50
  -5  -2  11  316.67   23.50
  -5  -2  11  349.07   23.40
  -5  -2  11  314.67   23.50
  -5  -2  11  346.57   23.70
  -5  -2  11  333.57   23.40
   5  -2 -11  343.87   23.40
  -5   2  11  359.16   23.50
  -5   2  11  342.97   23.40
  -5   2  11  356.66   23.40
  -5   2  11  281.87   23.70
   5   2 -11  279.77   23.40
  -5   2  11  346.07   23.50
  -5   2  11  344.37   23.50
  -5   2  11  335.27   23.50
  -4  -2  11  916.31   66.99
  -4  -2  11  961.20   66.99
  -4  -2  11  961.70   66.99
  -4  -2  11 1017.80   66.89
   4  -2 -11  892.41   66.89
   4  -2 -11  925.61   66.89
  -4  -2  11  926.81   66.99
  -4  -2  11  995.70   66.89
  -4  -2  11  979.70   67.09
  -4  -2  11 1033.80   66.99
  -4   2  11  947.81   66.99
  -4   2  11  966.20   66.89
  -4   2  11  985.00   66.99
  -4   2  11  965.10   66.79
  -4   2  11  972.80   66.89
   4   2 -11  828.32   66.89
  -4   2  11  934.91   66.89
   3  -2 -11  216.58   14.00
   3  -2 -11  182.88   14.00
  -3  -2  11  182.08   14.10
  -3  -2  11  192.78   14.10
  -3  -2  11  209.48   14.30
  -3  -2  11  191.08   14.10
  -3  -2  11  191.48   14.10
   3  -2 -11  187.78   14.00
  -3  -2  11  202.18   14.10
  -3  -2  11  210.28   14.10
  -3   2  11  202.18   14.00
   3   2 -11  185.98   14.00
  -3   2  11  194.98   14.10
  -3   2  11  215.68   14.10
  -3   2  11  203.88   14.10
   2  -2 -11  105.39    8.50
  -2  -2  11  106.49    8.40
  -2  -2  11  115.59    8.60
   2  -2 -11  124.69    8.40
   2  -2 -11  118.19    8.30
  -2  -2  11  118.99    8.50
  -2  -2  11  116.79    8.50
   2  -2 -11  126.69    8.40
  -2  -2  11  115.99    8.40
  -2  -2  11  119.59    8.70
   2  -2 -11  118.29    8.40
   2  -2 -11  116.09    8.50
   2   2 -11  111.19    8.40
  -2   2  11  131.59    8.50
  -2   2  11  115.29    8.50
  -2   2  11  118.49    8.40
   2   2 -11  112.39    8.40
   1  -2 -11  598.84   44.50
  -1  -2  11  613.24   44.60
  -1  -2  11  581.14   44.90
  -1  -2  11  633.74   44.70
  -1  -2  11  623.04   44.80
   1  -2 -11  591.24   44.60
   1  -2 -11  656.33   44.60
   1  -2 -11  647.74   44.60
  -1  -2  11  668.53   44.70
   1  -2 -11  667.93   44.50
   1  -2 -11  618.84   44.60
   1  -2 -11  706.73   44.60
   1   2 -11  604.64   44.60
  -1   2  11  693.43   44.60
  -1   2  11  658.73   44.80
   1   2 -11  628.64   44.60
  -1   2  11  592.24   44.50
   0  -2 -11  566.24   36.70
   0  -2  11  531.55   36.90
   0  -2  11  490.65   36.90
   0  -2 -11  533.35   36.70
   0  -2  11  516.75   36.70
   0  -2 -11  538.15   36.80
   0  -2  11  502.75   36.80
   0  -2 -11  491.85   36.80
   0  -2 -11  563.34   36.80
   0  -2 -11  518.25   36.70
   0   2 -11  520.55   36.70
   0   2  11  507.05   36.80
   0   2 -11  491.85   36.70
   0   2 -11  509.25   36.70
   0   2  11  549.05   36.80
  -1  -2 -11   50.09    3.70
   1  -2  11   48.00    3.80
   1  -2  11   43.70    3.70
  -1  -2 -11   47.10    3.50
  -1  -2 -11   48.20    3.70
  -1  -2 -11   47.40    3.60
   1  -2  11   44.90    3.70
  -1  -2 -11   51.69    3.80
  -1  -2 -11   49.50    3.50
  -1  -2 -11   48.40    3.90
  -1   2 -11   42.90    3.70
  -1   2 -11   43.10    3.60
   1   2  11   44.40    3.70
  -1   2 -11   51.59    3.60
  -1   2 -11   46.80    3.60
   1   2  11   50.79    3.70
  -2  -2 -11   23.90    2.00
  -2  -2 -11   21.20    1.90
  -2  -2 -11   23.40    1.80
  -2  -2 -11   19.90    2.30
  -2  -2 -11   20.70    2.30
  -2  -2 -11   23.30    2.10
   2  -2  11   19.80    2.20
  -2  -2 -11   21.30    1.80
   2  -2  11   20.50    2.10
   2  -2  11   17.90    2.10
  -2  -2 -11   21.70    2.00
  -2  -2 -11   17.60    2.10
   2   2  11   21.70    2.10
  -2   2 -11   16.50    2.00
  -2   2 -11   20.00    2.10
  -2   2 -11   23.10    2.00
  -2   2 -11   19.30    1.90
   2   2  11   23.30    2.10
  -3  -2 -11    9.40    1.10
   3  -2  11   10.80    2.00
   3  -2  11    7.60    1.50
  -3  -2 -11    6.80    1.10
  -3  -2 -11   10.30    1.20
  -3  -2 -11    7.10    1.40
  -3  -2 -11    7.50    1.80
  -3  -2 -11    9.40    1.40
  -3  -2 -11    9.50    1.30
  -3   2 -11    7.80    1.30
   3   2  11    8.60    1.50
  -3   2 -11    9.10    1.50
   3   2  11    8.40    1.30
  -3   2 -11    8.10    1.40
  -4  -2 -11   11.10    1.30
   4  -2  11    7.10    1.60
  -4  -2 -11   11.10    1.20
  -4  -2 -11   10.40    1.30
   4  -2  11    8.50    1.60
  -4  -2 -11    9.30    1.80
  -4  -2 -11   11.10    1.30
  -4  -2 -11   10.10    1.70
  -4   2 -11   10.10    1.40
   4   2  11    9.10    1.50
   4   2  11   11.90    1.60
  -4   2 -11    9.40    1.40
  -4   2 -11    9.70    1.40
   5  -2  11   20.70    2.30
  -5  -2 -11   22.90    2.30
  -5  -2 -11   23.50    2.30
  -5  -2 -11   26.70    2.10
  -5  -2 -11   23.70    1.90
  -5  -2 -11   23.60    2.40
  -5  -2 -11   25.50    2.10
  -5   2 -11   20.50    2.80
  -5   2 -11   23.40    2.20
  -5   2 -11   19.40    2.20
  -5   2 -11   22.60    2.10
  -5   2 -11   23.70    2.10
   5   2  11   26.80    2.30
   5   2  11   20.80    2.70
  -6  -2 -11   75.89    5.80
  -6  -2 -11   75.79    5.60
  -6  -2 -11   81.19    5.70
  -6  -2 -11   80.19    5.80
  -6  -2 -11   80.69    5.70
  -6  -2 -11   87.69    5.90
   6  -2  11   75.39    5.80
  -6   2 -11   71.89    5.70
  -6   2 -11   77.49    5.70
  -6   2 -11   72.69    6.10
  -6   2 -11   70.19    5.70
   6   2  11   82.09    5.90
  -7  -2 -11  129.09    9.20
  -7  -2 -11  145.49    9.40
  -7  -2 -11  132.59    9.50
  -7  -2 -11  130.99    9.30
  -7  -2 -11  127.39    9.20
   7  -2  11  115.39    9.30
  -7   2 -11  119.09    9.30
   7   2  11  145.29    9.40
  -7   2 -11  114.09    9.20
  -7   2 -11  134.69    9.60
  -7   2 -11  126.19    9.50
 -12  -3  11    1.90    1.00
  12  -3 -11   -0.30    0.80
 -12  -3  11    0.70    1.20
 -12  -3  11    1.00    0.80
 -12   3  11    1.00    0.60
 -12   3  11    1.10    0.60
 -12   3  11    0.20    1.20
 -12   3  11   -0.70    0.90
  11  -3 -11    1.30    0.70
 -11  -3  11    0.10    1.10
 -11  -3  11    0.80    1.10
 -11  -3  11    1.50    1.20
 -11  -3  11    1.30    0.90
 -11   3  11    1.40    1.20
 -11   3  11    1.30    0.70
 -11   3  11    1.70    0.90
 -11   3  11    1.60    0.60
  10  -3 -11   12.30    1.40
 -10  -3  11   13.90    2.00
 -10  -3  11   10.80    1.70
 -10  -3  11   10.40    1.60
 -10   3  11   10.80    1.80
 -10   3  11   11.00    1.30
 -10   3  11    9.00    1.60
 -10   3  11   10.70    1.20
   9  -3 -11   21.40    1.80
  -9  -3  11   19.20    2.20
  -9  -3  11   17.10    2.00
  -9  -3  11   17.10    2.00
  -9  -3  11   15.20    1.90
  -9   3  11   18.10    2.00
  -9   3  11   19.40    1.80
  -9   3  11   18.60    2.10
  -9   3  11   15.40    1.60
  -8  -3  11   45.40    3.50
  -8  -3  11   40.10    3.60
  -8  -3  11   39.60    3.40
  -8  -3  11   44.70    3.60
  -8  -3  11   49.10    3.70
  -8  -3  11   35.10    3.30
   8  -3 -11   49.00    3.30
  -8  -3  11   38.90    3.50
  -8  -3  11   36.10    3.30
  -8   3  11   44.00    3.60
  -8   3  11   41.70    3.50
  -8   3  11   43.80    3.20
  -8   3  11   49.70    3.40
  -7  -3  11   49.20    3.80
  -7  -3  11   44.60    3.60
   7  -3 -11   49.20    3.50
  -7  -3  11   42.40    3.50
  -7  -3  11   41.40    3.60
  -7  -3  11   46.50    3.70
  -7  -3  11   49.60    3.60
   7  -3 -11   42.00    3.40
  -7  -3  11   46.00    3.70
  -7  -3  11   40.00    3.50
  -7  -3  11   39.40    3.90
  -7   3  11   47.90    3.50
  -7   3  11   45.70    3.70
  -7   3  11   41.80    3.40
  -6  -3  11   73.79    5.50
  -6  -3  11   67.69    5.60
   6  -3 -11   75.89    5.40
   6  -3 -11   78.59    5.30
  -6  -3  11   75.09    5.40
  -6  -3  11   62.29    5.50
  -6   3  11   83.09    5.50
  -6   3  11   68.79    5.50
  -5  -3  11   17.20    2.40
   5  -3 -11   17.70    1.60
  -5  -3  11   20.70    1.90
  -5  -3  11   17.70    2.00
  -5  -3  11   17.50    1.70
  -5  -3  11   18.40    2.00
  -5  -3  11   18.50    2.40
  -5  -3  11   17.90    2.10
   5  -3 -11   18.60    1.70
  -5   3  11   17.40    2.10
   4  -3 -11   22.70    1.70
  -4  -3  11   21.20    2.10
  -4  -3  11   20.90    2.70
  -4  -3  11   20.60    2.40
  -4  -3  11   20.10    2.30
  -4  -3  11   23.60    1.90
   4  -3 -11   19.20    1.80
  -4  -3  11   21.90    1.90
  -4  -3  11   22.00    2.10
   4   3 -11   16.40    1.90
  -4   3  11   19.00    2.20
   3  -3 -11  110.29    8.50
  -3  -3  11  115.89    8.70
  -3  -3  11  105.59    8.80
  -3  -3  11  130.39    8.70
   3  -3 -11  125.19    8.50
  -3  -3  11  124.09    8.60
  -3   3  11  122.29    8.70
   3   3 -11  111.49    8.60
  -3   3  11  131.29    8.70
   2  -3 -11   11.30    1.00
   2  -3 -11    6.90    1.50
  -2  -3  11    6.80    1.60
   2  -3 -11    9.30    1.30
  -2  -3  11   12.40    1.40
  -2  -3  11   11.20    1.60
   2  -3 -11   12.20    1.70
   2  -3 -11   10.10    1.70
  -2  -3  11    7.30    1.70
  -2   3  11    6.80    1.30
  -2   3  11    9.10    1.70
   2   3 -11    9.20    1.30
   1  -3 -11   79.89    5.50
  -1  -3  11   59.59    5.60
   1  -3 -11   75.49    5.20
  -1  -3  11   72.29    5.40
   1  -3 -11   76.29    5.40
  -1  -3  11   61.99    5.50
   1  -3 -11   76.49    5.30
  -1   3  11   78.69    5.40
   1   3 -11   70.09    5.30
   1   3 -11   65.29    5.30
  -1   3  11   76.09    5.50
   0  -3  11    1.00    0.90
   0  -3 -11    1.70    0.90
   0  -3 -11    0.50    0.90
   0  -3  11   -0.40    1.90
   0  -3 -11    0.40    0.90
   0  -3 -11    1.40    0.60
   0  -3 -11    1.50    1.00
   0  -3 -11    0.70    1.10
   0  -3 -11    2.20    0.80
   0  -3  11    0.40    0.80
   0   3 -11    1.50    0.80
   0   3  11    0.70    0.90
   0   3  11    2.10    1.30
   0   3 -11    1.50    1.00
  -1  -3 -11   19.50    2.20
  -1  -3 -11   20.20    1.80
   1  -3  11   16.90    2.20
  -1  -3 -11   17.80    1.90
  -1  -3 -11   18.90    1.80
  -1  -3 -11   14.00    2.20
  -1  -3 -11   21.00    1.90
  -1  -3 -11   21.90    2.00
   1  -3  11   16.30    1.90
  -1  -3 -11   19.40    1.60
  -1  -3 -11   20.10    1.70
   1   3  11   20.00    2.30
  -1   3 -11   16.20    1.90
  -1   3 -11   16.80    1.80
  -1   3 -11   15.30    1.90
   1   3  11   19.50    2.10
  -2  -3 -11   48.80    3.70
  -2  -3 -11   44.50    3.90
  -2  -3 -11   42.20    3.90
  -2  -3 -11   48.90    3.60
  -2  -3 -11   49.60    3.60
  -2  -3 -11   46.40    3.50
  -2  -3 -11   42.10    3.70
  -2  -3 -11   49.20    3.50
  -2  -3 -11   51.99    3.70
   2  -3  11   45.70    3.90
   2  -3  11   42.10    3.70
  -2   3 -11   45.60    3.60
  -2   3 -11   46.60    3.60
   2   3  11   47.90    3.80
  -3  -3 -11   36.20    2.70
  -3  -3 -11   32.70    3.00
  -3  -3 -11   40.90    2.90
  -3  -3 -11   32.40    3.00
  -3  -3 -11   36.80    2.70
  -3  -3 -11   35.60    2.70
   3  -3  11   27.50    2.90
  -3  -3 -11   36.50    2.60
  -3  -3 -11   37.00    2.90
   3  -3  11   32.10    3.20
   3  -3  11   29.70    3.30
  -3  -3 -11   32.50    3.20
  -3   3 -11   34.00    2.80
  -3   3 -11   32.30    2.70
  -3   3 -11   29.20    3.10
   3   3  11   37.80    3.10
  -4  -3 -11   20.20    2.20
   4  -3  11   16.50    2.40
  -4  -3 -11   23.00    1.80
  -4  -3 -11   23.30    2.30
  -4  -3 -11   20.60    2.20
  -4  -3 -11   25.00    1.90
  -4  -3 -11   22.20    2.00
  -4  -3 -11   24.30    2.00
  -4   3 -11   22.90    2.10
  -4   3 -11   22.70    2.30
  -4   3 -11   17.70    2.30
   4   3  11   26.60    2.40
  -5  -3 -11    8.30    1.10
  -5  -3 -11    8.40    1.10
   5  -3  11    4.70    1.50
  -5  -3 -11   10.40    1.10
  -5   3 -11    7.60    1.50
  -5   3 -11    9.60    1.40
  -5   3 -11    6.30    1.00
   5   3  11   10.60    1.70
  -6  -3 -11    9.00    1.10
  -6  -3 -11    9.50    1.20
  -6  -3 -11    9.00    1.40
  -6  -3 -11    7.40    1.30
  -6   3 -11    6.00    1.00
  10  -4 -11   -0.30    0.70
 -10  -4  11   -0.50    1.00
 -10  -4  11    0.50    1.20
 -10   4  11    0.50    0.90
 -10   4  11   -0.80    0.70
 -10   4  11    0.80    1.10
   9  -4 -11   -0.40    0.60
  -9  -4  11   -1.10    1.20
  -9   4  11    0.40    1.10
  -9   4  11   -0.10    0.80
  -9   4  11   -0.10    1.10
  -9   4  11    0.50    0.90
   8  -4 -11    0.20    0.60
  -8  -4  11    0.30    1.10
  -8  -4  11    0.50    1.20
  -8  -4  11   -0.40    1.50
  -8  -4  11    1.40    1.20
  -8   4  11   -0.50    0.90
  -8   4  11   -0.70    1.20
  -8   4  11    1.50    1.10
  -8   4  11   -0.40    0.90
  -7  -4  11    5.10    1.10
  -7  -4  11    2.90    1.30
  -7  -4  11    3.60    1.40
   7  -4 -11    6.00    1.00
  -7  -4  11    3.50    1.00
  -7  -4  11    4.20    1.50
  -7   4  11    4.10    1.20
  -7   4  11    2.90    1.10
   6  -4 -11    0.70    1.00
   6  -4 -11    1.70    0.70
  -6  -4  11    0.70    1.00
  -6  -4  11    1.80    1.20
  -6  -4  11    1.30    1.30
  -6  -4  11    0.60    0.90
  -6  -4  11    2.20    1.00
  -6   4  11    1.60    1.00
   6   4 -11    1.10    1.40
  -5  -4  11    0.80    0.80
   5  -4 -11    0.90    0.70
  -5  -4  11    0.00    1.10
  -5  -4  11    0.70    1.10
  -5  -4  11   -0.20    1.40
  -5  -4  11    0.30    0.80
   5  -4 -11   -0.30    0.90
  -5   4  11   -1.00    0.90
   5   4 -11   -0.50    1.40
  -4  -4  11   75.99    5.60
  -4  -4  11   78.19    5.50
   4  -4 -11   70.09    5.40
  -4  -4  11   61.59    5.30
  -4  -4  11   77.89    5.50
  -4  -4  11   73.69    5.60
   4  -4 -11   78.09    5.30
  -4   4  11   78.79    5.60
   4   4 -11   63.89    5.40
  -3  -4  11   11.80    2.00
  -3  -4  11   15.30    1.70
   3  -4 -11   12.90    2.10
  -3  -4  11   12.60    1.50
  -3  -4  11   17.60    1.90
  -3  -4  11   16.30    1.80
   3   4 -11   12.50    1.60
  -3   4  11   18.00    2.10
   2  -4 -11   -1.30    1.00
  -2  -4  11   -1.60    1.30
  -2  -4  11    0.20    1.10
  -2  -4  11    0.50    0.80
   2  -4 -11   -0.50    1.30
   2  -4 -11    0.60    0.60
  -2  -4  11   -0.30    0.70
  -2  -4  11    0.40    0.80
   2   4 -11   -0.20    0.80
  -1  -4  11   70.29    5.30
  -1  -4  11   71.69    5.20
   1  -4 -11   65.59    5.40
   1  -4 -11   71.19    5.20
   1  -4 -11   75.99    5.10
   1  -4 -11   73.19    5.30
   1  -4 -11   66.09    5.30
  -1  -4  11   65.69    5.30
  -1   4  11   71.99    5.30
   1   4 -11   63.09    5.20
   0  -4 -11    3.60    1.10
   0  -4  11    1.50    0.90
   0  -4  11    2.50    0.90
   0  -4 -11    2.10    0.60
   0  -4 -11    0.90    1.00
   0  -4  11    2.20    1.10
   0  -4 -11    0.50    1.00
   0  -4 -11    1.40    0.90
   0  -4 -11    1.80    0.80
   0   4  11    2.30    0.90
   0   4 -11    2.20    1.00
   0   4 -11    2.30    0.80
   1  -4  11    8.60    1.60
  -1  -4 -11   10.60    1.40
  -1  -4 -11    9.70    1.40
  -1  -4 -11    7.90    1.60
   1  -4  11    8.50    1.80
  -1  -4 -11   10.00    1.20
  -1  -4 -11    9.80    1.10
  -1  -4 -11   10.50    1.50
   1  -4  11    8.30    1.40
  -1   4 -11    7.20    1.60
  -1   4 -11    6.40    1.00
   1   4  11    8.40    1.70
  -2  -4 -11    0.70    0.90
  -2  -4 -11    0.70    1.20
  -2  -4 -11    0.20    0.80
   2  -4  11    1.90    1.10
   2  -4  11    0.50    0.90
   2  -4  11    2.10    1.00
  -2  -4 -11    0.40    1.50
  -2  -4 -11    2.70    0.80
  -2   4 -11    0.40    0.80
   2   4  11    0.60    1.00
  -2   4 -11   -0.60    1.40
   3  -4  11    4.90    1.20
  -3  -4 -11    3.70    0.90
  -3  -4 -11    5.70    1.00
   3  -4  11    1.80    1.50
   3   4  11    4.30    1.40
  -3   4 -11    4.00    0.90
 -15   0  12   88.39    5.90
 -15   0  12   73.39    5.60
 -15   0  12   78.89    5.80
 -15   0  12   73.09    5.70
 -14   0  12   25.30    2.40
 -14   0  12   28.10    2.20
 -14   0  12   24.50    2.10
 -14   0  12   30.40    2.70
 -14   0  12   26.60    2.40
 -13   0  12   78.79    5.70
 -13   0  12   83.19    6.10
 -13   0  12   74.59    5.60
 -13   0  12   77.49    5.70
 -13   0  12   72.89    5.80
 -12   0  12   -0.40    1.70
 -12   0  12   -1.00    1.10
 -12   0  12   -0.60    0.90
 -12   0  12   -1.30    1.10
 -12   0  12   -0.30    0.50
 -12   0  12   -0.50    0.60
 -12   0  12    0.10    0.70
 -12   0  12   -0.80    1.00
  12   0 -12    0.10    1.00
 -11   0  12    5.50    1.20
 -11   0  12    4.60    0.90
 -11   0  12    5.20    0.90
 -11   0  12    7.80    1.30
 -11   0  12    3.40    1.20
 -11   0  12    4.70    1.50
 -11   0  12    6.50    1.00
 -10   0  12   10.10    1.40
 -10   0  12   11.60    1.60
 -10   0  12   12.10    1.50
 -10   0  12   10.30    1.60
 -10   0  12   10.90    1.50
 -10   0  12   10.20    2.10
 -10   0  12   11.50    1.40
 -10   0  12    9.90    2.10
  -9   0  12 1118.89   71.39
  -9   0  12  993.80   71.39
  -9   0  12 1000.10   71.39
  -9   0  12 1036.80   71.49
  -9   0  12  978.10   71.39
  -9   0  12  951.30   71.29
  -9   0  12  986.10   71.39
  -9   0  12 1065.79   71.59
  -8   0  12  290.27   19.70
  -8   0  12  269.07   19.50
  -8   0  12  283.77   19.70
  -8   0  12  295.07   19.40
  -8   0  12  268.47   19.40
  -8   0  12  270.67   19.40
  -8   0  12  260.67   19.50
   8   0 -12  267.17   19.40
  -8   0  12  257.87   19.50
  -8   0  12  282.67   19.40
  -7   0  12    7.00    1.20
  -7   0  12    8.50    1.50
  -7   0  12    6.00    1.30
  -7   0  12    5.20    2.10
  -7   0  12    7.40    1.40
  -7   0  12    6.70    1.20
   7   0 -12    7.50    1.10
  -7   0  12    5.60    1.30
  -7   0  12    6.90    1.10
  -6   0  12 1267.67   83.29
  -6   0  12 1223.38   83.49
  -6   0  12 1150.28   83.39
  -6   0  12 1185.88   83.29
  -6   0  12 1188.28   83.29
  -6   0  12 1060.39   83.29
  -6   0  12 1272.57   83.19
  -6   0  12 1238.58   83.49
   6   0 -12 1205.78   83.29
  -6   0  12 1080.19   83.29
  -5   0  12  652.23   42.60
  -5   0  12  598.44   42.80
  -5   0  12  573.74   42.70
  -5   0  12  586.34   42.70
  -5   0  12  642.14   42.90
  -5   0  12  627.64   42.70
   5   0 -12  617.94   42.70
  -5   0  12  569.14   42.70
  -5   0  12  568.44   42.80
  -5   0  12  617.14   42.70
  -5   0  12  626.84   42.90
  -4   0  12  690.03   43.30
  -4   0  12  555.74   43.30
  -4   0  12  628.54   43.20
  -4   0  12  599.74   43.30
  -4   0  12  551.94   43.20
  -4   0  12  654.23   43.40
  -4   0  12  582.44   43.20
   4   0 -12  660.93   43.20
  -3   0  12  197.68   14.60
  -3   0  12  211.38   14.50
  -3   0  12  187.58   14.60
  -3   0  12  217.68   14.70
  -3   0  12  192.48   14.50
  -3   0  12  208.38   14.50
   3   0 -12  191.58   14.80
  -3   0  12  219.68   14.50
   3   0 -12  212.98   14.50
  -2   0  12  163.78   11.00
  -2   0  12  167.08   11.00
  -2   0  12  157.18   11.00
   2   0 -12  138.29   11.00
   2   0 -12  155.98   11.00
  -2   0  12  153.88   11.00
   2   0 -12  151.58   11.00
   2   0 -12  140.59   10.90
  -2   0  12  164.78   11.30
   1   0 -12  142.89    9.90
   1   0 -12  142.69    9.90
   1   0 -12  148.19    9.90
  -1   0  12  133.99    9.90
  -1   0  12  139.59   10.00
  -1   0  12  136.59   10.20
  -1   0  12  136.39   10.00
   1   0 -12  138.19    9.90
  -1   0  12  132.59    9.90
   0   0 -12    2.50    0.80
   0   0  12    2.20    0.90
   0   0 -12    3.40    0.80
   0   0  12    3.50    0.90
   0   0  12    1.30    0.80
   0   0 -12    3.00    0.80
   0   0 -12    2.60    1.00
  -1   0 -12   29.70    2.30
  -1   0 -12   28.10    2.20
   1   0  12   28.80    2.30
  -1   0 -12   27.10    2.10
   1   0  12   20.60    2.40
   1   0  12   21.90    2.30
   2   0  12  188.68   12.40
   2   0  12  157.68   12.20
  -2   0 -12  167.38   12.20
  -2   0 -12  182.18   12.20
  -2   0 -12  151.08   12.30
  -2   0 -12  169.18   12.20
  -2   0 -12  188.78   12.30
  -3   0 -12  270.97   20.30
  -3   0 -12  314.97   20.50
  -3   0 -12  282.77   20.30
  -3   0 -12  279.07   20.30
  -3   0 -12  300.07   20.40
   3   0  12  306.37   20.40
  -3   0 -12  248.38   20.30
  -3   0 -12  300.67   20.60
  -4   0 -12  276.47   19.90
   4   0  12  273.37   20.20
  -4   0 -12  299.37   20.00
  -4   0 -12  298.47   20.10
  -4   0 -12  271.57   20.00
  -4   0 -12  252.87   20.00
   4   0  12  294.37   20.10
  -4   0 -12  302.97   20.20
  -4   0 -12  273.37   20.10
  -5   0 -12  124.89    9.00
  -5   0 -12  132.59    9.10
   5   0  12  130.49    9.00
  -5   0 -12  112.39    9.00
  -5   0 -12  122.19    8.80
  -5   0 -12  129.39    9.30
  -5   0 -12  120.19    8.90
  -5   0 -12  105.79    8.90
  -5   0 -12  134.79    8.90
   6   0  12   93.59    7.70
  -6   0 -12  112.79    7.30
  -6   0 -12   97.59    7.20
  -6   0 -12  103.59    7.30
  -6   0 -12  100.49    7.70
  -6   0 -12   81.79    7.30
  -6   0 -12  111.99    7.40
  -7   0 -12  151.58    9.80
  -7   0 -12  152.28    9.80
  -7   0 -12  132.29    9.70
  -7   0 -12  136.79    9.80
  -7   0 -12  112.29   10.00
   7   0  12  131.59    9.80
 -14  -1  12   16.50    2.00
 -14  -1  12   19.60    2.00
 -14  -1  12   19.20    2.10
 -14  -1  12   21.80    2.30
 -14  -1  12   19.80    3.60
 -14   1  12   22.10    1.80
 -14   1  12   18.20    2.10
 -14   1  12   20.60    2.00
 -14   1  12   21.10    2.30
 -14   1  12   19.10    1.70
 -13  -1  12   16.30    2.20
 -13  -1  12   15.30    2.00
 -13  -1  12   15.00    1.80
 -13  -1  12   15.30    1.70
 -13  -1  12   12.80    2.50
 -13  -1  12   12.00    1.40
 -13  -1  12   13.30    1.50
 -13   1  12   12.30    2.10
 -13   1  12   15.80    1.40
 -13   1  12   12.60    1.80
 -13   1  12   14.60    1.80
 -13   1  12   15.70    1.50
  12  -1 -12  149.69   11.70
 -12  -1  12  147.29   11.60
 -12  -1  12  166.98   11.80
 -12  -1  12  158.88   11.60
 -12  -1  12  171.88   12.00
 -12  -1  12  177.78   12.00
 -12   1  12  163.08   11.80
 -12   1  12  160.48   11.60
 -12   1  12  171.48   11.70
 -12   1  12  172.68   12.00
 -11  -1  12   16.50    1.80
 -11  -1  12   14.60    2.00
  11  -1 -12   18.20    1.90
 -11  -1  12   22.40    2.00
 -11  -1  12   18.40    1.80
 -11  -1  12   23.20    2.60
 -11  -1  12   20.20    2.00
 -11  -1  12   20.20    2.10
 -11  -1  12   18.50    2.40
 -11   1  12   17.30    2.10
 -11   1  12   20.60    2.60
 -11   1  12   22.60    2.10
 -11   1  12   20.30    1.70
 -11   1  12   18.20    1.90
 -11   1  12   20.50    1.80
 -10  -1  12   99.09    7.30
 -10  -1  12   99.89    7.50
 -10  -1  12  103.79    7.40
  10  -1 -12  103.59    7.40
 -10  -1  12  103.09    7.60
 -10  -1  12  111.49    7.90
 -10  -1  12   92.89    7.30
 -10  -1  12  105.39    7.40
 -10  -1  12   95.79    7.40
 -10   1  12  107.99    7.50
 -10   1  12   98.09    7.30
 -10   1  12   99.09    7.50
 -10   1  12  102.19    7.30
 -10   1  12  107.79    7.40
 -10   1  12  106.19    7.70
  10   1 -12   89.19    7.30
  -9  -1  12  245.28   17.40
   9  -1 -12  235.38   17.30
  -9  -1  12  264.77   17.70
  -9  -1  12  258.17   17.50
   9  -1 -12  235.68   17.40
  -9  -1  12  261.07   17.70
  -9  -1  12  238.68   17.40
  -9  -1  12  242.08   17.40
  -9  -1  12  253.07   17.40
  -9   1  12  245.78   17.50
  -9   1  12  231.08   17.50
  -9   1  12  238.08   17.40
   9   1 -12  225.78   17.30
  -9   1  12  251.07   17.40
  -9   1  12  249.08   17.70
  -9   1  12  255.67   17.40
  -8  -1  12   16.50    2.00
  -8  -1  12   19.00    2.40
  -8  -1  12   18.90    1.80
  -8  -1  12   18.80    1.80
  -8  -1  12   17.80    1.90
  -8  -1  12   13.90    2.00
  -8  -1  12   20.80    2.30
  -8  -1  12   17.30    1.90
   8  -1 -12   18.00    1.80
  -8  -1  12   17.60    1.70
  -8   1  12   19.70    1.70
  -8   1  12   17.20    2.80
  -8   1  12   18.60    1.70
  -8   1  12   18.60    1.90
  -8   1  12   19.90    2.00
  -8   1  12   20.00    1.80
   8   1 -12   17.10    1.70
  -8   1  12   14.10    2.40
  -7  -1  12  295.67   22.50
  -7  -1  12  319.77   22.70
  -7  -1  12  296.27   22.40
   7  -1 -12  295.97   22.40
  -7  -1  12  300.47   22.50
  -7  -1  12  336.47   22.40
  -7  -1  12  345.67   22.80
  -7  -1  12  321.37   22.50
  -7  -1  12  340.87   22.50
  -7  -1  12  318.97   22.50
  -7  -1  12  315.97   22.50
  -7   1  12  291.77   22.50
  -7   1  12  345.47   22.40
  -7   1  12  296.27   22.50
   7   1 -12  321.07   22.40
  -7   1  12  303.17   22.60
  -7   1  12  329.47   22.40
  -7   1  12  338.97   22.50
  -7   1  12  324.57   22.70
  -7   1  12  318.07   22.50
  -6  -1  12   37.40    3.10
  -6  -1  12   38.60    3.00
  -6  -1  12   33.90    3.70
  -6  -1  12   39.50    3.00
   6  -1 -12   38.30    2.90
  -6  -1  12   41.50    3.50
  -6  -1  12   38.60    3.00
  -6  -1  12   30.70    3.10
  -6  -1  12   43.20    3.50
  -6  -1  12   40.20    3.10
  -6  -1  12   36.60    3.10
  -6  -1  12   35.70    3.10
  -6   1  12   39.10    3.00
  -6   1  12   34.00    3.70
  -6   1  12   42.10    3.00
  -6   1  12   35.10    3.60
   6   1 -12   39.60    3.00
  -6   1  12   39.50    3.10
  -6   1  12   35.10    3.10
  -6   1  12   41.90    2.90
  -6   1  12   34.90    3.20
  -5  -1  12   79.49    6.10
  -5  -1  12   79.89    5.70
  -5  -1  12   78.99    5.80
  -5  -1  12   86.49    5.80
   5  -1 -12   66.69    5.70
  -5  -1  12   71.79    5.70
  -5  -1  12   82.09    6.10
   5  -1 -12   83.19    5.70
  -5  -1  12   67.69    6.30
  -5  -1  12   84.29    5.80
  -5  -1  12   72.99    5.70
  -5   1  12   85.29    5.70
  -5   1  12   69.39    5.80
  -5   1  12   86.09    5.70
  -5   1  12   80.49    5.70
  -5   1  12   80.19    5.80
  -5   1  12   72.99    6.10
  -5   1  12   76.79    5.80
   5   1 -12   79.39    5.70
  -4  -1  12    2.50    1.50
  -4  -1  12    2.10    0.90
   4  -1 -12    2.20    1.00
  -4  -1  12    2.60    1.30
  -4  -1  12    3.90    1.30
  -4  -1  12    2.00    0.70
  -4  -1  12    2.90    1.10
  -4  -1  12    3.10    0.80
   4  -1 -12    3.60    0.60
  -4  -1  12    2.10    0.90
  -4   1  12    2.30    1.20
  -4   1  12    2.20    0.80
   4   1 -12    3.20    0.80
  -4   1  12    3.30    0.80
  -4   1  12    2.10    0.80
  -4   1  12    2.80    1.00
  -4   1  12    3.80    2.00
  -3  -1  12  208.18   15.40
  -3  -1  12  239.88   15.40
  -3  -1  12  211.38   15.50
  -3  -1  12  224.18   15.30
  -3  -1  12  196.18   15.40
   3  -1 -12  231.18   15.30
  -3  -1  12  216.18   15.30
   3  -1 -12  216.58   15.30
   3  -1 -12  207.48   15.40
   3  -1 -12  195.18   15.30
  -3   1  12  212.48   15.40
  -3   1  12  219.68   15.30
  -3   1  12  217.18   15.40
  -3   1  12  238.28   15.30
  -3   1  12  227.28   15.30
   3   1 -12  198.88   15.30
   3   1 -12  232.28   15.30
  -3   1  12  194.38   15.40
  -3   1  12  222.48   15.60
   2  -1 -12  144.09   11.60
   2  -1 -12  166.18   11.50
   2  -1 -12  160.38   11.50
   2  -1 -12  154.98   11.60
  -2  -1  12  176.78   11.50
   2  -1 -12  143.89   11.50
  -2  -1  12  154.68   11.50
  -2  -1  12  179.08   11.60
  -2  -1  12  162.68   11.60
   2   1 -12  170.78   11.50
  -2   1  12  178.78   11.60
   2   1 -12  174.18   11.50
   2   1 -12  163.58   11.50
  -2   1  12  136.89   11.60
  -2   1  12  162.88   11.60
  -2   1  12  152.58   11.60
  -2   1  12  172.18   11.50
   1  -1 -12  263.17   18.20
   1  -1 -12  270.27   18.20
   1  -1 -12  244.58   18.40
  -1  -1  12  274.77   18.30
  -1  -1  12  245.88   18.20
   1  -1 -12  255.77   18.30
  -1  -1  12  253.87   18.30
  -1   1  12  254.87   18.20
   1   1 -12  241.98   18.20
  -1   1  12  237.58   18.20
   1   1 -12  258.77   18.20
  -1   1  12  274.77   18.30
   1   1 -12  261.17   18.20
   1   1 -12  270.37   18.20
   0  -1  12  101.19    7.60
   0  -1 -12  117.79    7.60
   0  -1 -12  113.29    7.60
   0  -1 -12  104.19    7.70
   0  -1 -12  103.39    7.50
   0   1  12  110.09    7.70
   0   1 -12  104.89    7.60
   0   1 -12  110.29    7.60
   0   1 -12  110.49    7.90
   0   1  12   95.09    7.60
   0   1  12   93.39    7.60
   0   1 -12  100.29    7.60
   1  -1  12   77.89    5.90
   1  -1  12   78.99    5.70
  -1  -1 -12   83.59    5.60
  -1  -1 -12   77.19    5.90
   1  -1  12   69.89    5.70
  -1  -1 -12   75.39    5.60
  -1  -1 -12   81.49    5.70
  -1  -1 -12   76.89    5.70
  -1   1 -12   79.89    5.60
   1   1  12   66.59    5.70
  -1   1 -12   76.39    5.70
   1   1  12   78.29    5.70
  -1   1 -12   81.99    5.60
  -1   1 -12   76.49    5.70
  -2  -1 -12   98.69    6.90
  -2  -1 -12   95.29    6.80
   2  -1  12   97.19    6.90
   2  -1  12   93.49    6.80
  -2  -1 -12   88.69    6.60
  -2  -1 -12   95.49    6.80
  -2  -1 -12   93.39    6.70
  -2  -1 -12   87.49    6.60
  -2   1 -12   89.89    6.70
  -2   1 -12   94.39    6.70
  -2   1 -12   95.59    6.70
   2   1  12   81.89    6.70
   2   1  12   90.99    6.70
  -2   1 -12   86.59    6.70
  -3  -1 -12   44.80    3.30
  -3  -1 -12   39.70    3.10
  -3  -1 -12   40.10    3.10
   3  -1  12   42.80    3.30
  -3  -1 -12   41.60    3.30
  -3  -1 -12   41.20    3.20
  -3  -1 -12   41.60    3.70
  -3  -1 -12   34.70    3.40
  -3   1 -12   37.70    3.70
   3   1  12   42.30    3.30
  -3   1 -12   41.80    3.20
  -3   1 -12   37.80    3.20
  -4  -1 -12   46.30    3.40
  -4  -1 -12   47.20    3.60
  -4  -1 -12   35.30    3.60
  -4  -1 -12   36.00    3.40
  -4  -1 -12   40.20    3.70
   4  -1  12   43.70    3.40
  -4  -1 -12   41.70    3.20
  -4  -1 -12   34.50    3.60
  -4  -1 -12   46.70    3.40
   4  -1  12   43.30    4.30
  -4   1 -12   43.30    3.30
  -4   1 -12   42.40    3.80
   4   1  12   42.20    3.50
  -4   1 -12   44.70    3.40
  -4   1 -12   46.10    3.40
  -5  -1 -12    4.60    1.00
  -5  -1 -12    2.60    1.10
  -5  -1 -12    4.30    0.80
  -5  -1 -12    3.30    1.30
  -5  -1 -12    3.50    0.90
  -5  -1 -12    4.00    1.60
   5  -1  12    4.10    1.10
  -5   1 -12    5.10    1.10
   5   1  12    3.10    1.20
  -5   1 -12    4.30    1.10
  -5   1 -12    3.00    0.90
  -5   1 -12    3.80    1.00
  -6  -1 -12    1.70    0.80
  -6  -1 -12    1.90    0.80
  -6  -1 -12    3.60    0.90
   6  -1  12    0.20    1.00
  -6   1 -12    2.20    0.80
  -6   1 -12    1.90    0.90
  -6   1 -12    0.80    1.00
   6   1  12    2.60    1.20
  -6   1 -12    1.40    0.90
  -6   1 -12    2.10    1.00
  -7  -1 -12    5.50    1.00
  -7  -1 -12    5.30    1.20
   7   1  12    3.50    1.60
  -7   1 -12    1.50    1.10
  -7   1 -12    3.00    0.80
  -7   1 -12    5.50    1.20
  -7   1 -12    3.30    1.20
  -7   1 -12    2.40    1.40
 -14  -2  12    9.10    1.90
 -14  -2  12   10.30    2.20
 -14  -2  12   10.60    1.50
 -14   2  12    9.40    1.60
 -14   2  12    9.10    1.00
 -14   2  12   10.40    1.10
 -13  -2  12    0.50    1.20
  13  -2 -12    0.90    0.90
 -13  -2  12    0.60    1.00
 -13  -2  12    0.70    1.00
 -13  -2  12    0.00    1.20
 -13   2  12    0.70    0.50
 -13   2  12    1.70    1.10
 -13   2  12    0.70    1.00
 -13   2  12   -0.10    1.30
 -13   2  12    0.30    0.60
 -12  -2  12   10.80    1.80
 -12  -2  12    9.80    1.50
 -12  -2  12    8.80    1.40
 -12  -2  12   10.40    2.10
 -12  -2  12   14.00    2.00
  12  -2 -12   11.50    1.50
 -12   2  12   11.30    1.90
 -12   2  12   10.90    1.10
 -12   2  12   10.10    1.30
 -12   2  12    7.40    1.60
 -12   2  12   11.50    1.60
 -11  -2  12   26.00    2.60
 -11  -2  12   18.20    2.00
 -11  -2  12   24.10    2.80
 -11  -2  12   23.90    2.20
 -11  -2  12   22.80    2.20
 -11  -2  12   20.50    2.40
 -11  -2  12   24.20    2.30
 -11  -2  12   18.10    2.00
  11  -2 -12   23.80    2.10
 -11   2  12   22.10    2.00
 -11   2  12   25.60    2.30
 -11   2  12   23.40    1.90
 -11   2  12   18.60    2.40
 -10  -2  12    4.50    1.40
 -10  -2  12    6.90    1.40
 -10  -2  12    5.10    0.90
 -10  -2  12    6.00    1.20
 -10  -2  12    5.80    0.90
 -10  -2  12    4.60    1.30
 -10  -2  12    2.80    0.70
 -10  -2  12    4.60    1.30
  10   2 -12    6.50    1.20
 -10   2  12    3.60    0.70
 -10   2  12    7.10    1.00
 -10   2  12    3.60    1.60
 -10   2  12    7.30    1.40
 -10   2  12    3.80    1.10
  -9  -2  12    3.10    0.80
  -9  -2  12    4.40    0.90
  -9  -2  12    2.60    0.70
  -9  -2  12    2.60    1.20
  -9  -2  12    4.20    1.10
   9  -2 -12    3.00    0.80
  -9  -2  12    3.50    1.00
  -9  -2  12    4.30    1.10
  -9  -2  12    4.20    0.90
  -9  -2  12    3.10    1.20
  -9   2  12    4.50    0.70
  -9   2  12    3.80    0.90
   9   2 -12    3.90    0.90
  -9   2  12    2.20    0.70
  -9   2  12    4.40    1.30
  -9   2  12    3.40    0.80
  -9   2  12    4.40    1.10
  -8  -2  12   11.90    2.20
   8  -2 -12   13.30    1.40
  -8  -2  12   11.60    1.60
  -8  -2  12   11.10    1.50
  -8  -2  12   14.60    1.70
  -8  -2  12   13.20    1.70
  -8  -2  12    9.60    1.80
  -8  -2  12   11.40    1.80
   8  -2 -12   14.80    1.50
  -8  -2  12    9.40    1.70
  -8  -2  12   12.80    1.60
  -8  -2  12   14.60    2.00
  -8   2  12   12.50    1.80
   8   2 -12   12.40    1.50
  -8   2  12   11.50    1.80
  -8   2  12   14.10    1.40
  -8   2  12   13.60    1.40
  -8   2  12   13.60    1.50
  -8   2  12    9.70    1.60
  -7  -2  12    0.90    1.00
  -7  -2  12    1.90    1.00
  -7  -2  12    1.90    0.80
   7  -2 -12    1.50    0.70
  -7  -2  12    3.00    1.10
  -7  -2  12    0.70    0.70
  -7  -2  12    0.30    0.70
  -7  -2  12    0.80    0.80
  -7  -2  12    0.90    1.10
  -7  -2  12    1.70    1.10
   7  -2 -12    0.80    0.70
  -7   2  12    1.80    0.70
  -7   2  12    0.60    0.50
  -7   2  12    1.60    0.70
  -7   2  12    1.00    0.80
  -7   2  12    2.30    1.10
  -7   2  12    2.20    1.10
  -6  -2  12   13.60    1.40
  -6  -2  12   11.80    2.40
  -6  -2  12   12.00    1.80
   6  -2 -12   12.30    1.40
  -6  -2  12   13.10    1.60
  -6  -2  12   11.90    1.50
  -6  -2  12   12.70    1.60
  -6  -2  12   14.60    1.70
  -6  -2  12   12.90    1.50
   6  -2 -12   12.40    1.20
  -6  -2  12   13.10    2.00
  -6   2  12   12.30    1.60
  -6   2  12    9.80    1.50
  -6   2  12   12.80    1.80
  -6   2  12   14.60    1.40
  -6   2  12   10.30    1.70
  -6   2  12   13.10    1.60
  -6   2  12   11.90    1.40
  -5  -2  12  143.09   10.60
  -5  -2  12  151.68   10.50
   5  -2 -12  143.49   10.40
  -5  -2  12  153.98   10.60
  -5  -2  12  142.79   10.50
  -5  -2  12  142.09   10.50
  -5  -2  12  136.09   10.50
  -5  -2  12  150.88   10.80
   5  -2 -12  149.59   10.50
  -5  -2  12  149.79   10.60
  -5   2  12  133.49   10.60
  -5   2  12  153.48   10.60
  -5   2  12  149.59   10.60
  -5   2  12  147.09   10.50
  -5   2  12  157.98   10.50
  -5   2  12  138.99   10.40
  -5   2  12  156.38   10.60
  -4  -2  12   41.70    3.00
  -4  -2  12   35.60    3.30
  -4  -2  12   35.00    2.90
  -4  -2  12   31.00    2.90
  -4  -2  12   40.30    2.90
  -4  -2  12   34.90    2.70
   4  -2 -12   34.70    2.70
   4  -2 -12   35.30    2.80
  -4  -2  12   34.40    3.00
  -4  -2  12   36.20    3.30
  -4   2  12   28.70    2.90
  -4   2  12   33.20    3.10
  -4   2  12   35.60    2.90
  -4   2  12   35.60    2.90
  -4   2  12   30.30    3.40
  -3  -2  12    9.80    1.30
  -3  -2  12    9.30    1.80
  -3  -2  12   12.70    2.00
  -3  -2  12   10.60    1.70
  -3  -2  12   13.90    1.50
   3  -2 -12   12.20    1.10
   3  -2 -12    7.80    1.30
  -3  -2  12   12.80    1.50
  -3  -2  12   11.50    1.40
   3  -2 -12   10.50    1.30
  -3   2  12    7.60    1.50
  -3   2  12   12.10    1.50
   2  -2 -12   10.90    1.30
   2  -2 -12   13.20    1.10
  -2  -2  12   10.10    2.10
  -2  -2  12   11.30    1.40
   2  -2 -12   10.60    1.20
  -2  -2  12    8.00    1.80
  -2  -2  12    7.90    1.60
  -2  -2  12    9.70    1.60
   2  -2 -12    9.60    1.90
   2  -2 -12    8.00    1.70
  -2  -2  12   12.10    1.50
   2  -2 -12    8.60    1.40
   2   2 -12   11.70    1.30
  -2   2  12   12.10    1.70
  -2   2  12   10.50    2.00
  -2   2  12   12.30    1.40
   2   2 -12    7.20    1.70
   1  -2 -12   51.59    3.80
   1  -2 -12   52.99    3.70
  -1  -2  12   45.40    3.80
  -1  -2  12   49.70    3.80
   1  -2 -12   49.40    3.60
  -1  -2  12   47.90    4.20
  -1  -2  12   50.19    3.90
   1  -2 -12   42.30    3.80
   1  -2 -12   49.10    3.60
   1   2 -12   49.50    3.70
  -1   2  12   53.59    3.80
   1   2 -12   44.40    3.80
  -1   2  12   53.09    3.90
   1   2 -12   48.90    3.80
   0  -2  12    0.00    1.00
   0  -2 -12   -0.60    0.90
   0  -2  12    0.70    0.80
   0  -2 -12    0.40    0.80
   0  -2 -12    0.90    0.50
   0  -2  12    0.60    0.80
   0  -2  12    0.50    1.40
   0  -2 -12    0.50    0.80
   0  -2 -12   -0.20    0.70
   0   2  12    0.90    0.90
   0   2 -12    1.20    0.80
   0   2 -12    0.90    0.80
   0   2 -12    2.40    1.00
   0   2  12    0.70    0.90
  -1  -2 -12   11.10    1.60
  -1  -2 -12   12.70    1.60
   1  -2  12   10.40    1.50
  -1  -2 -12   11.20    1.40
  -1  -2 -12   10.50    1.50
  -1  -2 -12   11.70    1.20
   1  -2  12   10.80    1.70
  -1  -2 -12    9.60    1.90
  -1  -2 -12   12.70    1.20
   1  -2  12   10.40    1.60
  -1   2 -12    9.60    1.70
   1   2  12   10.50    1.70
  -1   2 -12    9.50    1.40
   1   2  12   11.50    1.50
  -1   2 -12   13.70    1.50
  -1   2 -12   11.20    1.50
  -2  -2 -12    1.60    0.60
  -2  -2 -12    3.10    0.70
  -2  -2 -12    2.50    1.10
   2  -2  12    1.20    1.00
   2  -2  12    1.60    1.10
  -2  -2 -12    2.40    0.80
  -2  -2 -12    2.40    0.70
  -2  -2 -12    2.70    0.90
   2  -2  12    1.10    0.90
  -2   2 -12    2.60    0.80
  -2   2 -12    1.00    1.00
   2   2  12    1.40    0.90
   2   2  12    2.00    1.00
  -2   2 -12    1.10    1.00
  -2   2 -12    1.40    1.30
   3  -2  12    1.00    1.10
  -3  -2 -12    0.90    0.70
  -3  -2 -12    1.70    0.80
  -3  -2 -12    2.00    0.90
   3  -2  12   -1.40    1.00
  -3  -2 -12    1.90    0.70
  -3  -2 -12   -0.20    0.60
   3  -2  12    2.20    1.10
  -3  -2 -12    1.50    1.00
  -3  -2 -12    0.70    1.10
   3   2  12    2.00    0.90
  -3   2 -12    1.00    1.20
  -3   2 -12    0.80    0.80
   3   2  12    0.90    1.10
  -3   2 -12    0.70    1.00
  -4  -2 -12    9.30    1.50
  -4  -2 -12   10.70    1.20
   4  -2  12    7.70    1.40
  -4  -2 -12   10.10    1.10
  -4  -2 -12    7.00    1.70
  -4  -2 -12   10.20    1.20
   4   2  12    7.70    1.60
  -4   2 -12    8.40    1.40
  -4   2 -12    9.20    1.60
   4   2  12    7.70    1.70
  -4   2 -12    7.80    1.30
  -4   2 -12    7.40    1.40
   5  -2  12   -0.40    1.10
  -5  -2 -12    1.00    0.80
  -5  -2 -12    0.60    0.70
  -5  -2 -12    0.90    1.00
  -5  -2 -12    0.70    0.70
  -5   2 -12    0.30    1.10
  -5   2 -12   -0.20    1.00
  -5   2 -12    0.20    0.80
   5   2  12   -0.30    0.90
  -5   2 -12    0.30    1.00
   6  -2  12   -1.20    1.10
  -6  -2 -12    0.70    0.80
  -6  -2 -12    0.60    0.70
  -6   2 -12   -2.30    1.10
  -6   2 -12   -1.80    1.70
  -6   2 -12    0.80    0.80
  -6   2 -12   -0.30    1.00
   6   2  12    1.20    1.00
 -12  -3  12   36.80    2.80
  12  -3 -12   30.80    2.70
 -12   3  12   34.10    2.60
 -12   3  12   32.70    2.50
 -12   3  12   33.20    2.80
  11  -3 -12   51.99    3.70
 -11  -3  12   46.10    3.80
 -11  -3  12   45.90    3.90
 -11  -3  12   50.49    3.80
 -11   3  12   40.90    3.80
 -11   3  12   50.79    3.60
 -11   3  12   51.49    3.90
 -11   3  12   50.69    3.60
 -10  -3  12   66.49    5.30
  10  -3 -12   73.09    5.30
 -10  -3  12   67.29    5.40
 -10  -3  12   74.99    5.40
 -10   3  12   71.79    5.20
 -10   3  12   76.99    5.20
  10   3 -12   60.39    5.30
 -10   3  12   78.69    5.40
  -9  -3  12   25.90    2.40
   9  -3 -12   31.70    2.40
  -9  -3  12   30.30    2.60
  -9  -3  12   29.80    2.60
  -9   3  12   28.90    2.40
  -9   3  12   25.70    2.30
  -9   3  12   25.00    2.60
  -9   3  12   30.70    2.60
  -8  -3  12   57.39    5.10
   8  -3 -12   72.69    4.90
  -8  -3  12   63.89    5.00
  -8  -3  12   57.69    5.00
  -8  -3  12   71.59    5.10
  -8  -3  12   76.49    5.20
  -8  -3  12   63.09    4.90
  -8  -3  12   67.19    5.20
  -8   3  12   59.99    5.00
  -8   3  12   75.09    5.00
  -8   3  12   67.39    5.10
  -8   3  12   67.59    4.90
  -7  -3  12    4.00    1.60
   7  -3 -12    5.10    0.90
   7  -3 -12    3.40    0.70
  -7  -3  12    2.20    1.30
  -7  -3  12    3.10    0.90
  -7  -3  12    4.10    1.40
  -7  -3  12    4.60    1.20
  -7  -3  12    4.10    1.10
  -7  -3  12    2.60    0.90
  -7  -3  12    3.60    0.80
  -7  -3  12    2.90    1.00
  -7   3  12    4.00    1.20
  -7   3  12    1.30    1.00
  -7   3  12    1.80    0.80
  -7   3  12    2.80    1.00
  -6  -3  12   -1.20    0.70
  -6  -3  12   -0.50    0.80
   6  -3 -12    0.10    0.60
  -6  -3  12   -0.70    1.60
  -6  -3  12   -0.10    0.80
  -6  -3  12   -0.50    1.40
  -6  -3  12    0.30    1.10
  -6  -3  12    0.20    1.00
   6  -3 -12    0.70    0.70
  -6   3  12    0.40    0.90
  -6   3  12   -1.40    1.10
  -6   3  12   -0.20    1.10
   5  -3 -12   52.09    3.70
  -5  -3  12   49.50    3.90
  -5  -3  12   49.30    4.00
  -5  -3  12   49.30    3.80
   5  -3 -12   46.90    3.70
  -5  -3  12   46.70    4.40
  -5  -3  12   49.40    3.70
  -5  -3  12   52.89    4.30
  -5  -3  12   50.09    4.10
  -5   3  12   47.60    4.00
  -4  -3  12   10.70    1.30
  -4  -3  12   12.90    2.00
  -4  -3  12   12.40    1.80
   4  -3 -12   12.70    1.20
  -4  -3  12   14.40    2.00
   4  -3 -12    9.90    1.30
  -4  -3  12   13.80    1.70
  -4  -3  12   11.90    1.50
   4   3 -12    9.10    1.50
  -4   3  12    9.40    1.80
   3  -3 -12    1.90    0.70
  -3  -3  12    2.00    0.70
   3  -3 -12    2.90    0.60
  -3  -3  12    2.70    0.80
  -3  -3  12    1.80    1.20
  -3  -3  12    2.10    1.30
  -3  -3  12    2.30    0.80
   3   3 -12    1.10    0.90
  -3   3  12    1.10    1.10
   2  -3 -12  329.77   21.50
  -2  -3  12  309.17   21.70
  -2  -3  12  331.57   21.80
  -2  -3  12  270.97   21.70
   2  -3 -12  260.57   21.50
  -2  -3  12  284.07   21.70
   2  -3 -12  311.27   21.60
   2  -3 -12  313.27   21.60
  -2   3  12  318.87   21.70
  -2   3  12  342.07   21.70
   2   3 -12  293.17   21.60
   1  -3 -12  101.69    7.20
   1  -3 -12   84.69    7.20
   1  -3 -12   98.69    7.10
  -1  -3  12  105.09    7.30
   1  -3 -12  103.39    7.20
   1  -3 -12  100.49    7.00
  -1  -3  12  100.29    7.20
  -1  -3  12   84.09    7.40
   1  -3 -12   99.89    7.10
  -1   3  12  102.89    7.20
   1   3 -12   95.09    7.10
   1   3 -12  101.59    7.10
  -1   3  12   99.89    7.30
   0  -3  12   78.59    6.10
   0  -3 -12   79.29    6.10
   0  -3 -12   73.99    6.30
   0  -3 -12   82.39    6.10
   0  -3 -12   86.79    6.00
   0  -3 -12   85.39    6.10
   0  -3 -12   83.29    6.00
   0  -3 -12   88.89    6.20
   0  -3  12   87.99    6.30
   0  -3 -12   85.79    6.10
   0  -3 -12   83.89    6.30
   0   3 -12   80.19    6.10
   0   3  12   85.09    6.20
   0   3  12   84.29    6.20
   0   3 -12   81.49    6.10
   0   3 -12   78.59    6.10
   1  -3  12  138.69    9.70
  -1  -3 -12  141.99    9.70
  -1  -3 -12  132.29    9.50
  -1  -3 -12  139.09    9.40
  -1  -3 -12  131.19    9.60
   1  -3  12  123.29    9.50
  -1  -3 -12  134.09    9.50
  -1  -3 -12  140.99    9.50
  -1  -3 -12  129.99    9.50
  -1  -3 -12  129.59    9.40
  -1   3 -12  115.39    9.40
  -1   3 -12  128.79    9.50
   1   3  12  135.09    9.60
  -1   3 -12  124.29    9.50
   2  -3  12   25.80    2.70
  -2  -3 -12   27.30    2.20
  -2  -3 -12   27.30    2.10
  -2  -3 -12   27.10    2.50
  -2  -3 -12   25.40    2.10
   2  -3  12   22.20    2.30
  -2  -3 -12   25.30    2.30
  -2  -3 -12   25.40    2.30
  -2  -3 -12   21.00    2.40
  -2  -3 -12   25.30    2.50
  -2   3 -12   22.40    2.30
  -2   3 -12   21.70    2.20
   2   3  12   29.00    2.50
  -3  -3 -12   42.50    3.30
  -3  -3 -12   40.20    3.00
  -3  -3 -12   41.70    3.10
  -3  -3 -12   42.20    3.10
  -3  -3 -12   40.30    3.30
   3  -3  12   35.80    3.60
  -3  -3 -12   39.10    3.00
  -3  -3 -12   41.00    3.30
  -3   3 -12   32.60    3.10
   3   3  12   44.40    3.40
  -3   3 -12   34.90    3.20
  -4  -3 -12   17.00    1.50
  -4  -3 -12   14.30    1.80
  -4  -3 -12   18.10    1.60
  -4  -3 -12   17.80    1.50
  -4  -3 -12   15.70    1.90
   4   3  12   18.00    2.10
  -4   3 -12   13.10    1.90
  -4   3 -12   13.90    1.70
  -5  -3 -12    1.80    0.60
  -5  -3 -12    2.00    0.70
  -5  -3 -12    0.30    0.40
  -5   3 -12    1.70    0.80
   9  -4 -12   10.30    1.30
  -9  -4  12   12.20    2.00
  -9   4  12   10.70    1.50
  -9   4  12    8.70    1.50
  -8  -4  12   45.40    3.50
   8  -4 -12   43.30    3.10
  -8  -4  12   32.80    3.40
  -8   4  12   33.00    3.20
  -8   4  12   47.00    3.30
  -7  -4  12   22.60    2.50
  -7  -4  12   20.30    2.50
  -7  -4  12   27.00    3.70
  -7  -4  12   26.60    2.50
   7  -4 -12   26.40    2.10
  -7   4  12   30.70    2.40
  -7   4  12   26.00    2.40
  -6  -4  12   12.90    1.90
   6  -4 -12   15.20    1.40
  -6  -4  12   13.80    1.80
  -6  -4  12   12.90    1.90
  -6  -4  12   14.20    2.20
   6  -4 -12   15.50    1.60
  -6  -4  12   13.50    1.80
  -6   4  12    9.90    1.80
  -6   4  12   14.30    1.80
  -5  -4  12  180.68   11.50
  -5  -4  12  141.49   11.30
  -5  -4  12  183.28   11.50
  -5  -4  12  157.98   11.50
  -5  -4  12  168.98   11.40
   5  -4 -12  151.58   11.30
  -5   4  12  153.28   11.40
   5   4 -12  136.39   11.30
  -4  -4  12   60.69    4.40
   4  -4 -12   52.29    4.20
  -4  -4  12   52.09    4.50
   4  -4 -12   66.99    4.20
  -4  -4  12   63.39    4.50
  -4  -4  12   47.40    4.20
  -4   4  12   56.99    4.50
   3  -4 -12   21.70    1.70
  -3  -4  12   20.00    1.90
  -3  -4  12   14.90    2.30
  -3  -4  12   14.90    1.70
  -3  -4  12   17.00    2.10
  -3  -4  12   18.50    1.90
   3  -4 -12   20.50    1.60
   2  -4 -12   10.30    1.40
  -2  -4  12    9.00    1.50
  -2  -4  12    8.90    1.40
   2  -4 -12    8.50    1.70
  -2  -4  12    9.80    1.60
   2  -4 -12    8.30    1.20
   2  -4 -12   10.30    1.00
  -2  -4  12    8.80    1.20
  -2  -4  12    5.10    2.00
   2   4 -12    5.90    1.10
   1  -4 -12    4.60    0.70
  -1  -4  12    5.00    1.20
  -1  -4  12    4.20    0.80
   1  -4 -12    3.70    1.00
   1  -4 -12    5.30    1.00
  -1  -4  12    4.60    0.90
  -1  -4  12    3.90    0.90
   1  -4 -12    5.00    0.90
   1   4 -12    3.70    0.90
  -1   4  12    4.10    1.00
   1   4 -12    5.20    1.00
   0  -4  12    9.40    1.40
   0  -4 -12   10.60    1.20
   0  -4  12    7.60    1.10
   0  -4 -12    8.50    1.60
   0  -4 -12    9.40    1.50
   0  -4 -12    8.50    1.10
   0  -4 -12   10.70    1.40
   0  -4  12    8.00    1.70
   0  -4  12    8.30    1.60
   0   4 -12    7.00    1.30
   0   4  12    9.80    1.60
   1  -4  12    9.10    1.40
  -1  -4 -12    9.80    1.50
  -1  -4 -12    8.80    1.40
   1  -4  12    7.80    1.70
  -1  -4 -12    7.40    1.10
   1  -4  12    7.10    2.20
   1   4  12   10.50    1.70
  -1   4 -12    8.50    1.30
  -2  -4 -12   21.40    1.80
  -2   4 -12   15.50    1.80
 -14   0  13   -0.20    0.50
 -14   0  13    0.90    0.70
 -14   0  13   -0.10    0.90
 -14   0  13    0.20    0.90
 -14   0  13    0.30    0.50
 -13   0  13    1.00    1.00
 -13   0  13   -0.30    0.60
 -13   0  13    0.30    0.50
 -13   0  13    0.50    0.70
 -13   0  13   -0.40    1.00
 -12   0  13    1.10    1.60
 -12   0  13   -0.90    1.00
 -12   0  13    0.20    0.70
  12   0 -13   -0.30    0.90
 -12   0  13   -0.30    0.50
 -12   0  13   -0.20    1.00
 -12   0  13   -0.80    0.80
 -12   0  13    0.20    0.60
 -11   0  13    0.30    0.60
 -11   0  13    0.20    1.10
 -11   0  13   -0.30    0.80
 -11   0  13   -1.60    1.40
 -11   0  13   -0.50    1.10
 -11   0  13   -0.40    1.00
 -11   0  13    0.50    0.70
 -11   0  13   -0.30    0.50
 -10   0  13    0.70    0.80
 -10   0  13   -0.60    1.00
 -10   0  13    0.50    0.70
 -10   0  13   -0.50    0.50
 -10   0  13   -0.40    2.00
  -9   0  13    0.00    1.00
   9   0 -13    0.40    0.80
  -9   0  13    2.10    1.30
  -9   0  13    0.40    0.70
  -9   0  13   -0.40    0.70
  -9   0  13    0.70    1.00
  -9   0  13   -0.10    0.50
  -9   0  13    1.00    0.70
  -9   0  13    0.20    1.10
  -8   0  13   -0.30    1.00
  -8   0  13    0.70    1.00
  -8   0  13   -0.80    1.10
  -8   0  13   -1.60    1.10
   8   0 -13   -0.70    0.70
  -8   0  13    1.10    1.30
  -8   0  13   -1.20    0.70
  -8   0  13    0.00    0.70
  -8   0  13   -0.20    0.70
  -7   0  13   -0.30    0.90
  -7   0  13   -0.10    0.70
  -7   0  13    0.30    1.50
   7   0 -13   -0.60    0.70
  -7   0  13   -0.10    0.70
  -7   0  13   -0.10    0.70
  -7   0  13   -0.80    1.30
  -7   0  13   -0.60    1.00
  -7   0  13   -0.10    1.00
  -6   0  13    0.10    1.00
  -6   0  13    1.00    0.70
  -6   0  13    0.10    1.00
  -6   0  13    0.20    0.50
  -6   0  13   -0.20    1.10
  -6   0  13    1.20    1.00
  -6   0  13    0.50    0.70
   6   0 -13    0.00    0.90
  -6   0  13    1.50    1.30
  -6   0  13    0.90    0.70
  -5   0  13    0.30    0.90
  -5   0  13    0.20    0.40
   5   0 -13    0.80    0.70
  -5   0  13    0.00    0.70
  -5   0  13    0.80    0.70
  -5   0  13    0.00    1.40
  -5   0  13   -0.50    0.70
  -5   0  13   -1.20    1.30
  -5   0  13    0.60    1.10
  -4   0  13    1.80    0.80
   4   0 -13    0.30    0.70
  -4   0  13    1.50    0.90
  -4   0  13    0.40    0.70
  -4   0  13    0.00    1.30
  -4   0  13    0.40    0.40
  -4   0  13    1.00    0.70
  -4   0  13    0.00    1.40
   3   0 -13    1.20    1.90
  -3   0  13    0.60    0.80
  -3   0  13    1.20    0.90
  -3   0  13    0.70    0.70
   3   0 -13   -0.60    0.70
  -3   0  13    0.40    0.70
  -2   0  13    0.90    0.80
  -2   0  13    1.30    1.10
  -2   0  13   -0.20    0.80
   2   0 -13   -0.60    0.90
  -2   0  13    0.00    0.90
   2   0 -13    0.80    1.10
   2   0 -13   -0.90    1.00
  -1   0  13    2.00    0.90
   1   0 -13   -0.40    0.80
  -1   0  13    0.30    0.80
  -1   0  13   -0.30    0.80
  -1   0  13   -0.20    1.00
   1   0 -13    0.00    0.90
   1   0 -13    0.70    0.70
   1   0 -13   -0.70    1.00
   0   0  13   -0.20    1.00
   0   0 -13    2.70    1.80
   0   0 -13   -0.70    1.00
   0   0 -13   -0.80    0.80
   0   0  13    0.00    0.90
   0   0 -13   -0.40    0.80
   0   0  13    0.00    0.90
   0   0 -13    0.70    0.70
   1   0  13   -1.50    0.80
  -1   0 -13    1.20    1.20
  -1   0 -13   -0.20    0.70
  -1   0 -13    0.50    0.80
  -1   0 -13    0.30    0.80
   1   0  13   -1.40    1.00
   1   0  13    0.70    1.10
  -1   0 -13   -1.00    0.90
   2   0  13    0.10    0.90
  -2   0 -13   -1.30    1.20
  -2   0 -13    0.00    0.80
  -2   0 -13    0.20    1.20
  -2   0 -13    0.10    0.80
  -2   0 -13   -1.30    0.80
  -3   0 -13   -0.70    0.80
  -3   0 -13    0.50    1.10
  -3   0 -13   -1.60    1.00
  -3   0 -13    0.90    0.80
   3   0  13   -0.10    1.00
  -3   0 -13   -1.10    0.90
  -3   0 -13   -1.90    1.30
  -3   0 -13   -1.00    0.90
  -4   0 -13   -0.40    0.90
  -4   0 -13   -1.30    1.30
  -4   0 -13   -1.30    1.30
   4   0  13   -0.30    1.00
  -4   0 -13   -0.70    1.10
  -4   0 -13    0.10    0.90
   5   0  13   -0.20    1.20
  -5   0 -13    1.70    1.20
  -5   0 -13    1.30    0.80
  -5   0 -13    0.30    0.90
  -5   0 -13    0.30    1.30
  -5   0 -13    0.30    0.80
  -6   0 -13    0.70    0.80
  -6   0 -13    1.40    0.80
   6   0  13   -0.50    1.00
  -6   0 -13   -0.20    0.50
  -6   0 -13   -0.60    0.90
 -14  -1  13   39.40    3.70
 -14  -1  13   45.50    4.40
 -14  -1  13   51.99    4.00
 -14  -1  13   51.19    3.80
 -14   1  13   47.10    4.40
 -14   1  13   49.30    3.60
 -14   1  13   53.09    3.60
 -13  -1  13   26.20    2.30
 -13  -1  13   22.20    2.10
  13  -1 -13   19.20    2.30
 -13  -1  13   27.50    2.70
 -13  -1  13   21.70    2.50
 -13  -1  13   21.10    2.30
 -13  -1  13   27.70    2.90
 -13  -1  13   22.20    2.00
 -13   1  13   25.40    2.00
 -13   1  13   26.90    2.10
 -13   1  13   24.90    2.60
 -13   1  13   26.90    2.30
 -13   1  13   22.40    2.40
 -12  -1  13  145.19    9.60
 -12  -1  13  131.49    9.70
 -12  -1  13  147.19    9.90
 -12  -1  13  122.99    9.60
 -12  -1  13  123.89    9.50
  12  -1 -13  119.09    9.50
 -12  -1  13  130.89    9.40
 -12  -1  13  135.19    9.80
 -12   1  13  135.59    9.50
 -12   1  13  142.99    9.50
 -12   1  13  137.99    9.80
 -12   1  13  120.29    9.60
 -12   1  13  134.69    9.60
 -11  -1  13   49.30    4.30
 -11  -1  13   53.79    4.30
 -11  -1  13   57.89    4.50
  11  -1 -13   55.99    4.30
 -11  -1  13   58.59    4.20
 -11  -1  13   56.19    4.70
 -11  -1  13   55.59    4.40
 -11  -1  13   59.69    4.40
 -11  -1  13   63.59    4.80
 -11   1  13   55.09    4.50
 -11   1  13   58.59    4.40
 -11   1  13   53.39    4.30
 -11   1  13   56.39    4.80
 -11   1  13   56.89    4.20
 -11   1  13   63.49    4.30
 -10  -1  13   27.90    2.50
 -10  -1  13   25.10    2.20
 -10  -1  13   25.00    2.30
 -10  -1  13   24.80    2.40
 -10  -1  13   27.00    2.90
 -10  -1  13   23.90    2.20
  10  -1 -13   25.50    2.30
 -10  -1  13   24.00    2.10
 -10  -1  13   23.70    2.70
 -10   1  13   26.00    2.40
 -10   1  13   25.30    2.10
 -10   1  13   24.30    2.20
 -10   1  13   24.50    2.90
 -10   1  13   27.60    2.30
 -10   1  13   24.60    2.40
  10   1 -13   20.30    2.30
  -9  -1  13    3.30    0.80
   9  -1 -13    2.90    0.90
  -9  -1  13    3.60    0.80
  -9  -1  13    2.70    0.80
  -9  -1  13    4.40    1.10
  -9  -1  13    3.00    1.10
   9  -1 -13    2.50    0.80
  -9  -1  13    2.90    1.10
  -9  -1  13    2.60    1.20
  -9   1  13    1.50    0.80
   9   1 -13    0.90    0.90
  -9   1  13    3.80    0.70
  -9   1  13    3.30    1.20
  -9   1  13    3.50    0.80
  -9   1  13    1.10    1.30
  -8  -1  13   13.90    2.10
  -8  -1  13   11.10    1.70
  -8  -1  13   14.20    1.50
  -8  -1  13   13.40    1.70
  -8  -1  13   13.90    1.40
  -8  -1  13   11.50    2.20
  -8  -1  13   11.80    1.50
   8  -1 -13   12.10    1.40
  -8  -1  13   12.10    1.50
  -8   1  13   13.70    1.50
  -8   1  13   14.40    1.80
  -8   1  13   13.00    1.40
  -8   1  13    9.80    2.00
   8   1 -13   12.30    1.40
  -8   1  13   15.60    1.50
  -8   1  13   12.70    1.60
  -8   1  13    9.70    1.60
  -7  -1  13  207.88   14.50
  -7  -1  13  200.08   14.50
  -7  -1  13  188.08   14.40
  -7  -1  13  215.08   14.70
  -7  -1  13  193.28   14.50
  -7  -1  13  200.78   14.40
  -7  -1  13  202.28   14.70
   7  -1 -13  194.18   14.40
  -7  -1  13  201.88   14.40
  -7  -1  13  197.98   14.50
  -7  -1  13  212.88   14.40
  -7   1  13  194.18   14.70
  -7   1  13  185.78   14.50
  -7   1  13  201.08   14.70
  -7   1  13  219.68   14.40
   7   1 -13  209.08   14.40
  -7   1  13  199.08   14.50
  -7   1  13  204.58   14.50
  -7   1  13  212.18   14.40
  -7   1  13  220.28   14.50
  -6  -1  13  240.88   17.70
  -6  -1  13  263.27   17.60
  -6  -1  13  262.27   17.60
  -6  -1  13  244.68   17.90
  -6  -1  13  258.87   17.90
  -6  -1  13  236.18   17.60
   6  -1 -13  240.48   17.50
  -6  -1  13  246.48   17.60
  -6  -1  13  254.77   17.70
  -6  -1  13  242.98   17.70
  -6  -1  13  254.97   17.60
  -6   1  13  231.58   17.80
  -6   1  13  272.27   17.60
  -6   1  13  247.38   17.60
  -6   1  13  246.08   17.90
  -6   1  13  237.58   17.70
   6   1 -13  247.98   17.60
  -6   1  13  234.98   17.70
  -6   1  13  245.18   17.70
  -6   1  13  264.77   17.60
  -5  -1  13  104.39    7.30
  -5  -1  13  113.09    7.40
  -5  -1  13  106.49    7.50
   5  -1 -13  100.39    7.30
  -5  -1  13   91.79    7.40
  -5  -1  13   97.59    7.40
  -5  -1  13  100.99    7.40
  -5  -1  13   95.59    7.40
  -5  -1  13  107.69    7.80
  -5   1  13  107.69    7.30
   5   1 -13   96.59    7.30
  -5   1  13  103.49    7.40
  -5   1  13  100.19    7.50
  -5   1  13   93.59    7.40
  -5   1  13  103.09    7.30
  -4  -1  13  231.78   15.80
  -4  -1  13  241.28   16.00
  -4  -1  13  207.88   15.60
  -4  -1  13  212.58   15.60
   4  -1 -13  225.08   15.60
   4  -1 -13  199.98   15.60
  -4  -1  13  228.98   15.60
  -4  -1  13  207.98   15.70
  -4   1  13  234.28   15.60
  -4   1  13  223.08   15.60
   4   1 -13  237.88   15.60
  -4   1  13  219.28   15.60
  -4   1  13  203.98   15.60
  -4   1  13  211.68   15.70
  -3  -1  13  180.48   13.40
   3  -1 -13  191.28   13.40
  -3  -1  13  196.98   13.60
  -3  -1  13  215.88   13.50
  -3  -1  13  184.88   13.50
   3  -1 -13  188.58   13.40
  -3  -1  13  179.38   13.50
  -3   1  13  177.28   13.40
   3   1 -13  165.28   13.40
  -3   1  13  209.78   13.50
  -3   1  13  191.58   13.50
   3   1 -13  204.38   13.50
  -3   1  13  176.08   13.60
  -3   1  13  189.38   13.40
  -2  -1  13  177.48   12.80
   2  -1 -13  163.18   12.60
  -2  -1  13  178.78   12.70
  -2  -1  13  183.28   12.70
   2  -1 -13  153.28   12.80
  -2  -1  13  181.88   12.80
   2  -1 -13  184.38   12.70
   2  -1 -13  201.68   12.70
   2   1 -13  165.48   12.70
  -2   1  13  171.58   12.70
   2   1 -13  184.38   12.70
  -2   1  13  184.08   12.80
  -2   1  13  194.28   12.80
   1  -1 -13  137.29    9.20
   1  -1 -13  144.09    9.10
  -1  -1  13  128.89    9.20
  -1  -1  13  128.19    9.10
   1  -1 -13  124.59    9.10
  -1  -1  13  122.99    9.20
   1  -1 -13  119.29    9.20
   1   1 -13  121.59    9.20
   1   1 -13  119.09    9.30
   1   1 -13  128.89    9.10
  -1   1  13  139.09    9.20
  -1   1  13  111.39    9.20
   1   1 -13  134.29    9.20
   0  -1  13   44.50    3.40
   0  -1 -13   38.20    3.00
   0  -1  13   40.60    3.20
   0  -1 -13   45.70    3.00
   0  -1  13   36.60    3.20
   0  -1  13   37.20    3.10
   0  -1 -13   32.10    3.50
   0  -1 -13   38.20    3.20
   0  -1 -13   43.80    3.10
   0   1  13   43.30    3.20
   0   1 -13   40.70    3.00
   0   1 -13   40.50    3.10
   0   1  13   35.50    3.50
   0   1 -13   39.10    3.10
   0   1 -13   36.30    3.20
   0   1  13   32.90    3.20
   1  -1  13   18.70    2.10
  -1  -1 -13   19.60    1.80
  -1  -1 -13   22.10    2.00
   1  -1  13   22.30    2.40
   1  -1  13   21.80    2.00
  -1  -1 -13   18.50    2.50
  -1  -1 -13   22.10    1.80
  -1  -1 -13   21.00    2.00
   1   1  13   22.30    2.00
  -1   1 -13   24.00    2.00
  -1   1 -13   21.10    2.00
   1   1  13   17.90    2.20
  -1   1 -13   19.60    2.10
  -1   1 -13   19.60    1.90
  -2  -1 -13    0.80    1.30
  -2  -1 -13    1.50    0.70
   2  -1  13    0.50    1.00
  -2  -1 -13    0.80    0.90
  -2  -1 -13    1.50    0.70
  -2  -1 -13    0.50    0.90
   2  -1  13    1.70    1.00
  -2  -1 -13    0.50    0.90
   2  -1  13   -1.10    1.00
  -2   1 -13    2.30    0.90
   2   1  13    0.50    0.90
  -2   1 -13    0.70    0.80
  -2   1 -13    0.40    0.90
  -2   1 -13   -1.40    1.10
  -2   1 -13    1.20    0.70
   2   1  13    0.40    0.90
  -3  -1 -13   10.00    2.00
  -3  -1 -13   12.50    1.30
   3  -1  13   12.10    2.00
  -3  -1 -13   12.40    1.50
   3  -1  13    9.00    1.60
  -3  -1 -13   10.70    1.40
  -3  -1 -13   13.70    1.80
  -3  -1 -13   11.40    1.40
   3   1  13    9.90    1.80
  -3   1 -13    9.10    1.70
  -3   1 -13    9.90    1.60
  -3   1 -13    9.60    2.10
  -3   1 -13   13.00    1.50
   3   1  13   12.60    1.70
  -3   1 -13   13.30    1.50
  -4  -1 -13    7.40    1.20
   4  -1  13    7.40    1.20
  -4  -1 -13    7.20    1.10
  -4  -1 -13    8.80    1.30
  -4  -1 -13   10.40    1.60
   4  -1  13    4.60    1.20
  -4  -1 -13    4.40    1.40
   4   1  13    5.30    1.20
  -4   1 -13    8.10    1.30
  -4   1 -13    8.90    1.30
  -4   1 -13    8.00    1.30
  -4   1 -13    5.10    1.50
   4   1  13   10.10    1.50
  -5  -1 -13   36.30    3.20
  -5  -1 -13   40.70    3.20
  -5  -1 -13   36.10    2.80
  -5  -1 -13   41.10    2.90
   5  -1  13   35.10    3.10
  -5  -1 -13   39.90    2.90
  -5   1 -13   32.30    3.30
   5   1  13   35.30    3.20
  -5   1 -13   36.10    2.90
   5   1  13   38.00    3.10
  -5   1 -13   37.80    3.00
  -5   1 -13   36.20    3.00
  -5   1 -13   32.90    3.50
  -5   1 -13   34.40    2.90
  -6  -1 -13   61.49    4.50
  -6  -1 -13   63.39    4.40
   6  -1  13   57.79    4.50
  -6   1 -13   57.89    4.40
   6   1  13   57.09    4.60
  -6   1 -13   64.99    5.00
  -6   1 -13   53.19    4.80
  -6   1 -13   58.29    4.50
 -13  -2  13   37.90    3.00
 -13  -2  13   38.10    3.80
 -13   2  13   37.10    2.80
 -13   2  13   37.70    2.90
 -12  -2  13    8.10    1.90
 -12  -2  13    7.10    1.20
 -12  -2  13    7.40    1.40
 -12  -2  13    7.10    1.70
 -12  -2  13    6.00    1.00
  12  -2 -13    7.00    1.30
 -12   2  13    6.30    0.90
 -12   2  13    7.20    1.40
 -12   2  13    6.80    1.10
 -11  -2  13   47.80    3.70
  11  -2 -13   48.60    3.50
 -11  -2  13   40.30    3.50
 -11  -2  13   53.39    3.90
 -11  -2  13   38.90    3.40
 -11  -2  13   47.00    4.00
 -11  -2  13   45.30    3.60
 -11   2  13   47.10    3.60
 -11   2  13   37.40    3.70
 -11   2  13   48.40    3.50
 -11   2  13   43.40    3.40
 -10  -2  13  163.98   12.80
 -10  -2  13  166.28   12.70
 -10  -2  13  174.38   12.90
  10  -2 -13  174.98   12.80
 -10  -2  13  189.48   12.80
 -10  -2  13  177.08   12.70
 -10  -2  13  199.68   13.00
 -10  -2  13  185.68   13.10
 -10   2  13  196.28   12.90
 -10   2  13  190.18   12.70
 -10   2  13  186.78   12.70
 -10   2  13  154.98   12.90
  10   2 -13  168.38   12.70
   9  -2 -13  190.78   14.10
  -9  -2  13  211.98   14.40
  -9  -2  13  193.28   14.10
  -9  -2  13  192.78   14.10
  -9  -2  13  187.68   14.00
  -9  -2  13  201.48   14.00
  -9  -2  13  183.88   14.10
  -9  -2  13  211.48   14.10
  -9  -2  13  194.08   14.20
  -9  -2  13  216.38   14.30
   9   2 -13  194.78   14.00
  -9   2  13  201.48   14.20
  -9   2  13  203.78   14.00
  -9   2  13  170.88   14.10
  -9   2  13  187.28   14.10
  -9   2  13  198.48   14.10
  -9   2  13  218.58   14.10
  -8  -2  13  210.18   14.20
  -8  -2  13  206.18   14.00
  -8  -2  13  189.28   14.00
   8  -2 -13  183.58   13.90
  -8  -2  13  199.28   13.90
  -8  -2  13  196.08   14.00
  -8  -2  13  193.08   14.30
  -8  -2  13  205.38   14.00
  -8  -2  13  193.68   14.10
  -8  -2  13  180.88   14.00
   8  -2 -13  186.18   14.00
  -8   2  13  207.18   14.00
  -8   2  13  210.38   13.90
   8   2 -13  195.68   13.90
  -8   2  13  202.08   14.10
  -8   2  13  219.08   14.00
  -8   2  13  176.78   14.00
  -8   2  13  176.08   14.00
  -7  -2  13   94.79    7.10
  -7  -2  13  104.39    7.00
  -7  -2  13   88.59    7.40
   7  -2 -13   95.49    6.90
  -7  -2  13   85.79    7.00
  -7  -2  13   99.59    7.00
   7  -2 -13   95.09    6.80
  -7  -2  13   94.69    6.90
  -7  -2  13   90.69    7.00
  -7   2  13   92.39    7.20
  -7   2  13   98.99    6.90
  -7   2  13  100.89    6.90
   7   2 -13   94.99    6.90
  -7   2  13   86.49    7.00
  -7   2  13  101.89    6.90
  -6  -2  13   92.69    7.10
  -6  -2  13   98.19    7.10
  -6  -2  13   96.49    7.20
  -6  -2  13   97.89    7.40
   6  -2 -13   93.69    7.00
   6  -2 -13   96.99    6.90
  -6  -2  13  101.59    7.00
  -6  -2  13   97.59    7.20
  -6  -2  13  103.09    7.10
  -6  -2  13   94.49    7.00
  -6  -2  13  102.19    7.40
  -6   2  13  102.09    7.10
   6   2 -13   98.19    7.00
  -6   2  13   90.89    7.20
  -6   2  13  103.09    7.00
  -6   2  13   84.69    7.10
  -6   2  13   90.59    6.90
  -6   2  13   95.49    7.00
  -5  -2  13  192.68   13.70
  -5  -2  13  196.48   14.00
  -5  -2  13  193.28   13.60
  -5  -2  13  203.58   13.80
  -5  -2  13  189.08   13.70
   5  -2 -13  177.98   13.60
  -5  -2  13  191.28   13.70
  -5  -2  13  178.38   13.80
  -5  -2  13  206.38   13.80
   5  -2 -13  191.78   13.60
  -5   2  13  187.48   13.70
  -5   2  13  175.68   13.70
   5   2 -13  209.78   13.70
  -5   2  13  207.68   13.70
  -5   2  13  196.38   13.70
  -5   2  13  181.58   13.80
  -5   2  13  180.78   13.60
  -5   2  13  200.48   13.70
  -4  -2  13    7.40    1.50
  -4  -2  13    5.00    0.90
  -4  -2  13    6.50    1.40
   4  -2 -13    5.70    1.10
  -4  -2  13    7.70    1.20
  -4  -2  13    7.20    1.10
   4  -2 -13    7.40    1.50
   4  -2 -13    8.00    0.90
   4  -2 -13    8.30    1.10
  -4  -2  13   10.00    1.40
   4   2 -13    5.20    1.20
  -4   2  13    6.90    1.50
  -4   2  13    8.10    1.20
  -4   2  13    7.70    1.40
   4   2 -13    9.80    1.20
  -3  -2  13   12.10    2.10
   3  -2 -13   11.00    1.60
  -3  -2  13   13.60    1.40
  -3  -2  13   14.80    1.70
   3  -2 -13   14.00    1.20
   3  -2 -13   12.90    1.50
  -3  -2  13   14.30    1.60
  -3  -2  13   16.30    2.20
  -3  -2  13   15.20    1.50
  -3  -2  13    9.90    1.90
   3  -2 -13   13.90    1.50
  -3   2  13   10.90    1.90
  -3   2  13   16.60    1.60
  -3   2  13   13.00    1.50
   3   2 -13    9.60    1.60
   3   2 -13   15.30    1.50
  -3   2  13    9.90    2.00
   2  -2 -13   19.40    2.00
  -2  -2  13   14.60    2.10
  -2  -2  13   18.30    2.00
  -2  -2  13   21.10    1.80
   2  -2 -13   17.40    1.80
   2  -2 -13   17.00    1.80
  -2  -2  13   22.70    2.10
  -2  -2  13   21.40    2.60
   2  -2 -13   22.00    1.70
  -2  -2  13   22.90    2.00
   2  -2 -13   19.90    1.90
  -2   2  13   23.30    1.90
  -2   2  13   18.80    2.20
   2   2 -13   20.70    1.90
   2   2 -13   18.20    2.00
  -2   2  13   17.20    1.90
  -1  -2  13  148.99   11.60
  -1  -2  13  162.98   11.70
   1  -2 -13  157.18   11.50
  -1  -2  13  169.78   12.00
   1  -2 -13  163.58   11.70
   1  -2 -13  180.38   11.60
  -1  -2  13  153.08   11.60
  -1  -2  13  165.78   12.00
   1  -2 -13  178.58   11.70
   1  -2 -13  140.59   11.60
  -1   2  13  159.98   11.70
   1   2 -13  167.28   11.60
   1   2 -13  154.98   11.60
  -1   2  13  182.38   11.70
   1   2 -13  157.98   11.60
   0  -2  13  132.89    9.00
   0  -2  13  119.09    8.90
   0  -2  13  114.49    8.90
   0  -2 -13  134.59    8.80
   0  -2 -13  130.29    9.10
   0  -2 -13  125.99    8.90
   0  -2 -13  119.39    8.80
   0  -2 -13  129.29    8.90
   0  -2 -13  106.49    8.90
   0  -2  13  121.39    9.20
   0   2  13  138.49    8.90
   0   2 -13  118.99    8.80
   0   2  13  118.29    8.90
   0   2 -13  123.69    8.80
   0   2 -13  112.59    8.80
  -1  -2 -13   96.79    6.50
  -1  -2 -13   96.79    6.70
  -1  -2 -13   92.49    6.60
   1  -2  13   97.79    6.80
  -1  -2 -13   87.39    6.60
  -1  -2 -13   91.99    6.50
   1  -2  13   89.19    6.70
   1  -2  13   87.39    7.10
  -1  -2 -13   97.49    6.80
   1  -2  13   80.49    6.70
   1   2  13   87.69    6.80
  -1   2 -13   87.89    6.80
  -1   2 -13   82.29    6.60
  -1   2 -13   91.89    6.60
  -1   2 -13   90.99    6.60
   1   2  13   96.49    6.70
  -2  -2 -13  244.98   16.50
  -2  -2 -13  235.38   16.40
   2  -2  13  198.18   16.40
  -2  -2 -13  222.28   16.30
   2  -2  13  253.17   16.60
  -2  -2 -13  250.47   16.60
   2  -2  13  214.38   16.70
  -2  -2 -13  236.48   16.30
  -2  -2 -13  229.18   16.40
  -2  -2 -13  253.27   16.50
   2  -2  13  216.78   16.40
   2   2  13  237.68   16.40
  -2   2 -13  218.88   16.40
  -2   2 -13  231.58   16.40
   2   2  13  223.68   16.50
  -3  -2 -13  141.99    9.80
   3  -2  13  128.99    9.90
  -3  -2 -13  136.99    9.80
  -3  -2 -13  150.18    9.90
   3  -2  13  124.19   10.30
  -3  -2 -13  151.08   10.10
   3  -2  13  140.59   10.00
  -3  -2 -13  126.89    9.80
  -3  -2 -13  133.59    9.70
  -3  -2 -13  146.29    9.90
   3   2  13  140.79    9.90
  -3   2 -13  127.59    9.80
  -3   2 -13  138.49    9.90
  -3   2 -13  130.59    9.80
  -4  -2 -13   36.70    2.80
  -4  -2 -13   32.60    2.50
  -4  -2 -13   30.00    2.80
  -4  -2 -13   32.60    2.70
  -4  -2 -13   32.60    2.60
   4  -2  13   28.00    2.70
  -4  -2 -13   29.50    2.50
  -4   2 -13   32.70    2.70
  -4   2 -13   29.60    2.60
   4   2  13   27.60    2.90
   4   2  13   32.40    2.90
  -4   2 -13   29.50    2.60
  -5  -2 -13   22.30    1.70
  -5  -2 -13   22.10    1.70
   5  -2  13   16.80    2.00
  -5  -2 -13   19.10    2.00
  -5  -2 -13   20.10    2.00
  -5   2 -13   16.10    1.80
   5   2  13   19.80    2.30
  -5   2 -13   15.40    2.40
  -5   2 -13   17.40    2.00
 -11  -3  13    7.60    1.60
  11  -3 -13    4.20    0.80
 -11   3  13    5.70    0.90
 -11   3  13    3.70    1.10
 -11   3  13    3.70    1.20
 -10  -3  13    3.50    1.10
 -10  -3  13    2.00    1.10
 -10  -3  13    2.40    1.10
  10  -3 -13    1.40    0.70
 -10   3  13    2.40    0.80
 -10   3  13    2.60    1.10
  10   3 -13    2.10    1.10
 -10   3  13    2.00    1.00
 -10   3  13    2.40    0.70
   9  -3 -13    0.80    1.10
  -9  -3  13   -0.30    0.80
  -9  -3  13    0.00    1.00
  -9  -3  13    1.00    1.20
  -9  -3  13    0.80    1.00
   9   3 -13    0.60    0.90
  -9   3  13    0.30    0.70
  -9   3  13    0.10    0.80
  -9   3  13    0.40    1.10
  -8  -3  13    0.80    1.00
  -8  -3  13    0.00    0.70
  -8  -3  13    0.30    1.10
   8  -3 -13    0.00    0.60
  -8  -3  13    0.90    1.30
  -8  -3  13    0.60    1.00
  -8  -3  13   -0.10    1.00
  -8   3  13    1.70    1.10
  -8   3  13    0.70    0.80
  -8   3  13    0.10    0.90
   8   3 -13    1.10    0.80
  -8   3  13   -0.60    1.00
  -7  -3  13   10.20    1.70
  -7  -3  13    8.40    1.40
  -7  -3  13    9.30    1.60
  -7  -3  13    9.60    2.10
   7  -3 -13   10.10    1.20
  -7  -3  13    8.40    1.70
  -7  -3  13    7.90    1.60
  -7  -3  13    6.10    1.00
   7  -3 -13    7.80    1.30
  -7   3  13    9.20    1.60
  -7   3  13    8.30    1.30
  -7   3  13    4.60    1.80
   6  -3 -13   31.90    2.50
  -6  -3  13   29.70    2.60
   6  -3 -13   33.60    2.60
  -6  -3  13   32.30    3.00
  -6  -3  13   33.40    2.70
  -6  -3  13   30.60    3.20
  -6  -3  13   33.40    2.80
  -6   3  13   32.10    2.90
  -5  -3  13   21.80    2.30
  -5  -3  13   19.80    1.90
  -5  -3  13   18.90    2.20
   5  -3 -13   20.20    1.90
  -5  -3  13   22.10    2.00
  -5  -3  13   20.50    2.60
   5  -3 -13   23.70    1.80
  -5  -3  13   23.20    2.20
  -5   3  13   18.70    2.20
  -5   3  13   17.80    2.30
  -4  -3  13   20.30    2.30
  -4  -3  13   14.50    2.00
  -4  -3  13   16.90    2.10
  -4  -3  13   17.40    1.90
  -4  -3  13   15.30    1.60
  -4  -3  13   15.70    1.70
   4  -3 -13   15.00    1.60
   4  -3 -13   18.30    1.40
  -4   3  13   14.00    2.00
   4   3 -13   11.90    1.80
   3  -3 -13    7.10    0.90
  -3  -3  13    6.00    1.40
  -3  -3  13    5.00    1.00
  -3  -3  13    7.20    1.50
   3  -3 -13    6.80    1.20
  -3  -3  13    7.10    1.10
   3  -3 -13    7.00    1.20
  -3   3  13    8.10    1.30
   3   3 -13    7.70    1.20
   3   3 -13    6.50    1.10
  -2  -3  13   24.70    2.20
  -2  -3  13   18.20    2.70
  -2  -3  13   25.60    2.30
   2  -3 -13   25.90    2.10
  -2  -3  13   23.10    2.00
   2  -3 -13   23.60    1.90
  -2   3  13   23.60    2.40
   2   3 -13   20.30    2.10
  -2   3  13   22.80    2.40
   2   3 -13   25.40    2.10
   1  -3 -13   25.30    2.90
   1  -3 -13   34.40    2.50
  -1  -3  13   34.80    2.80
   1  -3 -13   26.40    2.90
  -1  -3  13   29.70    2.60
   1  -3 -13   28.80    2.70
   1  -3 -13   32.30    2.30
  -1  -3  13   25.30    3.20
   1  -3 -13   30.60    2.40
  -1   3  13   30.30    2.80
   1   3 -13   27.20    2.50
   1   3 -13   30.30    2.50
  -1   3  13   31.90    2.80
   0  -3 -13   18.20    2.10
   0  -3 -13   22.30    2.40
   0  -3 -13   17.60    1.60
   0  -3  13   18.80    2.10
   0  -3 -13   13.90    1.70
   0  -3  13   17.10    1.80
   0  -3 -13   14.00    2.20
   0  -3 -13   12.80    2.00
   0  -3 -13   16.10    1.50
   0  -3 -13   19.50    1.60
   0   3  13   14.70    3.00
   0   3 -13   16.20    1.70
   0   3  13   19.80    2.20
  -1  -3 -13   11.30    1.60
  -1  -3 -13    9.20    1.80
  -1  -3 -13   10.50    1.30
  -1  -3 -13    8.50    1.60
  -1  -3 -13    9.60    1.30
  -1  -3 -13    8.30    1.70
   1  -3  13    9.10    1.80
   1  -3  13    7.00    1.50
  -1  -3 -13   10.30    1.10
  -1  -3 -13    9.70    1.20
  -1   3 -13    6.90    1.50
   1   3  13    8.60    1.80
  -2  -3 -13    0.20    0.70
  -2  -3 -13    0.70    0.50
  -2  -3 -13    1.20    0.80
  -2  -3 -13    0.70    0.70
  -2  -3 -13    0.90    0.80
   2  -3  13    0.50    1.10
  -2  -3 -13   -0.80    1.30
   2  -3  13    1.00    0.90
  -2  -3 -13    0.70    0.90
   2   3  13    0.60    1.00
  -2   3 -13    0.60    0.80
  -2   3 -13    0.90    1.30
  -3  -3 -13    5.10    0.90
  -3  -3 -13    3.10    0.90
   3  -3  13    2.20    1.10
  -3  -3 -13    2.90    1.00
  -3  -3 -13    3.40    1.00
   3   3  13    2.80    1.10
  -3   3 -13    3.40    0.90
   8  -4 -13    6.90    1.10
  -8  -4  13    8.30    1.90
  -8  -4  13    9.00    1.90
  -8   4  13    9.20    1.40
   8   4 -13    9.80    1.60
  -7  -4  13    2.00    1.20
  -7  -4  13    1.70    0.90
   7  -4 -13    1.50    0.60
  -7   4  13    1.40    0.90
   7   4 -13    3.00    0.90
  -6  -4  13    0.10    1.20
   6  -4 -13    0.20    0.90
   6  -4 -13   -0.10    0.60
  -6  -4  13    0.10    0.90
  -6  -4  13    0.50    1.30
  -6  -4  13    0.80    1.00
  -6   4  13    1.00    1.00
  -5  -4  13    1.50    0.80
  -5  -4  13    0.90    0.90
   5  -4 -13    0.70    0.70
   5  -4 -13    0.50    0.70
  -5  -4  13    2.00    0.70
   5  -4 -13    0.60    0.70
  -5   4  13    1.30    1.00
  -5   4  13    1.00    1.10
   5   4 -13    2.50    0.80
  -4  -4  13    1.70    0.80
  -4  -4  13    1.80    1.00
  -4  -4  13    2.50    1.00
   4  -4 -13    1.70    0.70
   4  -4 -13    0.50    1.10
  -4  -4  13    2.60    0.80
   4  -4 -13    2.20    0.80
  -4   4  13    0.30    1.00
   4   4 -13   -1.40    1.20
   4   4 -13    2.60    0.90
  -4   4  13    2.40    1.20
  -3  -4  13    0.90    1.00
  -3  -4  13    1.60    0.80
   3  -4 -13    0.80    0.60
   3  -4 -13    1.10    0.70
  -3  -4  13    1.10    0.70
   3  -4 -13    1.50    0.80
   3  -4 -13   -0.40    1.10
  -3   4  13    1.50    1.20
   3   4 -13    1.10    1.00
  -3   4  13   -1.10    1.00
   3   4 -13    0.80    0.80
  -2  -4  13    2.80    0.80
  -2  -4  13    1.80    1.10
   2  -4 -13    3.20    0.60
   2  -4 -13    3.80    0.90
   2  -4 -13    2.10    1.00
  -2  -4  13    1.80    0.80
   2  -4 -13    4.40    0.80
  -2  -4  13    3.60    1.10
   2   4 -13    2.80    1.00
  -2   4  13    2.40    1.00
  -2   4  13    2.70    1.30
   2   4 -13    3.20    1.00
  -1  -4  13    3.10    1.60
  -1  -4  13    1.60    1.00
   1  -4 -13    2.00    0.60
  -1  -4  13    2.00    0.60
  -1  -4  13    1.80    0.80
   1  -4 -13    1.20    1.50
   1  -4 -13    3.30    1.00
  -1   4  13    1.20    1.50
   1   4 -13    2.70    0.90
  -1   4  13    1.60    1.10
   0  -4 -13    2.00    0.90
   0  -4  13    2.30    0.60
   0  -4  13    2.70    0.90
   0  -4 -13    2.40    0.70
   0  -4  13    2.50    0.90
   0   4 -13    2.20    0.90
 -14   0  14   74.09    6.20
 -14   0  14   70.09    5.30
 -14   0  14   75.89    5.30
 -13   0  14  131.09    8.90
 -13   0  14  128.59    9.10
 -13   0  14  112.99    8.90
 -13   0  14  116.89    8.80
 -13   0  14  127.59    8.90
 -12   0  14   93.29    7.00
 -12   0  14  106.09    7.30
 -12   0  14  108.59    6.90
  12   0 -14   80.89    7.40
 -12   0  14   79.89    7.30
 -12   0  14  107.09    7.00
 -12   0  14   80.49    6.90
 -12   0  14  100.09    6.80
 -11   0  14   50.69    3.80
 -11   0  14   42.50    3.70
 -11   0  14   52.49    4.20
 -11   0  14   39.80    4.10
 -11   0  14   50.69    3.60
 -11   0  14   45.80    4.00
 -11   0  14   47.50    3.90
 -11   0  14   51.19    3.70
 -10   0  14  258.67   17.20
 -10   0  14  230.38   17.30
 -10   0  14  239.48   17.30
 -10   0  14  253.47   17.10
 -10   0  14  235.08   17.20
 -10   0  14  260.47   17.30
 -10   0  14  236.78   17.40
  10   0 -14  211.88   17.20
 -10   0  14  257.27   17.50
  -9   0  14  243.28   15.80
  -9   0  14  212.48   16.10
  -9   0  14  228.88   16.20
  -9   0  14  212.78   16.00
   9   0 -14  217.28   15.80
  -9   0  14  237.28   15.90
  -9   0  14  214.28   15.90
  -8   0  14   15.50    1.60
   8   0 -14   13.30    1.50
  -8   0  14   14.90    1.80
  -8   0  14   12.10    2.00
  -8   0  14   15.00    1.50
  -8   0  14   15.70    2.40
  -8   0  14   16.80    2.30
  -8   0  14   14.40    1.80
  -8   0  14   17.30    1.60
  -8   0  14   15.50    1.70
  -7   0  14    1.20    0.70
  -7   0  14   -0.30    1.30
  -7   0  14   -0.50    0.80
  -7   0  14   -0.40    0.40
  -7   0  14   -0.80    1.10
  -7   0  14    1.40    1.10
  -7   0  14   -0.10    1.00
  -7   0  14    1.20    0.70
   7   0 -14   -0.10    0.70
  -6   0  14    6.90    1.50
  -6   0  14    8.30    1.20
  -6   0  14    6.50    1.30
   6   0 -14    6.50    1.00
  -6   0  14    4.40    1.40
  -6   0  14    7.50    1.20
  -6   0  14    7.00    1.20
  -6   0  14    6.70    1.10
   5   0 -14   94.49    6.90
  -5   0  14  104.09    7.00
  -5   0  14   99.99    7.00
  -5   0  14   96.39    7.10
  -5   0  14   95.39    7.10
  -5   0  14   97.59    7.00
  -5   0  14   80.99    7.20
  -5   0  14   95.59    7.40
  -5   0  14  102.99    7.00
  -4   0  14  136.19   10.20
  -4   0  14  143.79   10.20
  -4   0  14  136.29   10.30
  -4   0  14  140.59   10.20
  -4   0  14  161.18   10.30
  -4   0  14  135.89   10.30
   4   0 -14  146.39   10.20
  -3   0  14  235.68   15.70
  -3   0  14  225.98   15.70
  -3   0  14  207.08   15.70
  -3   0  14  207.28   15.60
   3   0 -14  230.38   15.70
  -2   0  14  519.95   36.30
   2   0 -14  559.34   36.40
   2   0 -14  554.44   36.40
  -2   0  14  523.35   36.40
   2   0 -14  441.26   36.50
  -2   0  14  487.25   36.40
  -2   0  14  536.15   36.40
   1   0 -14  162.78   10.40
   1   0 -14  140.39   10.60
  -1   0  14  150.48   10.50
   1   0 -14  132.49   10.40
  -1   0  14  138.39   10.40
   1   0 -14  135.99   10.40
  -1   0  14  151.48   10.50
   1   0 -14  158.58   10.50
   0   0 -14  133.29    9.40
   0   0  14  130.59    9.50
   0   0 -14  119.99    9.40
   0   0  14  132.09    9.50
   0   0  14  139.09    9.50
   0   0 -14  142.39    9.50
   0   0 -14  139.39    9.60
   0   0 -14  121.29    9.50
   1   0  14  157.58   11.10
  -1   0 -14  144.89   11.00
  -1   0 -14  152.08   11.00
  -1   0 -14  169.28   11.10
  -1   0 -14  146.49   11.00
  -1   0 -14  157.68   11.20
  -2   0 -14   29.10    2.60
   2   0  14   35.00    2.80
  -2   0 -14   35.50    3.10
  -2   0 -14   35.60    2.90
  -2   0 -14   35.40    2.80
  -2   0 -14   28.90    2.70
  -2   0 -14   32.20    2.70
   3   0  14   31.20    3.20
  -3   0 -14   34.50    2.70
  -3   0 -14   32.10    2.90
  -3   0 -14   28.80    2.70
  -3   0 -14   31.80    2.80
  -3   0 -14   32.30    2.60
   3   0  14   35.80    2.80
  -3   0 -14   36.60    3.00
  -4   0 -14   -0.80    0.90
  -4   0 -14   -0.40    1.40
  -4   0 -14   -0.70    0.50
  -4   0 -14    0.60    1.20
   4   0  14   -0.80    1.00
  -4   0 -14   -1.00    0.80
  -4   0 -14    0.70    0.80
  -5   0 -14    0.20    0.80
  -5   0 -14   -0.10    0.50
  -5   0 -14   -2.30    2.00
  -5   0 -14    0.80    0.70
  -5   0 -14   -0.10    0.90
   5   0  14   -0.60    1.00
 -14  -1  14    0.20    1.60
 -14  -1  14    2.00    0.90
 -14  -1  14    2.90    1.00
 -14  -1  14    0.10    0.80
 -14  -1  14    0.80    0.60
 -14   1  14    1.60    0.90
 -14   1  14    2.30    0.60
 -14   1  14    1.80    0.50
 -14   1  14    2.00    1.00
  13  -1 -14   10.00    1.70
 -13  -1  14   12.40    2.00
 -13  -1  14   12.50    1.90
 -13  -1  14   11.80    1.40
 -13  -1  14    9.20    1.80
 -13  -1  14   11.40    1.30
 -13  -1  14   15.00    2.20
 -13  -1  14   12.00    1.50
 -13   1  14   12.80    2.10
 -13   1  14    9.20    1.80
 -13   1  14   12.10    1.20
 -13   1  14   14.00    1.50
 -13   1  14   12.80    1.40
 -12  -1  14    1.50    1.20
 -12  -1  14    0.50    1.10
 -12  -1  14    1.80    0.60
 -12  -1  14    1.80    1.10
 -12  -1  14    1.70    0.70
  12  -1 -14    0.50    0.80
 -12  -1  14    2.20    1.00
 -12  -1  14    0.20    0.60
 -12   1  14    0.80    0.60
 -12   1  14    1.20    0.60
 -12   1  14    1.20    1.10
 -12   1  14    1.00    0.70
 -12   1  14    1.80    1.00
  11  -1 -14   41.50    3.50
 -11  -1  14   44.00    3.40
 -11  -1  14   46.70    3.50
 -11  -1  14   43.90    3.70
 -11  -1  14   43.00    3.60
 -11  -1  14   44.90    3.30
 -11  -1  14   44.10    3.90
 -11  -1  14   39.10    3.50
 -11  -1  14   51.49    4.00
 -11   1  14   41.60    4.00
 -11   1  14   51.39    3.50
 -11   1  14   43.80    3.30
 -11   1  14   48.70    3.60
 -11   1  14   40.50    3.40
 -11   1  14   41.60    3.60
 -10  -1  14   37.20    3.20
 -10  -1  14   42.80    3.70
 -10  -1  14   37.60    3.00
 -10  -1  14   35.60    3.10
  10  -1 -14   37.20    3.00
 -10  -1  14   38.10    2.90
 -10  -1  14   32.00    3.00
 -10  -1  14   38.20    3.40
 -10  -1  14   40.90    3.00
 -10   1  14   36.30    3.00
 -10   1  14   34.60    3.60
  10   1 -14   29.90    3.00
 -10   1  14   34.20    3.20
 -10   1  14   42.60    3.00
 -10   1  14   37.80    3.10
 -10   1  14   38.50    2.90
  -9  -1  14   30.70    2.60
   9  -1 -14   30.00    2.60
  -9  -1  14   34.60    2.60
  -9  -1  14   33.00    2.50
   9  -1 -14   25.50    2.50
  -9  -1  14   36.10    3.30
  -9  -1  14   24.50    2.90
  -9  -1  14   32.60    2.70
  -9  -1  14   31.70    3.00
  -9  -1  14   30.60    2.70
  -9  -1  14   28.80    2.80
  -9   1  14   31.90    2.80
  -9   1  14   35.00    2.60
  -9   1  14   32.70    2.60
  -9   1  14   29.10    3.40
  -9   1  14   28.30    2.70
  -9   1  14   31.30    2.40
   9   1 -14   27.30    2.50
  -8  -1  14   54.59    4.30
  -8  -1  14   65.49    5.20
  -8  -1  14   58.59    4.50
   8  -1 -14   54.49    4.20
  -8  -1  14   63.29    4.40
  -8  -1  14   51.19    4.50
  -8  -1  14   53.69    4.40
  -8  -1  14   58.69    4.40
  -8   1  14   54.19    4.40
   8   1 -14   57.19    4.30
  -8   1  14   49.50    5.00
  -8   1  14   52.59    4.80
  -8   1  14   60.59    5.00
  -8   1  14   59.89    4.40
  -8   1  14   60.99    4.30
  -7  -1  14   97.69    6.70
   7  -1 -14   90.29    6.60
  -7  -1  14   88.89    6.70
  -7  -1  14   94.69    6.70
  -7  -1  14   94.19    7.00
  -7  -1  14   90.79    6.80
  -7  -1  14   78.79    6.70
  -7  -1  14   95.79    6.60
  -7  -1  14   83.39    6.80
  -7  -1  14   89.69    6.70
  -7  -1  14   97.89    7.10
  -7   1  14   96.69    6.70
  -7   1  14   96.99    6.60
  -7   1  14   88.49    6.80
   7   1 -14   97.09    6.60
  -7   1  14   90.49    6.70
  -7   1  14   82.59    6.70
  -7   1  14  100.99    6.70
  -7   1  14   84.59    7.10
  -7   1  14   89.49    7.10
  -6  -1  14   76.19    6.40
   6  -1 -14   83.19    6.20
  -6  -1  14   87.89    6.40
  -6  -1  14   88.19    6.70
  -6  -1  14   83.19    6.20
  -6  -1  14   85.69    6.30
  -6  -1  14   87.79    6.30
  -6  -1  14   95.59    6.30
  -6  -1  14   81.99    6.30
  -6  -1  14   79.49    6.30
  -6   1  14   90.89    6.30
  -6   1  14   86.59    6.40
  -6   1  14   79.79    6.30
  -6   1  14   85.39    6.80
  -6   1  14   85.59    6.20
  -6   1  14   80.29    6.30
   6   1 -14   88.39    6.20
  -6   1  14   90.99    6.20
  -5  -1  14  106.99    8.10
  -5  -1  14   98.89    7.60
  -5  -1  14   96.99    7.80
  -5  -1  14  111.39    7.70
   5  -1 -14  106.89    7.60
  -5  -1  14  115.49    7.60
  -5  -1  14   99.59    7.70
  -5  -1  14  105.09    7.80
  -5  -1  14  104.29    7.70
  -5   1  14  102.69    7.80
  -5   1  14  106.59    7.70
  -5   1  14  103.19    7.60
  -5   1  14  104.49    8.00
  -5   1  14  112.09    7.70
   5   1 -14  114.29    7.60
  -5   1  14   95.49    7.70
  -5   1  14  109.59    7.60
  -4  -1  14   38.30    3.50
  -4  -1  14   47.10    3.50
  -4  -1  14   39.40    4.20
   4  -1 -14   49.50    3.30
  -4  -1  14   43.30    3.40
  -4  -1  14   46.90    4.00
  -4  -1  14   43.30    3.50
  -4   1  14   41.90    3.80
  -4   1  14   50.29    3.50
   4   1 -14   47.60    3.40
  -4   1  14   45.30    3.50
  -4   1  14   42.50    3.50
  -4   1  14   39.20    3.50
  -4   1  14   44.20    3.40
  -3  -1  14   49.90    4.20
  -3  -1  14   44.60    3.60
   3  -1 -14   53.09    3.50
  -3  -1  14   40.20    3.70
  -3  -1  14   48.10    3.50
  -3  -1  14   47.60    3.60
  -3  -1  14   51.89    3.70
   3  -1 -14   43.20    3.60
  -3   1  14   44.50    3.60
  -3   1  14   51.89    3.60
   3   1 -14   44.90    3.60
  -3   1  14   40.20    3.60
  -2  -1  14    9.30    1.40
   2  -1 -14    8.40    1.30
  -2  -1  14   11.90    1.60
   2  -1 -14    9.90    1.70
  -2  -1  14   10.90    1.40
   2  -1 -14   12.00    1.20
  -2  -1  14   10.00    1.40
   2  -1 -14   10.70    1.40
  -2  -1  14    9.20    1.70
  -2   1  14    6.60    1.90
  -2   1  14   11.80    1.50
   2   1 -14    9.20    1.30
  -2   1  14   11.60    1.40
   2   1 -14   10.90    1.60
   1  -1 -14    2.20    1.00
   1  -1 -14    1.60    0.90
   1  -1 -14    1.30    0.70
  -1  -1  14    1.20    1.00
  -1  -1  14    1.70    0.80
  -1  -1  14    1.50    0.80
  -1  -1  14    1.30    0.90
   1  -1 -14    1.10    1.00
   1   1 -14    1.90    0.90
   1   1 -14    0.60    0.80
  -1   1  14    0.00    1.00
   1   1 -14    1.10    1.20
  -1   1  14    2.30    0.90
   0  -1  14    5.20    1.20
   0  -1  14    4.20    0.90
   0  -1  14    5.00    1.00
   0  -1 -14    4.60    0.90
   0  -1  14    4.20    1.00
   0  -1 -14    6.20    1.10
   0  -1 -14    4.50    1.40
   0  -1 -14    3.20    1.10
   0  -1 -14    5.90    1.00
   0   1 -14    4.60    1.10
   0   1  14    5.30    1.00
   0   1 -14    4.40    0.90
   0   1 -14    4.90    1.70
   0   1 -14    3.50    1.00
  -1  -1 -14   80.19    5.80
  -1  -1 -14   73.09    5.70
   1  -1  14   81.09    6.00
   1  -1  14   76.29    5.70
  -1  -1 -14   87.29    5.90
  -1  -1 -14   86.59    5.80
   1  -1  14   68.79    5.80
  -1  -1 -14   76.19    6.10
  -1  -1 -14   79.59    5.70
   1  -1  14   75.99    5.80
  -1   1 -14   79.59    5.90
   1   1  14   83.79    5.80
  -1   1 -14   71.99    5.70
  -1   1 -14   79.59    5.80
  -1   1 -14   75.59    5.80
  -2  -1 -14   35.30    2.90
  -2  -1 -14   33.20    3.00
   2  -1  14   34.80    2.80
   2  -1  14   34.50    3.10
  -2  -1 -14   33.20    2.70
  -2  -1 -14   35.10    2.70
  -2  -1 -14   34.10    2.60
   2  -1  14   25.60    2.60
  -2  -1 -14   28.10    3.10
  -2  -1 -14   31.60    2.70
   2   1  14   25.70    3.00
  -2   1 -14   27.70    2.70
   2   1  14   36.00    2.80
  -2   1 -14   32.90    2.70
  -2   1 -14   34.10    3.20
  -2   1 -14   33.00    2.80
  -3  -1 -14   26.30    2.40
   3  -1  14   28.20    2.40
  -3  -1 -14   25.80    2.20
  -3  -1 -14   29.80    2.60
  -3  -1 -14   31.30    2.70
   3  -1  14   26.00    2.80
  -3  -1 -14   28.40    2.30
   3   1  14   21.60    2.70
  -3   1 -14   29.10    2.40
  -3   1 -14   27.20    2.30
  -3   1 -14   21.60    2.70
  -3   1 -14   25.30    2.90
  -3   1 -14   28.10    2.30
   3   1  14   29.10    2.50
  -4  -1 -14   66.49    4.60
  -4  -1 -14   56.09    4.60
  -4  -1 -14   54.19    4.30
  -4  -1 -14   64.99    4.40
   4  -1  14   58.49    4.50
  -4  -1 -14   58.89    4.40
  -4   1 -14   51.59    4.40
  -4   1 -14   60.19    4.50
  -4   1 -14   59.59    4.40
  -4   1 -14   52.29    4.90
  -4   1 -14   57.69    4.40
   4   1  14   64.59    4.50
  -4   1 -14   56.29    4.70
  -5  -1 -14   24.70    2.20
   5  -1  14   19.30    2.10
  -5  -1 -14   22.60    2.50
  -5  -1 -14   21.10    2.30
   5   1  14   22.10    2.30
  -5   1 -14   25.00    2.30
  -5   1 -14   21.50    2.00
  -5   1 -14   20.50    2.00
  -5   1 -14   16.60    2.50
 -13  -2  14   14.10    1.70
 -13  -2  14   19.80    2.20
 -13  -2  14   18.60    1.80
 -13  -2  14   17.10    2.20
 -13   2  14   15.80    1.50
 -13   2  14   16.90    1.60
 -13   2  14   18.90    1.70
 -12  -2  14    3.90    1.00
 -12  -2  14    1.20    0.70
 -12  -2  14    1.70    0.80
  12  -2 -14    2.60    0.80
 -12  -2  14    3.30    1.20
 -12  -2  14    2.60    1.10
 -12  -2  14    1.90    1.00
 -12   2  14    2.90    0.60
 -12   2  14    2.80    1.00
 -12   2  14    2.20    0.70
 -11  -2  14   -1.40    1.00
 -11  -2  14   -0.30    1.00
 -11  -2  14    0.20    1.00
 -11  -2  14    0.40    1.10
  11  -2 -14   -0.10    0.70
 -11  -2  14   -0.30    0.70
 -11  -2  14    0.10    0.70
 -11   2  14   -0.10    1.00
 -11   2  14   -0.50    0.70
 -11   2  14   -0.60    0.70
 -11   2  14    0.80    0.50
 -10  -2  14    4.40    0.90
  10  -2 -14    3.40    0.80
 -10  -2  14    4.30    1.10
 -10  -2  14    4.30    1.20
 -10  -2  14    3.30    1.10
 -10  -2  14    2.80    1.20
 -10  -2  14    2.90    0.70
 -10   2  14    4.50    1.20
 -10   2  14    1.60    1.40
 -10   2  14    3.40    0.90
 -10   2  14    3.00    0.70
  -9  -2  14    0.80    0.80
  -9  -2  14    0.10    1.60
  -9  -2  14   -0.30    1.10
  -9  -2  14   -0.10    1.10
  -9  -2  14    0.30    0.80
  -9  -2  14   -0.10    1.10
   9  -2 -14    0.10    0.70
  -9  -2  14    0.40    0.70
   9   2 -14   -0.10    0.90
  -9   2  14   -0.40    1.20
  -9   2  14   -0.10    0.60
  -9   2  14    0.30    0.70
  -9   2  14   -0.30    0.80
  -8  -2  14    0.30    0.90
  -8  -2  14    2.10    1.20
  -8  -2  14    1.60    0.90
  -8  -2  14    1.30    0.80
  -8  -2  14    0.70    0.70
   8  -2 -14    2.30    0.80
  -8  -2  14    2.20    0.90
  -8  -2  14    2.00    1.10
   8  -2 -14    1.90    0.70
  -8  -2  14    1.90    1.20
  -8   2  14    2.20    0.90
  -8   2  14    1.30    0.70
   8   2 -14    0.90    0.80
  -8   2  14   -0.10    1.10
  -8   2  14    1.60    1.20
  -8   2  14    0.70    0.70
  -7  -2  14    0.10    0.70
   7  -2 -14    0.50    0.70
  -7  -2  14    1.40    0.70
  -7  -2  14    0.30    1.20
  -7  -2  14    0.10    1.10
  -7  -2  14    0.30    0.80
  -7  -2  14   -0.60    0.70
  -7  -2  14    0.80    0.80
   7  -2 -14    0.30    0.60
  -7  -2  14    0.90    1.40
  -7   2  14    0.50    1.20
  -7   2  14    0.60    0.70
  -7   2  14    0.10    0.60
  -7   2  14   -0.30    0.90
  -7   2  14   -0.30    0.70
   7   2 -14    0.20    0.80
  -6  -2  14   10.30    1.40
  -6  -2  14    9.70    2.40
   6  -2 -14    8.00    1.40
  -6  -2  14   10.50    1.90
   6  -2 -14   10.90    1.30
  -6  -2  14   11.90    1.60
  -6  -2  14   11.50    1.60
   6  -2 -14    9.40    1.10
  -6  -2  14   10.70    1.70
  -6  -2  14   10.70    2.00
  -6  -2  14    8.90    1.30
  -6   2  14    7.70    1.60
  -6   2  14    9.30    1.40
  -6   2  14   10.00    1.90
  -6   2  14   11.80    1.30
   6   2 -14   11.70    1.40
  -6   2  14    9.20    1.60
  -6   2  14   11.00    1.70
  -5  -2  14    1.60    1.20
  -5  -2  14    0.60    0.70
  -5  -2  14    0.50    0.70
   5  -2 -14    1.80    0.60
  -5  -2  14    1.60    0.90
  -5  -2  14    1.90    0.80
   5  -2 -14    1.90    1.70
  -5  -2  14    1.90    1.30
   5  -2 -14    1.40    0.70
  -5   2  14    1.20    1.40
  -5   2  14    2.40    0.80
   5   2 -14    1.10    0.80
  -5   2  14    0.90    1.00
  -5   2  14    1.50    1.00
  -4  -2  14    0.30    0.90
   4  -2 -14    0.50    0.70
   4  -2 -14    1.10    1.00
  -4  -2  14   -0.70    0.70
  -4  -2  14    0.70    0.80
   4  -2 -14    1.30    0.60
  -4  -2  14   -1.20    0.70
  -4  -2  14   -0.50    1.40
  -4  -2  14    0.00    1.20
   4  -2 -14    1.40    1.00
  -4  -2  14   -0.10    0.70
  -4   2  14   -2.00    1.40
  -4   2  14   -0.40    0.90
  -4   2  14    0.40    0.80
  -4   2  14   -0.70    0.50
   4   2 -14    0.10    0.80
  -3  -2  14   24.90    2.20
  -3  -2  14   29.50    2.40
  -3  -2  14   21.60    2.90
  -3  -2  14   22.80    2.10
   3  -2 -14   24.30    2.10
  -3  -2  14   27.00    2.80
   3  -2 -14   24.40    2.20
   3  -2 -14   25.10    2.30
   3  -2 -14   25.20    1.90
  -3   2  14   19.80    2.60
  -3   2  14   19.50    2.70
   3   2 -14   25.00    2.20
  -3   2  14   23.10    2.20
  -3   2  14   23.40    2.30
  -2  -2  14   -0.50    1.10
   2  -2 -14    0.30    0.50
  -2  -2  14   -1.40    1.30
   2  -2 -14   -0.50    0.80
   2  -2 -14   -0.10    0.90
  -2  -2  14    0.00    0.60
  -2  -2  14   -0.50    0.70
   2  -2 -14    0.30    0.90
   2  -2 -14    0.40    0.90
  -2  -2  14   -0.30    0.80
  -2   2  14    1.40    2.90
  -2   2  14   -1.00    1.10
  -2   2  14   -0.60    0.90
   2   2 -14   -1.70    0.80
   2   2 -14    0.50    0.90
  -2   2  14    0.10    1.10
  -2   2  14    0.10    0.50
   1  -2 -14    3.20    0.90
   1  -2 -14    1.20    0.90
   1  -2 -14    3.30    0.60
  -1  -2  14    2.10    1.10
  -1  -2  14    1.70    0.70
  -1  -2  14    1.80    0.90
   1  -2 -14    2.80    1.00
   1  -2 -14    3.60    0.90
  -1  -2  14    2.40    0.80
  -1  -2  14    2.40    1.40
   1   2 -14    1.00    0.90
  -1   2  14    3.60    1.00
   1   2 -14    1.00    0.90
  -1   2  14    1.80    1.10
   0  -2 -14    5.10    0.80
   0  -2 -14    4.60    0.90
   0  -2  14    3.90    1.00
   0  -2  14    4.60    1.60
   0  -2 -14    2.80    0.90
   0  -2  14    3.80    1.20
   0  -2  14    4.30    1.00
   0  -2 -14    5.50    1.20
   0  -2 -14    5.00    1.10
   0  -2  14    3.80    0.80
   0  -2 -14    4.90    1.00
   0   2  14    3.90    1.20
   0   2 -14    4.90    1.00
   0   2  14    7.00    1.30
   0   2 -14    1.70    1.00
  -1  -2 -14    3.40    0.90
  -1  -2 -14    4.70    0.80
   1  -2  14    2.30    1.60
  -1  -2 -14    3.20    1.10
   1  -2  14    3.80    0.80
  -1  -2 -14    1.20    1.10
   1  -2  14    4.80    1.20
  -1  -2 -14    5.90    1.10
   1  -2  14    2.80    1.00
  -1  -2 -14    4.70    0.80
   1  -2  14    3.90    1.00
  -1   2 -14    5.00    1.30
  -1   2 -14    1.80    1.00
  -1   2 -14    2.40    0.90
   1   2  14    5.00    1.10
   2  -2  14    3.00    1.80
  -2  -2 -14    2.70    0.70
   2  -2  14    2.20    1.10
  -2  -2 -14    1.90    1.00
  -2  -2 -14    3.20    0.80
  -2  -2 -14    1.80    0.80
   2  -2  14    1.00    1.00
   2  -2  14    0.90    0.70
  -2  -2 -14    2.30    1.00
   2  -2  14    0.50    1.10
  -2  -2 -14    1.30    0.60
  -2  -2 -14    1.50    0.80
   2   2  14    3.00    1.10
  -2   2 -14    2.00    1.20
   2   2  14    3.00    1.20
  -2   2 -14    2.10    1.10
  -2   2 -14    2.30    1.60
  -3  -2 -14    6.60    1.50
   3  -2  14    4.20    0.80
   3  -2  14    2.60    1.70
  -3  -2 -14    5.20    0.90
  -3  -2 -14    7.00    1.00
  -3  -2 -14    5.80    1.10
   3  -2  14    3.30    1.20
  -3  -2 -14    4.40    1.10
   3  -2  14    4.20    2.70
  -3  -2 -14    6.10    1.10
   3   2  14    5.30    1.20
  -3   2 -14    9.90    2.20
  -3   2 -14    3.40    0.90
  -3   2 -14    4.60    1.20
   3   2  14    6.70    1.40
  -3   2 -14    4.30    1.20
   4  -2  14   -1.50    1.10
  -4  -2 -14    1.50    0.70
  -4  -2 -14    0.40    0.70
  -4  -2 -14    0.40    0.90
   4  -2  14    1.40    0.90
  -4   2 -14    1.00    1.20
  -4   2 -14   -0.10    0.80
  -4   2 -14   -2.20    1.60
  -4   2 -14    1.00    1.20
  11  -3 -14    6.50    1.20
 -11  -3  14    6.60    1.20
 -11  -3  14    8.60    1.60
 -11   3  14    4.50    0.80
 -11   3  14    5.60    0.90
 -11   3  14    5.70    1.10
 -10  -3  14   22.10    2.10
  10  -3 -14   17.10    1.70
 -10  -3  14   18.30    3.00
 -10  -3  14   19.10    2.30
 -10   3  14   17.30    1.90
  10   3 -14   15.00    2.00
 -10   3  14   19.20    1.80
  -9  -3  14   26.70    2.50
  -9  -3  14   22.70    2.20
  -9  -3  14   26.20    2.50
   9  -3 -14   26.80    2.20
   9   3 -14   25.90    2.30
  -9   3  14   27.10    2.30
  -9   3  14   21.30    2.40
  -9   3  14   26.50    2.40
  -8  -3  14   28.20    2.50
   8  -3 -14   30.10    2.40
  -8  -3  14   29.60    2.70
  -8  -3  14   26.60    2.30
  -8  -3  14   27.80    2.90
  -8  -3  14   28.80    2.70
  -8   3  14   24.20    2.50
  -8   3  14   30.60    2.60
  -8   3  14   29.30    2.70
   8   3 -14   32.10    2.40
  -7  -3  14   85.29    6.70
  -7  -3  14  102.59    6.70
  -7  -3  14   85.59    6.50
   7  -3 -14   87.19    6.90
   7  -3 -14   91.19    6.50
  -7  -3  14   85.09    6.90
  -7  -3  14   95.29    6.80
  -7   3  14   89.19    6.70
  -6  -3  14  103.69    6.70
  -6  -3  14   92.19    6.80
   6  -3 -14   83.09    6.50
  -6  -3  14   89.09    6.50
  -6  -3  14   91.49    6.90
  -6  -3  14   89.59    6.60
   6  -3 -14   80.69    6.50
  -6  -3  14   86.49    6.70
   6  -3 -14   83.89    6.60
   6   3 -14  101.69    6.60
  -6   3  14   90.39    6.70
  -5  -3  14   32.10    2.60
  -5  -3  14   27.40    2.80
  -5  -3  14   35.90    2.80
   5  -3 -14   28.90    2.50
   5  -3 -14   27.90    2.50
  -5  -3  14   34.90    3.10
  -5  -3  14   31.60    2.50
   5  -3 -14   31.90    2.40
  -5  -3  14   28.40    3.00
  -5   3  14   29.80    2.90
   5   3 -14   36.00    2.60
   4  -3 -14   55.19    4.60
  -4  -3  14   66.79    4.90
   4  -3 -14   60.49    4.60
  -4  -3  14   60.79    4.50
   4  -3 -14   63.59    4.50
  -4  -3  14   55.49    4.80
  -4  -3  14   62.39    4.60
  -4  -3  14   50.69    4.90
  -4  -3  14   69.79    4.70
   4   3 -14   70.99    4.60
  -4   3  14   60.89    4.80
  -3  -3  14    4.90    0.90
   3  -3 -14    4.00    1.10
   3  -3 -14    5.80    0.80
   3  -3 -14    5.10    1.00
  -3  -3  14    3.70    1.30
  -3  -3  14    7.00    1.40
  -3  -3  14    5.50    0.80
  -3   3  14    3.50    1.50
   3   3 -14    4.50    1.00
  -3   3  14    6.50    1.30
   3   3 -14    3.40    1.60
  -2  -3  14    0.30    0.80
  -2  -3  14   -0.20    0.60
  -2  -3  14    0.40    0.80
   2  -3 -14    0.40    0.80
   2  -3 -14    0.40    0.50
  -2  -3  14   -0.60    1.30
  -2   3  14    2.00    1.40
  -2   3  14    0.20    1.00
  -2   3  14    0.60    1.60
  -1  -3  14    1.40    1.50
   1  -3 -14    1.90    1.30
   1  -3 -14    2.00    0.90
   1  -3 -14    0.90    0.60
  -1  -3  14    2.40    1.40
   1  -3 -14    0.80    0.60
  -1  -3  14    1.40    0.90
  -1  -3  14    1.60    0.70
   1  -3 -14    2.20    0.80
   1  -3 -14    1.80    1.00
   1   3 -14    1.70    0.90
   1   3 -14    1.00    0.90
  -1   3  14    4.00    1.50
  -1   3  14    1.10    1.10
   0  -3 -14    8.40    1.50
   0  -3 -14   10.90    1.70
   0  -3 -14   12.50    1.30
   0  -3 -14   10.50    1.70
   0  -3 -14   11.10    1.80
   0  -3  14   11.40    1.80
   0  -3  14    9.30    1.20
   0  -3  14    9.80    1.50
   0  -3 -14   12.30    1.20
   0  -3 -14    9.60    1.40
   0   3 -14   10.40    1.50
   0   3 -14   10.30    1.60
   0   3  14   12.30    1.90
   0   3  14   10.00    2.40
  -1  -3 -14   27.60    2.40
   1  -3  14   26.00    2.20
   1  -3  14   27.40    2.60
   1  -3  14   22.50    2.40
  -1  -3 -14   31.30    2.20
  -1  -3 -14   31.80    2.70
  -1  -3 -14   27.20    2.30
  -1  -3 -14   26.20    2.10
  -1  -3 -14   22.60    3.00
   1   3  14   21.00    2.70
  -1   3 -14   22.30    2.30
  -2  -3 -14   36.30    2.90
  -2  -3 -14   40.00    3.00
  -2  -3 -14   41.40    2.80
  -2  -3 -14   38.60    3.10
   2  -3  14   33.10    2.80
   2  -3  14   34.40    3.30
  -2   3 -14   29.60    2.90
  -6  -4  14    0.40    0.70
  -6  -4  14    0.70    1.30
   6  -4 -14    1.10    0.80
  -6   4  14   -0.80    0.90
   6   4 -14    1.20    0.90
  -6   4  14    1.80    1.00
  -5  -4  14    2.90    0.70
  -5  -4  14    4.30    1.20
  -5  -4  14    2.80    0.80
  -5  -4  14    2.90    1.20
   5  -4 -14    2.90    0.80
  -5   4  14    3.40    1.20
   5   4 -14    4.50    0.90
  -4  -4  14   10.20    1.40
   4  -4 -14    7.30    1.10
  -4  -4  14    9.70    1.40
   4  -4 -14    9.40    1.30
   4  -4 -14    9.10    1.10
  -4  -4  14    6.30    1.10
  -4  -4  14    7.30    1.50
  -4   4  14    8.60    1.60
   4   4 -14    8.10    1.40
  -3  -4  14   19.10    2.00
  -3  -4  14   27.50    2.20
   3  -4 -14   24.40    2.30
   3  -4 -14   26.50    2.00
  -3  -4  14   23.90    2.20
  -3  -4  14   26.10    2.30
   3  -4 -14   22.50    1.90
  -3   4  14   21.50    2.50
 -14   0  15   -0.40    0.60
 -14   0  15    0.70    0.80
 -14   0  15   -0.80    0.80
 -13   0  15    0.70    0.90
 -13   0  15   -0.80    0.90
 -13   0  15   -0.90    0.60
  13   0 -15   -1.90    1.50
 -13   0  15    0.10    0.60
 -12   0  15   -0.70    0.70
 -12   0  15   -0.10    0.50
 -12   0  15   -0.30    0.50
 -12   0  15   -1.30    1.00
 -12   0  15    0.10    0.80
  12   0 -15   -0.10    0.80
 -12   0  15    0.70    1.00
 -12   0  15    1.80    1.70
 -11   0  15   -0.60    0.80
 -11   0  15    0.10    1.40
 -11   0  15   -0.50    1.10
 -11   0  15    1.60    1.00
  11   0 -15    0.60    0.80
 -11   0  15   -0.40    0.50
 -11   0  15    0.90    0.80
 -11   0  15    0.00    0.60
  10   0 -15    0.40    0.90
 -10   0  15    0.60    0.80
 -10   0  15    0.80    1.30
 -10   0  15   -0.50    1.10
 -10   0  15    0.50    0.80
 -10   0  15   -0.10    0.70
 -10   0  15    0.60    1.00
 -10   0  15    1.00    0.60
  -9   0  15   -0.40    0.50
  -9   0  15    0.80    0.80
  -9   0  15    1.30    1.40
   9   0 -15   -0.60    0.80
  -9   0  15    0.30    0.70
  -9   0  15   -1.00    1.10
  -9   0  15   -0.10    0.60
  -9   0  15   -1.00    1.10
  -9   0  15   -0.70    1.20
  -9   0  15    0.60    1.10
  -8   0  15   -1.80    1.10
  -8   0  15    0.10    0.60
  -8   0  15   -0.70    1.10
  -8   0  15    0.30    0.50
  -8   0  15   -1.00    0.70
  -8   0  15    0.40    1.10
  -8   0  15   -0.90    0.80
  -8   0  15    0.30    1.40
  -8   0  15   -1.00    1.20
   8   0 -15   -0.70    0.70
  -7   0  15    0.00    0.70
  -7   0  15   -0.70    0.50
  -7   0  15    0.10    1.00
  -7   0  15    1.20    0.70
  -7   0  15   -0.20    1.30
   7   0 -15    0.10    0.70
  -6   0  15    0.10    0.80
  -6   0  15    0.20    1.50
  -6   0  15    0.40    0.90
  -6   0  15   -0.50    1.20
  -6   0  15    0.10    1.40
  -6   0  15   -0.20    0.50
   6   0 -15    0.30    0.70
  -6   0  15    0.60    1.00
  -6   0  15    0.30    0.70
  -5   0  15   -0.90    0.70
   5   0 -15   -0.20    0.70
  -5   0  15    1.20    0.70
  -5   0  15   -0.90    1.40
  -5   0  15   -0.20    0.90
  -5   0  15    0.20    0.40
  -5   0  15    0.40    0.90
  -5   0  15   -1.40    1.30
   4   0 -15    0.10    0.70
  -4   0  15   -0.30    0.40
  -4   0  15   -0.30    0.70
  -4   0  15    0.30    0.70
  -4   0  15   -0.90    0.90
  -4   0  15    0.00    0.80
  -3   0  15    1.80    0.90
   3   0 -15   -0.50    0.70
  -3   0  15   -0.50    0.80
  -3   0  15    0.30    0.40
  -3   0  15    0.60    0.80
  -3   0  15   -0.80    0.90
  -2   0  15   -1.10    0.80
  -2   0  15   -2.10    1.50
   2   0 -15   -2.50    1.70
  -2   0  15   -0.60    0.80
  -2   0  15   -0.10    0.80
   2   0 -15    1.10    0.70
  -1   0  15    1.00    0.90
   1   0 -15    0.30    0.70
  -1   0  15    0.60    0.90
  -1   0  15    0.10    0.90
   1   0 -15    0.50    1.10
   1   0 -15   -0.40    1.20
   1   0 -15   -1.10    1.00
   0   0 -15   -1.10    1.00
   0   0  15    1.30    1.00
   0   0 -15    1.60    1.20
   0   0 -15    0.40    0.70
   0   0 -15   -0.40    1.00
   0   0  15    2.30    1.20
   0   0 -15    0.20    1.00
   0   0  15    0.80    0.90
  -1   0 -15    0.00    1.00
  -1   0 -15   -0.60    1.00
  -1   0 -15   -0.80    0.80
   1   0  15    0.90    0.90
  -1   0 -15    0.60    1.10
  -2   0 -15    0.70    1.00
  -2   0 -15    0.70    0.90
   2   0  15    1.00    1.10
  -2   0 -15    0.30    0.60
  -2   0 -15    0.50    0.90
  -2   0 -15    0.40    0.90
  -2   0 -15    1.50    1.00
   2   0  15    0.90    1.00
  -3   0 -15    0.50    1.00
  -3   0 -15    0.30    0.50
  -3   0 -15    0.50    1.40
   3   0  15    1.50    1.00
  -3   0 -15    0.50    0.80
   3   0  15    1.20    1.40
  -3   0 -15    0.60    1.20
  -3   0 -15    1.30    0.90
   4   0  15   -0.40    1.00
  -4   0 -15    1.40    0.80
  -4   0 -15    0.00    0.80
 -13  -1  15    3.80    0.60
 -13  -1  15    5.30    1.40
 -13  -1  15    4.30    0.90
 -13  -1  15    5.50    1.10
 -13  -1  15    3.60    1.00
  13  -1 -15    2.80    1.00
 -13   1  15    6.00    1.10
 -13   1  15    4.20    0.70
 -13   1  15    4.70    0.80
 -13   1  15    3.90    1.20
 -12  -1  15   44.60    3.10
 -12  -1  15   38.80    3.40
 -12  -1  15   43.20    3.50
  12  -1 -15   33.50    3.10
 -12  -1  15   35.20    3.30
 -12  -1  15   40.10    3.00
 -12  -1  15   34.30    3.20
 -12  -1  15   35.00    2.90
 -12   1  15   35.20    3.60
 -12   1  15   32.20    3.20
 -12   1  15   39.10    2.90
 -12   1  15   44.40    3.00
 -12   1  15   41.50    3.10
 -11  -1  15   70.79    5.60
 -11  -1  15   79.79    5.60
  11  -1 -15   75.19    5.70
 -11  -1  15   78.19    5.80
 -11  -1  15   79.79    5.90
 -11  -1  15   65.09    5.60
 -11  -1  15   74.19    5.40
 -11  -1  15   79.79    5.50
 -11  -1  15   70.09    5.70
 -11   1  15   80.89    5.60
 -11   1  15   66.09    5.50
 -11   1  15   69.69    5.70
 -11   1  15   78.89    5.40
 -11   1  15   72.19    6.00
 -11   1  15   86.99    5.50
 -10  -1  15   51.89    3.80
  10  -1 -15   49.10    3.80
 -10  -1  15   48.10    4.00
 -10  -1  15   43.60    3.90
 -10  -1  15   54.49    4.30
 -10  -1  15   55.89    3.80
 -10  -1  15   50.29    3.60
 -10  -1  15   53.69    4.20
 -10  -1  15   42.60    3.80
 -10   1  15   42.30    4.30
 -10   1  15   45.50    3.70
  10   1 -15   40.30    3.70
 -10   1  15   54.29    3.90
 -10   1  15   50.29    3.60
 -10   1  15   44.60    3.90
 -10   1  15   56.69    3.80
  -9  -1  15  100.89    6.70
   9  -1 -15   86.49    6.60
  -9  -1  15   94.19    6.50
  -9  -1  15   86.19    6.60
  -9  -1  15   95.79    6.70
  -9  -1  15   99.59    7.00
  -9  -1  15   96.89    7.00
   9  -1 -15   79.89    6.50
  -9  -1  15   87.49    6.80
  -9  -1  15   85.59    6.70
  -9  -1  15   86.69    6.80
  -9   1  15   87.89    6.60
   9   1 -15   86.09    6.60
  -9   1  15   90.29    7.10
  -9   1  15   86.29    6.70
  -9   1  15   95.39    6.50
  -9   1  15   98.49    6.70
  -8  -1  15   82.19    6.00
  -8  -1  15   73.99    5.60
  -8  -1  15   65.69    5.70
  -8  -1  15   77.19    5.50
  -8  -1  15   76.69    5.60
  -8  -1  15   72.19    5.70
  -8  -1  15   83.89    5.60
   8  -1 -15   73.59    5.50
   8  -1 -15   69.29    5.40
  -8  -1  15   71.19    5.50
  -8   1  15   74.59    5.50
  -8   1  15   85.09    5.60
  -8   1  15   80.59    5.70
  -8   1  15   66.79    6.10
  -8   1  15   76.69    5.40
   8   1 -15   76.49    5.50
  -8   1  15   74.99    5.60
  -8   1  15   68.59    5.60
  -7  -1  15   15.30    1.60
  -7  -1  15   14.10    1.90
  -7  -1  15   14.00    1.50
  -7  -1  15   11.10    2.00
   7  -1 -15   13.60    1.40
  -7  -1  15   11.80    1.80
  -7  -1  15   17.00    1.80
  -7  -1  15   11.80    1.90
  -7  -1  15   16.90    2.30
  -7  -1  15   11.50    2.00
  -7   1  15   13.60    1.70
  -7   1  15   11.40    1.70
  -7   1  15   14.60    1.50
   7   1 -15   17.20    1.50
  -7   1  15   14.80    2.70
  -7   1  15   15.50    2.00
  -7   1  15   13.70    1.60
  -7   1  15   13.20    1.60
   6  -1 -15   29.60    2.40
  -6  -1  15   36.30    2.70
  -6  -1  15   30.80    2.50
  -6  -1  15   26.30    2.70
  -6  -1  15   30.80    2.50
  -6  -1  15   34.20    3.20
  -6  -1  15   25.30    3.00
  -6  -1  15   27.40    2.60
  -6  -1  15   30.40    2.70
  -6   1  15   28.10    2.40
   6   1 -15   31.10    2.50
  -6   1  15   33.00    2.60
  -6   1  15   29.20    2.90
  -6   1  15   27.80    2.60
  -6   1  15   32.60    2.70
  -6   1  15   29.50    3.30
  -6   1  15   29.50    2.60
  -5  -1  15   31.20    2.60
  -5  -1  15   32.70    2.90
  -5  -1  15   34.40    3.00
  -5  -1  15   28.80    2.70
  -5  -1  15   28.90    2.50
  -5  -1  15   33.10    3.20
   5  -1 -15   33.00    2.40
  -5   1  15   30.40    2.50
   5   1 -15   33.70    2.50
  -5   1  15   29.80    2.60
  -5   1  15   27.50    3.00
  -5   1  15   26.60    2.60
  -5   1  15   31.70    2.60
   4  -1 -15    7.10    1.80
  -4  -1  15    9.40    2.10
  -4  -1  15   11.90    1.60
   4  -1 -15    9.80    1.10
  -4  -1  15   10.20    1.30
  -4  -1  15    8.10    1.40
  -4  -1  15   10.20    1.80
  -4   1  15    8.80    1.40
  -4   1  15   10.70    1.40
  -4   1  15    6.50    1.40
  -4   1  15    6.70    1.40
  -4   1  15    6.70    2.10
  -4   1  15    8.90    1.80
  -3  -1  15   53.59    3.80
  -3  -1  15   48.20    3.70
   3  -1 -15   43.50    4.00
  -3  -1  15   52.69    4.00
  -3  -1  15   47.40    3.90
  -3  -1  15   52.39    3.80
   3  -1 -15   53.69    3.70
  -3  -1  15   45.90    3.80
  -3  -1  15   50.19    4.40
  -3   1  15   50.49    3.80
  -3   1  15   40.20    3.80
  -3   1  15   44.80    3.80
   3   1 -15   52.29    3.70
  -3   1  15   53.09    3.80
  -2  -1  15   16.60    1.80
  -2  -1  15   14.30    1.60
   2  -1 -15   18.30    1.50
  -2  -1  15   16.20    1.80
   2  -1 -15   15.30    1.80
  -2  -1  15   16.80    2.10
  -2  -1  15   15.00    1.70
  -2  -1  15   18.10    2.60
   2   1 -15   12.30    2.20
  -2   1  15   17.30    1.80
  -2   1  15   17.60    1.90
   2   1 -15   18.30    1.60
   1  -1 -15   54.09    3.60
   1  -1 -15   49.90    3.70
   1  -1 -15   41.30    3.80
   1  -1 -15   44.80    4.20
  -1  -1  15   45.60    3.70
  -1  -1  15   50.49    3.70
  -1  -1  15   55.09    4.00
  -1  -1  15   47.20    3.80
  -1   1  15   50.69    3.80
   1   1 -15   41.50    3.80
   1   1 -15   50.59    3.70
   0  -1 -15  132.39    9.00
   0  -1 -15  128.49    8.80
   0  -1  15  116.59    8.90
   0  -1 -15  125.19    9.10
   0  -1  15  119.59    8.80
   0  -1  15  120.09    8.90
   0  -1 -15  113.29    8.90
   0  -1 -15  127.69    8.90
   0  -1  15  139.09    9.10
   0   1 -15  115.99    8.90
   0   1 -15  121.49    8.90
   0   1  15  126.99    9.00
  -1  -1 -15   76.79    5.40
   1  -1  15   75.99    5.40
   1  -1  15   70.19    5.30
  -1  -1 -15   75.89    5.30
  -1  -1 -15   70.69    5.40
  -1  -1 -15   74.39    6.20
  -1  -1 -15   79.59    5.50
   1  -1  15   63.09    5.50
  -1  -1 -15   67.19    5.30
  -1   1 -15   70.59    5.40
  -1   1 -15   64.99    5.40
  -1   1 -15   75.09    5.50
   1   1  15   84.29    5.50
  -1   1 -15   80.29    5.80
  -1   1 -15   68.19    5.30
  -2  -1 -15   17.10    2.00
  -2  -1 -15   16.00    1.60
  -2  -1 -15   17.50    1.70
   2  -1  15   17.50    2.20
  -2  -1 -15   17.80    1.70
  -2  -1 -15   19.80    2.10
  -2  -1 -15   16.40    1.70
   2  -1  15   12.20    1.80
   2  -1  15   18.80    2.20
  -2   1 -15   15.50    1.80
  -2   1 -15   15.80    1.80
  -2   1 -15   17.90    2.30
   2   1  15   19.60    2.00
  -2   1 -15   17.70    1.80
  -2   1 -15   14.70    2.00
  -2   1 -15   12.80    2.10
  -3  -1 -15   35.90    2.90
  -3  -1 -15   39.80    2.80
   3  -1  15   37.70    3.00
  -3  -1 -15   32.10    2.80
  -3  -1 -15   37.10    3.20
  -3   1 -15   34.30    2.90
  -3   1 -15   34.20    3.80
  -3   1 -15   36.60    2.90
  -3   1 -15   33.40    2.90
   3   1  15   38.10    3.00
   4  -1  15   30.30    2.70
  -4  -1 -15   32.70    2.50
  -4  -1 -15   35.80    2.50
  -4   1 -15   29.30    3.10
  -4   1 -15   32.50    2.60
   4   1  15   32.40    2.80
  -4   1 -15   28.80    2.70
  12  -2 -15    9.20    1.40
 -12  -2  15   12.10    1.80
 -12  -2  15    7.90    1.20
 -12  -2  15   10.60    1.40
 -12  -2  15    9.50    1.30
 -12   2  15   10.40    1.90
 -12   2  15    9.70    1.20
 -12   2  15   10.10    1.00
 -11  -2  15    1.20    0.70
  11  -2 -15    2.70    0.70
 -11  -2  15    3.50    0.80
 -11  -2  15    3.30    1.20
 -11  -2  15    4.30    1.10
 -11  -2  15    4.50    1.10
 -11   2  15    2.70    0.80
 -11   2  15    4.00    0.60
 -11   2  15    1.70    0.80
 -11   2  15    3.10    1.00
 -10  -2  15    2.90    1.10
 -10  -2  15    1.80    0.60
 -10  -2  15    2.60    1.10
  10  -2 -15    2.60    0.70
 -10  -2  15    3.70    0.90
 -10  -2  15    2.30    0.80
 -10  -2  15    1.80    1.10
 -10   2  15    1.90    0.80
 -10   2  15    1.00    1.00
  10   2 -15    3.60    1.00
 -10   2  15    1.50    0.70
 -10   2  15    2.10    0.60
  -9  -2  15    4.00    1.10
  -9  -2  15    2.60    0.90
  -9  -2  15    3.90    1.30
  -9  -2  15    4.60    1.20
  -9  -2  15    2.80    0.70
   9  -2 -15    2.40    0.70
  -9  -2  15    2.30    1.10
  -9  -2  15    2.80    0.80
  -9   2  15    3.10    1.20
  -9   2  15    5.10    0.90
  -9   2  15    3.20    0.70
  -9   2  15    1.30    0.70
   8  -2 -15   35.90    2.90
  -8  -2  15   35.90    2.90
  -8  -2  15   40.50    3.10
  -8  -2  15   34.60    2.80
  -8  -2  15   36.10    3.20
  -8  -2  15   37.80    3.00
  -8  -2  15   40.70    3.30
   8  -2 -15   31.50    2.80
  -8  -2  15   35.70    3.20
  -8   2  15   36.50    3.20
  -8   2  15   38.60    2.90
  -8   2  15   39.40    3.00
   8   2 -15   37.60    2.90
  -8   2  15   29.80    3.10
  -8   2  15   34.40    2.80
   7  -2 -15   72.09    5.60
  -7  -2  15   79.19    5.70
  -7  -2  15   70.59    5.90
  -7  -2  15   80.09    5.80
  -7  -2  15   79.49    6.00
  -7  -2  15   79.59    5.70
  -7  -2  15   82.49    6.00
   7  -2 -15   73.59    5.70
  -7  -2  15   87.79    5.90
  -7   2  15   82.29    5.80
  -7   2  15   76.29    5.70
  -7   2  15   79.19    5.90
  -7   2  15   66.49    5.80
   7   2 -15   82.59    5.70
  -7   2  15   74.79    5.60
   6  -2 -15  114.89    9.40
  -6  -2  15  127.69    9.30
  -6  -2  15  142.79    9.50
  -6  -2  15  145.09    9.50
  -6  -2  15  133.99    9.40
   6  -2 -15  128.99    9.30
  -6  -2  15  137.99    9.70
   6  -2 -15  121.09    9.40
   6   2 -15  136.99    9.40
  -6   2  15  126.69    9.40
  -6   2  15  134.19    9.60
  -6   2  15  139.29    9.50
  -6   2  15  123.19    9.30
  -6   2  15  120.39    9.50
  -5  -2  15  112.19    8.30
   5  -2 -15  101.89    7.90
  -5  -2  15  106.79    7.90
  -5  -2  15  109.89    8.00
  -5  -2  15  124.89    8.10
   5  -2 -15   94.69    8.00
  -5  -2  15  121.89    8.10
   5  -2 -15  102.59    8.00
  -5   2  15  108.69    8.00
   5   2 -15  122.29    8.00
  -5   2  15  111.19    8.20
  -5   2  15  119.69    8.10
  -5   2  15  102.39    8.10
   4  -2 -15   82.59    5.60
  -4  -2  15   77.39    5.70
   4  -2 -15   74.19    5.70
  -4  -2  15   87.89    5.80
  -4  -2  15   80.09    6.20
   4  -2 -15   72.59    5.70
   4  -2 -15   70.59    5.80
  -4   2  15   67.99    5.80
  -4   2  15   72.09    6.00
  -4   2  15   84.79    5.80
  -4   2  15   81.59    5.70
   4   2 -15   83.09    5.70
   3  -2 -15   78.09    6.10
  -3  -2  15   85.59    6.10
  -3  -2  15   84.79    6.40
   3  -2 -15   79.69    6.00
  -3  -2  15   85.69    6.00
   3  -2 -15   82.89    6.00
   3  -2 -15   85.99    5.90
  -3   2  15   73.39    6.70
   3   2 -15   91.39    6.00
  -3   2  15   68.49    6.50
  -3   2  15   89.69    6.10
  -3   2  15   79.99    6.10
  -2  -2  15   85.49    6.70
   2  -2 -15   87.09    6.30
   2  -2 -15   80.69    6.40
  -2  -2  15   93.99    6.40
  -2  -2  15   73.69    6.30
  -2  -2  15  100.09    6.50
  -2  -2  15   83.99    6.20
   2  -2 -15   93.99    6.20
   2   2 -15   72.69    6.30
  -2   2  15   95.19    6.40
   2   2 -15   84.29    6.30
  -2   2  15   80.89    6.30
   1  -2 -15   25.40    2.20
   1  -2 -15   29.30    2.00
  -1  -2  15   19.90    2.30
   1  -2 -15   25.00    2.60
  -1  -2  15   26.90    2.50
   1  -2 -15   24.90    2.40
  -1  -2  15   24.60    2.30
  -1  -2  15   25.10    2.90
  -1  -2  15   23.60    2.10
  -1   2  15   27.90    2.30
  -1   2  15   25.50    2.40
   1   2 -15   21.00    2.30
   1   2 -15   24.00    2.20
   0  -2  15    7.70    1.60
   0  -2  15    6.10    1.20
   0  -2 -15    7.30    1.00
   0  -2 -15    7.50    1.70
   0  -2 -15    4.60    1.00
   0  -2  15    5.50    1.10
   0  -2  15    5.60    1.40
   0  -2 -15    6.70    1.20
   0  -2 -15    7.10    1.50
   0  -2  15    4.60    0.80
   0   2 -15    4.10    1.00
   1  -2  15    0.80    1.10
  -1  -2 -15    3.00    0.80
   1  -2  15    3.00    1.00
  -1  -2 -15    1.30    1.10
   1  -2  15    1.30    0.70
  -1  -2 -15    0.50    0.60
   1  -2  15    2.40    1.60
   1  -2  15   -0.10    0.90
  -1  -2 -15    0.90    1.00
  -1  -2 -15    2.90    0.70
  -1  -2 -15    3.00    0.80
  -1  -2 -15    3.50    0.90
  -1   2 -15    2.30    0.90
   1   2  15    1.90    1.10
  -2  -2 -15    1.00    1.10
   2  -2  15    2.20    1.80
  -2  -2 -15    0.70    0.50
  -2  -2 -15    1.90    0.90
   2  -2  15    0.60    0.90
   2  -2  15   -0.10    1.10
   2  -2  15    0.50    1.60
   2  -2  15    0.80    1.10
  -2  -2 -15    1.20    0.80
  -2  -2 -15    1.50    0.70
  -2  -2 -15   -1.00    1.60
   2   2  15    0.90    1.20
  -2   2 -15    0.20    0.90
  -2   2 -15    0.90    1.20
  -3  -2 -15    6.30    1.10
  -3  -2 -15    8.40    1.10
  -3  -2 -15    7.90    1.00
   3  -2  15    5.00    1.00
  -3   2 -15    5.40    1.00
 -10  -3  15   11.70    1.60
 -10  -3  15   10.00    1.80
  10  -3 -15    8.70    1.30
 -10   3  15    9.90    1.40
 -10   3  15   10.60    1.50
  -9  -3  15    5.50    1.30
   9  -3 -15    4.90    1.10
  -9  -3  15    6.50    1.50
  -9   3  15    3.90    1.20
   9   3 -15    5.20    1.00
  -9   3  15    6.50    1.30
  -8  -3  15    5.50    2.10
   8  -3 -15    2.60    0.70
  -8  -3  15    4.30    0.90
  -8  -3  15    4.40    1.30
  -8  -3  15    3.20    1.00
  -8  -3  15    1.50    1.40
  -8  -3  15    3.20    0.90
  -8   3  15    2.10    1.00
   8   3 -15    1.60    0.90
  -8   3  15    3.90    1.10
  -7  -3  15   22.20    2.10
  -7  -3  15   23.10    2.10
   7  -3 -15   18.10    1.80
  -7  -3  15   19.90    1.90
  -7  -3  15   15.50    2.30
  -7  -3  15   17.10    1.70
   7  -3 -15   18.60    1.80
  -7   3  15   20.90    2.10
  -7   3  15   15.10    2.00
   7   3 -15   21.70    1.80
  -6  -3  15    8.80    1.40
   6  -3 -15    6.60    1.20
  -6  -3  15    8.40    2.10
  -6  -3  15    7.90    1.20
  -6  -3  15    6.10    1.20
   6  -3 -15    6.30    1.10
  -6  -3  15    7.60    1.10
   6  -3 -15    7.40    1.30
  -6  -3  15    8.70    2.00
   6   3 -15    8.80    1.20
  -6   3  15    7.40    1.50
  -5  -3  15    6.20    1.30
   5  -3 -15    3.50    0.70
  -5  -3  15    4.50    1.20
  -5  -3  15    6.10    1.20
   5  -3 -15    5.10    1.00
  -5  -3  15    3.60    0.70
  -5  -3  15    6.10    1.60
  -5   3  15    5.40    1.40
   5   3 -15    5.70    0.90
   4  -3 -15    4.40    0.90
  -4  -3  15    3.80    0.80
  -4  -3  15    3.00    0.70
  -4  -3  15    4.60    1.40
  -4  -3  15    2.20    1.10
   4  -3 -15    3.30    0.70
   4  -3 -15    3.00    0.90
  -4  -3  15    4.40    0.80
   4   3 -15    3.80    0.90
  -4   3  15    3.70    1.50
  -3  -3  15    1.50    0.80
  -3  -3  15    1.30    1.20
  -3  -3  15    1.20    0.60
   3  -3 -15    1.80    0.80
  -3  -3  15   -0.50    1.20
   3  -3 -15    2.00    0.60
  -3  -3  15    1.40    0.80
   3   3 -15    2.20    0.90
  -3   3  15    2.30    1.60
  -2  -3  15    6.70    1.00
   2  -3 -15    6.40    1.10
   2  -3 -15    6.20    0.90
   2  -3 -15    4.70    1.10
  -2  -3  15    5.00    2.30
   2  -3 -15    7.30    1.10
  -2  -3  15    5.00    0.90
  -2  -3  15    7.40    1.50
   2   3 -15    4.00    1.20
  -2   3  15    5.90    1.40
   2   3 -15    4.70    1.00
  -1  -3  15    3.60    1.00
   1  -3 -15    6.10    1.30
  -1  -3  15    3.80    0.90
  -1  -3  15    4.20    0.70
   1  -3 -15    6.50    0.90
   1  -3 -15    5.00    1.00
   1  -3 -15    5.70    1.00
  -1   3  15    4.30    2.00
   1   3 -15    4.50    1.10
   1   3 -15    4.60    1.00
  -1   3  15    6.20    1.60
   0  -3 -15    8.60    1.30
   0  -3  15    4.20    1.10
   0  -3 -15    6.40    1.10
   0  -3 -15    7.60    1.10
   0  -3 -15    8.00    1.70
   0  -3  15    5.50    1.00
   0  -3  15    8.70    1.60
   0   3 -15    6.20    1.10
  -1  -3 -15   12.10    1.60
 -13   0  16    7.70    1.00
 -13   0  16   11.60    1.30
 -13   0  16   11.00    1.20
 -13   0  16   11.30    1.80
 -12   0  16    8.80    1.60
 -12   0  16    6.60    1.00
 -12   0  16    9.00    1.30
 -12   0  16    9.30    1.90
 -12   0  16    8.70    1.20
  12   0 -16    7.80    1.40
 -11   0  16   15.00    1.50
  11   0 -16   13.10    1.60
 -11   0  16   10.90    1.50
 -11   0  16   14.80    1.30
 -11   0  16   13.00    2.30
 -11   0  16   14.60    1.60
 -11   0  16   17.10    2.20
 -11   0  16   12.30    1.80
 -10   0  16  194.58   13.20
 -10   0  16  176.68   13.00
 -10   0  16  203.98   13.00
 -10   0  16  174.88   13.10
 -10   0  16  198.88   12.90
 -10   0  16  182.48   12.80
  10   0 -16  152.38   12.80
 -10   0  16  169.08   12.90
  -9   0  16   57.59    4.40
   9   0 -16   45.00    3.90
  -9   0  16   59.09    4.00
  -9   0  16   50.79    4.00
  -9   0  16   51.89    4.10
  -9   0  16   45.00    4.20
  -9   0  16   51.79    3.90
  -9   0  16   59.29    4.10
  -8   0  16  113.59    7.30
  -8   0  16   96.59    7.10
   8   0 -16   95.89    7.20
  -8   0  16   91.99    7.30
  -8   0  16  102.29    7.60
  -8   0  16   97.29    7.30
  -8   0  16  103.29    7.30
  -8   0  16   96.19    7.20
  -7   0  16  145.39   11.00
  -7   0  16  150.68   10.50
   7   0 -16  143.59   10.50
  -7   0  16  165.18   10.70
  -7   0  16  149.88   10.70
  -7   0  16  138.09   10.70
  -7   0  16  149.79   10.60
  -7   0  16  143.09   10.60
  -6   0  16  138.79   10.10
  -6   0  16  138.29    9.90
  -6   0  16  137.79   10.00
  -6   0  16  131.69   10.30
  -6   0  16  131.19   10.00
  -6   0  16  132.49   10.00
   6   0 -16  140.69    9.90
  -6   0  16  158.98   10.00
  -5   0  16   56.19    4.50
  -5   0  16   54.59    5.00
  -5   0  16   65.19    4.60
   5   0 -16   65.69    4.40
  -5   0  16   56.99    4.40
  -5   0  16   55.09    4.50
  -5   0  16   60.49    4.50
  -4   0  16    5.40    1.10
  -4   0  16    4.20    0.80
   4   0 -16    7.50    1.00
  -4   0  16    4.40    1.10
  -4   0  16    6.00    1.20
  -4   0  16    1.90    1.60
   3   0 -16   55.79    3.80
  -3   0  16   50.19    3.90
  -3   0  16   48.60    4.00
  -3   0  16   51.39    3.90
  -3   0  16   51.49    3.80
  -3   0  16   47.50    3.90
  -2   0  16   -0.60    0.50
  -2   0  16   -1.30    0.90
   2   0 -16    0.80    1.20
  -2   0  16    0.30    0.80
   2   0 -16    0.00    0.70
  -2   0  16    0.00    0.80
   1   0 -16   10.40    1.20
   1   0 -16    8.50    1.60
  -1   0  16    9.20    1.50
   1   0 -16   10.30    1.80
  -1   0  16    8.00    1.70
  -1   0  16   10.10    1.40
   0   0  16   29.80    2.30
   0   0 -16   24.70    2.40
   0   0 -16   23.60    2.40
   0   0 -16   25.80    2.20
  -1   0 -16   22.10    2.10
   1   0  16   25.90    2.50
  -1   0 -16   22.30    2.40
  -1   0 -16   21.80    2.10
   1   0  16   23.70    2.10
  -1   0 -16   20.90    1.90
  -1   0 -16   18.40    2.30
  -2   0 -16   74.29    5.70
  -2   0 -16   74.09    5.80
  -2   0 -16   84.29    5.90
   2   0  16   80.89    5.80
  -3   0 -16  171.28   11.30
  -3   0 -16  152.78   11.20
   3   0  16  152.28   11.20
  -3   0 -16  152.28   11.20
 -12  -1  16    3.10    1.00
 -12  -1  16    1.50    0.70
 -12  -1  16    2.30    1.00
  12  -1 -16    1.70    0.80
 -12  -1  16    3.20    1.10
 -12  -1  16    1.80    1.20
 -12   1  16    3.10    1.00
  12   1 -16    2.20    1.00
 -12   1  16    1.30    1.20
 -12   1  16    1.70    0.50
 -12   1  16    3.20    0.70
 -11  -1  16   43.30    3.30
  11  -1 -16   43.10    3.40
 -11  -1  16   49.60    3.50
 -11  -1  16   47.40    3.90
 -11  -1  16   37.80    3.40
 -11  -1  16   48.30    3.70
 -11  -1  16   37.70    3.60
 -11  -1  16   39.60    3.70
 -11   1  16   42.80    3.40
 -11   1  16   36.10    4.00
 -11   1  16   38.10    3.60
 -11   1  16   50.79    3.50
 -11   1  16   51.79    3.40
 -11   1  16   47.00    3.30
 -10  -1  16   14.00    2.00
 -10  -1  16   15.20    2.20
 -10  -1  16   11.90    2.20
 -10  -1  16   19.20    1.90
 -10  -1  16   17.20    1.50
 -10  -1  16   18.10    2.20
  10  -1 -16   13.10    2.20
  10   1 -16   16.30    1.80
 -10   1  16   17.20    1.90
 -10   1  16   16.60    1.70
 -10   1  16   18.00    1.50
 -10   1  16   20.40    1.70
   9  -1 -16   12.30    1.40
  -9  -1  16    9.90    1.80
  -9  -1  16   13.70    1.60
  -9  -1  16    9.80    2.00
  -9  -1  16   10.60    1.20
  -9  -1  16   13.40    2.00
  -9  -1  16   10.60    1.60
  -9  -1  16    9.30    1.80
  -9  -1  16    9.10    1.40
   9   1 -16   12.20    1.40
  -9   1  16   11.60    1.60
  -9   1  16    9.00    1.30
  -9   1  16   10.70    1.40
  -9   1  16   11.10    1.20
  -9   1  16   10.70    1.70
  -8  -1  16    4.10    1.50
  -8  -1  16    5.10    1.00
   8  -1 -16    5.80    1.10
  -8  -1  16    6.40    1.40
  -8  -1  16    5.10    1.40
  -8  -1  16    4.50    1.00
  -8  -1  16    5.00    0.90
  -8  -1  16    3.80    0.80
   8  -1 -16    5.20    0.80
  -8   1  16    6.70    1.00
  -8   1  16    4.40    1.30
   8   1 -16    5.60    0.90
  -8   1  16    5.80    1.10
  -8   1  16    4.40    1.70
  -8   1  16    5.80    1.00
  -7  -1  16    9.80    1.80
   7  -1 -16   10.10    1.40
   7  -1 -16    8.70    1.20
  -7  -1  16   12.30    2.10
  -7  -1  16   13.40    1.60
  -7  -1  16   10.80    1.20
  -7  -1  16   11.00    1.40
  -7  -1  16    5.30    2.90
  -7  -1  16   10.70    1.70
  -7   1  16   11.90    1.30
  -7   1  16   11.00    1.50
  -7   1  16   13.10    1.40
   7   1 -16    9.50    1.30
  -7   1  16    9.20    1.90
  -7   1  16    9.30    1.80
  -7   1  16   11.30    1.50
  -7   1  16   11.00    1.50
  -6  -1  16   -0.70    1.30
  -6  -1  16   -0.50    0.80
  -6  -1  16   -0.20    0.60
  -6  -1  16   -0.20    0.70
  -6  -1  16   -0.40    1.20
   6  -1 -16    0.30    0.60
  -6  -1  16    0.20    0.90
  -6  -1  16   -0.80    0.70
   6   1 -16   -0.50    0.70
  -6   1  16    0.10    1.50
  -6   1  16    0.30    0.90
  -6   1  16   -0.60    0.50
  -6   1  16   -1.50    1.30
  -6   1  16    0.20    0.70
  -6   1  16   -0.70    0.80
  -6   1  16   -0.10    1.00
  -5  -1  16   31.90    3.10
  -5  -1  16   40.50    3.30
   5  -1 -16   39.50    2.90
  -5  -1  16   36.20    3.20
  -5  -1  16   40.40    3.10
  -5  -1  16   42.80    3.70
  -5  -1  16   39.10    3.00
  -5  -1  16   42.70    3.20
  -5   1  16   37.70    3.40
   5   1 -16   42.70    3.10
  -5   1  16   34.30    3.20
  -5   1  16   32.40    3.00
  -5   1  16   40.30    3.10
  -5   1  16   34.30    3.80
  -5   1  16   40.90    3.10
  -4  -1  16   63.89    4.50
  -4  -1  16   51.89    4.30
  -4  -1  16   49.80    4.40
  -4  -1  16   53.59    4.20
   4  -1 -16   61.99    4.30
  -4  -1  16   58.99    4.30
  -4  -1  16   60.89    4.40
  -4  -1  16   56.59    4.80
  -4   1  16   55.89    4.30
  -4   1  16   52.19    4.30
   4   1 -16   64.89    4.30
  -4   1  16   59.19    4.40
  -4   1  16   51.89    4.40
   3  -1 -16   36.70    3.30
  -3  -1  16   41.60    3.20
   3  -1 -16   47.90    3.20
  -3  -1  16   46.30    3.60
  -3  -1  16   44.60    3.40
  -3  -1  16   43.10    4.00
  -3  -1  16   39.20    3.50
   3  -1 -16   36.10    3.40
  -3  -1  16   37.40    3.30
  -3   1  16   41.90    3.30
   3   1 -16   49.50    3.30
  -3   1  16   43.40    3.40
  -3   1  16   38.30    3.30
  -2  -1  16   51.39    3.80
   2  -1 -16   40.80    4.00
  -2  -1  16   42.00    3.50
  -2  -1  16   44.90    3.60
   2  -1 -16   41.90    3.60
  -2  -1  16   45.50    3.60
  -2  -1  16   45.70    3.50
   2  -1 -16   51.39    3.40
  -2  -1  16   46.60    4.20
  -2   1  16   38.40    3.70
  -2   1  16   52.79    3.60
   2   1 -16   45.10    3.50
  -2   1  16   45.00    3.60
  -1  -1  16   29.70    2.60
   1  -1 -16   29.20    2.70
  -1  -1  16   28.30    2.60
  -1  -1  16   33.80    3.30
  -1  -1  16   28.40    2.70
  -1  -1  16   34.50    2.80
   1  -1 -16   25.50    3.40
   1  -1 -16   33.50    2.40
   1  -1 -16   29.30    2.50
  -1  -1  16   25.10    2.40
   1   1 -16   30.40    2.50
  -1   1  16   31.50    2.60
   0  -1  16   28.10    2.80
   0  -1 -16   33.50    2.80
   0  -1 -16   35.60    2.50
   0  -1  16   27.40    3.30
   0  -1 -16   30.50    2.60
   0  -1  16   28.30    2.60
   0   1 -16   33.10    2.80
   0   1 -16   31.40    2.50
   0   1  16   37.20    2.80
   0   1 -16   27.00    2.70
   1  -1  16    0.80    0.90
  -1  -1 -16    0.10    0.80
  -1  -1 -16   -1.60    0.80
  -1  -1 -16   -0.20    1.00
  -1  -1 -16   -0.50    0.50
   1  -1  16   -0.20    0.90
   1  -1  16    0.40    0.90
  -1  -1 -16    0.00    0.80
  -1  -1 -16    0.30    1.10
   1   1  16   -0.90    0.90
  -1   1 -16    0.10    1.20
  -1   1 -16    0.80    0.90
  -1   1 -16   -0.20    0.90
  -1   1 -16   -0.60    0.70
   2  -1  16   11.90    1.60
   2  -1  16   14.40    2.00
  -2  -1 -16   11.70    1.50
   2   1  16   14.20    1.60
  -2   1 -16    8.30    1.60
  -2   1 -16   14.00    2.00
  -2   1 -16    9.10    1.50
  -2   1 -16   15.20    2.20
  -3  -1 -16    1.50    0.50
  -3  -1 -16    2.60    0.70
   3  -1  16    1.80    1.00
   3  -1  16    2.20    1.60
  -3  -1 -16    1.40    0.80
  -3   1 -16    4.10    1.20
  -3   1 -16    1.20    0.80
  -3   1 -16    1.30    1.10
   3   1  16    2.70    1.40
  11  -2 -16    0.10    0.60
 -11  -2  16    0.50    0.70
 -11  -2  16    0.40    0.60
 -11  -2  16   -0.20    1.20
 -11  -2  16    0.30    1.00
 -11   2  16    0.70    0.50
 -11   2  16    0.10    0.70
 -10  -2  16    0.20    1.30
  10  -2 -16    0.20    0.60
 -10  -2  16   -0.20    0.50
 -10  -2  16   -0.10    0.90
 -10  -2  16    0.50    0.70
 -10  -2  16    0.10    0.90
 -10  -2  16   -0.80    1.10
 -10   2  16    0.00    0.70
  10   2 -16   -1.20    0.90
 -10   2  16    0.10    0.90
 -10   2  16   -0.50    0.70
  -9  -2  16   13.30    2.00
  -9  -2  16   12.70    1.30
   9  -2 -16   12.60    1.50
  -9  -2  16   12.00    2.10
  -9  -2  16   15.40    2.00
  -9  -2  16   13.20    1.60
  -9  -2  16   17.80    1.90
  -9  -2  16   15.30    1.60
  -9   2  16   14.60    1.60
   9   2 -16   16.10    1.60
  -9   2  16   12.90    1.40
  -9   2  16   11.90    2.10
  -9   2  16   16.30    1.70
  -8  -2  16    0.70    0.80
  -8  -2  16    0.00    1.00
   8  -2 -16   -0.20    0.70
  -8  -2  16    0.60    1.60
   8  -2 -16    0.40    0.80
  -8  -2  16    0.90    1.30
  -8  -2  16    0.40    0.70
  -8  -2  16    0.60    0.60
  -8  -2  16    0.30    0.80
  -8   2  16   -0.10    0.60
   8   2 -16   -1.00    0.70
  -8   2  16    0.80    0.70
  -8   2  16    0.40    1.10
  -8   2  16    0.10    0.90
  -8   2  16   -0.40    0.90
  -7  -2  16    7.60    1.20
  -7  -2  16    7.70    1.30
  -7  -2  16    6.70    1.40
  -7  -2  16    5.00    1.60
  -7  -2  16    4.90    0.80
   7  -2 -16    4.80    0.90
   7  -2 -16    5.50    1.20
  -7  -2  16    7.60    1.70
  -7   2  16    4.30    0.90
   7   2 -16    7.10    1.30
  -7   2  16    5.70    1.10
  -7   2  16    4.90    1.30
  -6  -2  16    7.10    1.10
  -6  -2  16    8.20    1.40
  -6  -2  16    8.10    1.80
  -6  -2  16    9.70    1.40
  -6  -2  16    7.40    1.20
   6  -2 -16    7.30    1.00
   6  -2 -16    5.60    1.10
  -6   2  16    6.00    1.30
   6   2 -16    6.30    1.00
  -6   2  16    6.40    1.50
  -6   2  16    9.00    1.40
  -5  -2  16   -0.10    0.60
   5  -2 -16   -1.10    1.20
  -5  -2  16   -0.70    1.20
  -5  -2  16   -0.40    0.80
  -5  -2  16    0.00    0.70
   5  -2 -16   -0.10    0.70
   5  -2 -16   -0.40    0.60
   5   2 -16   -1.50    0.80
  -5   2  16   -0.80    1.00
  -5   2  16   -0.90    0.80
  -5   2  16   -0.10    1.50
  -5   2  16   -0.10    0.60
   4  -2 -16    0.00    1.30
   4  -2 -16    0.70    0.60
  -4  -2  16    0.90    0.60
  -4  -2  16    2.40    1.20
   4  -2 -16    0.50    1.00
  -4  -2  16    0.40    0.80
  -4  -2  16    0.80    0.80
  -4   2  16    2.90    2.20
  -4   2  16    1.20    1.00
  -4   2  16    0.30    0.60
   4   2 -16   -0.50    0.80
   3  -2 -16    3.90    1.00
   3  -2 -16    3.70    0.70
  -3  -2  16    3.50    0.80
  -3  -2  16    2.60    0.90
  -3  -2  16    3.20    0.70
   3  -2 -16    2.30    1.20
  -3  -2  16    3.70    1.30
  -3   2  16    3.60    1.00
  -3   2  16    1.80    0.60
   3   2 -16    3.00    1.20
  -2  -2  16    0.10    1.20
  -2  -2  16   -0.80    1.20
   2  -2 -16    0.70    0.60
   2  -2 -16   -0.20    1.10
  -2  -2  16    0.80    0.60
  -2  -2  16   -0.40    0.80
   2  -2 -16    1.20    1.20
   2  -2 -16    0.80    0.90
   2   2 -16    0.30    0.80
  -2   2  16    0.50    1.00
  -2   2  16   -0.90    0.60
  -1  -2  16    9.50    2.10
   1  -2 -16   12.90    1.30
  -1  -2  16   11.50    2.20
  -1  -2  16   11.70    1.30
  -1  -2  16   16.20    1.80
   1  -2 -16   12.00    2.00
   1  -2 -16   13.00    1.40
   1  -2 -16   12.90    2.00
  -1  -2  16   12.70    1.60
   1   2 -16   11.00    1.50
  -1   2  16   14.30    1.70
  -1   2  16   14.00    1.80
   0  -2 -16    4.30    0.70
   0  -2 -16    3.10    1.30
   0  -2  16    3.40    1.00
   0  -2  16    4.10    0.90
   0  -2 -16    5.40    1.00
   0  -2  16    3.30    1.50
   0  -2  16    3.90    0.70
   0  -2  16    3.50    1.30
   0  -2 -16    3.30    0.90
   0   2  16    2.00    0.70
   0   2  16    5.10    1.20
   0   2 -16    2.70    1.00
   0   2 -16    3.20    1.10
  -1  -2 -16   -0.50    0.90
   1  -2  16   -1.60    1.60
  -1  -2 -16   -1.50    1.00
   1  -2  16    0.90    2.10
   1  -2  16   -0.40    0.70
  -1  -2 -16    0.80    0.80
   1  -2  16    1.10    1.00
   1  -2  16   -0.10    1.50
  -1  -2 -16   -0.90    0.80
  -1  -2 -16    1.90    0.80
  -1   2 -16   -0.20    1.00
   1   2  16    0.60    1.20
  -8  -3  16    4.10    1.00
  -8  -3  16    3.80    0.90
   8  -3 -16    2.80    0.70
   8   3 -16    3.20    0.90
  -8   3  16    4.50    1.00
  -7  -3  16   -0.70    0.80
   7  -3 -16   -0.30    1.00
  -7  -3  16   -0.40    0.80
   7  -3 -16   -0.10    0.60
  -7  -3  16   -0.20    0.90
  -7  -3  16    0.20    0.60
   7   3 -16   -0.70    0.70
  -7   3  16   -1.30    1.20
  -7   3  16    0.00    1.10
   6  -3 -16    8.80    1.30
  -6  -3  16   10.60    1.90
   6  -3 -16    8.70    1.20
  -6  -3  16    9.90    1.30
   6  -3 -16    7.90    1.40
   6   3 -16   11.80    1.30
  -6   3  16   10.00    1.70
   5  -3 -16   14.00    1.20
   5  -3 -16   10.80    1.40
  -5  -3  16   13.50    2.20
  -5  -3  16   12.60    1.40
  -5  -3  16   11.10    1.80
  -5  -3  16   11.00    1.30
   5  -3 -16   10.20    1.50
  -5   3  16   13.00    1.90
   5   3 -16   14.60    1.40
  -4  -3  16   40.30    3.20
   4  -3 -16   39.50    3.20
  -4  -3  16   45.80    3.60
  -4  -3  16   44.30    3.10
   4  -3 -16   40.70    3.10
  -4   3  16   33.50    3.70
   4   3 -16   43.40    3.20
   3  -3 -16   16.00    1.60
   3  -3 -16   15.20    1.40
  -3  -3  16   19.30    2.40
  -3  -3  16   12.50    1.90
  -3  -3  16   18.20    2.10
  -3  -3  16   15.90    1.70
   3  -3 -16   13.80    2.20
   3   3 -16   16.00    1.70
   2  -3 -16   16.50    2.20
  -2  -3  16   20.30    2.00
   2  -3 -16   16.40    1.60
  -2  -3  16   20.60    2.10
   2  -3 -16   18.40    2.00
   2  -3 -16   18.30    1.60
  -2  -3  16   15.60    1.80
  -2  -3  16   18.00    1.60
 -12   0  17   -0.60    0.60
 -12   0  17    0.30    0.90
 -12   0  17    0.20    0.80
 -12   0  17   -0.10    0.50
  12   0 -17    0.50    0.80
 -11   0  17   -0.70    0.60
 -11   0  17    0.70    0.90
 -11   0  17   -0.50    0.60
  11   0 -17   -0.30    0.70
 -11   0  17   -0.10    0.50
 -11   0  17   -0.40    1.30
 -11   0  17   -0.10    0.70
  10   0 -17   -0.40    1.00
 -10   0  17   -0.70    0.70
 -10   0  17   -0.40    0.70
 -10   0  17   -0.40    1.00
 -10   0  17    0.00    0.50
 -10   0  17   -0.20    0.50
 -10   0  17    1.00    1.20
   9   0 -17   -0.80    0.70
  -9   0  17   -1.00    1.00
  -9   0  17   -0.20    0.60
  -9   0  17   -0.20    0.50
  -9   0  17    0.50    1.20
  -9   0  17   -1.30    0.80
  -9   0  17   -0.40    0.80
  -8   0  17    0.30    1.30
  -8   0  17   -0.60    0.60
  -8   0  17    0.10    0.80
  -8   0  17   -0.60    0.50
   8   0 -17   -0.50    0.70
  -8   0  17    0.30    0.70
  -8   0  17   -0.50    1.20
  -8   0  17    0.20    0.90
  -7   0  17   -0.60    1.30
   7   0 -17   -0.40    0.70
  -7   0  17   -0.10    0.50
  -7   0  17    0.00    0.60
  -7   0  17    0.00    1.10
  -7   0  17    0.80    0.70
  -7   0  17    0.60    1.40
  -7   0  17    0.20    0.90
  -6   0  17   -0.30    0.70
  -6   0  17    0.50    0.60
  -6   0  17    0.40    1.30
  -6   0  17   -0.30    0.50
  -6   0  17    0.10    0.90
   6   0 -17    0.10    0.70
  -6   0  17    1.20    0.90
   5   0 -17   -0.40    0.70
  -5   0  17    0.30    1.00
  -5   0  17    0.40    0.80
  -5   0  17    1.80    1.40
  -5   0  17    0.40    0.50
  -5   0  17    1.20    0.70
  -5   0  17    0.80    0.90
  -4   0  17   -0.10    0.80
   4   0 -17    1.10    0.70
  -4   0  17    1.40    0.90
  -4   0  17   -0.30    1.40
  -4   0  17    0.80    1.10
  -4   0  17    1.30    0.80
  -4   0  17    0.40    0.50
  -3   0  17    0.30    1.40
  -3   0  17   -0.90    0.90
  -3   0  17    0.60    0.90
  -3   0  17    0.00    0.80
   3   0 -17    0.10    0.70
  -3   0  17    0.30    0.50
  -2   0  17   -0.10    0.90
  -2   0  17    0.20    0.50
  -2   0  17    0.00    1.00
   2   0 -17   -0.10    0.90
  -2   0  17   -0.50    0.90
  -1   0  17   -1.00    0.80
  -1   0  17   -0.70    0.50
   1   0 -17   -0.10    0.70
   1   0 -17   -1.20    1.10
   0   0  17   -0.40    0.90
   0   0  17   -0.40    0.90
   0   0 -17    0.10    1.00
   0   0 -17   -0.10    0.70
  -1   0 -17   -0.70    1.20
   1   0  17    0.10    0.90
  -1   0 -17   -0.50    0.90
  -1   0 -17   -0.80    0.80
   1   0  17   -0.60    0.90
  -2   0 -17    0.10    0.80
 -12  -1  17    3.50    0.80
  12  -1 -17    2.60    1.20
 -12  -1  17    2.60    1.00
 -12  -1  17    3.00    1.20
 -12   1  17    3.50    0.90
 -12   1  17    3.20    0.70
 -11  -1  17    0.70    1.20
 -11  -1  17    0.60    0.80
 -11  -1  17   -0.40    0.70
 -11  -1  17    0.00    0.50
 -11  -1  17   -0.50    1.10
  11  -1 -17    0.60    0.70
 -11   1  17    0.00    0.90
 -11   1  17    0.50    0.80
 -11   1  17   -0.60    1.00
 -11   1  17   -1.00    0.70
  10  -1 -17    1.40    0.70
 -10  -1  17    0.90    0.70
 -10  -1  17    1.30    0.70
 -10  -1  17    1.50    1.10
 -10  -1  17    3.70    1.20
 -10  -1  17    2.40    0.80
 -10  -1  17    0.90    1.50
 -10  -1  17    2.00    0.50
 -10   1  17    3.00    0.80
 -10   1  17    1.00    0.60
 -10   1  17    2.10    0.70
 -10   1  17    1.10    0.60
  10   1 -17    2.60    0.90
 -10   1  17    1.80    1.00
   9  -1 -17   14.00    1.40
  -9  -1  17   12.40    1.50
  -9  -1  17   11.30    1.90
  -9  -1  17   13.50    2.00
   9  -1 -17    9.30    1.40
  -9  -1  17   11.50    1.30
  -9  -1  17   15.30    2.00
  -9  -1  17   11.30    2.30
  -9  -1  17   13.70    1.90
  -9  -1  17   15.90    1.60
  -9   1  17   15.80    1.70
  -9   1  17   12.10    1.80
  -9   1  17   15.20    1.60
   9   1 -17   13.70    1.50
  -9   1  17   12.40    1.30
  -9   1  17   12.40    1.40
   8  -1 -17   24.10    2.70
  -8  -1  17   24.50    2.10
  -8  -1  17   28.70    2.70
  -8  -1  17   22.40    3.50
  -8  -1  17   25.80    2.30
   8  -1 -17   23.80    2.10
  -8  -1  17   27.30    2.40
  -8  -1  17   23.90    2.50
  -8  -1  17   21.40    2.70
  -8   1  17   26.70    2.50
  -8   1  17   29.00    2.30
  -8   1  17   28.20    2.20
   8   1 -17   26.90    2.20
  -8   1  17   25.10    3.20
  -8   1  17   26.30    2.10
  -8   1  17   21.80    2.40
   7  -1 -17   36.60    3.10
   7  -1 -17   38.40    3.10
  -7  -1  17   40.90    3.60
  -7  -1  17   44.20    3.20
  -7  -1  17   43.30    3.30
  -7  -1  17   36.10    3.30
  -7  -1  17   40.20    3.00
  -7  -1  17   41.10    3.10
  -7   1  17   41.90    3.10
  -7   1  17   40.90    3.10
  -7   1  17   33.50    3.70
   7   1 -17   42.00    3.10
  -7   1  17   45.00    3.30
  -7   1  17   38.90    3.20
  -7   1  17   37.30    3.40
  -7   1  17   35.20    3.20
  -6  -1  17   65.09    5.40
  -6  -1  17   68.29    4.90
   6  -1 -17   67.79    4.90
   6  -1 -17   64.59    4.90
  -6  -1  17   76.69    5.00
  -6  -1  17   77.09    5.10
  -6  -1  17   69.59    5.00
  -6  -1  17   57.69    5.10
  -6   1  17   60.19    5.40
  -6   1  17   56.19    5.00
   6   1 -17   72.39    4.90
  -6   1  17   68.19    5.10
  -6   1  17   69.49    5.00
  -6   1  17   65.99    4.90
  -6   1  17   68.39    5.00
  -6   1  17   58.59    5.20
  -5  -1  17   35.10    3.40
  -5  -1  17   47.30    3.50
  -5  -1  17   43.50    3.30
   5  -1 -17   42.90    3.30
  -5  -1  17   44.00    3.30
   5  -1 -17   44.50    3.10
  -5  -1  17   39.90    3.80
  -5  -1  17   40.40    3.20
  -5   1  17   34.10    3.40
  -5   1  17   37.70    3.20
  -5   1  17   44.30    3.90
   5   1 -17   42.90    3.20
  -5   1  17   43.50    3.30
  -5   1  17   41.40    3.30
  -4  -1  17   24.90    2.20
   4  -1 -17   23.70    1.80
  -4  -1  17   20.50    2.00
   4  -1 -17   20.90    2.90
  -4  -1  17   17.50    1.80
  -4  -1  17   21.20    2.70
  -4   1  17   21.10    2.10
  -4   1  17   20.20    2.00
  -4   1  17   20.00    2.80
   4   1 -17   21.10    1.90
  -3  -1  17   26.90    2.80
   3  -1 -17   28.80    2.70
  -3  -1  17   29.50    2.50
  -3  -1  17   33.40    3.20
  -3  -1  17   35.70    2.80
  -3  -1  17   34.50    2.70
   3  -1 -17   25.50    3.60
  -3  -1  17   28.40    2.60
   3  -1 -17   33.00    2.50
   3   1 -17   35.00    3.00
  -3   1  17   36.30    2.60
  -3   1  17   30.00    2.80
  -3   1  17   28.80    2.70
   2  -1 -17   10.80    1.10
  -2  -1  17    8.20    1.20
  -2  -1  17   11.50    2.20
   2  -1 -17   10.40    1.60
  -2  -1  17    7.40    1.50
  -2  -1  17    8.70    1.70
  -2  -1  17    8.40    1.40
  -2  -1  17   10.60    1.70
   2  -1 -17    9.70    1.70
   2   1 -17   10.60    1.30
  -2   1  17    9.70    1.50
  -2   1  17   10.60    1.40
   1  -1 -17    0.60    0.60
  -1  -1  17   -1.30    1.00
  -1  -1  17    0.20    0.80
   1  -1 -17    0.60    1.10
   1  -1 -17    0.00    1.00
  -1  -1  17    0.30    0.60
  -1  -1  17   -0.50    0.80
  -1  -1  17    2.30    1.40
  -1  -1  17   -0.10    0.90
   1   1 -17    0.50    0.70
   1   1 -17    1.80    1.10
  -1   1  17   -0.10    0.50
  -1   1  17    1.30    0.90
   0  -1  17    0.70    0.90
   0  -1  17    2.50    1.40
   0  -1 -17    1.70    1.00
   0  -1 -17    0.90    1.10
   0  -1  17    1.70    0.90
   0  -1 -17    1.60    0.70
   0  -1 -17    0.60    0.50
   0  -1  17    1.50    0.80
   0   1  17    1.40    0.90
   0   1 -17    0.10    0.90
   0   1  17    1.20    0.60
   0   1 -17    2.80    1.10
   0   1 -17    1.40    0.70
   1  -1  17    4.50    1.00
   1  -1  17    4.70    1.50
   1  -1  17    3.60    1.00
  -1  -1 -17    3.70    0.90
  -1  -1 -17    3.70    1.00
  -1   1 -17    3.20    0.90
   1   1  17    4.70    1.10
 -10  -2  17   27.50    2.30
 -10  -2  17   30.30    2.80
  10  -2 -17   26.20    2.40
 -10  -2  17   34.10    2.50
 -10  -2  17   33.10    2.70
 -10   2  17   31.30    2.50
 -10   2  17   32.30    2.50
 -10   2  17   26.70    2.30
   9  -2 -17   13.40    1.40
  -9  -2  17   17.80    1.60
  -9  -2  17   15.80    1.70
  -9  -2  17   17.10    1.80
  -9  -2  17   11.30    1.50
  -9  -2  17   13.20    2.90
  -9  -2  17   12.10    2.00
  -9   2  17   16.50    1.70
  -9   2  17   10.60    1.50
   9   2 -17   13.70    1.50
  -8  -2  17   26.30    2.30
   8  -2 -17   25.90    2.20
  -8  -2  17   29.30    2.10
   8  -2 -17   24.20    2.20
  -8  -2  17   32.60    2.60
  -8  -2  17   26.40    3.40
  -8   2  17   28.40    2.50
  -8   2  17   23.90    2.30
   8   2 -17   25.00    2.20
  -7  -2  17   26.60    2.50
  -7  -2  17   25.50    2.10
  -7  -2  17   28.10    2.30
   7  -2 -17   23.60    2.00
   7  -2 -17   21.60    2.10
  -7  -2  17   22.80    2.00
  -7   2  17   22.30    2.50
  -7   2  17   25.20    2.10
  -7   2  17   23.60    2.40
   7   2 -17   24.40    2.10
   6  -2 -17    0.00    0.60
  -6  -2  17   -0.50    0.70
   6  -2 -17    1.10    0.60
  -6  -2  17   -0.30    0.60
  -6  -2  17   -0.20    0.70
  -6  -2  17   -0.10    1.10
  -6   2  17    0.10    1.30
  -6   2  17   -0.10    0.60
  -6   2  17    0.10    1.00
  -5  -2  17    1.10    1.20
  -5  -2  17   -0.10    0.70
   5  -2 -17    1.00    0.70
  -5  -2  17   -0.20    0.60
   5  -2 -17    1.00    0.60
  -5  -2  17    0.50    0.70
  -5   2  17   -0.60    0.60
   5   2 -17   -0.40    0.70
  -5   2  17    0.60    1.00
  -4  -2  17   -0.20    0.70
   4  -2 -17    1.40    1.40
   4  -2 -17   -0.20    0.60
  -4  -2  17   -1.10    1.10
  -4  -2  17    0.50    0.60
  -4  -2  17   -1.20    0.70
   4   2 -17   -0.10    0.70
  -4   2  17   -0.20    0.60
  -4   2  17   -1.50    0.90
  -3  -2  17   20.00    1.90
   3  -2 -17   21.50    1.60
  -3  -2  17   17.60    1.70
  -3  -2  17   18.80    2.30
   3  -2 -17   17.70    2.20
   3  -2 -17   15.90    2.30
  -3  -2  17   22.70    2.00
   3   2 -17   18.00    1.80
  -3   2  17   21.80    2.00
  -3   2  17   12.60    2.90
  -3   2  17   16.40    2.20
  -2  -2  17   83.99    6.10
   2  -2 -17   90.09    6.00
   2  -2 -17   82.29    6.20
  -2  -2  17   86.39    6.00
  -2  -2  17   72.49    6.40
   2  -2 -17   80.29    6.00
  -2   2  17   91.29    6.10
   2   2 -17   78.19    6.00
  -1  -2  17   22.00    1.80
  -1  -2  17   19.50    2.10
   1  -2 -17   21.20    1.80
   1  -2 -17   24.10    2.20
  -1  -2  17   23.90    2.60
   1  -2 -17   17.80    1.90
   1  -2 -17   21.50    2.30
  -1   2  17   20.90    2.10
   1   2 -17   19.20    2.70
   0   2 -17   13.10    1.60
 -11   0  18   11.30    1.40
  11   0 -18   13.30    1.50
 -11   0  18   16.00    1.60
 -11   0  18   15.00    1.20
 -10   0  18   -0.60    0.50
 -10   0  18    0.40    1.20
  10   0 -18   -0.60    0.60
 -10   0  18   -0.20    0.80
 -10   0  18    0.20    0.70
 -10   0  18   -1.00    1.10
  -9   0  18   30.30    2.20
  -9   0  18   29.30    2.90
  -9   0  18   28.50    2.60
  -9   0  18   22.10    3.70
  -9   0  18   25.70    2.50
   9   0 -18   23.60    2.20
  -9   0  18   29.40    2.30
  -8   0  18    0.40    0.50
   8   0 -18    0.50    0.70
  -8   0  18    2.10    0.90
  -8   0  18    0.80    0.60
  -8   0  18    2.10    1.20
  -8   0  18    1.30    0.90
  -8   0  18    1.40    0.70
  -7   0  18   39.30    3.00
  -7   0  18   33.70    3.10
  -7   0  18   43.70    3.10
  -7   0  18   42.50    3.30
  -7   0  18   37.00    3.40
  -7   0  18   37.30    2.90
  -7   0  18   33.30    3.10
   7   0 -18   37.40    2.90
  -6   0  18   19.80    1.80
  -6   0  18   16.60    2.40
   6   0 -18   20.60    1.70
  -6   0  18   15.40    1.70
  -6   0  18   21.20    2.20
  -6   0  18   18.90    2.00
  -5   0  18   25.20    2.60
  -5   0  18   32.70    2.80
  -5   0  18   27.90    2.60
  -5   0  18   33.40    2.50
  -5   0  18   29.50    3.00
  -5   0  18   28.80    2.40
   4   0 -18   64.89    4.20
  -4   0  18   59.09    4.30
  -4   0  18   56.49    4.30
  -4   0  18   54.39    4.20
  -4   0  18   55.49    4.70
  -4   0  18   49.99    4.40
  -3   0  18  116.29    8.90
  -3   0  18  124.89    8.80
  -3   0  18  118.59    8.90
   3   0 -18  131.19    8.80
  -3   0  18  124.09    9.20
  -2   0  18   29.50    3.00
  -2   0  18   27.20    2.50
   2   0 -18   26.80    2.20
  -2   0  18   27.80    2.40
  -2   0  18   29.10    2.70
   1   0 -18   22.30    2.00
  -1   0  18   22.70    2.10
  -1   0  18   25.00    2.70
   0   0  18   12.90    1.70
   0   0 -18   11.90    1.70
   0   0  18   10.00    1.50
   0   0  18   12.00    2.10
 -10  -1  18   10.80    1.30
 -10  -1  18    8.90    1.00
 -10  -1  18    8.70    1.80
 -10  -1  18    9.40    1.60
  10  -1 -18    7.70    1.20
 -10  -1  18    9.10    1.30
 -10   1  18    9.10    1.40
 -10   1  18    8.60    1.00
 -10   1  18    7.60    1.20
 -10   1  18   10.10    1.30
  -9  -1  18   20.80    2.30
  -9  -1  18   21.70    1.90
   9  -1 -18   18.60    1.90
  -9  -1  18   17.70    3.20
  -9  -1  18   23.20    1.80
  -9  -1  18   25.10    2.30
   9   1 -18   19.40    1.90
  -9   1  18   22.30    1.90
  -9   1  18   23.70    2.20
  -9   1  18   26.70    2.10
  -9   1  18   17.10    2.50
  -9   1  18   21.00    1.80
  -9   1  18   26.40    3.10
  -8  -1  18   27.60    2.10
  -8  -1  18   29.20    2.50
  -8  -1  18   26.00    2.20
   8  -1 -18   22.10    2.10
  -8  -1  18   29.60    2.60
  -8  -1  18   31.80    2.30
   8  -1 -18   24.80    2.20
   8   1 -18   25.60    2.20
  -8   1  18   27.30    2.90
  -8   1  18   26.50    2.20
  -8   1  18   23.30    2.40
  -8   1  18   28.30    2.50
  -8   1  18   24.30    2.90
  -7  -1  18   -0.30    1.10
  -7  -1  18   -0.30    0.70
  -7  -1  18    0.20    0.50
  -7  -1  18    0.80    0.80
  -7  -1  18    0.40    0.80
  -7  -1  18    1.00    0.70
   7  -1 -18    0.40    0.60
   7  -1 -18    0.80    0.70
  -7   1  18    1.50    1.60
   7   1 -18    0.60    0.70
  -7   1  18    0.50    0.50
  -7   1  18    0.50    0.70
  -7   1  18    0.20    2.40
  -7   1  18   -1.60    1.00
  -7   1  18    1.00    0.80
  -6  -1  18   32.10    2.50
  -6  -1  18   31.50    2.40
  -6  -1  18   27.00    2.80
   6  -1 -18   28.20    2.50
   6  -1 -18   33.50    2.40
  -6  -1  18   30.80    3.00
  -6  -1  18   36.80    2.60
  -6   1  18   28.40    2.60
  -6   1  18   30.40    2.60
  -6   1  18   27.30    2.70
   6   1 -18   32.80    2.50
  -6   1  18   29.70    3.10
  -5  -1  18    2.80    1.60
  -5  -1  18    3.60    0.80
   5  -1 -18    2.80    0.90
  -5  -1  18    2.60    0.70
  -5  -1  18    1.90    1.30
  -5  -1  18    3.70    0.90
  -5   1  18    3.60    0.90
   5   1 -18    4.50    0.80
  -5   1  18    3.20    1.40
  -5   1  18    2.50    1.00
  -4  -1  18    1.00    0.60
   4  -1 -18    0.40    0.60
  -4  -1  18    0.30    0.70
  -4  -1  18    0.50    1.20
  -4  -1  18    1.00    0.80
  -4  -1  18    1.70    1.10
  -4  -1  18   -0.70    0.70
   4  -1 -18    1.60    0.90
  -4   1  18    1.30    0.90
  -4   1  18    1.20    1.30
   4   1 -18   -0.10    0.70
  -4   1  18   -0.10    0.90
  -4   1  18   -0.60    0.50
  -3  -1  18    0.80    1.20
  -3  -1  18    0.10    1.10
   3  -1 -18    0.30    0.60
  -3  -1  18    1.30    0.80
  -3  -1  18   -0.90    0.70
  -3  -1  18    0.60    0.70
  -3   1  18    0.00    0.90
  -3   1  18    0.30    0.50
  -3   1  18    0.10    1.30
   3   1 -18   -1.50    0.70
   2  -1 -18   -0.20    0.60
  -2  -1  18    0.80    1.20
  -2  -1  18   -0.60    1.00
  -2  -1  18   -0.40    0.70
  -2  -1  18   -0.70    0.90
  -2  -1  18   -0.20    0.70
  -2   1  18    0.30    0.90
   2   1 -18    0.00    0.70
   1  -1 -18   -0.50    0.70
  -1  -1  18    0.20    0.80
   1  -1 -18   -0.30    0.50
  -1  -1  18    0.50    1.20
  -1  -1  18    0.00    0.80
  -1  -1  18    1.40    1.30
   1   1 -18    0.10    0.70
  -1   1  18   -0.20    0.90
  -8  -2  18    0.10    0.50
  -8  -2  18    0.80    0.90
   8  -2 -18    0.70    0.60
  -8  -2  18   -0.10    0.80
  -8  -2  18   -0.90    0.70
   8   2 -18   -0.60    0.90
  -8   2  18   -0.90    1.10
  -7  -2  18   13.60    1.50
  -7  -2  18   13.70    1.30
  -7  -2  18   16.10    1.70
  -7  -2  18   14.40    1.80
   7  -2 -18   12.60    1.40
   7  -2 -18   12.90    1.50
   7   2 -18   13.60    1.50
  -7   2  18   14.50    2.10
   6  -2 -18    1.20    0.90
  -6  -2  18   -0.30    1.00
  -6  -2  18    0.20    0.50
  -6  -2  18    0.30    0.70
   6  -2 -18    1.10    0.60
  -6  -2  18   -0.20    0.70
   6   2 -18    0.50    0.70
  -5  -2  18    0.90    1.00
   5  -2 -18    1.00    0.60
  -5  -2  18    1.80    0.70
  -5  -2  18    1.80    0.60
  -5  -2  18    1.50    0.70
   5   2 -18    1.40    0.70
  -5   2  18    0.50    1.00
  -4  -2  18   17.10    2.10
   4  -2 -18   16.80    2.10
  -4  -2  18   18.00    1.70
   4  -2 -18   17.80    1.50
  -4  -2  18   16.40    1.50
   4   2 -18   15.70    1.70
  -4   2  18   17.60    1.90
  -3  -2  18    1.30    0.80
   3  -2 -18    0.50    1.10
  -3  -2  18    1.00    0.70
   3  -2 -18    0.90    0.60
  -3  -2  18   -0.20    1.10
  -3   2  18    1.20    1.10
  -9   0  19    0.60    1.10
  -9   0  19    0.50    0.80
  -9   0  19   -0.50    1.00
  -9   0  19    0.20    0.50
   9   0 -19   -0.20    0.60
  -9   0  19    0.00    0.60
  -8   0  19   -0.10    0.80
   8   0 -19    0.40    0.70
  -8   0  19   -0.30    0.60
  -8   0  19   -1.10    0.50
  -8   0  19   -0.40    0.80
  -8   0  19   -0.30    1.10
  -7   0  19   -0.60    1.20
   7   0 -19   -0.70    0.60
  -7   0  19    0.10    0.70
  -7   0  19   -1.30    1.00
  -7   0  19   -0.20    0.80
  -7   0  19   -0.20    0.90
  -7   0  19    0.00    0.60
  -6   0  19   -0.60    0.60
  -6   0  19   -1.60    1.10
  -6   0  19    0.70    1.20
  -6   0  19   -2.00    1.60
  -6   0  19   -0.80    0.70
   6   0 -19   -0.40    0.60
  -5   0  19    0.10    0.80
  -5   0  19   -0.10    1.00
  -5   0  19   -0.40    0.80
  -5   0  19   -0.20    0.70
  -4   0  19   -0.50    1.00
   4   0 -19   -0.40    0.60
  -4   0  19   -0.80    1.00
  -4   0  19    0.50    1.20
  -4   0  19    0.00    0.90
  -3   0  19    0.10    0.80
  -3   0  19    0.10    1.00
   3   0 -19    0.20    0.70
  -3   0  19   -0.30    1.10
  -8  -1  19    0.60    0.80
  -8  -1  19    1.50    0.80
   8  -1 -19    0.40    0.70
  -8  -1  19    1.30    0.70
  -8  -1  19    1.00    1.00
  -8  -1  19    0.20    0.50
   8   1 -19   -0.10    1.10
  -8   1  19    0.50    0.70
  -8   1  19    0.10    0.90
  -8   1  19   -0.50    0.70
   7  -1 -19    4.30    0.80
  -7  -1  19    5.50    0.90
   7  -1 -19    5.40    0.90
  -7  -1  19    6.80    1.20
  -7   1  19    6.60    1.20
  -7   1  19    5.60    1.20
   7   1 -19    5.70    0.80
  -6  -1  19    1.30    0.70
  -6  -1  19   -0.20    0.50
   6  -1 -19    0.40    0.60
  -6  -1  19    0.20    1.00
   6  -1 -19    1.20    0.90
  -6  -1  19    1.20    0.70
  -6   1  19    0.40    0.80
   6   1 -19   -0.20    0.70
  -6   1  19   -0.50    1.40
  -6   1  19   -1.20    0.90
  -5  -1  19    8.80    1.30
   5  -1 -19    6.80    1.00
  -5  -1  19    7.80    1.00
  -5  -1  19    9.80    1.80
  -5   1  19    8.30    1.20
   5   1 -19    9.00    1.10
  -5   1  19    7.20    1.50
  -4  -1  19    6.00    1.30
  -4  -1  19    4.20    0.80
  -4  -1  19    7.10    1.30
   4  -1 -19    6.90    1.00
  -4   1  19    6.80    1.10
  -4   1  19    4.80    1.40
   4   1 -19    6.90    1.10
   0   0   0    0.00    0.00

_computing_structure_solution     'SHELXT 2014/5 (Sheldrick, 2014)'
;
_shelx_hkl_checksum              84740
_shelx_shelxl_version_number     2014/7
_olex2_submission_special_instructions 'No special instructions were received'
loop_
_space_group_symop_operation_xyz
'x, y, z'
'-x, y+1/2, -z+1/2'
'-x, -y, -z'
'x, -y-1/2, z-1/2'
loop_
_atom_site_label
_atom_site_type_symbol
_atom_site_fract_x
_atom_site_fract_y
_atom_site_fract_z
_atom_site_U_iso_or_equiv
_atom_site_adp_type
_atom_site_occupancy
_atom_site_site_symmetry_order
_atom_site_calc_flag
_atom_site_refinement_flags_posn
_atom_site_refinement_flags_adp
_atom_site_refinement_flags_occupancy
_atom_site_disorder_assembly
_atom_site_disorder_group
Br1 Br 0.54496(2) 0.38892(7) 0.89635(2) 0.05290(16) Uani 1 1 d . . . . .
O1 O 0.0826(2) 0.7485(5) 0.48594(14) 0.0598(5) Uani 1 1 d . . . . .
O2 O 0.2083(2) 0.3892(5) 0.50633(16) 0.0605(6) Uani 1 1 d . . . . .
N1 N 0.1544(2) 0.5659(5) 0.53644(17) 0.0500(5) Uani 1 1 d . . . . .
C1 C 0.1277(2) 0.7163(6) 0.77066(19) 0.0470(5) Uani 1 1 d . . . . .
H1 H 0.0808 0.8265 0.7952 0.056 Uiso 1 1 calc R . . . .
C2 C 0.1045(2) 0.7284(6) 0.67287(18) 0.0458(5) Uani 1 1 d . . . . .
H2 H 0.0430 0.8453 0.6313 0.055 Uiso 1 1 calc R . . . .
C3 C 0.1769(2) 0.5587(6) 0.63992(18) 0.0458(5) Uani 1 1 d . . . . .
C4 C 0.2691(2) 0.3835(5) 0.6994(2) 0.0463(5) Uani 1 1 d . . . . .
H4 H 0.3156 0.2729 0.6747 0.056 Uiso 1 1 calc R . . . .
C5 C 0.2915(2) 0.3748(5) 0.7971(2) 0.0457(5) Uani 1 1 d . . . . .
C6 C 0.2200(2) 0.5412(6) 0.83212(19) 0.0462(5) Uani 1 1 d . . . . .
H6 H 0.2342 0.5353 0.8972 0.055 Uiso 1 1 calc R . . . .
C7 C 0.3904(2) 0.1827(6) 0.8623(2) 0.0514(6) Uani 1 1 d . . . . .
H7A H 0.3921 -0.0047 0.8305 0.062 Uiso 1 1 calc R . . . .
H7B H 0.3767 0.1385 0.9201 0.062 Uiso 1 1 calc R . . . .
loop_
_atom_site_aniso_label
_atom_site_aniso_U_11
_atom_site_aniso_U_22
_atom_site_aniso_U_33
_atom_site_aniso_U_23
_atom_site_aniso_U_13
_atom_site_aniso_U_12
Br1 0.0380(2) 0.0553(2) 0.0606(2) 0.00548(11) 0.01367(15) 0.00190(10)
O1 0.0593(12) 0.0650(13) 0.0511(10) 0.0081(9) 0.0166(9) 0.0010(10)
O2 0.0561(12) 0.0703(14) 0.0552(11) -0.0132(9) 0.0213(10) -0.0014(9)
N1 0.0430(11) 0.0537(12) 0.0515(11) -0.0052(9) 0.0162(9) -0.0085(9)
C1 0.0394(11) 0.0470(13) 0.0530(13) -0.0017(11) 0.0160(10) 0.0006(10)
C2 0.0369(11) 0.0443(13) 0.0511(12) 0.0010(10) 0.0112(9) -0.0006(9)
C3 0.0413(12) 0.0466(12) 0.0470(12) -0.0031(10) 0.0144(10) -0.0059(10)
C4 0.0400(12) 0.0429(13) 0.0544(14) -0.0043(9) 0.0166(11) -0.0035(9)
C5 0.0384(12) 0.0426(12) 0.0515(13) -0.0002(9) 0.0121(10) -0.0059(9)
C6 0.0414(12) 0.0463(12) 0.0477(12) -0.0013(10) 0.0135(10) -0.0039(10)
C7 0.0401(12) 0.0444(12) 0.0665(16) 0.0067(12) 0.0169(11) -0.0028(11)
loop_
_atom_type_symbol
_atom_type_description
_atom_type_scat_dispersion_real
_atom_type_scat_dispersion_imag
_atom_type_scat_source
C C 0.0140 0.0070 'International Tables Vol C Tables 4.2.6.8 and 6.1.1.4'
H H 0.0000 0.0000 'International Tables Vol C Tables 4.2.6.8 and 6.1.1.4'
N N 0.0250 0.0140 'International Tables Vol C Tables 4.2.6.8 and 6.1.1.4'
O O 0.0390 0.0250 'International Tables Vol C Tables 4.2.6.8 and 6.1.1.4'
Br Br -0.9340 1.0410 'International Tables Vol C Tables 4.2.6.8 and 6.1.1.4'
loop_
_geom_angle_atom_site_label_1
_geom_angle_atom_site_label_2
_geom_angle_atom_site_label_3
_geom_angle
_geom_angle_site_symmetry_1
_geom_angle_site_symmetry_3
O1 N1 C3 118.1(2) . .
O2 N1 O1 123.9(2) . .
O2 N1 C3 118.1(2) . .
C2 C1 H1 119.6 . .
C6 C1 H1 119.6 . .
C6 C1 C2 120.8(2) . .
C1 C2 H2 121.3 . .
C3 C2 C1 117.3(2) . .
C3 C2 H2 121.3 . .
C2 C3 N1 118.6(2) . .
C4 C3 N1 118.3(2) . .
C4 C3 C2 123.0(2) . .
C3 C4 H4 120.5 . .
C3 C4 C5 119.0(2) . .
C5 C4 H4 120.5 . .
C4 C5 C6 119.3(2) . .
C4 C5 C7 119.5(3) . .
C6 C5 C7 121.2(3) . .
C1 C6 C5 120.6(2) . .
C1 C6 H6 119.7 . .
C5 C6 H6 119.7 . .
Br1 C7 H7A 109.6 . .
Br1 C7 H7B 109.6 . .
C5 C7 Br1 110.21(17) . .
C5 C7 H7A 109.6 . .
C5 C7 H7B 109.6 . .
H7A C7 H7B 108.1 . .
loop_
_geom_bond_atom_site_label_1
_geom_bond_atom_site_label_2
_geom_bond_distance
_geom_bond_site_symmetry_2
Br1 C7 1.974(3) .
O1 N1 1.224(3) .
O2 N1 1.221(3) .
N1 C3 1.478(3) .
C1 H1 0.9300 .
C1 C2 1.392(4) .
C1 C6 1.391(4) .
C2 H2 0.9300 .
C2 C3 1.391(4) .
C3 C4 1.379(4) .
C4 H4 0.9300 .
C4 C5 1.392(4) .
C5 C6 1.393(4) .
C5 C7 1.497(4) .
C6 H6 0.9300 .
C7 H7A 0.9700 .
C7 H7B 0.9700 .
loop_
_geom_hbond_atom_site_label_D
_geom_hbond_atom_site_label_H
_geom_hbond_atom_site_label_A
_geom_hbond_distance_DH
_geom_hbond_distance_HA
_geom_hbond_distance_DA
_geom_hbond_angle_DHA
_geom_hbond_site_symmetry_A
C2 H2 O1 0.93 2.59 3.494(3) 165.2 3_576
C4 H4 Br1 0.93 2.89 3.820(3) 175.6 2_646
loop_
_geom_torsion_atom_site_label_1
_geom_torsion_atom_site_label_2
_geom_torsion_atom_site_label_3
_geom_torsion_atom_site_label_4
_geom_torsion
_geom_torsion_site_symmetry_1
_geom_torsion_site_symmetry_2
_geom_torsion_site_symmetry_3
_geom_torsion_site_symmetry_4
O1 N1 C3 C2 8.8(4) . . . .
O1 N1 C3 C4 -171.2(2) . . . .
O2 N1 C3 C2 -171.1(2) . . . .
O2 N1 C3 C4 8.9(3) . . . .
N1 C3 C4 C5 179.9(2) . . . .
C1 C2 C3 N1 179.8(2) . . . .
C1 C2 C3 C4 -0.2(4) . . . .
C2 C1 C6 C5 0.1(4) . . . .
C2 C3 C4 C5 -0.1(4) . . . .
C3 C4 C5 C6 0.4(4) . . . .
C3 C4 C5 C7 179.3(2) . . . .
C4 C5 C6 C1 -0.4(4) . . . .
C4 C5 C7 Br1 81.0(3) . . . .
C6 C1 C2 C3 0.2(4) . . . .
C6 C5 C7 Br1 -100.1(3) . . . .
C7 C5 C6 C1 -179.3(2) . . . .

_cod_database_fobs_code 3500041
