#------------------------------------------------------------------------------
#$Date: 2016-03-03 16:34:26 +0200 (Thu, 03 Mar 2016) $
#$Revision: 177179 $
#$URL: svn://www.crystallography.net/cod/cif/3/50/00/3500028.cif $
#------------------------------------------------------------------------------
#
# This file is available in the Crystallography Open Database (COD),
# http://www.crystallography.net/
#
# All data on this site have been placed in the public domain by the
# contributors.
#
data_3500028
loop_
_publ_author_name
'Thierry Maris'
_publ_section_references
;
Dolomanov, O.V., Bourhis, L.J., Gildea, R.J, Howard, J.A.K. & Puschmann, H.
 (2009), J. Appl. Cryst. 42, 339-341.

Sheldrick, G.M. (2008). Acta Cryst. A64, 112-122.

Sheldrick, G.M. (2015). Acta Cryst. A71, 3-8.
;
_publ_section_title
;
 2-Naphthalenecarboxaldehyde
;
_journal_name_full               'Personal communication to COD'
_journal_year                    2016
_chemical_formula_moiety         'C11 H8 O'
_chemical_formula_sum            'C11 H8 O'
_chemical_formula_weight         156.17
_chemical_name_common            2-Formylnaphthalene
_chemical_name_systematic        2-Naphthalenecarboxaldehyde
_space_group_crystal_system      monoclinic
_space_group_IT_number           14
_space_group_name_Hall           '-P 2ybc'
_space_group_name_H-M_alt        'P 1 21/c 1'
_symmetry_space_group_name_Hall  '-P 2ybc'
_symmetry_space_group_name_H-M   'P 1 21/c 1'
_atom_sites_solution_hydrogens   difmap
_audit_creation_date             2015-12-03
_audit_creation_method
;
Olex2 1.2
(compiled 2015.09.30 svn.r3233 for OlexSys, GUI svn.r5103)
;
_cell_angle_alpha                90
_cell_angle_beta                 92.703(4)
_cell_angle_gamma                90
_cell_formula_units_Z            4
_cell_length_a                   6.3287(4)
_cell_length_b                   7.4523(4)
_cell_length_c                   16.8507(10)
_cell_measurement_reflns_used    4458
_cell_measurement_temperature    100
_cell_measurement_theta_max      60.719
_cell_measurement_theta_min      4.572
_cell_volume                     793.85(8)
_computing_cell_refinement
;
SAINT (2013) V8.35A; Integration Software for Single Crystal Data. 
Bruker AXS Inc., Madison, WI 53719-1173.
;
_computing_data_collection
;
APEX 2 (2013) Bruker AXS Inc., Madison, WI 53719-1173.
;
_computing_data_reduction
;
SAINT (2013) V8.35A; Integration Software for Single Crystal Data. 
Bruker AXS Inc., Madison, WI 53719-1173.
;
_computing_molecular_graphics    'Olex2 (Dolomanov et al., 2009)'
_computing_publication_material  'Olex2 (Dolomanov et al., 2009)'
_computing_structure_refinement  'XL (Sheldrick, 2008)'
_computing_structure_solution    'XT (Sheldrick, 2015)'
_diffrn_ambient_temperature      100
_diffrn_detector                 'CMOS Area detector'
_diffrn_detector_area_resol_mean 10.24
_diffrn_detector_type            'Bruker Photon 100 CMOS Detector'
_diffrn_measured_fraction_theta_full 1.000
_diffrn_measured_fraction_theta_max 0.998
_diffrn_measurement_device       'k-geometry diffractometer'
_diffrn_measurement_device_type  'Bruker Venture Metaljet'
_diffrn_measurement_method       '\w and \f scans'
_diffrn_radiation_collimation    'Focusing mirrors'
_diffrn_radiation_monochromator  'Helios MX Mirror Optics'
_diffrn_radiation_probe          x-ray
_diffrn_radiation_type           GaK\a
_diffrn_radiation_wavelength     1.34139
_diffrn_reflns_av_R_equivalents  0.0610
_diffrn_reflns_av_unetI/netI     0.0353
_diffrn_reflns_laue_measured_fraction_full 1.000
_diffrn_reflns_laue_measured_fraction_max 0.998
_diffrn_reflns_limit_h_max       7
_diffrn_reflns_limit_h_min       -8
_diffrn_reflns_limit_k_max       9
_diffrn_reflns_limit_k_min       -9
_diffrn_reflns_limit_l_max       21
_diffrn_reflns_limit_l_min       -21
_diffrn_reflns_number            13236
_diffrn_reflns_point_group_measured_fraction_full 1.000
_diffrn_reflns_point_group_measured_fraction_max 0.998
_diffrn_reflns_theta_full        53.594
_diffrn_reflns_theta_max         60.725
_diffrn_reflns_theta_min         4.571
_diffrn_source                   'Metal Jet'
_diffrn_source_target            Ga
_diffrn_source_type              'Gallium Liquid Metal Jet Source'
_exptl_absorpt_coefficient_mu    0.420
_exptl_absorpt_correction_T_max  0.7519
_exptl_absorpt_correction_T_min  0.6510
_exptl_absorpt_correction_type   multi-scan
_exptl_absorpt_process_details
;
SADABS-2014/5 (Bruker,2014/5) was used for absorption correction.
wR2(int) was 0.1509 before and 0.0696 after correction.
The Ratio of minimum to maximum transmission is 0.8658.
The \l/2 correction factor is 0.00150.
;
_exptl_crystal_colour            'clear light colourless'
_exptl_crystal_colour_lustre     clear
_exptl_crystal_colour_modifier   light
_exptl_crystal_colour_primary    colourless
_exptl_crystal_density_diffrn    1.307
_exptl_crystal_description       Block
_exptl_crystal_F_000             328
_exptl_crystal_preparation       'commercial source'
_exptl_crystal_recrystallization_method
'extracted from the bottle as received'
_exptl_crystal_size_max          0.11
_exptl_crystal_size_mid          0.11
_exptl_crystal_size_min          0.05
_exptl_special_details
;
X-ray crystallographic data for I were collected from a single crystal
sample, which was mounted on a loop fiber. Data were collected using
a Bruker Venture diffractometer equipped with a Photon 100 CMOS Detector,
a Helios MX optics and a Kappa goniometer. The crystal-to-detector distance 
was 4.0 cm, and the data collection was carried out in 1024 x 1024 pixel mode.
;
_geom_special_details
;
 All esds (except the esd in the dihedral angle between two l.s. planes)
 are estimated using the full covariance matrix.  The cell esds are taken
 into account individually in the estimation of esds in distances, angles
 and torsion angles; correlations between esds in cell parameters are only
 used when they are defined by crystal symmetry.  An approximate (isotropic)
 treatment of cell esds is used for estimating esds involving l.s. planes.
;
_refine_diff_density_max         0.467
_refine_diff_density_min         -0.180
_refine_diff_density_rms         0.070
_refine_ls_extinction_coef       .
_refine_ls_extinction_method     none
_refine_ls_goodness_of_fit_ref   1.039
_refine_ls_hydrogen_treatment    refall
_refine_ls_matrix_type           full
_refine_ls_number_parameters     141
_refine_ls_number_reflns         1830
_refine_ls_number_restraints     0
_refine_ls_restrained_S_all      1.039
_refine_ls_R_factor_all          0.0648
_refine_ls_R_factor_gt           0.0480
_refine_ls_shift/su_max          0.000
_refine_ls_shift/su_mean         0.000
_refine_ls_structure_factor_coef Fsqd
_refine_ls_weighting_details
'w=1/[\s^2^(Fo^2^)+(0.0836P)^2^+0.0974P] where P=(Fo^2^+2Fc^2^)/3'
_refine_ls_weighting_scheme      calc
_refine_ls_wR_factor_gt          0.1243
_refine_ls_wR_factor_ref         0.1373
_reflns_Friedel_coverage         0.000
_reflns_friedel_fraction_full    .
_reflns_friedel_fraction_max     .
_reflns_number_gt                1413
_reflns_number_total             1830
_reflns_special_details
;
 Reflections were merged by SHELXL according to the crystal
 class for the calculation of statistics and refinement.
 
 _reflns_Friedel_fraction is defined as the number of unique
 Friedel pairs measured divided by the number that would be
 possible theoretically, ignoring centric projections and
 systematic absences.
;
_reflns_threshold_expression     'I > 2\s(I)'
_cod_data_source_file            PhPhCHO.cif
_cod_data_source_block           phphcho
_cod_depositor_comments
;
The following automatic conversions were performed:

'_diffrn_radiation_probe' value 'X-ray' changed to 'x-ray' according
to the built-in table from CIF Core dictionary named 'cif_core.dic'
version 2.4.1 from 2010-06-29.

Automatic conversion script
Id: cif_fix_values 4287 2015-11-16 14:04:37Z antanas 
;
_cod_database_code               3500028
_shelx_space_group_comment
;
The symmetry employed for this shelxl refinement is uniquely defined
by the following loop, which should always be used as a source of
symmetry information in preference to the above space-group names.
They are only intended as comments.
;
_shelx_estimated_absorpt_t_max   0.979
_shelx_estimated_absorpt_t_min   0.955
_olex2_refinement_description
;
;
_shelx_res_file
;
    phphcho.res created by SHELXL-2014/7

TITL phphcho_a.res in P2(1)/c
REM Old TITL PhPhCHO in P21/c #14
REM SHELXT solution in P2(1)/c
REM R1 0.134, Rweak 0.002, Alpha 0.012, Orientation as input
REM Formula found by SHELXT: C11 O
CELL 1.34139 6.3287 7.4523 16.8507 90 92.703 90
ZERR 4 0.0004 0.0004 0.001 0 0.004 0
LATT 1
SYMM -X,0.5+Y,0.5-Z
SFAC C H O
DISP C 0.014 0.007 57.748
DISP H -0 0 0.648
DISP O 0.039 0.025 193.954
UNIT 44 32 4

L.S. 25
PLAN  6
SIZE 0.05 0.11 0.11
TEMP -173
ACTA
BOND $H
LIST 4
fmap 2
MORE -1
CONF
HTAB
REM <olex2.extras>
REM <HklSrc "%.\\PhPhCHO.hkl">
REM </olex2.extras>

WGHT    0.083600    0.097400
FVAR       0.85678
O1    3    0.355681    0.305684    0.534309    11.00000    0.04507    0.03800 =
         0.02513    0.00107   -0.01157   -0.00851
C1    1    0.539950    0.321785    0.660710    11.00000    0.02058    0.01315 =
         0.02130   -0.00257   -0.00195    0.00218
C2    1    0.719645    0.412566    0.633068    11.00000    0.02605    0.01459 =
         0.01827   -0.00009    0.00243    0.00361
H2    2    0.718456    0.444538    0.574499    11.00000    0.03115
C3    1    0.885410    0.451805    0.684904    11.00000    0.02000    0.01373 =
         0.02257    0.00046    0.00453    0.00106
H3    2    1.010068    0.514557    0.667189    11.00000    0.02599
C4    1    0.880191    0.405460    0.766808    11.00000    0.01899    0.01157 =
         0.02084   -0.00103    0.00105    0.00180
C5    1    1.052600    0.443087    0.821371    11.00000    0.01938    0.01368 =
         0.02694   -0.00295   -0.00174    0.00075
H5    2    1.179776    0.502910    0.801130    11.00000    0.02665
C6    1    1.043935    0.396397    0.899611    11.00000    0.02830    0.01616 =
         0.02586   -0.00402   -0.00738    0.00340
H6    2    1.163205    0.417042    0.936831    11.00000    0.03795
C7    1    0.862330    0.313076    0.927777    11.00000    0.03950    0.01706 =
         0.01648   -0.00024   -0.00065    0.00240
H7    2    0.854169    0.280416    0.983734    11.00000    0.03881
C8    1    0.691219    0.276502    0.877243    11.00000    0.02886    0.01513 =
         0.02084    0.00020    0.00474   -0.00033
H8    2    0.565888    0.219830    0.897601    11.00000    0.02413
C9    1    0.697744    0.319486    0.795159    11.00000    0.02072    0.01131 =
         0.01956   -0.00080    0.00137    0.00136
C10   1    0.528730    0.278021    0.739754    11.00000    0.01863    0.01300 =
         0.02294   -0.00108    0.00210    0.00049
H10   2    0.405520    0.217676    0.758623    11.00000    0.02597
C11   1    0.361595    0.273535    0.604752    11.00000    0.02526    0.01922 =
         0.02672   -0.00177   -0.00378   -0.00050
H11   2    0.242835    0.210774    0.629659    11.00000    0.02717
HKLF 4

REM  phphcho_a.res in P2(1)/c
REM R1 =  0.0480 for    1413 Fo > 4sig(Fo)  and  0.0648 for all    1830 data
REM    141 parameters refined using      0 restraints

END

WGHT      0.0835      0.0974

REM No hydrogen bonds found for HTAB generation

REM Highest difference peak  0.467,  deepest hole -0.180,  1-sigma level  0.070
Q1    1   0.5333  0.3071  0.6974  11.00000  0.05    0.47
Q2    1   0.4693  0.3008  0.6357  11.00000  0.05    0.45
Q3    1   0.6867  0.3122  0.8379  11.00000  0.05    0.42
Q4    1   0.8861  0.4228  0.7252  11.00000  0.05    0.42
Q5    1   0.6321  0.2966  0.7692  11.00000  0.05    0.39
Q6    1   0.9604  0.4212  0.7941  11.00000  0.05    0.38
;
_shelx_res_checksum              67873
_shelx_hkl_file
;
   1   0   0   21.80    2.30
  -1   0   0   21.10    1.60
  -1   0   0   19.40    2.40
  -1   0   0   21.60    1.80
  -2   0   0   28.80    1.80
  -3   0   0  323.17   18.20
  -3   0   0  301.37   18.80
  -3   0   0  303.57   18.20
  -3   0   0  295.17   18.00
  -3   0   0  289.97   18.40
  -3   0   0  303.77   18.10
  -4   0   0  162.18    9.60
  -4   0   0  154.38    9.30
  -4   0   0  150.18    9.30
  -4   0   0  161.98    9.90
  -4   0   0  151.28    9.20
  -4   0   0  135.09   10.60
  -5   0   0  611.44   37.70
  -5   0   0  651.43   37.90
  -5   0   0  681.03   38.00
  -5   0   0  609.74   38.30
  -5   0   0  636.04   37.80
  -5   0   0  617.54   38.20
  -6   0   0   29.80    3.20
  -6   0   0   17.00    5.60
  -6   0   0   33.50    3.80
  -6   0   0   40.90    6.40
  -6   0   0   30.60    3.60
  -6   0   0   34.50    2.90
  -7   0   0    8.10    2.00
  -7   0   0    9.70    3.20
  -7   0   0    4.50    2.10
  -8   0   0   -1.10    3.60
  -8   0   0    0.30    2.10
   0  -1   0   -5.00    0.40
   0  -1   0   -3.60    1.50
   0  -1   0   -5.00    0.40
   0   1   0   -3.90    1.50
  -1  -1   0 1045.40   64.29
  -1  -1   0 1038.50   64.39
   1  -1   0 1199.58   65.09
  -1  -1   0 1122.19   65.09
  -1  -1   0 1031.90   64.39
   1   1   0 1106.39   64.29
  -1   1   0 1106.69   64.29
   1   1   0 1168.48   65.09
  -1   1   0  966.90   64.29
  -2  -1   0  308.57   18.80
  -2  -1   0  308.37   18.60
   2  -1   0  312.77   20.00
  -2  -1   0  318.17   18.70
  -2  -1   0  303.27   20.10
  -2  -1   0  309.17   18.90
  -2   1   0  311.07   18.70
   2   1   0  344.87   20.00
  -2   1   0  305.47   18.60
  -3  -1   0   45.00    3.00
  -3  -1   0   43.50    3.50
  -3  -1   0   46.20    3.30
  -3  -1   0   43.10    2.80
  -3  -1   0   48.40    3.50
  -3  -1   0   47.70    3.00
  -3  -1   0   36.00    4.30
  -3  -1   0   39.50    4.70
  -3   1   0   44.90    2.80
  -3   1   0   45.50    3.00
  -3   1   0   45.70    3.80
  -3   1   0   41.80    3.40
  -3   1   0   46.80    3.30
  -4  -1   0   40.00    5.50
  -4  -1   0   61.19    4.10
   4  -1   0   56.89    5.50
  -4  -1   0   53.89    4.00
  -4  -1   0   57.39    3.70
  -4  -1   0   56.19    3.50
  -4  -1   0   56.09    4.40
  -4  -1   0   58.79    3.70
  -4   1   0   56.19    3.70
  -4   1   0   50.39    4.80
  -4   1   0   53.09    3.50
  -4   1   0   40.70    6.00
  -4   1   0   57.99    3.70
  -4   1   0   60.79    4.00
  -4   1   0   55.29    4.50
  -5  -1   0   56.39    3.90
  -5  -1   0   53.79    4.80
  -5  -1   0   59.49    3.80
  -5  -1   0   53.39    4.90
  -5  -1   0   53.29    4.30
  -5  -1   0   57.49    3.80
  -5   1   0   54.19    5.00
  -5   1   0   56.69    3.90
  -5   1   0   51.59    4.30
  -5   1   0   49.20    3.70
  -5   1   0   54.79    3.80
  -6  -1   0 1018.00   61.09
  -6  -1   0 1094.79   60.99
  -6  -1   0 1012.20   61.39
  -6  -1   0 1055.09   61.69
  -6   1   0 1067.29   61.49
  -6   1   0  941.31   60.89
  -6   1   0  985.10   60.89
  -6   1   0 1026.40   61.09
  -7  -1   0   28.40    3.90
  -7  -1   0   33.30    3.30
  -7  -1   0   24.40    3.00
  -7   1   0   36.40    4.90
  -7   1   0   33.70    3.90
  -8  -1   0    0.00    2.90
  -8  -1   0    2.00    2.30
  -8   1   0    1.00    2.20
  -8   1   0    1.90    3.30
   0  -2   0 2854.31  182.28
   0  -2   0 2861.31  182.28
   0  -2   0 3508.95  183.68
   0   2   0 3106.79  183.48
  -1  -2   0 5589.94  364.56
   1  -2   0 6565.94  365.76
  -1  -2   0 6128.29  365.76
   1  -2   0 6087.89  365.66
  -1  -2   0 6187.38  364.56
   1   2   0 6414.96  365.76
  -2  -2   0   71.99    4.70
  -2  -2   0   60.69    4.70
  -2  -2   0   67.39    4.50
   2  -2   0   64.49    8.40
  -2  -2   0   72.29    5.10
  -2  -2   0   82.79    9.70
   2  -2   0   95.19    8.80
  -2   2   0   66.99    4.30
  -2   2   0   64.39    4.20
   2   2   0   70.79    4.20
  -2   2   0   72.09    4.20
  -3  -2   0   72.69    4.60
  -3  -2   0   68.69    4.60
  -3  -2   0   75.99    4.80
  -3  -2   0   72.69    4.50
  -3  -2   0   71.19    4.90
  -3  -2   0   65.79    5.50
  -3  -2   0   57.39    5.90
  -3   2   0   74.89    4.90
  -3   2   0   75.59    5.10
   3   2   0   76.59    4.40
  -3   2   0   76.09    4.60
  -3   2   0   70.59    4.50
   4  -2   0   17.20    3.00
  -4  -2   0   11.30    3.20
  -4  -2   0   15.40    2.00
  -4  -2   0   17.40    2.30
  -4  -2   0   10.80    3.20
  -4  -2   0   13.20    1.80
  -4   2   0   14.70    2.10
  -4   2   0   14.60    1.80
  -4   2   0   11.70    4.10
  -4   2   0   14.00    1.60
  -4   2   0   14.80    1.50
  -4   2   0   15.40    1.40
  -5  -2   0    7.90    2.00
   5  -2   0   -3.00    4.30
  -5  -2   0    5.80    1.10
  -5  -2   0    4.60    2.10
  -5  -2   0    7.30    1.80
  -5  -2   0    6.90    3.90
  -5   2   0    8.20    2.30
  -6  -2   0  169.78   10.10
  -6  -2   0  154.88   10.40
  -6  -2   0  161.68   10.90
  -6  -2   0  164.68   11.30
  -6   2   0  164.18   10.40
  -6   2   0  149.88   10.00
   6   2   0  156.88   12.30
  -6   2   0  164.18   10.90
  -7  -2   0    0.90    3.10
  -7  -2   0    5.50    2.20
  -7  -2   0    4.80    5.90
  -7  -2   0    3.00    1.70
  -7   2   0    0.60    2.00
  -7   2   0   -0.50    2.80
  -8  -2   0    0.70    2.90
  -8   2   0    7.40    3.20
  -8   2   0    2.70    2.00
   0  -3   0    0.00    0.80
   0  -3   0   -9.60    9.30
   0   3   0    1.40    0.60
   1  -3   0  265.07   18.60
   1  -3   0  226.28   15.00
  -1  -3   0  253.37   19.50
  -1  -3   0  266.07   15.10
   1  -3   0  222.48   18.40
  -1  -3   0  248.28   15.00
   1   3   0  278.97   18.90
  -1   3   0  242.18   14.90
  -1   3   0  226.28   15.00
   1   3   0  274.47   14.90
  -2  -3   0   34.60    2.40
  -2  -3   0   34.60    2.60
  -2  -3   0   34.50    3.00
  -2   3   0   32.40    2.30
  -2   3   0   30.80    2.20
  -2   3   0   31.50    2.30
  -2   3   0   28.30    3.00
  -2   3   0   30.10    2.30
   2   3   0   33.70    2.80
  -3  -3   0    7.30    2.10
  -3  -3   0    9.60    1.60
  -3  -3   0    8.60    2.10
  -3  -3   0    6.30    2.70
  -3  -3   0   14.00    1.50
  -3  -3   0   14.70    2.10
   3   3   0   14.30    1.50
  -3   3   0    8.80    1.70
  -3   3   0    9.00    1.00
  -3   3   0    9.00    1.20
  -3   3   0   10.60    1.50
   3   3   0   14.00    2.00
  -4  -3   0    0.70    0.80
   4  -3   0    2.10    2.40
  -4  -3   0   -3.00    2.80
  -4  -3   0    2.80    1.40
  -4  -3   0    4.20    2.90
  -4  -3   0    4.30    1.70
  -4  -3   0    3.40    2.90
  -4  -3   0    3.20    1.60
   4   3   0    0.90    2.00
  -4   3   0    0.70    1.20
  -4   3   0    2.50    1.70
  -5  -3   0  288.37   17.20
   5  -3   0  281.27   18.00
  -5  -3   0  287.37   16.60
  -5  -3   0  269.07   17.00
  -5  -3   0  245.78   16.70
  -5   3   0  264.87   17.00
  -5   3   0  260.27   16.40
  -5   3   0  289.07   16.70
   5   3   0  263.37   17.10
  -6  -3   0   15.60    3.00
  -6  -3   0   20.60    3.40
  -6  -3   0   14.00    5.80
  -6  -3   0   16.70    3.20
  -6  -3   0   20.30    2.50
  -6   3   0   12.90    2.00
  -6   3   0   20.50    3.20
  -6   3   0   15.20    2.50
  -7  -3   0  286.17   20.10
  -7  -3   0  287.27   18.50
  -7  -3   0  299.87   17.90
  -7   3   0  301.67   18.40
  -7   3   0  285.27   18.10
   0  -4   0   75.49    5.50
   0  -4   0   85.19    5.80
   0  -4   0   76.89    5.80
   0   4   0   89.79    5.30
   0   4   0   84.29    5.30
  -1  -4   0  425.86   24.40
  -1  -4   0  424.46   24.30
   1  -4   0  399.96   24.20
  -1  -4   0  389.96   24.10
  -1  -4   0  409.06   24.10
  -1   4   0  385.36   24.00
  -1   4   0  403.36   24.00
   1   4   0  379.56   24.00
   1   4   0  401.36   24.00
  -2  -4   0    0.90    1.00
  -2  -4   0    3.40    3.20
  -2  -4   0    0.70    1.10
  -2  -4   0    0.80    1.50
   2  -4   0   -0.40    2.30
   2   4   0    0.90    1.10
  -2   4   0   -1.30    1.10
  -2   4   0    4.60    1.40
  -2   4   0    0.10    0.90
   2   4   0   -0.80    1.00
  -3  -4   0    1.20    1.90
  -3  -4   0    3.60    1.00
  -3  -4   0   -0.20    3.10
  -3  -4   0    3.90    2.10
  -3  -4   0    2.80    1.40
  -3  -4   0    1.70    1.30
   3  -4   0    1.10    2.30
  -3   4   0    2.80    0.80
  -3   4   0    1.20    1.40
  -3   4   0    0.40    1.40
   3   4   0    2.50    1.60
  -3   4   0    4.80    1.60
  -4  -4   0   16.90    2.20
  -4  -4   0    7.50    3.30
   4  -4   0   19.10    3.50
  -4  -4   0   10.20    4.00
  -4  -4   0   14.50    2.40
  -4  -4   0   13.30    3.40
  -4  -4   0   15.00    1.70
   4   4   0   15.10    2.40
  -4   4   0   12.90    1.40
  -4   4   0   17.30    2.40
  -4   4   0   16.10    2.10
  -5  -4   0    3.40    2.20
  -5  -4   0    8.20    4.60
   5  -4   0    0.40    3.70
  -5  -4   0    0.10    1.30
  -5  -4   0    0.00    2.10
  -5   4   0    2.40    2.20
  -5   4   0    1.70    1.90
  -5   4   0    1.20    1.10
  -6  -4   0   23.50    3.50
   6  -4   0   25.60    7.90
  -6  -4   0   29.60    4.40
  -6  -4   0   29.70    2.80
  -6  -4   0   15.20    5.90
  -6   4   0   14.20    2.70
  -6   4   0   21.40    3.20
  -6   4   0   19.10    2.60
  -7  -4   0   21.20    2.70
  -7  -4   0   16.90    3.40
  -7  -4   0   23.40    5.50
  -7   4   0   19.80    2.70
  -7   4   0   26.50    3.30
   0  -5   0   -2.30    1.60
   0  -5   0   -0.90    2.20
   0  -5   0    1.40    2.00
   0   5   0   -0.30    0.90
   0   5   0    1.10    1.30
  -1  -5   0   10.20    3.00
   1  -5   0    6.00    2.10
  -1  -5   0    5.50    1.60
   1  -5   0    6.30    2.20
  -1  -5   0    8.30    1.70
  -1  -5   0    3.70    1.90
  -1   5   0    5.00    1.70
  -1   5   0    5.40    1.10
   1   5   0    3.30    1.60
   1   5   0    4.70    1.10
  -2  -5   0   12.20    1.80
   2  -5   0   16.60    3.50
  -2  -5   0   12.30    2.60
   2  -5   0   22.40    3.10
  -2  -5   0   14.80    2.00
  -2   5   0   15.10    1.70
   2   5   0   17.40    2.20
  -2   5   0   14.30    1.80
   2   5   0   12.20    1.40
  -3  -5   0    7.70    4.60
  -3  -5   0   12.10    2.90
  -3  -5   0   18.00    2.60
  -3  -5   0   16.70    2.10
  -3  -5   0   15.90    2.70
  -3  -5   0   20.30    2.50
   3  -5   0   21.40    3.40
  -3   5   0   17.90    1.90
   3   5   0   24.20    2.80
  -3   5   0   16.40    2.10
  -3   5   0   19.60    2.20
  -4  -5   0   -1.00    2.90
  -4  -5   0    2.30    1.50
  -4  -5   0    0.90    2.10
  -4  -5   0   -4.30    3.30
  -4  -5   0    0.90    1.90
  -4  -5   0    0.40    4.60
   4  -5   0    4.40    3.50
  -4   5   0   -0.90    1.70
  -4   5   0    0.80    1.10
   4   5   0    0.00    2.30
  -4   5   0   -1.10    1.70
   5  -5   0    3.30    4.80
  -5  -5   0    5.40    1.70
  -5  -5   0    4.00    2.50
  -5  -5   0   -0.30    5.70
  -5  -5   0    3.30    2.80
  -5   5   0    4.50    2.20
  -5   5   0    9.30    2.40
  -5   5   0    5.00    1.60
  -5   5   0    7.80    1.50
  -6  -5   0   67.19    5.20
  -6  -5   0   70.79    7.70
   6  -5   0   57.89    9.30
  -6  -5   0   71.09    6.30
  -6   5   0   78.59    5.90
  -6   5   0   68.09    5.80
  -7  -5   0   17.30    2.70
  -7  -5   0   19.40    6.10
  -7  -5   0   18.70    3.30
  -7   5   0   22.50    2.90
   0  -6   0  139.29    9.80
   0  -6   0  153.48   10.30
   0   6   0  138.39    9.00
  -1  -6   0   83.99    7.00
   1  -6   0  109.69    7.90
   1  -6   0  103.19    7.60
  -1  -6   0   94.29    9.50
  -1  -6   0   95.99    7.40
  -1  -6   0   87.19    9.30
  -1   6   0   94.69    6.30
   1   6   0  100.79    6.30
   1   6   0   94.49    6.00
  -2  -6   0    1.60    1.80
  -2  -6   0    2.70    2.40
  -2  -6   0    4.80    2.70
   2  -6   0    6.70    3.10
  -2   6   0    2.70    1.30
   2   6   0    2.90    1.10
  -2   6   0    1.90    1.20
   2   6   0    2.80    1.50
  -3  -6   0   14.20    2.20
  -3  -6   0   21.00    3.20
  -3  -6   0   21.60    2.60
   3  -6   0   15.30    3.90
  -3  -6   0   19.20    3.20
  -3  -6   0   17.40    3.60
  -3   6   0   16.80    2.20
   3   6   0   15.90    2.30
  -4  -6   0    0.30    1.50
  -4  -6   0    0.70    2.90
  -4  -6   0    0.80    3.20
   4  -6   0    0.40    3.70
  -4  -6   0    1.30    2.10
  -4  -6   0    8.30    3.90
  -4   6   0    1.70    1.30
  -4   6   0    0.80    1.10
   5  -6   0   16.90    5.30
  -5  -6   0    8.00    2.50
  -5  -6   0   15.20    3.80
  -5  -6   0    9.40    1.90
  -5   6   0    7.80    1.80
  -5   6   0    5.10    1.50
  -6  -6   0   14.40    2.20
  -6  -6   0   15.20    5.00
   6  -6   0    3.00    9.00
  -6  -6   0   12.00    3.10
   0  -7   0   -1.40    4.50
   0  -7   0   -5.10    3.00
   0   7   0   -0.50    1.30
   0   7   0   -0.60    0.90
  -1  -7   0    6.70    3.20
   1  -7   0   11.90    4.00
  -1  -7   0    6.30    2.90
   1  -7   0    9.00    4.10
   1   7   0    9.10    1.30
   1   7   0   12.70    1.90
  -1   7   0   10.60    1.80
  -2  -7   0    6.70    2.70
  -2  -7   0    4.10    3.30
   2  -7   0    5.30    3.60
  -2   7   0    7.50    1.60
   2   7   0   10.40    2.30
  -2   7   0    6.30    1.50
  -3  -7   0   17.70    4.30
  -3  -7   0   24.10    2.90
   3  -7   0   18.30    4.70
  -3  -7   0   18.20    2.90
  -3  -7   0   24.90    3.50
  -3  -7   0   22.60    4.70
   3   7   0   27.80    2.90
  -3   7   0   31.50    2.80
  -3   7   0   24.90    2.30
  -4  -7   0    8.30    4.70
  -4  -7   0    0.10    2.00
  -4  -7   0    9.30    4.50
  -4  -7   0    5.00    2.50
  -4  -7   0    6.80    4.20
   4  -7   0   -2.00    4.90
  -4   7   0    3.40    1.20
  -4   7   0    4.70    1.70
   5  -7   0    3.40    6.80
  -5  -7   0    2.50    2.50
  -5  -7   0    5.40    5.50
  -5  -7   0   -0.10    2.10
   0  -8   0  311.77   22.60
   0   8   0  329.37   19.30
   0   8   0  315.27   19.50
  -1  -8   0    3.70    3.90
   1  -8   0    3.10    5.50
   1  -8   0    2.80    5.60
  -1   8   0    3.30    1.10
   1   8   0    2.00    1.20
   1   8   0    4.90    1.80
  -1   8   0    2.10    1.80
  -1   8   0    1.00    1.50
  -2  -8   0    4.40    2.60
   2  -8   0   -0.20    5.20
  -2  -8   0   -1.10    4.10
   2   8   0    3.90    2.10
  -2   8   0    1.80    1.60
  -2   8   0    0.70    1.10
  -3  -8   0    1.80    3.00
  -3  -8   0   -0.30    2.10
   3  -8   0   -3.30    9.30
  -3  -8   0    2.20    2.40
  -3  -8   0   -3.30    6.90
  -3   8   0    2.70    1.80
  -3   8   0    1.10    1.10
   4  -8   0    3.40    6.50
  -4  -8   0   10.00    2.40
  -4  -8   0   11.20    6.70
  -4  -8   0    4.60    2.50
  -4   8   0    6.70    1.20
   0   9   0    0.20    2.00
   0   9   0   -0.10    1.10
   0   9   0   -0.20    2.00
  -1  -9   0   33.50    6.20
   1  -9   0   41.30   10.30
  -1  -9   0   53.29    5.30
  -1   9   0   49.00    3.50
   1   9   0   59.99    4.60
   1   9   0   45.00    4.90
  -1   9   0   44.20    4.30
   2  -9   0   -6.60    7.20
  -2  -9   0   -3.00    2.00
  -2  -9   0    6.10    3.00
  -2   9   0    2.00    1.20
   3  -9   0   14.30    9.30
  -3  -9   0    0.50    2.30
  -3  -9   0   -7.00    4.10
  -3   9   0    3.40    1.10
  -8   0   1    4.10    2.30
  -8   0   1   -1.60    3.40
  -7   0   1   -0.50    2.90
  -7   0   1    3.50    2.00
  -6   0   1   -4.20    4.70
  -6   0   1   -0.30    1.60
  -6   0   1   -4.50    2.40
  -6   0   1    0.80    1.40
  -6   0   1    0.60    5.70
  -5   0   1   -0.80    0.90
  -5   0   1   -0.50    1.40
  -5   0   1   -0.20    1.00
  -5   0   1   -0.50    1.00
  -5   0   1   -0.90    3.60
  -5   0   1   -1.20    2.50
  -5   0   1    2.20    2.00
  -4   0   1   -0.30    0.70
  -4   0   1    0.20    0.60
  -4   0   1   -1.00    1.20
  -4   0   1    0.70    2.70
  -4   0   1    1.00    0.80
  -4   0   1   -2.30    3.30
  -4   0   1    0.50    1.40
  -4   0   1    0.10    1.60
  -3   0   1    0.60    0.60
  -3   0   1   -0.20    1.60
  -3   0   1    0.30    2.00
  -3   0   1   -1.60    1.10
  -3   0   1    0.60    1.00
  -3   0   1    0.70    0.40
  -3   0   1    2.20    2.20
  -3   0   1    0.70    1.50
  -2   0   1    1.10    1.00
  -2   0   1   -0.40    1.40
   2   0  -1    0.80    1.20
  -2   0   1    1.90    0.90
   0   0  -1   -2.60    0.10
   0   0  -1   -3.10    0.70
  -1   0  -1   -1.80    1.70
   1   0   1    1.10    1.70
   2   0   1   -3.20    2.80
  -2   0  -1   -2.40    3.10
  -2   0  -1   -0.50    0.30
  -3   0  -1    0.10    0.60
  -3   0  -1   -0.20    0.40
  -3   0  -1   -1.20    0.90
  -3   0  -1   -5.30    2.60
  -3   0  -1    0.10    1.10
  -3   0  -1   -0.80    1.40
  -4   0  -1   -0.30    0.80
  -4   0  -1    0.30    1.20
  -4   0  -1   -3.00    2.90
  -4   0  -1   -0.80    1.60
  -4   0  -1   -0.20    0.50
  -4   0  -1    0.30    0.70
  -4   0  -1   -0.80    1.20
  -5   0  -1    1.40    0.90
  -5   0  -1    0.30    1.90
  -5   0  -1    1.70    0.80
  -5   0  -1    0.60    3.80
  -5   0  -1    3.60    2.00
  -5   0  -1    0.40    1.40
  -6   0  -1   -2.00    2.60
  -6   0  -1    1.50    1.20
  -6   0  -1   -0.90    1.50
  -6   0  -1    1.80    1.70
  -6   0  -1   -4.50    4.30
  -7   0  -1    1.50    1.90
  -7   0  -1    1.60    1.60
  -7   0  -1    0.80    2.80
  -8   0  -1   -7.30    4.10
  -8   0  -1    1.00    2.10
  -8  -1   1   38.60    5.00
  -8  -1   1   24.90    3.00
  -8   1   1   22.50    3.00
  -8   1   1   35.50    4.00
  -7  -1   1   68.89    6.30
  -7  -1   1   65.29    5.30
  -7  -1   1   57.79    5.10
  -7  -1   1   89.89   10.90
  -7   1   1   60.69    5.40
  -7   1   1   70.39    6.20
  -6  -1   1  386.16   23.60
  -6  -1   1  384.36   23.10
  -6  -1   1  342.17   24.20
  -6  -1   1  387.16   23.00
  -6   1   1  386.16   23.60
  -6   1   1  401.76   23.20
  -5  -1   1   13.60    2.70
  -5  -1   1   15.60    1.50
  -5  -1   1   13.90    1.90
  -5  -1   1   15.00    1.60
  -5  -1   1   16.80    1.70
  -5  -1   1   14.30    2.50
  -5   1   1   15.00    1.70
  -5   1   1   11.40    2.40
  -5   1   1   14.50    1.80
  -5   1   1   17.90    1.80
  -5   1   1   11.70    4.40
  -5   1   1   13.40    1.90
  -4  -1   1   -0.70    2.30
  -4  -1   1    3.80    1.30
  -4  -1   1    0.60    0.80
  -4  -1   1    2.20    0.60
  -4  -1   1    2.90    2.90
  -4  -1   1    2.40    1.30
  -4  -1   1    2.10    1.60
  -4  -1   1    1.50    0.80
  -4   1   1    0.10    3.10
  -4   1   1    1.30    1.00
  -4   1   1   -0.10    2.30
  -4   1   1    0.50    4.50
  -4   1   1    3.50    1.70
  -4   1   1    2.50    1.20
  -4   1   1    2.70    0.60
  -4   1   1    1.60    0.80
  -3  -1   1   11.10    1.80
  -3  -1   1    6.40    2.30
  -3  -1   1   13.30    1.40
  -3  -1   1   12.20    2.40
   3  -1  -1   10.80    3.70
  -3  -1   1   10.30    2.10
  -3  -1   1   16.10    2.20
  -3  -1   1   13.80    1.00
  -3  -1   1   14.00    1.70
  -3   1   1   13.00    1.10
  -3   1   1   15.00    1.30
  -3   1   1   10.70    1.90
  -3   1   1   13.10    1.50
  -3   1   1   16.30    2.00
  -2  -1   1  247.38   15.10
  -2  -1   1  239.98   16.10
  -2  -1   1  243.68   14.90
   2  -1  -1  254.37   16.00
   2  -1  -1  269.37   15.90
  -2  -1   1  252.47   15.10
  -2  -1   1  246.58   15.20
  -2   1   1  242.88   14.90
  -2   1   1  241.28   14.90
   2   1  -1  269.87   15.90
   1  -1  -1 4274.57  261.37
  -1  -1   1 4350.56  261.37
   1   1  -1 4602.64  261.37
   0  -1  -1    0.50    0.20
   0  -1  -1    2.80    2.00
   0  -1   1    3.60    1.60
   0   1   1    1.00    0.20
   0   1   1    0.50    1.70
  -1  -1  -1    8.70    3.00
  -1  -1  -1    7.60    0.60
  -1  -1  -1    7.60    0.60
   1  -1   1    7.30    2.50
   1   1   1    7.50    0.60
  -1   1  -1    6.10    2.60
   1   1   1    8.40    2.70
  -1   1  -1    6.90    0.70
  -2  -1  -1   69.79    4.50
  -2  -1  -1   63.99    8.00
   2  -1   1   74.09    7.80
  -2  -1  -1   67.89    4.70
  -2   1  -1   72.29    4.50
   2   1   1   77.49    4.40
  -2   1  -1   69.89    4.60
  -2   1  -1   82.19    7.40
  -2   1  -1   71.79    4.50
   2   1   1   71.09    7.50
  -3  -1  -1   -0.30    0.40
  -3  -1  -1    0.70    0.70
  -3  -1  -1    1.70    2.10
  -3  -1  -1   -0.50    0.80
  -3  -1  -1   -0.40    2.40
  -3  -1  -1    1.30    1.20
  -3  -1  -1    1.10    0.60
   3  -1   1    1.10    1.80
  -3  -1  -1   -1.30    1.20
  -3   1  -1   -1.40    1.20
  -3   1  -1    0.20    0.60
  -3   1  -1   -0.50    1.10
  -3   1  -1    0.20    1.10
  -3   1  -1   -0.70    0.40
  -3   1  -1   -0.60    3.20
  -4  -1  -1   15.40    1.50
  -4  -1  -1   18.00    1.60
  -4  -1  -1   16.60    1.40
  -4  -1  -1   17.50    2.30
   4  -1   1   12.80    3.40
  -4  -1  -1   15.60    2.10
  -4  -1  -1    9.60    3.30
  -4  -1  -1   15.50    1.80
  -4   1  -1   15.50    1.70
  -4   1  -1   18.90    2.20
  -4   1  -1   10.70    3.70
  -4   1  -1   14.70    1.40
  -4   1  -1   14.40    1.60
  -4   1  -1   17.50    2.20
  -4   1  -1   15.30    2.20
  -5  -1  -1   77.19    6.00
  -5  -1  -1   77.69    5.70
  -5  -1  -1   68.69    5.30
  -5  -1  -1   74.69    4.90
  -5  -1  -1   75.39    4.90
  -5   1  -1   79.49    5.30
  -5   1  -1   74.49    5.00
  -5   1  -1   84.89    6.00
  -5   1  -1   73.59    4.90
  -6  -1  -1  385.86   23.90
  -6  -1  -1  385.16   23.00
  -6  -1  -1  388.26   23.70
  -6  -1  -1  382.56   23.20
  -6  -1  -1  364.36   23.00
  -6   1  -1  376.36   23.00
  -6   1  -1  356.96   23.00
  -6   1  -1  419.26   23.30
  -6   1  -1  388.76   23.70
  -7  -1  -1   23.70    2.90
  -7  -1  -1   22.20    2.70
  -7  -1  -1   29.50    3.80
  -7   1  -1   29.20    3.70
  -7   1  -1   19.90    3.50
   7   1   1   19.20    6.40
  -8  -1  -1   -4.20    2.90
  -8  -1  -1   -0.10    2.20
  -8   1  -1    0.90    2.10
  -8   1  -1    0.10    3.20
  -8  -2   1    9.20    3.30
  -8   2   1    0.10    2.00
  -8   2   1    1.50    3.20
  -7  -2   1   42.20    5.30
  -7  -2   1   29.60    3.50
  -7  -2   1   42.70    7.20
  -7  -2   1   42.00    3.80
  -7   2   1   41.30    4.20
  -7   2   1   39.60    5.00
  -6  -2   1   -0.10    1.80
  -6  -2   1   -1.50    2.50
  -6  -2   1    2.40    3.30
  -6  -2   1   -0.40    1.30
  -6  -2   1    3.90    5.10
  -6   2   1    3.50    1.80
  -6   2   1    0.30    2.50
  -5  -2   1    2.70    2.00
  -5  -2   1   -0.10    1.00
  -5  -2   1    2.60    2.00
  -5  -2   1    0.20    1.30
  -5  -2   1    0.00    1.60
  -5  -2   1    3.00    3.80
   5  -2  -1   -2.50    4.00
  -5   2   1   -2.00    1.00
  -5   2   1    2.80    2.00
  -5   2   1    0.50    1.40
   5   2  -1   -4.20    3.00
  -5   2   1   -0.10    1.00
  -4  -2   1   -0.30    2.40
  -4  -2   1    0.30    1.40
  -4  -2   1    0.90    2.80
  -4  -2   1    1.30    0.80
  -4  -2   1    2.20    1.30
  -4  -2   1    4.60    2.90
  -4  -2   1    0.20    1.00
  -4   2   1    1.70    0.80
  -4   2   1   -0.90    2.70
  -4   2   1    0.20    0.60
  -4   2   1   -4.10    3.90
  -4   2   1    0.70    1.10
  -4   2   1    1.90    4.80
  -3  -2   1   10.70    2.10
  -3  -2   1    6.00    1.80
  -3  -2   1    9.80    1.40
  -3  -2   1    8.20    2.20
  -3  -2   1   10.20    1.10
  -3  -2   1    7.30    2.50
  -3  -2   1    8.60    1.50
  -3  -2   1    9.50    1.10
  -3  -2   1    5.70    1.60
  -3   2   1   10.30    1.00
  -3   2   1   10.20    1.70
   3   2  -1    8.10    1.00
  -3   2   1    9.50    1.40
  -3   2   1   11.80    1.20
  -3   2   1    7.40    3.60
  -2  -2   1  271.67   16.90
  -2  -2   1  257.97   19.10
   2  -2  -1  293.57   18.80
  -2  -2   1  270.87   16.70
  -2  -2   1  270.67   16.80
   2  -2  -1  291.77   18.90
   2   2  -1  295.67   16.50
  -2   2   1  270.47   16.50
  -2   2   1  268.87   16.50
  -2   2   1  268.37   16.50
   2   2  -1  298.37   18.90
  -1  -2   1   17.80    1.80
  -1  -2   1   12.80    1.40
  -1  -2   1   15.00    1.90
  -1  -2   1   17.10    4.40
   1   2  -1   23.00    4.10
   1   2  -1   12.00    1.20
   0  -2  -1 9999.00  572.64
   0  -2   1 9238.68  572.44
   0   2   1 9741.83  572.54
  -1  -2  -1  306.77   20.50
   1  -2   1  328.17   22.30
   1  -2   1  385.16   22.40
   1   2   1  361.06   20.40
  -2  -2  -1   48.00    3.40
   2  -2   1   31.90    6.30
  -2  -2  -1   63.79    9.70
  -2  -2  -1   45.70    3.20
   2  -2   1   57.39    7.80
  -2  -2  -1   45.10    2.90
   2   2   1   51.69    6.70
   2   2   1   47.60    2.90
  -2   2  -1   44.00    3.10
  -2   2  -1   46.70    2.90
  -2   2  -1   45.50    3.00
  -3  -2  -1    1.50    2.60
  -3  -2  -1    2.10    1.40
  -3  -2  -1    1.40    0.70
  -3  -2  -1    1.50    1.00
  -3  -2  -1    1.10    1.20
  -3  -2  -1    0.10    0.90
   3  -2   1    4.90    1.80
  -3  -2  -1    0.70    0.50
  -3  -2  -1   -2.90    1.60
  -3   2  -1    0.10    1.10
  -3   2  -1    2.00    0.50
  -3   2  -1    1.00    0.70
   3   2   1    0.90    0.40
  -3   2  -1    1.20    1.40
  -4  -2  -1   12.80    1.70
   4  -2   1   10.50    3.00
  -4  -2  -1    9.50    1.20
  -4  -2  -1   10.80    1.80
  -4  -2  -1   11.30    1.80
  -4  -2  -1   10.50    1.10
  -4  -2  -1    8.80    2.90
  -4   2  -1   11.40    1.30
  -4   2  -1   14.10    1.70
  -4   2  -1   11.70    1.40
  -4   2  -1   14.30    1.30
  -5  -2  -1  955.00   56.89
   5  -2   1  880.01   57.39
  -5  -2  -1 1001.70   56.49
  -5  -2  -1  895.81   56.49
  -5  -2  -1 1011.40   56.89
  -5   2  -1  952.00   56.89
  -5   2  -1  926.91   56.39
  -5   2  -1  986.70   56.59
  -5   2  -1  935.21   56.39
  -6  -2  -1   -5.00    2.30
  -6  -2  -1    1.90    1.90
  -6  -2  -1    1.80    5.50
  -6  -2  -1   -1.10    2.60
  -6  -2  -1    0.00    1.20
  -6   2  -1    0.10    2.50
  -6   2  -1   -2.40    1.70
  -6   2  -1    3.10    1.80
  -6   2  -1    0.70    1.40
  -7  -2  -1    7.40    5.80
  -7  -2  -1    2.30    1.60
  -7  -2  -1    0.40    3.00
  -7  -2  -1    2.20    2.20
  -7   2  -1    4.50    2.10
  -7   2  -1    5.20    2.90
  -8  -2  -1    6.50    2.80
  -8  -2  -1    4.90    2.90
  -8   2  -1    4.90    2.10
  -8   2  -1    2.00    3.20
  -7  -3   1  211.58   13.80
  -7  -3   1  204.48   13.20
  -7  -3   1  206.98   16.10
  -7   3   1  224.08   13.80
  -7   3   1  207.88   13.30
  -6  -3   1  109.29    8.50
  -6  -3   1  102.99    7.90
  -6  -3   1   77.29   10.60
  -6  -3   1  101.29    6.80
  -6   3   1  103.39    7.20
  -6   3   1  102.69    7.80
  -5  -3   1    4.40    3.60
  -5  -3   1    6.50    2.10
  -5  -3   1    4.90    2.30
   5  -3  -1    2.90    3.90
  -5  -3   1    3.70    2.00
  -5  -3   1    7.30    1.40
  -5   3   1    8.00    1.20
  -5   3   1    5.70    2.20
   4  -3  -1   -2.10    2.50
  -4  -3   1    0.10    2.10
  -4  -3   1   -5.30    2.70
  -4  -3   1    1.20    1.50
  -4  -3   1    0.70    0.90
  -4  -3   1    1.60    1.50
  -4  -3   1    1.90    2.80
  -4  -3   1   -0.40    2.80
  -4   3   1    1.70    0.80
  -4   3   1    1.40    1.30
  -4   3   1   -2.00    1.60
  -4   3   1    1.80    1.00
   4   3  -1    1.60    2.50
  -3  -3   1   48.50    4.80
  -3  -3   1   54.89    4.50
  -3  -3   1   58.59    4.00
  -3  -3   1   55.39    3.90
  -3  -3   1   56.99    3.60
  -3  -3   1   48.10    4.50
  -3  -3   1   50.09    5.40
  -3  -3   1   45.60    5.30
  -3   3   1   53.49    3.50
  -3   3   1   51.99    4.30
  -3   3   1   51.79    3.60
   3   3  -1   58.69    3.60
   3   3  -1   48.00    4.30
  -3   3   1   62.39    6.30
  -3   3   1   52.19    3.60
  -3   3   1   53.99    4.00
  -2  -3   1  149.88    9.40
  -2  -3   1  152.98    9.00
  -2  -3   1  144.59    9.10
  -2  -3   1  158.28    9.30
   2  -3  -1  139.59    9.00
  -2   3   1  150.48    8.90
  -2   3   1  146.19   10.90
  -2   3   1  135.59    8.90
  -2   3   1  141.09    9.20
  -2   3   1  136.79    8.90
   2   3  -1  160.28    8.90
  -1  -3   1 1905.61  115.49
  -1  -3   1 1845.02  113.29
   1  -3  -1 1869.51  113.19
  -1  -3   1 1834.42  113.29
  -1  -3   1 1819.62  113.19
  -1  -3   1 2114.59  113.39
   1  -3  -1 1793.82  115.39
  -1   3   1 1809.02  113.19
  -1   3   1 2009.80  113.19
   1   3  -1 2099.69  113.19
   0  -3   1   10.50    5.10
   0  -3  -1    9.90    6.80
   0  -3   1    7.50    1.50
   0  -3   1    8.40    1.20
   0  -3   1    6.20    5.60
   0  -3  -1    5.40    1.00
   0  -3   1    7.50    1.30
   0  -3   1    5.40    1.30
   0   3   1    6.20    0.80
   0   3  -1    5.80    0.70
   0   3   1    6.30    5.50
   1  -3   1   77.39   10.40
  -1  -3  -1   75.19   11.80
  -1  -3  -1   77.89    4.70
  -1  -3  -1   69.59    4.60
   1  -3   1   69.49   10.50
   1  -3   1   64.69    4.80
   1   3   1   76.19   11.20
  -1   3  -1   69.49    4.50
   1   3   1   64.89    4.70
  -1   3  -1   64.99    4.50
   1   3   1   83.19    4.50
  -2  -3  -1    2.30    1.30
  -2  -3  -1    0.00    0.90
  -2  -3  -1   -0.10    0.70
   2  -3   1    0.30    1.60
  -2   3  -1   -0.60    0.60
  -2   3  -1   -0.30    0.60
   2   3   1   -0.30    0.60
   2   3   1   -0.50    1.30
  -2   3  -1    0.10    0.50
  -2   3  -1   -0.90    1.30
  -3  -3  -1   61.39    4.60
   3  -3   1   68.89    5.10
  -3  -3  -1   53.59    4.10
  -3  -3  -1   59.29    3.80
  -3  -3  -1   49.30    4.70
  -3  -3  -1   63.59    4.10
  -3  -3  -1   48.70    4.60
  -3  -3  -1   40.40    5.70
   3   3   1   60.59    3.70
  -3   3  -1   56.59    3.70
  -3   3  -1   52.59    3.80
   3   3   1   62.19    4.50
  -3   3  -1   56.09    4.40
  -3   3  -1   55.39    4.20
  -4  -3  -1    5.50    1.70
  -4  -3  -1    5.40    1.70
   4  -3   1    2.40    2.60
  -4  -3  -1    3.10    1.70
  -4  -3  -1    2.50    3.00
  -4  -3  -1    4.60    1.00
  -4  -3  -1    1.80    2.90
  -4   3  -1    5.90    1.40
  -4   3  -1    7.70    1.90
   4   3   1    7.70    2.10
  -4   3  -1    5.50    0.90
   5  -3   1  124.49   11.00
  -5  -3  -1  126.89    9.10
  -5  -3  -1  151.58    9.50
  -5  -3  -1  139.19    9.40
  -5  -3  -1  147.29    8.80
  -5  -3  -1  125.69   11.20
  -5   3  -1  151.38    9.60
  -5   3  -1  158.58    9.00
   5   3   1  126.49    9.50
  -5   3  -1  132.39    8.60
  -6  -3  -1   51.69    7.90
  -6  -3  -1   81.59    6.50
  -6  -3  -1   67.59    6.00
  -6  -3  -1   78.39    5.10
  -6  -3  -1   74.29    6.70
   6   3   1   56.99    6.70
  -6   3  -1   78.89    6.40
  -6   3  -1   69.59    5.10
  -6   3  -1   84.69    5.80
  -7  -3  -1    9.40    5.10
  -7  -3  -1   11.10    1.90
  -7   3  -1    5.90    2.30
  -7   3  -1    9.20    3.00
  -7  -4   1   -0.60    5.60
  -7  -4   1   -3.50    2.90
  -7  -4   1   -1.30    2.10
  -7   4   1   -0.70    2.10
  -7   4   1    0.60    2.80
  -6  -4   1   75.09    7.70
  -6  -4   1   78.89    6.90
  -6  -4   1   79.79    5.70
   6  -4  -1   81.79   11.70
  -6   4   1   85.29    6.10
  -6   4   1   79.09    6.60
  -5  -4   1   51.09    4.90
   5  -4  -1   53.99    6.70
  -5  -4   1   40.60    4.50
  -5  -4   1   25.50    5.20
  -5  -4   1   42.20    3.50
  -5   4   1   36.70    4.30
  -5   4   1   39.50    3.20
  -5   4   1   45.20    4.10
  -4  -4   1   73.49    5.80
  -4  -4   1   70.49    5.20
   4  -4  -1   98.29    7.10
  -4  -4   1   64.59    5.50
  -4  -4   1   66.09    6.60
  -4   4   1   83.39    5.70
   4   4  -1   68.39    5.80
  -4   4   1   85.29    5.00
  -3  -4   1   18.20    2.10
  -3  -4   1   15.90    3.50
  -3  -4   1   18.70    2.20
  -3  -4   1   17.00    2.50
  -3  -4   1   12.90    2.70
  -3  -4   1   18.20    2.00
   3   4  -1   17.40    2.10
   3   4  -1   16.40    2.00
  -3   4   1   18.30    1.70
  -3   4   1   19.10    2.40
  -3   4   1   17.60    2.00
  -3   4   1   15.90    2.10
  -3   4   1   16.40    1.90
   2  -4  -1    0.90    1.70
  -2  -4   1   -0.80    1.70
  -2  -4   1    1.70    2.10
  -2  -4   1   -0.80    1.60
  -2  -4   1   -2.80    2.90
  -2  -4   1    1.40    1.00
  -2   4   1    1.40    1.20
   2   4  -1    0.70    1.00
  -2   4   1    1.30    1.20
   2   4  -1    1.10    1.10
  -2   4   1    0.50    0.90
  -1  -4   1 4592.04  305.07
   1  -4  -1 5166.28  304.97
  -1  -4   1 5724.33  305.27
  -1  -4   1 5277.97  304.97
  -1  -4   1 5500.25  305.17
  -1  -4   1 5331.37  304.97
  -1  -4   1 4504.55  305.07
  -1   4   1 5143.09  304.87
   1   4  -1 5501.35  304.97
   1   4  -1 4958.00  304.87
  -1   4   1 4977.50  304.97
   0  -4  -1    7.20    1.80
   0  -4   1    5.00    1.80
   0  -4   1    9.40    1.90
   0  -4  -1    9.10    1.50
   0  -4   1   11.30    2.10
   0  -4   1   10.30    2.00
   0  -4   1    9.00    1.80
   0  -4   1    8.60    1.60
   0   4  -1    8.60    1.10
   0   4   1    8.70    1.10
   0   4   1    8.40    1.10
   0   4  -1    7.60    1.00
   1  -4   1   12.10    2.10
   1  -4   1    9.40    1.90
  -1   4  -1    8.70    1.20
  -1   4  -1   10.10    1.30
   1   4   1    8.90    1.30
   2  -4   1   36.00    3.70
  -2  -4  -1   25.00    2.30
  -2  -4  -1   27.10    2.50
  -2  -4  -1   14.00    4.00
  -2  -4  -1   23.80    2.90
  -2   4  -1   25.10    2.70
   2   4   1   25.70    2.40
  -2   4  -1   28.20    2.60
  -2   4  -1   28.10    2.10
   2   4   1   23.80    2.50
   2   4   1   25.90    2.20
  -2   4  -1   24.30    2.30
  -3  -4  -1   41.20    2.80
  -3  -4  -1   32.30    3.00
  -3  -4  -1   35.00    3.90
  -3  -4  -1   33.80    3.20
  -3  -4  -1   26.30    4.20
  -3   4  -1   34.70    2.50
   3   4   1   28.80    3.30
   3   4   1   30.60    3.20
  -3   4  -1   32.60    3.40
  -3   4  -1   40.80    3.40
  -3   4  -1   32.10    3.20
  -4  -4  -1  372.06   25.40
  -4  -4  -1  418.16   25.10
   4  -4   1  476.75   25.90
  -4  -4  -1  400.66   25.00
  -4  -4  -1  444.36   24.80
  -4  -4  -1  353.66   25.50
  -4   4  -1  410.66   25.10
  -4   4  -1  396.86   24.60
  -4   4  -1  436.26   24.80
   4   4   1  409.26   25.00
  -5  -4  -1   65.39    4.50
  -5  -4  -1   62.49    5.40
  -5  -4  -1   56.89    5.30
   5  -4   1   58.49    7.90
  -5  -4  -1   50.49    6.70
   5   4   1   68.79    5.70
  -5   4  -1   61.39    4.30
  -5   4  -1   61.19    5.40
  -5   4  -1   69.59    5.10
  -6  -4  -1  130.29    9.00
   6  -4   1   81.29   11.80
  -6  -4  -1  116.39    7.50
  -6  -4  -1  113.69    8.50
  -6   4  -1  119.19    7.90
  -6   4  -1  114.69    8.20
  -6   4  -1  105.29    7.50
  -7  -4  -1    1.30    2.90
  -7  -4  -1    0.30    1.80
  -7  -4  -1   -8.30    4.70
  -7   4  -1   -2.10    2.70
  -7   4  -1   -1.10    2.20
  -7  -5   1  299.17   18.00
  -7  -5   1  312.57   18.40
  -7  -5   1  238.88   20.70
  -7   5   1  303.37   18.00
  -6  -5   1   13.20    4.10
   6  -5  -1    4.70    7.30
  -6  -5   1   11.30    3.10
  -6  -5   1   13.20    2.20
  -6   5   1   16.50    2.50
  -6   5   1   15.90    2.90
  -5  -5   1    4.30    2.60
  -5  -5   1    4.80    2.90
  -5  -5   1    7.00    1.70
   5  -5  -1   10.70    4.70
  -5  -5   1    6.10    5.60
  -5   5   1    4.60    1.50
  -5   5   1    6.20    2.20
  -5   5   1    3.40    2.10
  -5   5   1    3.50    1.50
  -4  -5   1   12.80    1.90
  -4  -5   1    9.70    4.50
  -4  -5   1   11.70    2.30
  -4  -5   1    7.90    3.10
   4  -5  -1    6.10    3.40
  -4  -5   1    6.50    3.50
  -4  -5   1    8.90    2.50
  -4   5   1    9.90    2.00
  -4   5   1    9.40    1.30
  -4   5   1    7.80    1.40
  -4   5   1    9.90    1.80
   3  -5  -1   19.80    3.40
  -3  -5   1   18.30    2.60
  -3  -5   1   10.90    4.40
  -3  -5   1   15.70    3.00
  -3  -5   1   18.90    2.20
  -3  -5   1   21.80    2.50
  -3  -5   1   14.10    2.70
  -3   5   1   19.00    2.20
   3   5  -1   18.50    2.20
  -3   5   1   17.80    2.00
  -3   5   1   14.80    1.90
  -2  -5   1  369.66   22.00
   2  -5  -1  374.36   22.20
  -2  -5   1  357.76   22.10
  -2  -5   1  344.27   22.40
   2   5  -1  364.66   21.60
   2   5  -1  363.96   21.80
  -2   5   1  360.36   21.80
   1  -5  -1   51.59    4.10
  -1  -5   1   50.59    4.40
  -1  -5   1   40.20    4.80
  -1  -5   1   50.19    4.40
  -1  -5   1   53.49    6.20
   1   5  -1   47.80    3.60
  -1   5   1   45.90    3.50
   0  -5  -1   40.00    4.80
   0  -5   1   61.49    5.20
   0  -5  -1   55.49    4.30
   0  -5  -1   63.29    5.00
   0  -5   1   43.30    4.70
   0  -5   1   53.69    4.70
   0   5  -1   58.59    3.90
   0   5   1   54.19    3.80
   0   5  -1   54.89    4.00
  -1  -5  -1   13.50    2.10
   1  -5   1   17.00    2.60
  -1  -5  -1   15.00    3.20
   1  -5   1   12.50    2.70
  -1  -5  -1   15.50    2.00
  -1  -5  -1   14.10    2.00
   1   5   1   15.90    1.90
  -1   5  -1   13.00    1.50
   1   5   1   10.90    1.40
  -2  -5  -1   93.89    6.30
  -2  -5  -1   98.69    6.10
  -2  -5  -1   89.79    6.70
   2  -5   1   86.49    7.10
  -2   5  -1   83.19    5.80
   2   5   1   96.69    6.00
   2   5   1   95.29    5.70
  -2   5  -1   83.89    5.90
  -3  -5  -1   81.49    5.90
  -3  -5  -1   85.09    6.40
   3  -5   1   93.09    7.30
  -3  -5  -1   88.99    6.20
  -3  -5  -1   84.39    6.90
  -3  -5  -1   88.89    5.80
  -3   5  -1   85.89    6.00
  -3   5  -1   76.99    5.50
   3   5   1   87.89    5.90
  -4  -5  -1    0.80    4.90
  -4  -5  -1   11.70    3.60
  -4  -5  -1   11.40    2.50
  -4  -5  -1    5.60    1.60
  -4  -5  -1    6.30    3.30
   4  -5   1    7.40    3.90
  -4  -5  -1    9.20    2.00
   4   5   1   10.40    2.30
  -4   5  -1   10.20    2.10
  -4   5  -1   10.00    2.10
  -4   5  -1    9.10    1.30
  -5  -5  -1  219.68   13.60
  -5  -5  -1  216.48   13.90
   5  -5   1  217.18   15.50
  -5  -5  -1  224.68   13.20
  -5   5  -1  197.58   12.80
  -5   5  -1  196.88   12.80
  -5   5  -1  198.18   13.20
  -5   5  -1  213.98   13.50
  -6  -5  -1    5.60    2.80
  -6  -5  -1    4.70    1.70
   6  -5   1    6.60    8.80
  -6  -5  -1    3.80    5.30
  -6   5  -1    4.00    2.50
  -6   5  -1    4.60    2.40
  -6   5  -1    4.10    2.10
  -7  -5  -1    9.10    6.10
  -7  -5  -1   14.10    3.00
  -7  -5  -1    8.90    2.20
  -7   5  -1    5.70    2.80
  -6  -6   1   -0.70    2.10
  -6  -6   1    1.10    5.00
  -6  -6   1    3.10    2.90
  -5  -6   1    1.20    3.70
   5  -6  -1    3.50    5.20
  -5  -6   1   -1.30    1.70
  -5  -6   1   -0.40    2.40
  -5   6   1    5.80    1.50
  -5   6   1    0.90    1.80
  -4  -6   1   42.80    5.70
  -4  -6   1   37.70    4.30
   4  -6  -1   47.30    6.30
  -4  -6   1   32.00    3.80
  -4  -6   1   41.70    4.60
  -4   6   1   38.00    3.30
  -4   6   1   39.00    3.00
  -3  -6   1   -0.60    3.20
  -3  -6   1   -0.20    2.60
   3  -6  -1   -1.20    3.00
  -3  -6   1    1.50    1.70
  -3  -6   1    0.30    1.70
  -3  -6   1    2.10    2.40
   3   6  -1    1.20    2.00
  -3   6   1    0.00    1.30
  -3   6   1    0.10    0.80
  -3   6   1    2.00    1.20
  -2  -6   1  119.99    8.30
  -2  -6   1  111.49    9.30
  -2  -6   1  120.89    8.90
   2   6  -1  125.99    7.70
   2   6  -1  124.49    7.90
  -2   6   1  128.59    7.80
  -2   6   1  120.69    7.90
  -1  -6   1  292.57   20.30
   1  -6  -1  308.47   19.00
   1  -6  -1  359.16   19.50
  -1  -6   1  302.17   19.30
  -1  -6   1  267.07   18.80
  -1   6   1  302.37   18.50
   1   6  -1  304.87   18.50
   0  -6   1  455.55   31.40
   0  -6  -1  566.44   31.60
   0  -6   1  545.85   31.70
   0  -6  -1  528.75   31.30
   0   6   1  493.35   30.90
   0   6  -1  501.65   30.90
   1  -6   1   27.70    4.00
  -1  -6  -1   34.70    4.60
  -1  -6  -1   30.90    4.10
  -1  -6  -1   31.00    3.40
  -1  -6  -1   30.90    5.10
   1  -6   1   32.50    4.20
   1   6   1   28.10    2.30
   1   6   1   30.90    2.80
  -1   6  -1   33.90    2.90
  -2  -6  -1   26.60    3.10
  -2  -6  -1   25.20    3.30
   2  -6   1   30.90    4.10
  -2  -6  -1   28.00    4.00
  -2   6  -1   25.90    2.60
   2   6   1   24.20    2.30
   2   6   1   23.90    2.80
  -2   6  -1   24.50    2.40
  -3  -6  -1    4.10    2.90
  -3  -6  -1    0.60    1.60
  -3  -6  -1    0.60    2.60
  -3  -6  -1    0.10    1.70
   3  -6   1    5.10    3.60
  -3  -6  -1    2.00    2.30
  -3   6  -1   -1.80    1.10
   3   6   1    1.80    1.70
  -4  -6  -1   20.10    3.20
  -4  -6  -1   13.20    4.20
  -4  -6  -1   12.20    2.10
  -4  -6  -1   13.50    3.70
   4  -6   1   18.60    4.60
  -4  -6  -1   14.50    2.60
  -4   6  -1   18.30    1.90
   4   6   1   16.90    2.60
  -5  -6  -1  197.48   12.40
  -5  -6  -1  189.18   11.90
  -5  -6  -1  206.18   13.30
   5  -6   1  182.08   14.80
  -5   6  -1  176.28   11.50
  -5   6  -1  178.58   11.60
   6  -6   1   45.40   10.60
  -6  -6  -1   20.00    3.30
  -6  -6  -1   20.80    2.60
  -6  -6  -1   25.40    5.10
   5  -7  -1   -2.20    6.30
  -5  -7   1    3.70    6.00
  -5  -7   1    3.30    2.60
  -5  -7   1    1.60    2.20
  -5   7   1    3.60    2.60
  -4  -7   1   12.30    5.40
  -4  -7   1   -1.00    3.90
  -4  -7   1   -0.20    2.20
   4  -7  -1    1.30    4.80
  -4  -7   1    2.80    2.30
  -4   7   1    1.20    1.10
  -4   7   1   -2.20    1.60
  -3  -7   1    8.70    2.50
  -3  -7   1   14.00    3.00
  -3  -7   1   15.10    4.80
  -3  -7   1   17.60    2.70
  -3  -7   1   11.00    4.00
   3  -7  -1   14.60    4.10
  -3   7   1   12.60    1.50
  -3   7   1   10.20    1.80
  -2  -7   1   10.00    2.60
  -2  -7   1   10.00    3.70
   2  -7  -1   12.40    3.80
  -2  -7   1    7.10    2.60
  -2   7   1    6.00    1.50
  -2   7   1    7.30    1.60
  -2   7   1    7.00    1.20
  -1  -7   1  159.68   12.50
   1  -7  -1  215.48   13.10
   1  -7  -1  169.38   12.70
  -1   7   1  179.48   11.40
   1   7  -1  179.28   11.10
  -1   7   1  185.78   11.10
   1   7  -1  185.08   11.40
   0  -7   1    2.70    3.40
   0  -7   1    8.00    4.90
   0  -7  -1    3.30    3.00
   0  -7  -1    3.20    4.10
   0   7   1    4.80    1.00
   0   7  -1    4.00    1.60
   0   7   1    3.50    1.40
   1  -7   1    1.60    4.00
   1  -7   1   -1.80    4.10
  -1  -7  -1    1.00    2.80
  -1  -7  -1   -3.50    2.70
   1   7   1    2.10    1.50
   1   7   1    2.90    0.90
  -1   7  -1    2.00    1.40
  -2  -7  -1    2.50    4.10
  -2  -7  -1    3.20    2.60
   2  -7   1   -3.80    3.50
  -2  -7  -1    6.00    3.20
  -2   7  -1    0.60    1.20
  -2   7  -1    2.40    1.30
  -3  -7  -1   -2.20    2.10
  -3  -7  -1    0.40    2.00
   3  -7   1    3.90    4.20
  -3  -7  -1   -3.70    3.30
  -3  -7  -1    1.70    3.90
  -3  -7  -1    2.40    2.90
   3   7   1    3.50    1.90
  -3   7  -1   -1.20    1.40
  -4  -7  -1   10.10    4.70
  -4  -7  -1   13.40    2.80
  -4  -7  -1   12.30    2.40
   4  -7   1   11.70    5.40
  -4  -7  -1   14.30    4.90
  -4  -7  -1   15.20    4.60
  -4   7  -1   12.30    1.50
  -4   7  -1   13.20    1.90
  -5  -7  -1   -3.40    5.60
  -5  -7  -1   -1.10    2.00
  -5  -7  -1    4.70    2.60
   5  -7   1   -9.30    6.90
  -5   7  -1    2.90    1.80
   4  -8  -1    8.90    6.50
  -4  -8   1    3.40    4.50
  -4  -8   1   -0.70    2.20
  -4  -8   1    5.60    4.00
  -4   8   1    3.50    1.10
  -3  -8   1    5.50    3.10
  -3  -8   1    2.20    2.40
  -3  -8   1    3.70    2.10
  -3   8   1    0.90    1.10
  -3   8   1    3.40    1.80
  -2  -8   1    8.40    4.20
   2  -8  -1   10.10    5.20
  -2  -8   1   10.30    2.80
  -2   8   1    9.10    1.90
  -2   8   1   16.70    1.90
  -2   8   1    9.90    1.70
   2   8  -1   18.70    2.90
   1  -8  -1   27.10    6.20
  -1  -8   1   16.90    4.70
   1  -8  -1   28.50    6.00
  -1   8   1   32.70    3.40
   1   8  -1   27.90    2.60
   1   8  -1   28.40    2.90
  -1   8   1   30.10    2.50
  -1   8   1   28.80    3.00
   0  -8  -1  118.49   10.50
   0  -8   1  126.29   13.90
   0  -8  -1  125.49   14.60
   0   8  -1  129.39    8.40
   0   8   1  133.39    8.40
   0   8  -1  129.99    8.10
   0   8   1  130.99    8.10
   1  -8   1    2.20    5.80
  -1  -8  -1    6.00    3.90
   1  -8   1   10.00    7.60
  -1   8  -1   -0.70    1.00
   1   8   1   -0.60    1.10
  -1   8  -1   -0.40    1.50
   1   8   1   -0.50    1.60
  -1   8  -1    3.10    1.70
   2  -8   1   21.40    6.10
  -2  -8  -1   17.90    4.50
  -2  -8  -1   19.70    3.30
  -2   8  -1   19.90    2.10
  -2   8  -1   19.40    2.30
   2   8   1   20.10    2.50
  -3  -8  -1   10.90    2.90
  -3  -8  -1   16.10    6.20
  -3  -8  -1   18.20    2.80
  -3  -8  -1   13.10    3.50
  -3   8  -1   18.40    2.20
  -3   8  -1   16.30    1.70
   4  -8   1   -8.10    6.70
  -4  -8  -1   -2.50    2.30
  -4  -8  -1    2.50    2.30
  -4   8  -1    1.20    1.20
   3  -9  -1   -6.00    9.50
  -3  -9   1   -2.50    3.90
  -3  -9   1    1.20    2.50
  -3   9   1   -0.10    1.20
  -2  -9   1    2.80    2.90
   2  -9  -1   14.70    7.10
  -2  -9   1    6.70    2.40
  -2   9   1    4.10    1.10
  -1  -9   1    0.20    2.60
   1  -9  -1    5.70   10.20
  -1   9   1    1.10    1.90
  -1   9   1    2.40    1.20
   1   9  -1   -3.50    2.50
  -1   9   1   -1.40    1.60
   1   9  -1   -2.50    2.40
   0  -9  -1    6.30    5.90
   0  -9   1    0.00    2.60
   0   9  -1    6.60    2.10
   0   9   1    1.00    1.10
   0   9   1    2.00    1.80
   0   9   1    2.10    2.30
   0   9  -1   -0.30    1.20
  -1  -9  -1    3.40    2.80
   1  -9   1    1.80    9.80
  -1  -9  -1    3.40    5.00
   1   9   1    6.40    1.90
  -1   9  -1    8.80    2.00
   1   9   1    7.30    2.20
  -1   9  -1    3.50    1.30
  -2  -9  -1   -0.80    3.20
  -2  -9  -1    1.60    4.90
  -2  -9  -1    1.60    2.10
   2  -9   1  -13.10    7.70
  -2   9  -1    0.20    1.10
  -8   0   2   -9.70    3.40
  -8   0   2    0.90    2.10
  -7   0   2   47.30    5.60
  -7   0   2   43.20    4.40
  -6   0   2   12.50    2.90
  -6   0   2   12.30    2.00
  -6   0   2   16.20    1.90
  -6   0   2   17.30    2.10
  -6   0   2   16.20    5.00
  -6   0   2   17.40    6.30
  -5   0   2   79.59    5.10
  -5   0   2   56.09    7.40
  -5   0   2   80.39    5.40
  -5   0   2   76.19    7.10
  -5   0   2   75.49    5.90
  -5   0   2   79.99    5.10
  -5   0   2   83.19    5.20
  -4   0   2   67.49    4.20
  -4   0   2   57.59    4.00
  -4   0   2   53.79    6.30
  -4   0   2   68.59    4.50
  -4   0   2   69.39    5.00
  -4   0   2   61.29    5.80
  -4   0   2   65.89    4.20
  -4   0   2   67.29    5.00
  -3   0   2   51.79    4.70
  -3   0   2   60.09    4.20
  -3   0   2   58.49    4.10
  -3   0   2   64.99    5.10
  -3   0   2   54.99    3.60
  -3   0   2   53.69    5.10
  -3   0   2   63.89    3.70
  -3   0   2   60.39    4.40
  -2   0   2 2974.20  178.98
  -2   0   2 3075.29  178.98
   1   0  -2  189.08   10.90
   1   0  -2  169.28   10.70
  -1   0   2  181.08   10.90
   0   0   2 1779.02  104.49
   0   0  -2 1734.23  104.49
  -1   0  -2  579.04   34.90
   1   0   2  546.75   34.80
  -1   0  -2  595.04   33.80
  -1   0  -2  559.14   33.80
  -2   0  -2  140.19    8.60
  -2   0  -2  145.79    8.60
  -3   0  -2 1160.68   65.79
  -3   0  -2 1103.39   65.59
  -3   0  -2 1091.69   65.49
  -3   0  -2 1094.09   65.49
  -3   0  -2 1079.89   65.59
  -4   0  -2  199.68   11.80
  -4   0  -2  189.78   11.80
  -4   0  -2  168.88   13.10
  -4   0  -2  227.48   12.10
  -4   0  -2  177.78   12.00
  -4   0  -2  206.88   12.30
  -5   0  -2 2639.14  147.59
  -5   0  -2 2346.47  147.59
  -5   0  -2 2779.92  148.09
  -5   0  -2 2201.98  147.79
  -6   0  -2   11.00    2.00
  -6   0  -2   11.30    3.00
  -6   0  -2    9.70    1.40
  -6   0  -2    8.80    4.20
  -6   0  -2    5.80    1.50
  -7   0  -2    4.30    3.00
  -7   0  -2    1.60    1.40
  -7   0  -2    2.50    2.00
  -8   0  -2   10.10    3.30
  -8   0  -2    3.10    2.20
  -8  -1   2   93.59    7.70
  -8  -1   2  105.39    8.30
  -8   1   2  108.69    7.30
  -8   1   2  117.99    8.50
  -7  -1   2   70.89    6.30
  -7  -1   2   94.99    7.30
  -7  -1   2   79.39   10.90
  -7   1   2   86.99    6.30
  -7   1   2   90.39    7.20
  -6  -1   2   13.30    4.90
  -6  -1   2   36.80    5.30
  -6  -1   2   20.00    2.70
  -6  -1   2   25.70    3.40
  -6  -1   2   33.70    2.90
  -6  -1   2   28.00    3.10
  -6   1   2   32.90    4.50
  -6   1   2   21.50    5.90
  -6   1   2   35.50    2.80
  -6   1   2   28.40    3.50
  -5  -1   2   28.40    2.50
  -5  -1   2   24.70    2.40
  -5  -1   2   19.90    4.10
  -5  -1   2   30.20    3.10
  -5  -1   2   21.60    3.00
  -5  -1   2   27.70    3.40
  -5   1   2   29.10    2.30
  -5   1   2   25.60    2.90
  -5   1   2   28.20    2.40
  -5   1   2   20.00    4.70
  -5   1   2   31.20    3.80
  -4  -1   2   29.70    4.20
  -4  -1   2   41.10    3.30
  -4  -1   2   38.60    3.50
  -4  -1   2   35.00    4.70
  -4  -1   2   37.80    2.60
  -4  -1   2   41.80    2.80
  -4  -1   2   38.40    4.80
  -4  -1   2   41.40    3.60
  -4  -1   2   39.50    2.80
  -4   1   2   38.30    3.10
  -4   1   2   38.20    3.70
  -4   1   2   35.10    2.60
  -4   1   2   50.59    5.20
  -4   1   2   43.70    2.70
  -4   1   2   37.70    3.00
  -4   1   2   34.50    5.10
  -4   1   2   27.50    4.20
  -3  -1   2  173.88   10.50
  -3  -1   2  178.48   10.70
  -3  -1   2  162.98   10.20
  -3  -1   2  172.58   10.30
  -3  -1   2  164.08   11.10
  -3  -1   2  172.08   10.60
  -3  -1   2  166.68   11.00
  -3  -1   2  196.58   10.90
  -3   1   2  170.08   10.40
  -3   1   2  159.08   10.20
  -3   1   2  190.58   12.10
  -3   1   2  170.08   10.30
  -3   1   2  148.99   10.80
  -3   1   2  174.98   10.70
  -2  -1   2 1093.69   65.29
   2  -1  -2 1159.48   65.69
  -2  -1   2 1015.60   65.09
  -2  -1   2 1243.98   65.19
   2  -1  -2 1124.09   65.69
   2  -1  -2 1108.49   65.09
  -2  -1   2 1019.40   65.69
  -2   1   2 1015.20   65.09
  -2   1   2 1121.69   64.99
  -2   1   2 1091.19   65.09
  -1  -1   2 6435.26  387.46
  -1  -1   2 6711.13  387.46
   1  -1  -2 6521.45  387.56
  -1   1   2 6496.25  387.46
   0  -1   2    3.20    2.00
   0  -1  -2    1.80    2.40
   0  -1  -2    2.90    0.30
   0   1   2    2.90    2.10
   0   1  -2    5.10    2.30
   0   1   2    2.10    0.30
   1  -1   2   81.39    7.10
  -1  -1  -2   76.29    4.60
  -1  -1  -2   74.69    4.60
  -1  -1  -2   68.49    7.50
   1   1   2   78.79    4.60
   1   1   2   78.59    6.90
  -1   1  -2   83.79    7.10
  -1   1  -2   69.29    4.60
  -2  -1  -2  522.65   31.10
  -2  -1  -2  527.95   31.20
   2  -1   2  553.74   31.40
   2  -1   2  472.85   33.00
  -2  -1  -2  466.85   33.10
  -2  -1  -2  526.35   31.10
  -2   1  -2  526.05   31.20
  -2   1  -2  504.35   32.90
   2   1   2  576.64   31.10
   2   1   2  514.85   32.90
  -2   1  -2  552.34   31.10
  -3  -1  -2   43.10    2.80
  -3  -1  -2   45.10    3.10
  -3  -1  -2   40.90    3.80
  -3  -1  -2   41.50    2.70
  -3  -1  -2   40.70    3.40
   3  -1   2   38.70    4.20
  -3  -1  -2   42.80    3.30
  -3  -1  -2   39.40    2.90
  -3  -1  -2   32.40    4.20
  -3   1  -2   32.60    4.50
  -3   1  -2   45.30    2.70
  -3   1  -2   42.80    3.60
  -3   1  -2   43.70    2.90
  -3   1  -2   48.30    3.30
  -3   1  -2   39.70    3.10
  -4  -1  -2    5.20    0.70
   4  -1   2    0.80    3.30
  -4  -1  -2    5.00    3.30
  -4  -1  -2    5.00    1.40
  -4  -1  -2    5.60    0.90
  -4  -1  -2    3.70    1.20
  -4  -1  -2    4.70    1.70
  -4   1  -2    5.10    1.80
  -4   1  -2    2.80    0.70
  -4   1  -2    5.20    1.30
  -4   1  -2    4.40    0.90
  -4   1  -2    5.20    1.60
  -4   1  -2    0.50    3.20
  -5  -1  -2   17.10    1.90
  -5  -1  -2   16.80    1.90
  -5  -1  -2   10.30    4.50
  -5  -1  -2   17.10    2.10
  -5  -1  -2   15.80    2.30
  -5  -1  -2   17.80    2.60
  -5   1  -2   19.70    2.80
  -5   1  -2   26.20    2.70
  -5   1  -2   17.40    2.00
  -6  -1  -2   70.39    6.00
  -6  -1  -2   50.69    6.10
  -6  -1  -2   57.79    4.40
  -6  -1  -2   54.69    4.20
  -6  -1  -2   68.39    4.90
  -6   1  -2   68.89    6.00
  -6   1  -2   61.49    4.30
  -6   1  -2   58.39    4.30
  -7  -1  -2    1.10    3.20
  -7  -1  -2    1.10    1.40
  -7  -1  -2    1.20    2.00
   7   1   2   -1.90    4.00
  -7   1  -2   -0.30    1.60
  -7   1  -2    0.70    2.10
  -7   1  -2   -0.10    2.80
  -8  -1  -2   -1.90    2.30
  -8  -1  -2   -2.20    2.70
  -8  -1  -2   -0.90    3.40
  -8   1  -2    4.10    3.20
  -8   1  -2   -4.70    2.00
  -8  -2   2   39.80    5.80
  -8   2   2   52.19    5.90
  -8   2   2   49.99    4.40
  -7  -2   2   -1.00    3.10
  -7  -2   2    0.90    2.20
  -7  -2   2    7.10    2.30
  -7  -2   2   -5.30    7.50
  -7  -2   2   -1.00    5.50
  -7   2   2    6.30    3.10
  -7   2   2    1.50    1.80
  -6  -2   2    8.60    3.70
  -6  -2   2   -1.80    4.60
  -6  -2   2    2.30    1.50
  -6  -2   2    0.10    2.60
  -6  -2   2    0.30    1.80
  -6   2   2    1.10    1.90
  -6   2   2    6.00    2.80
  -5  -2   2   26.70    2.60
  -5  -2   2   26.60    2.50
  -5  -2   2   20.70    4.10
  -5  -2   2   20.80    2.90
  -5  -2   2   26.50    3.20
  -5  -2   2   32.40    6.20
   5  -2  -2   27.30    4.40
  -5  -2   2   23.00    2.40
  -5   2   2   21.60    2.90
  -5   2   2   22.00    2.80
  -5   2   2   33.60    9.50
  -5   2   2   22.20    2.40
  -4  -2   2    2.10    2.70
  -4  -2   2   -1.80    1.40
  -4  -2   2    0.10    0.90
  -4  -2   2   -2.20    2.60
  -4  -2   2    1.20    1.50
  -4  -2   2    1.40    2.10
  -4  -2   2   -2.70    2.60
  -4  -2   2    0.80    0.90
  -4   2   2   -0.50    0.70
  -4   2   2   -0.40    1.10
  -4   2   2    0.30    0.80
  -4   2   2   -1.30    4.00
  -4   2   2    0.90    4.20
  -3  -2   2  109.89    6.50
  -3  -2   2  101.59    6.10
  -3  -2   2  102.29    6.40
  -3  -2   2   96.39    6.70
  -3  -2   2   95.79    6.90
  -3  -2   2  104.19    7.30
  -3  -2   2  100.89    6.10
  -3  -2   2   92.39    7.00
  -3   2   2   91.49    6.00
  -3   2   2   96.49    6.00
  -3   2   2   96.99    6.60
  -3   2   2  100.59    6.30
  -3   2   2  100.29    6.10
  -3   2   2   89.49    8.40
   2  -2  -2  139.19   11.10
  -2  -2   2  122.89    8.80
  -2  -2   2  141.59    8.50
  -2  -2   2  138.79    8.50
  -2  -2   2  133.89   11.50
  -2  -2   2  142.49    8.70
   2  -2  -2  145.29   11.70
   2   2  -2  141.29    8.30
  -2   2   2  135.89    8.20
  -2   2   2  132.29    8.20
  -2   2   2  135.49    8.30
  -1  -2   2 7221.68  453.45
  -1  -2   2 7274.97  453.35
   1  -2  -2 8174.88  454.85
  -1  -2   2 7986.90  454.55
   0  -2   2  461.75   29.80
   0  -2  -2  482.25   30.20
   0  -2  -2  464.65   28.20
   0  -2   2  493.45   29.90
   0   2   2  489.15   28.20
   0   2   2  461.15   29.90
   1  -2   2  708.13   37.80
   1  -2   2  658.43   39.50
  -1  -2  -2  584.34   37.60
  -1  -2  -2  626.34   37.50
  -1  -2  -2  576.84   39.60
   1   2   2  655.73   37.50
   1   2   2  613.44   39.40
   2  -2   2    4.70    1.60
  -2  -2  -2    3.60    1.00
   2  -2   2    3.30    5.80
  -2  -2  -2    3.80    0.50
  -2  -2  -2    3.50    0.80
  -2  -2  -2    5.70    6.30
  -2   2  -2    2.80    0.50
   2   2   2    3.60    0.50
   2   2   2    4.50    5.60
  -3  -2  -2    8.60    0.90
  -3  -2  -2    8.40    1.20
  -3  -2  -2    4.80    2.60
  -3  -2  -2    8.50    1.70
   3  -2   2   10.10    2.10
  -3  -2  -2    7.80    0.90
  -3  -2  -2    8.90    1.50
  -3  -2  -2    8.80    1.60
  -3   2  -2    9.00    1.40
  -3   2  -2    8.00    0.90
  -3   2  -2   10.10    1.00
  -3   2  -2    9.00    1.70
   3   2   2    8.40    0.90
  -4  -2  -2 1560.94   93.79
  -4  -2  -2 1520.85   93.89
  -4  -2  -2 1673.93   94.19
  -4  -2  -2 1626.04   93.89
   4  -2   2 1647.64   94.49
  -4  -2  -2 1592.84   94.19
  -4   2  -2 1559.24   93.99
  -4   2  -2 1520.15   94.19
  -4   2  -2 1548.95   93.79
  -5  -2  -2  101.99    7.00
  -5  -2  -2  105.09    6.30
  -5  -2  -2  109.09    6.40
  -5   2  -2   93.99    7.20
  -5   2  -2   90.89    6.30
  -5   2  -2   96.39    6.40
  -5   2  -2   98.99    6.80
  -6  -2  -2    9.40    2.70
  -6  -2  -2    5.50    2.70
  -6  -2  -2    7.60    1.40
  -6  -2  -2    7.00    2.00
   6   2   2    6.30    3.40
  -6   2  -2    4.70    1.40
  -6   2  -2    9.00    2.80
  -6   2  -2    5.60    1.50
  -6   2  -2    8.60    2.10
  -7  -2  -2    2.80    2.90
  -7  -2  -2    4.80    2.20
  -7  -2  -2    2.10    1.50
  -7   2  -2    2.20    2.10
  -7   2  -2    5.80    2.90
  -7  -3   2  351.66   22.30
  -7  -3   2  355.96   21.80
  -7  -3   2  340.17   24.90
  -7   3   2  371.86   21.80
  -7   3   2  364.36   22.20
  -6  -3   2   23.20    3.00
  -6  -3   2   27.70    4.30
  -6  -3   2   14.10    5.30
  -6  -3   2   20.40    3.60
  -6   3   2   20.10    3.40
  -6   3   2   24.20    2.70
   5  -3  -2   23.00    4.10
  -5  -3   2   21.20    2.70
  -5  -3   2   18.10    4.70
  -5  -3   2   14.10    4.10
  -5  -3   2   23.00    3.30
  -5  -3   2   20.20    2.50
  -5   3   2   22.20    2.40
  -5   3   2   19.30    2.80
  -5   3   2   22.10    2.20
  -4  -3   2    5.00    1.20
  -4  -3   2    7.00    2.90
  -4  -3   2    6.20    1.90
  -4  -3   2    6.90    1.70
  -4  -3   2    7.40    2.60
  -4   3   2    4.40    1.80
  -4   3   2   15.40    5.30
  -4   3   2    7.50    1.20
  -4   3   2    5.90    1.00
  -4   3   2    5.90    1.50
  -4   3   2    4.90    1.10
  -3  -3   2   43.60    4.90
  -3  -3   2   55.89    3.90
  -3  -3   2   56.49    4.90
  -3  -3   2   60.69    4.10
  -3  -3   2   49.90    4.30
  -3  -3   2   46.40    4.80
  -3  -3   2   56.69    4.40
  -3  -3   2   58.49    3.70
   3   3  -2   53.39    3.60
   3   3  -2   48.40    4.30
  -3   3   2   49.10    3.50
  -3   3   2   56.79    3.50
  -3   3   2   55.29    4.20
  -3   3   2   49.80    3.90
  -3   3   2   52.39    5.80
  -3   3   2   50.59    3.40
  -2  -3   2 3247.78  178.98
  -2  -3   2 3155.58  178.88
  -2  -3   2 2786.22  178.88
  -2  -3   2 3122.99  178.68
  -2  -3   2 3070.69  178.88
  -2  -3   2 3029.10  178.88
   2  -3  -2 2796.72  178.68
  -2   3   2 2998.60  178.68
  -2   3   2 2929.21  178.78
  -2   3   2 2933.91  178.68
  -2   3   2 2847.81  179.28
   2   3  -2 3291.07  178.68
  -2   3   2 2985.30  178.58
  -2   3   2 3058.09  178.58
  -1  -3   2  144.79    9.40
  -1  -3   2  156.18    9.30
  -1  -3   2  139.59    9.20
  -1  -3   2  167.48   14.50
   1  -3  -2  143.29    9.10
  -1  -3   2  157.58    9.40
  -1  -3   2  149.29    9.90
  -1  -3   2  152.78   14.80
  -1   3   2  165.68   18.00
   1   3  -2  155.68    9.10
  -1   3   2  138.89    9.10
  -1   3   2  152.68    9.10
   0  -3  -2   19.00    7.50
   0  -3   2   12.90    5.80
   0  -3   2   17.40    1.60
   0  -3   2   11.80    6.40
   0  -3  -2   15.10    1.60
   0  -3   2   15.00    2.00
   0  -3   2   14.80    1.80
   0  -3   2   16.00    1.80
   0   3   2   14.80    1.30
   0   3   2   11.90    1.60
   0   3   2   26.40    6.90
  -1  -3  -2   17.00    1.70
   1  -3   2   13.40    6.40
   1  -3   2   11.90    6.90
   1  -3   2   16.90    2.20
  -1  -3  -2   32.10    9.10
  -1  -3  -2   16.90    1.70
   1  -3   2   19.80    2.70
   1   3   2    9.10    5.90
  -1   3  -2   18.10    1.60
   1   3   2   17.30    1.40
   1   3   2   15.20    2.10
   2  -3   2   -1.90    2.60
  -2  -3  -2   -0.40    0.70
  -2  -3  -2   -1.20    0.90
  -2  -3  -2    0.10    1.00
  -2   3  -2   -1.00    0.80
   2   3   2   -0.80    1.30
  -2   3  -2    3.50    1.40
  -2   3  -2   -0.60    0.50
  -2   3  -2   -1.10    0.70
   2   3   2    0.20    0.60
  -3  -3  -2    8.10    1.80
  -3  -3  -2    1.80    2.90
  -3  -3  -2    8.20    1.80
  -3  -3  -2    7.80    1.30
   3  -3   2    8.90    2.40
  -3  -3  -2    3.20    2.10
  -3  -3  -2    5.50    1.30
  -3  -3  -2    8.10    0.90
   3   3   2    5.50    1.70
  -3   3  -2    6.90    1.40
  -3   3  -2    5.40    0.80
  -3   3  -2    3.70    1.10
  -3   3  -2    7.00    1.60
  -4  -3  -2    6.90    3.50
  -4  -3  -2   -0.20    2.80
  -4  -3  -2    3.30    1.60
   4  -3   2    5.30    2.90
  -4  -3  -2    3.80    1.60
  -4  -3  -2    5.10    1.00
   4   3   2    5.90    2.10
  -4   3  -2    4.60    1.50
  -4   3  -2    5.00    0.90
  -4   3  -2    7.20    1.90
  -5  -3  -2  312.97   18.60
  -5  -3  -2  279.07   18.10
  -5  -3  -2  321.77   18.10
  -5  -3  -2  319.67   18.60
   5  -3   2  258.97   19.80
  -5   3  -2  294.17   18.60
  -5   3  -2  307.27   18.20
  -5   3  -2  285.57   17.90
   5   3   2  302.17   18.60
  -5   3  -2  289.27   17.90
  -6  -3  -2   38.70    5.00
  -6  -3  -2   42.30    3.20
   6   3   2   42.10    5.10
  -6   3  -2   38.10    4.20
  -6   3  -2   31.70    3.30
  -6   3  -2   39.30    4.30
  -7  -3  -2    5.50    2.80
  -7  -3  -2    9.20    4.60
  -7  -3  -2    6.80    1.70
  -7   3  -2    5.60    2.90
  -7   3  -2    7.50    2.30
  -7  -4   2   31.10    7.30
  -7  -4   2   26.10    4.00
  -7   4   2   32.00    3.90
  -7   4   2   33.30    3.90
  -6  -4   2   -1.10    3.50
   6  -4  -2    2.70    6.60
  -6  -4   2    4.40    1.80
  -6  -4   2    2.30    2.80
  -6  -4   2   -4.90    5.30
  -6   4   2   -0.70    2.50
  -6   4   2    1.60    1.90
  -5  -4   2    0.80    1.50
   5  -4  -2    5.10    3.60
  -5  -4   2    2.70    4.40
  -5  -4   2    0.80    2.20
  -5  -4   2    2.30    2.70
  -5  -4   2    3.60    4.50
  -5   4   2    5.90    1.70
  -5   4   2    2.00    1.30
  -5   4   2    0.80    2.10
  -4  -4   2    0.30    2.60
  -4  -4   2    0.70    1.60
  -4  -4   2   -1.50    1.20
  -4  -4   2    3.60    3.10
  -4  -4   2   -1.90    1.90
  -4  -4   2    1.00    3.10
  -4   4   2    2.60    1.10
  -4   4   2   -2.10    0.90
  -4   4   2   -0.10    1.30
  -4   4   2    4.70    1.80
  -3  -4   2    6.30    2.10
  -3  -4   2    8.20    2.80
  -3  -4   2   11.90    3.10
  -3  -4   2    5.20    2.30
  -3  -4   2   11.50    1.70
  -3  -4   2   10.90    1.50
  -3  -4   2    9.30    1.90
  -3  -4   2    6.80    2.60
  -3   4   2    8.00    1.10
   3   4  -2   13.20    2.00
  -3   4   2    9.10    1.50
  -3   4   2    7.20    1.70
  -3   4   2    9.40    1.30
  -3   4   2   11.00    1.50
  -3   4   2    8.90    1.30
   3   4  -2    8.10    1.90
  -2  -4   2  448.46   27.30
  -2  -4   2  436.36   27.40
  -2  -4   2  418.76   27.30
  -2  -4   2  489.45   27.00
   2  -4  -2  439.86   26.90
  -2  -4   2  461.95   27.10
  -2  -4   2  448.76   27.20
   2   4  -2  470.35   26.90
   2   4  -2  454.95   26.90
  -2   4   2  448.36   26.80
  -2   4   2  438.66   26.80
  -2   4   2  466.95   27.00
  -2   4   2  439.66   27.10
  -2   4   2  423.86   26.80
  -1  -4   2  373.46   21.70
  -1  -4   2  354.56   21.20
   1  -4  -2  355.56   21.10
  -1  -4   2  368.36   21.20
  -1  -4   2  320.57   21.20
  -1  -4   2  324.97   21.40
  -1  -4   2  354.76   21.40
  -1   4   2  354.56   21.00
   1   4  -2  336.57   21.00
  -1   4   2  336.57   21.00
   1   4  -2  375.56   21.00
   0  -4   2    0.40    1.80
   0  -4   2    3.60    1.80
   0  -4  -2   -0.30    1.20
   0  -4   2    4.50    2.50
   0  -4   2   -0.30    1.40
   0  -4  -2    2.10    1.10
   0  -4   2   -0.10    1.70
   0   4  -2    1.10    1.00
   0   4  -2    1.80    0.90
   0   4   2    0.80    0.80
   0   4   2    0.60    0.80
  -1  -4  -2  186.48   11.00
  -1  -4  -2  176.88   11.00
  -1  -4  -2  191.28   11.10
   1  -4   2  211.68   11.60
   1  -4   2  157.18   11.40
  -1   4  -2  174.08   10.90
   1   4   2  167.78   10.80
   1   4   2  174.08   11.00
  -1   4  -2  176.28   10.90
   2  -4   2   20.10    2.70
  -2  -4  -2   11.30    4.00
  -2  -4  -2   19.20    2.50
  -2  -4  -2   18.70    2.20
  -2  -4  -2   16.50    1.90
   2   4   2   15.60    2.00
  -2   4  -2   15.00    1.70
  -2   4  -2   15.10    1.90
  -2   4  -2   17.10    1.60
   2   4   2   15.80    1.60
  -2   4  -2   15.30    1.90
   2   4   2   17.70    2.20
  -3  -4  -2    5.50    2.20
   3  -4   2    8.70    2.60
  -3  -4  -2    9.50    1.20
  -3  -4  -2    9.60    3.50
  -3  -4  -2    8.50    2.10
  -3  -4  -2    9.00    1.60
  -3  -4  -2    6.80    1.50
  -3   4  -2    7.10    1.70
   3   4   2    8.50    1.80
  -3   4  -2    6.60    1.00
  -3   4  -2    8.70    1.70
   3   4   2    9.10    1.70
  -3   4  -2    8.10    1.80
   4  -4   2  272.77   16.40
  -4  -4  -2  210.78   15.80
  -4  -4  -2  249.68   15.00
  -4  -4  -2  248.08   15.40
  -4  -4  -2  237.28   15.20
   4   4   2  245.78   15.30
  -4   4  -2  232.18   14.80
  -4   4  -2  260.97   15.10
  -4   4  -2  251.87   15.30
   5  -4   2   -3.40    4.90
  -5  -4  -2    2.50    2.20
  -5  -4  -2    7.50    4.80
  -5  -4  -2    6.30    2.20
  -5  -4  -2    0.50    4.80
  -5  -4  -2    3.80    1.30
  -5   4  -2    1.30    1.90
   5   4   2    1.10    2.40
  -5   4  -2    1.40    1.20
  -5   4  -2    1.80    2.30
  -6  -4  -2   12.20    1.80
  -6  -4  -2   11.40    2.90
  -6  -4  -2   12.60    3.50
  -6   4  -2    8.70    2.80
   6   4   2   12.20    4.50
  -6   4  -2   12.30    1.90
  -6   4  -2   12.00    2.50
  -7  -4  -2    3.80    4.50
  -7  -4  -2    2.50    1.70
  -7  -4  -2   -1.30    2.70
  -7   4  -2    2.40    2.70
  -7   4  -2    1.20    2.40
  -7  -5   2   31.30    4.00
  -7  -5   2   20.50    7.00
  -7  -5   2   25.60    3.40
  -7   5   2   29.70    3.00
   6  -5  -2   16.00    7.20
  -6  -5   2   11.90    3.30
  -6  -5   2   15.00    4.60
  -6  -5   2   11.70    6.50
  -6  -5   2   11.70    2.20
  -6   5   2   15.90    2.50
  -5  -5   2    6.50    2.50
  -5  -5   2    6.90    4.80
  -5  -5   2    3.00    3.10
  -5  -5   2    5.00    5.40
  -5  -5   2    7.60    1.90
   5  -5  -2    6.90    4.30
  -5   5   2    8.90    2.40
  -5   5   2    6.90    1.70
  -5   5   2    6.20    1.60
  -5   5   2   10.00    2.20
  -4  -5   2    2.00    1.90
  -4  -5   2    2.90    2.50
  -4  -5   2    1.70    3.30
  -4  -5   2    1.10    3.10
  -4  -5   2    0.20    4.20
   4  -5  -2    9.10    3.40
  -4  -5   2    0.30    1.50
  -4   5   2    2.40    1.20
  -4   5   2    0.90    1.80
  -4   5   2    0.20    0.90
  -4   5   2    0.10    1.60
  -3  -5   2   32.70    4.00
  -3  -5   2   33.50    3.20
  -3  -5   2   35.60    4.80
  -3  -5   2   39.60    4.20
  -3  -5   2   29.30    3.20
  -3  -5   2   25.30    3.80
  -3   5   2   32.80    2.40
  -3   5   2   30.60    3.10
  -3   5   2   33.70    2.80
  -3   5   2   28.10    2.60
   2  -5  -2  187.08   11.30
  -2  -5   2  159.68   11.70
  -2  -5   2  184.98   11.10
  -2  -5   2  176.78   11.40
  -2   5   2  164.48   10.90
   2   5  -2  180.78   10.90
  -2   5   2  177.98   10.90
  -1  -5   2    5.90    3.70
  -1  -5   2    5.00    2.40
  -1  -5   2    5.90    1.80
   1  -5  -2    5.30    1.60
  -1  -5   2    1.00    2.20
  -1  -5   2    2.90    2.00
   1   5  -2    4.30    1.40
  -1   5   2    4.20    1.10
   0  -5   2    8.50    2.40
   0  -5   2    8.20    2.70
   0  -5  -2    7.60    2.40
   0  -5  -2   11.50    1.80
   0  -5   2    6.80    2.10
   0   5  -2    8.80    1.40
   0   5   2    8.80    1.30
  -1  -5  -2    1.60    1.60
   1  -5   2   -0.70    2.20
  -1  -5  -2    2.00    1.50
   1  -5   2    7.20    2.60
  -1  -5  -2    1.50    1.50
  -1  -5  -2    3.50    2.70
   1   5   2    3.50    1.10
  -1   5  -2    3.40    1.00
   1   5   2    2.40    0.70
   2  -5   2    3.10    2.80
  -2  -5  -2    2.80    1.50
  -2  -5  -2    3.10    1.80
  -2  -5  -2    3.30    1.40
  -2   5  -2    2.80    1.10
   2   5   2    1.40    0.90
  -2   5  -2    2.00    0.90
   2   5   2   -0.10    1.30
  -3  -5  -2   11.40    1.70
   3  -5   2    7.40    3.20
  -3  -5  -2    7.90    1.70
  -3  -5  -2    8.60    2.70
  -3  -5  -2    9.40    2.00
  -3  -5  -2    6.20    2.50
  -3   5  -2    8.90    1.90
  -3   5  -2    6.60    1.20
   3   5   2    9.50    1.70
  -4  -5  -2  152.68    9.80
  -4  -5  -2  123.59   10.80
  -4  -5  -2  153.88   10.00
  -4  -5  -2  155.38    9.50
   4  -5   2  161.18   11.40
  -4   5  -2  137.29    9.60
   4   5   2  161.28    9.70
  -4   5  -2  145.89    9.20
  -4   5  -2  150.58    9.80
   5  -5   2   15.40    5.20
  -5  -5  -2   22.00    2.70
  -5  -5  -2   18.80    3.10
  -5  -5  -2   24.50    3.20
  -5  -5  -2    7.50    5.20
  -5   5  -2   20.30    2.10
  -5   5  -2   19.30    2.40
   5   5   2   17.90    2.90
  -5   5  -2   18.20    2.70
  -5   5  -2   17.80    2.70
   6  -5   2   16.80    9.60
  -6  -5  -2   17.50    2.20
  -6  -5  -2   19.80    3.20
  -6   5  -2   17.10    2.30
  -6   5  -2   20.80    3.00
  -6   5  -2   14.20    2.80
   6  -6  -2    7.50    7.90
  -6  -6   2    5.10    5.00
  -6  -6   2    1.70    2.30
  -6  -6   2    1.20    3.00
  -6   6   2    3.00    5.10
   5  -6  -2    5.20    5.10
  -5  -6   2    4.50    7.40
  -5  -6   2   -1.80    4.30
  -5  -6   2    4.50    5.60
  -5  -6   2   -1.80    1.80
  -5  -6   2    1.40    2.50
  -5   6   2   -1.00    2.50
  -5   6   2    2.60    2.20
  -5   6   2    4.20    1.40
  -4  -6   2    2.30    2.20
  -4  -6   2    8.80    3.50
  -4  -6   2    6.00    3.30
  -4  -6   2    8.80    2.10
   4  -6  -2    7.90    3.70
  -4   6   2    2.70    1.50
  -4   6   2    5.50    1.20
   3  -6  -2   83.29    7.00
  -3  -6   2   71.59    5.60
  -3  -6   2   70.99    6.20
  -3  -6   2   65.19    6.80
  -3  -6   2   80.89    5.40
  -3   6   2   66.39    4.90
  -3   6   2   70.59    4.70
  -3   6   2   70.79    5.10
  -2  -6   2  115.49    8.60
   2  -6  -2  133.39    9.70
  -2  -6   2  123.89   10.70
  -2  -6   2  120.19    9.50
   2   6  -2  131.79    8.30
  -2   6   2  129.59    7.90
  -2   6   2  132.79    8.20
  -1  -6   2  147.09   10.90
  -1  -6   2  162.78   12.90
  -1  -6   2  141.99   10.30
   1  -6  -2  161.18   10.40
  -1   6   2  158.68    9.80
  -1   6   2  156.88    9.60
   1   6  -2  165.58    9.80
   0  -6  -2   64.29    4.90
   0  -6   2   50.29    6.70
   0  -6  -2   43.10    5.50
   0  -6  -2   64.89    5.80
   0  -6   2   43.30    5.70
   0   6   2   54.99    4.00
   0   6   2   52.29    3.60
   0   6  -2   51.69    4.00
  -1  -6  -2    3.10    2.10
  -1  -6  -2   -4.10    2.00
   1  -6   2   -3.70    3.30
  -1  -6  -2    4.70    2.40
  -1  -6  -2   -5.20    4.50
   1  -6   2   -2.50    3.20
   1   6   2    0.80    1.30
  -1   6  -2    2.00    1.30
   1   6   2    0.80    0.80
   2  -6   2   22.90    4.30
  -2  -6  -2   20.40    2.80
  -2  -6  -2   25.10    3.20
   2   6   2   21.20    2.60
   2   6   2   20.20    2.10
  -2   6  -2   20.40    2.50
  -2   6  -2   21.80    2.30
  -3  -6  -2   12.40    2.50
  -3  -6  -2    6.50    2.90
  -3  -6  -2   12.30    2.10
   3  -6   2   11.50    3.80
  -3  -6  -2    7.80    1.80
  -3  -6  -2   12.30    2.80
   3   6   2   12.70    2.10
  -3   6  -2   10.80    1.50
  -4  -6  -2  190.58   15.00
  -4  -6  -2  220.48   14.20
  -4  -6  -2  223.88   14.00
  -4  -6  -2  229.28   13.70
   4  -6   2  210.58   15.60
  -4   6  -2  210.08   13.40
   4   6   2  238.28   13.70
   5  -6   2   27.70    6.50
  -5  -6  -2   30.10    3.30
  -5  -6  -2   35.00    4.50
  -5  -6  -2   34.90    3.80
  -5   6  -2   31.30    3.10
  -5   6  -2   34.30    3.00
   6  -6   2    8.40   11.00
  -6  -6  -2    1.20    1.70
  -6  -6  -2    4.10    2.90
  -6  -6  -2   -1.70    4.50
  -5  -7   2    2.10    2.20
  -5  -7   2    2.40    2.80
   5  -7  -2   -2.80    6.10
  -5  -7   2    4.20    6.00
  -5   7   2    1.70    1.50
  -4  -7   2    0.60    2.10
  -4  -7   2    2.50    6.10
   4  -7  -2    4.50    4.60
  -4  -7   2    2.00    3.70
  -4  -7   2    5.00    2.40
  -4   7   2    1.00    1.70
  -4   7   2    0.30    1.10
  -3  -7   2   -1.60    3.70
  -3  -7   2    4.00    2.10
   3  -7  -2   -2.70    3.50
  -3  -7   2    7.30    5.20
  -3  -7   2   -0.80    2.10
  -3  -7   2    2.80    2.70
  -3   7   2    0.50    1.60
  -3   7   2    0.60    1.00
  -2  -7   2  378.86   22.40
  -2  -7   2  297.77   22.20
   2  -7  -2  416.56   23.10
  -2   7   2  362.56   21.70
  -2   7   2  353.06   21.80
  -2   7   2  359.86   21.90
   1  -7  -2    5.90    3.50
  -1  -7   2    1.00    3.30
   1  -7  -2    7.00    3.50
   1   7  -2    4.70    1.10
   1   7  -2    4.70    1.80
  -1   7   2    1.60    0.90
  -1   7   2    6.80    1.60
   0  -7  -2   10.30    4.10
   0  -7   2    8.70    5.30
   0  -7   2    0.40    3.50
   0  -7  -2   11.20    3.10
   0   7  -2    6.30    1.70
   0   7   2    6.90    1.00
   0   7   2    5.90    1.60
   1  -7   2   -1.90    4.40
   1  -7   2    7.30    4.40
  -1  -7  -2    4.20    3.00
  -1  -7  -2    7.20    2.90
  -1   7  -2    5.70    1.60
  -1   7  -2    5.40    1.50
   1   7   2    5.30    1.00
  -2  -7  -2    1.90    2.60
  -2  -7  -2   -0.60    2.90
  -2  -7  -2    0.70    3.70
   2  -7   2    5.80    4.40
  -2   7  -2    1.60    1.30
   2   7   2   -0.70    1.30
   2   7   2    3.00    1.60
  -3  -7  -2   66.39    5.30
   3  -7   2   76.69    8.20
  -3  -7  -2   60.79    6.20
  -3  -7  -2   54.49    7.30
  -3  -7  -2   64.89    7.10
  -3  -7  -2   62.19    5.30
  -3   7  -2   62.49    4.70
   3   7   2   67.49    5.00
  -4  -7  -2    6.30    2.10
   4  -7   2    8.30    5.90
  -4  -7  -2    4.20    4.70
  -4  -7  -2    6.80    2.40
  -4  -7  -2    7.10    4.20
  -4   7  -2    5.80    1.30
  -4   7  -2   10.20    1.80
   4   7   2   10.50    2.40
  -5  -7  -2    5.10    2.10
   5  -7   2   10.10    7.40
  -5  -7  -2   -0.20    5.30
  -5  -7  -2    0.90    2.50
  -5   7  -2    1.60    1.40
  -4  -8   2    7.20    4.20
  -4  -8   2    6.30    2.70
   4  -8  -2    8.90    6.30
  -4  -8   2    3.40    2.30
  -4   8   2    7.50    1.30
  -3  -8   2   34.60    4.10
   3  -8  -2   35.00    9.30
  -3  -8   2   38.10    4.20
  -3   8   2   33.80    3.80
  -3   8   2   35.60    2.80
  -2  -8   2    3.60    4.10
  -2  -8   2    1.90    2.70
   2  -8  -2    0.80    4.60
  -2   8   2    0.30    1.70
  -2   8   2    1.10    1.00
  -2   8   2   -0.50    1.40
  -1  -8   2    7.60    4.10
   1  -8  -2    6.30    5.20
   1  -8  -2    3.00    5.10
  -1  -8   2    8.30    2.60
   1   8  -2    6.90    2.20
   1   8  -2    7.20    1.30
  -1   8   2    5.90    1.50
  -1   8   2    9.00    1.40
   0  -8  -2   15.80    4.30
   0  -8   2    5.20    7.90
   0  -8   2   14.80    5.00
   0   8  -2   17.80    2.10
   0   8  -2   19.90    2.30
   0   8  -2   16.80    2.30
   0   8   2   17.20    2.20
   0   8   2   21.80    2.00
  -1  -8  -2    4.10    3.80
   1  -8   2    1.20    6.00
   1   8   2    2.00    1.10
  -1   8  -2    0.40    1.60
  -1   8  -2    1.50    1.00
  -1   8  -2    0.60    2.10
   1   8   2    4.20    1.70
   2  -8   2    2.60    5.40
  -2  -8  -2    6.00    4.00
  -2  -8  -2    7.30    2.40
  -2  -8  -2    6.50    2.80
   2   8   2    6.60    1.90
  -2   8  -2    7.30    1.80
  -2   8  -2    8.00    1.30
  -3  -8  -2    2.50    2.30
  -3  -8  -2    0.00    3.30
  -3  -8  -2   -2.00    2.60
   3  -8   2   -6.60    6.00
  -3  -8  -2   -0.10    4.30
  -3   8  -2   -0.10    1.70
  -3   8  -2    0.90    1.00
   3   8   2    0.00    2.30
   4  -8   2    5.50    7.30
  -4  -8  -2   10.20    2.60
  -4  -8  -2   14.60    4.10
  -4   8  -2    8.40    2.40
  -2  -9   2   -0.50    2.80
  -2  -9   2    1.60    2.40
   2  -9  -2   -1.90    6.90
  -2   9   2    4.20    1.10
  -1  -9   2  110.99    8.10
  -1   9   2  101.39    7.40
  -1   9   2  108.79    6.80
   1   9  -2  109.69    7.70
  -1   9   2  108.69    7.20
   0  -9  -2    5.50    5.80
   0  -9   2    6.60    2.70
   0   9  -2   -0.80    1.20
   0   9   2   -0.30    1.70
   0   9  -2    2.60    2.10
   0   9   2    0.50    1.10
   0   9   2   -0.20    2.30
   1  -9   2    6.60   10.40
  -1  -9  -2    5.30    5.20
  -1  -9  -2    6.60    2.70
  -1   9  -2    6.00    2.00
  -1   9  -2    3.00    1.20
   1   9   2    4.30    1.60
   1   9   2    5.70    2.10
   2  -9   2   19.30    8.40
  -2  -9  -2   17.30    2.70
  -2  -9  -2    9.90    5.00
  -2  -9  -2   17.30    3.50
   2   9   2   24.00    2.80
  -2   9  -2   18.50    2.10
  -8   0   3    2.00    3.70
  -8   0   3    1.30    2.20
  -7   0   3    0.60    1.90
  -7   0   3    0.80    5.80
  -7   0   3    1.80    3.10
  -6   0   3   -2.50    4.20
  -6   0   3    1.80    6.10
  -6   0   3   -0.50    1.20
  -6   0   3    1.00    1.60
  -6   0   3   -1.60    2.50
  -5   0   3   -0.40    1.30
  -5   0   3    0.90    3.30
  -5   0   3    0.70    2.10
  -5   0   3   -0.10    0.90
  -5   0   3   -4.50    5.00
  -5   0   3    1.00    3.40
  -5   0   3   -3.40    2.00
  -4   0   3   -0.50    1.10
  -4   0   3   -3.10    2.60
  -4   0   3    0.60    0.70
  -4   0   3    1.20    1.10
  -4   0   3    1.40    2.60
  -4   0   3    1.20    2.00
  -4   0   3   -3.00    3.00
  -4   0   3   -0.20    2.40
  -4   0   3    0.20    1.70
  -3   0   3   -1.10    1.50
  -3   0   3   -1.30    0.50
  -3   0   3   -5.00    2.10
  -3   0   3   -2.20    1.30
  -3   0   3    1.60    2.10
  -3   0   3   -0.70    1.00
  -3   0   3    0.10    0.40
  -3   0   3   -1.80    1.50
  -2   0   3    0.30    0.50
  -2   0   3   -1.20    1.20
   2   0  -3   -0.30    0.20
  -1   0   3    0.20    1.80
   1   0  -3    0.00    0.20
   1   0  -3   -0.10    1.60
   0   0   3   -0.10    2.10
   0   0  -3    4.70    2.40
   0   0  -3    0.00    0.20
   0   0   3   -0.10    0.20
  -1   0  -3    4.80    3.60
   1   0   3    2.50    3.20
  -2   0  -3    0.40    0.30
   2   0   3   -0.70    4.30
  -2   0  -3    0.20    0.30
  -2   0  -3   -3.30    4.70
  -3   0  -3    0.40    0.60
  -3   0  -3   -0.20    0.40
  -3   0  -3    0.20    1.10
  -3   0  -3    1.30    2.70
  -3   0  -3   -1.50    1.50
  -3   0  -3   -0.70    0.90
  -4   0  -3    2.50    1.60
  -4   0  -3    0.00    1.40
  -4   0  -3   -0.30    0.70
  -4   0  -3   -2.00    3.00
  -4   0  -3   -0.60    0.50
  -4   0  -3   -0.10    1.20
  -5   0  -3    0.00    2.00
  -5   0  -3    0.00    0.90
  -5   0  -3   -1.10    1.70
  -5   0  -3    0.50    0.80
  -5   0  -3   -1.90    1.40
  -6   0  -3   -3.00    2.70
  -6   0  -3   -1.00    1.70
  -6   0  -3    1.40    1.30
  -6   0  -3   -1.00    1.10
  -7   0  -3   -1.30    2.00
  -7   0  -3   -4.40    2.80
  -7   0  -3    0.00    1.30
  -8   0  -3   -1.90    2.10
  -8   0  -3   -3.20    2.80
  -8  -1   3   54.19    6.20
  -8  -1   3   46.80    5.40
  -8   1   3   44.20    6.30
  -8   1   3   51.99    4.60
  -7  -1   3   26.40    6.90
  -7  -1   3   38.20    9.70
  -7  -1   3   22.20    2.90
  -7  -1   3   43.10    5.30
  -7   1   3   39.90    5.20
  -7   1   3   26.70    2.90
  -6  -1   3    8.90    4.60
  -6  -1   3    4.60    1.70
  -6  -1   3    1.20    1.90
  -6  -1   3    2.10    2.60
  -6  -1   3    2.30    1.40
  -6  -1   3    3.30    4.50
  -6   1   3    1.30    1.90
  -6   1   3   -0.60    2.50
  -6   1   3    2.60    1.10
  -6   1   3    3.40    5.40
  -5  -1   3    2.40    2.00
  -5  -1   3    2.90    1.10
  -5  -1   3    3.40    3.20
  -5  -1   3    0.40    1.40
  -5  -1   3    4.20    4.00
  -5  -1   3    3.30    2.80
  -5  -1   3    3.20    1.30
  -5   1   3    3.50    2.10
  -5   1   3    1.70    1.00
  -5   1   3    1.10    1.40
  -5   1   3    3.50    5.40
  -5   1   3    5.00    3.90
  -4  -1   3   15.80    2.90
  -4  -1   3   18.20    2.30
  -4  -1   3   16.40    1.80
  -4  -1   3   16.40    3.00
  -4  -1   3   17.60    1.90
  -4  -1   3   16.70    2.80
  -4  -1   3   15.20    2.50
  -4  -1   3   14.00    2.20
  -4  -1   3   17.90    1.70
  -4   1   3   13.60    1.50
  -4   1   3   17.20    1.60
  -4   1   3   14.70    1.60
  -4   1   3   16.60    3.40
  -4   1   3   11.20    3.20
  -4   1   3   16.80    4.00
  -4   1   3   14.60    2.20
  -3  -1   3 1025.40   56.89
  -3  -1   3  970.10   56.69
  -3  -1   3  999.30   56.99
  -3  -1   3  900.81   57.09
  -3  -1   3  956.40   57.19
  -3  -1   3  917.81   56.89
  -3  -1   3 1018.50   56.99
  -3   1   3  856.81   56.59
  -3   1   3  942.41   56.79
  -3   1   3  977.80   57.29
  -3   1   3  905.71   56.89
  -3   1   3 1006.40   56.69
  -2  -1   3  177.28   10.80
   2  -1  -3  187.58   11.40
  -2  -1   3  175.18   10.60
  -2  -1   3  175.58   12.40
   2  -1  -3  176.28   10.50
   2  -1  -3  188.88   12.50
  -2  -1   3  174.08   11.50
  -2   1   3  176.58   10.50
  -2   1   3  176.78   10.60
  -2   1   3  160.88   10.50
   1  -1  -3  344.47   21.00
  -1  -1   3  347.67   20.90
   1  -1  -3  313.57   19.90
  -1   1   3  332.67   19.90
  -1   1   3  340.27   20.90
   0  -1   3   -3.30    2.80
   0  -1  -3   -0.50    0.30
   0  -1  -3   -3.50    3.10
   0   1  -3    2.20    2.80
   0   1   3   -0.30    2.50
   0   1   3   -0.60    0.30
  -1  -1  -3    6.80    0.60
   1  -1   3   12.50    4.10
  -1  -1  -3    7.20    0.60
  -1  -1  -3    0.40    3.90
   1   1   3    7.30    3.70
  -1   1  -3    5.20    0.70
  -1   1  -3    9.10    3.80
   1   1   3    6.70    0.60
   2  -1   3    1.80    4.90
   2  -1   3   13.90    2.10
  -2  -1  -3   12.90    1.00
  -2  -1  -3   11.80    1.00
  -2  -1  -3   12.70    6.10
  -2   1  -3   13.30    1.00
   2   1   3   14.00    0.90
  -2   1  -3   15.30    5.40
   2   1   3   11.00    4.80
  -2   1  -3   13.90    1.00
  -3  -1  -3    3.00    2.70
  -3  -1  -3    3.50    0.70
  -3  -1  -3    3.60    1.00
  -3  -1  -3    3.10    0.50
  -3  -1  -3    5.40    1.60
   3  -1   3    6.40    2.30
  -3  -1  -3    1.80    1.30
  -3  -1  -3    6.10    1.40
  -3   1  -3    5.00    1.50
  -3   1  -3    3.50    0.60
  -3   1  -3    3.80    1.10
  -3   1  -3    2.60    1.20
  -4  -1  -3   10.40    1.70
  -4  -1  -3    8.10    2.50
  -4  -1  -3    9.70    1.10
  -4  -1  -3    7.70    3.70
   4  -1   3   13.10    3.90
  -4  -1  -3   10.00    1.50
  -4   1  -3    8.30    1.80
  -4   1  -3   10.00    1.10
  -4   1  -3    9.10    1.10
  -4   1  -3    4.20    2.60
  -4   1  -3    9.70    1.80
  -5  -1  -3   37.40    2.80
  -5  -1  -3   38.20    3.70
  -5  -1  -3   37.80    3.40
  -5  -1  -3   35.30    4.20
  -5  -1  -3   34.80    2.80
  -5   1  -3   34.50    2.70
  -5   1  -3   40.20    4.40
  -5   1  -3   35.50    2.90
  -5   1  -3   46.40    3.40
  -6  -1  -3    3.20    2.60
  -6  -1  -3    2.10    1.80
  -6  -1  -3    4.40    2.70
  -6  -1  -3    3.20    1.20
  -6  -1  -3   -0.30    1.40
  -6   1  -3    1.60    1.80
  -6   1  -3    4.20    2.70
  -6   1  -3    1.20    1.20
  -6   1  -3    1.80    1.10
  -7  -1  -3   17.10    2.60
  -7  -1  -3   20.10    2.10
  -7  -1  -3   16.20    3.40
  -7   1  -3   31.00    3.60
  -7   1  -3   15.20    3.30
  -7   1  -3   18.70    2.10
   7   1   3   17.00    4.10
  -7   1  -3   24.00    3.80
  -8  -1  -3    7.10    2.80
  -8  -1  -3    8.10    2.30
  -8  -1  -3    5.70    2.40
  -8   1  -3   -0.90    3.30
  -8   1  -3    6.10    2.20
  -8  -2   3    4.70    3.60
  -8   2   3    3.40    2.00
  -8   2   3   -2.20    3.50
  -7  -2   3    7.40    2.80
  -7  -2   3    7.60    9.20
  -7  -2   3    9.00    2.50
  -7  -2   3   13.90    3.60
  -7  -2   3    8.60    5.40
  -7   2   3    9.90    2.10
  -7   2   3    9.60    3.20
  -6  -2   3    1.70    3.80
  -6  -2   3    5.30    1.90
  -6  -2   3    6.50    2.70
  -6  -2   3    3.40    2.00
  -6  -2   3    3.50    4.60
  -6  -2   3    4.90    1.80
  -6   2   3    6.10    2.00
  -6   2   3    5.90    1.50
  -6   2   3   -0.40    2.70
   5  -2  -3    3.60    3.80
  -5  -2   3   10.80    2.80
  -5  -2   3    9.20    1.40
  -5  -2   3    6.40    2.20
  -5  -2   3    3.90    3.20
  -5  -2   3   10.10    4.00
  -5  -2   3    6.00    1.70
  -5  -2   3    6.50    1.50
  -5   2   3    4.80    5.00
  -5   2   3    4.20    1.50
  -5   2   3    4.80    2.10
  -5   2   3    3.90    6.10
  -5   2   3    5.40    1.00
  -4  -2   3   -0.40    1.40
  -4  -2   3   -0.70    2.50
  -4  -2   3    2.00    1.60
  -4  -2   3   -1.10    2.30
  -4  -2   3    0.20    0.90
  -4  -2   3   -0.10    1.00
  -4  -2   3   -1.00    1.90
  -4  -2   3    1.00    2.40
  -4   2   3    0.00    0.80
  -4   2   3    0.10    0.70
  -4   2   3   -0.30    4.20
  -4   2   3   -0.40    1.10
  -4   2   3    0.00    4.00
  -3  -2   3   -0.10    0.70
  -3  -2   3   -1.10    1.40
  -3  -2   3    0.80    1.70
  -3  -2   3    1.10    1.40
  -3  -2   3   -0.40    1.80
  -3  -2   3   -0.60    1.20
  -3  -2   3    0.50    0.80
  -3  -2   3   -1.00    1.10
  -3   2   3    0.10    0.50
  -3   2   3   -0.50    1.00
  -3   2   3    0.90    0.60
  -3   2   3   -0.20    0.60
  -3   2   3    2.20    1.60
   3   2  -3    0.40    0.60
  -3   2   3    1.50    2.90
  -2  -2   3   36.00    2.30
   2  -2  -3   31.60    2.50
  -2  -2   3   33.80    2.80
  -2  -2   3   34.90    3.20
   2  -2  -3   36.90    6.00
   2  -2  -3   34.50    2.30
  -2  -2   3   49.20    6.10
  -2   2   3   35.30    2.30
  -2   2   3   38.40    5.00
  -2   2   3   33.70    2.20
   1  -2  -3  185.38   12.10
  -1  -2   3  168.18   12.40
   1  -2  -3  224.58   14.80
   1  -2  -3  203.38   12.10
  -1  -2   3  224.48   14.50
  -1  -2   3  201.78   12.30
  -1   2   3  220.08   12.00
   0  -2  -3  412.96   24.80
   0  -2   3  464.05   26.80
   0  -2  -3  418.36   27.30
   0  -2  -3  382.56   24.80
   0  -2   3  403.26   25.20
   0   2   3  420.56   26.90
   0   2   3  432.16   24.80
  -1  -2  -3  324.67   23.90
  -1  -2  -3  333.87   20.70
  -1  -2  -3  329.17   20.80
   1  -2   3  384.46   21.10
   1  -2   3  358.16   23.40
   1   2   3  354.16   20.70
  -1   2  -3  376.96   23.60
  -1   2  -3  329.87   20.70
   1   2   3  345.07   23.40
  -2  -2  -3    2.80    0.50
  -2  -2  -3    3.10    0.60
   2  -2   3    2.10    6.40
  -2  -2  -3    3.20    0.90
  -2  -2  -3    2.40    0.80
  -2  -2  -3    6.40    7.40
   2  -2   3    2.60    1.80
  -2   2  -3    2.20    6.80
  -2   2  -3    2.00    0.50
   2   2   3    1.80    0.50
   2   2   3    3.20    6.30
  -3  -2  -3  738.13   42.70
  -3  -2  -3  734.83   42.70
  -3  -2  -3  684.93   42.60
  -3  -2  -3  738.03   42.50
  -3  -2  -3  724.23   42.40
  -3   2  -3  696.93   42.70
   3   2   3  731.83   42.40
  -3   2  -3  670.63   42.40
  -3   2  -3  744.53   42.50
  -3   2  -3  683.73   42.50
  -4  -2  -3    6.30    0.90
  -4  -2  -3    1.50    3.40
  -4  -2  -3    5.90    1.90
  -4  -2  -3    3.10    3.40
   4  -2   3    8.40    3.10
  -4  -2  -3    6.60    0.90
  -4  -2  -3    7.30    1.50
  -4   2  -3    6.20    0.80
  -4   2  -3    5.90    1.40
  -4   2  -3    5.90    1.90
  -5  -2  -3  151.88    9.70
  -5  -2  -3  158.38    9.70
  -5  -2  -3  158.48   10.00
  -5  -2  -3  175.28   10.50
  -5  -2  -3  157.68   10.30
   5  -2   3  114.59   13.50
  -5   2  -3  165.88   10.50
  -5   2  -3  154.08    9.70
  -5   2  -3  157.58   10.00
  -5   2  -3  157.58    9.60
  -6  -2  -3    6.00    2.50
  -6  -2  -3    8.70    2.30
  -6  -2  -3    3.70    1.90
   6   2   3    4.90    3.20
  -6   2  -3    2.00    1.30
  -6   2  -3    3.50    1.40
  -7  -2  -3    3.40    4.80
  -7  -2  -3    0.30    1.30
  -7  -2  -3    3.00    3.10
  -7  -2  -3   -0.70    2.10
  -7   2  -3   -1.00    2.90
   7   2   3   -0.40    3.50
  -7   2  -3    4.10    2.20
  -7  -3   3   18.00    6.10
  -7  -3   3   34.40    4.20
  -7  -3   3   41.80    8.50
  -7  -3   3   21.70    4.00
  -7   3   3   31.30    3.70
  -7   3   3   28.90    3.90
  -6  -3   3   31.30    5.10
  -6  -3   3   24.50    2.80
  -6  -3   3   20.00    5.50
  -6  -3   3   28.80    3.80
  -6   3   3   26.70    3.50
  -6   3   3   25.80    3.50
  -5  -3   3    8.00    4.00
  -5  -3   3    6.70    2.80
  -5  -3   3    4.10    2.20
  -5  -3   3    4.20    1.50
   5  -3  -3    6.30    3.80
  -5  -3   3    2.40    3.50
  -5   3   3    4.50    2.20
  -5   3   3    3.70    1.60
  -5   3   3   13.60    7.60
  -5   3   3    5.90    1.40
  -4  -3   3    4.00    2.40
  -4  -3   3    6.00    2.50
  -4  -3   3    2.10    3.00
  -4  -3   3    7.60    2.00
  -4  -3   3    5.10    1.30
  -4  -3   3    3.60    1.80
  -4  -3   3    3.70    2.60
  -4   3   3    4.50    1.10
  -4   3   3    2.50    4.60
  -4   3   3    6.10    1.00
  -4   3   3    5.80    1.80
  -4   3   3    3.80    1.40
  -4   3   3    5.00    1.00
  -3  -3   3  388.16   22.20
  -3  -3   3  376.26   21.80
  -3  -3   3  354.16   22.10
  -3  -3   3  352.96   22.30
  -3  -3   3  363.56   22.40
  -3  -3   3  360.46   22.10
  -3  -3   3  338.57   21.60
  -3  -3   3  365.96   21.90
  -3   3   3  384.56   22.00
  -3   3   3  350.96   21.80
  -3   3   3  385.36   21.80
  -3   3   3  356.76   21.70
  -3   3   3  363.66   21.70
  -3   3   3  333.57   21.70
  -3   3   3  368.96   23.10
  -3   3   3  349.96   21.60
   3   3  -3  380.96   21.70
  -2  -3   3 1148.69   78.69
  -2  -3   3 1251.57   78.19
  -2  -3   3 1371.56   78.59
   2  -3  -3 1260.87   78.29
  -2  -3   3 1373.86   78.59
  -2  -3   3 1354.06   78.49
  -2  -3   3 1335.77   78.49
  -2  -3   3 1394.96   78.39
  -2  -3   3 1268.27   78.59
  -2   3   3 1298.17   78.49
  -2   3   3 1331.37   78.29
  -2   3   3 1359.66   78.29
  -2   3   3 1280.97   78.29
  -2   3   3 1316.57   79.09
  -2   3   3 1348.07   78.39
   2   3  -3 1444.76   78.29
  -1  -3   3  122.89    7.80
   1  -3  -3  126.89    7.60
  -1  -3   3  119.99    8.10
  -1  -3   3  121.99   13.30
  -1  -3   3  115.89    8.90
  -1  -3   3  124.39    7.90
   1  -3  -3  129.09    7.60
  -1   3   3  125.59    7.70
  -1   3   3  133.69    7.60
  -1   3   3  125.89    9.20
  -1   3   3  117.09    7.50
   0  -3   3   90.49    6.20
   0  -3   3   76.29    5.90
   0  -3   3   78.09   11.70
   0  -3   3   82.59   11.20
   0  -3  -3   87.09    5.30
   0  -3  -3   84.09    5.30
   0  -3  -3   93.29   13.80
   0   3   3   92.59   11.20
   0   3   3   81.69    5.40
   0   3   3   87.39    5.20
   1  -3   3   10.10    7.20
  -1  -3  -3   21.90    9.00
   1  -3   3   26.20    3.10
  -1  -3  -3   24.30    2.00
   1  -3   3   32.40    7.60
   1  -3   3   23.10    2.70
  -1  -3  -3   24.20    1.90
  -1  -3  -3   23.50    2.00
   1   3   3   24.00    1.80
   1   3   3   21.80    2.30
   1   3   3   16.90    7.20
  -1   3  -3   22.30    1.90
  -1   3  -3   21.50    2.80
  -2  -3  -3    1.00    1.00
   2  -3   3    0.50    2.00
  -2  -3  -3    1.40    0.70
  -2  -3  -3    1.10    0.90
   2   3   3    2.30    1.30
  -2   3  -3    1.00    0.60
  -2   3  -3    0.40    1.40
  -3  -3  -3  155.28    9.90
  -3  -3  -3  155.08    9.70
  -3  -3  -3  141.29    9.80
   3  -3   3  181.08   10.60
  -3  -3  -3  154.28    9.70
  -3  -3  -3  160.38    9.50
  -3   3  -3  157.18    9.50
  -3   3  -3  157.98    9.90
  -3   3  -3  147.29    9.50
  -3   3  -3  161.48    9.70
   3   3   3  148.19    9.50
  -4  -3  -3  149.79    9.50
   4  -3   3  147.39   10.70
  -4  -3  -3  138.59    9.50
  -4  -3  -3  148.09   10.20
  -4  -3  -3  142.09    9.40
  -4  -3  -3  153.98    9.10
  -4   3  -3  149.09    9.00
  -4   3  -3  144.79    9.30
  -4   3  -3  146.19    9.60
   4   3   3  151.08    9.80
   5  -3   3   62.69    8.60
  -5   3  -3   40.00    4.60
  -5   3  -3   40.60    3.20
  -5   3  -3   39.60    3.00
  -5   3  -3   39.80    3.80
   5   3   3   51.89    5.00
  -6  -3  -3    4.70    2.70
  -6  -3  -3    2.70    1.20
  -6  -3  -3    3.00    2.40
  -6   3  -3    0.20    1.30
  -6   3  -3    0.90    2.00
   6   3   3    1.20    2.80
  -6   3  -3    2.40    2.70
  -6   3  -3    2.10    1.50
  -7  -3  -3    5.40    2.80
  -7  -3  -3    3.30    1.50
  -7  -3  -3    1.90    2.80
  -7  -3  -3    3.30    4.60
  -7   3  -3    3.70    2.80
  -7   3  -3    9.10    2.30
  -7  -4   3   -0.10    3.20
  -7  -4   3   -1.60    6.00
  -7  -4   3    0.60    3.30
  -7  -4   3   -1.90    7.00
  -7   4   3    2.30    2.00
  -7   4   3    3.60    2.90
  -6  -4   3   -0.30    4.80
  -6  -4   3   -0.50    1.90
   6  -4  -3    0.00    6.40
  -6  -4   3    0.80    3.00
  -6  -4   3    3.00    3.80
  -6   4   3   -3.10    2.40
  -6   4   3    1.40    1.90
   5  -4  -3    9.00    3.90
  -5  -4   3   14.80    4.50
  -5  -4   3    9.30    2.60
  -5  -4   3    6.70    4.20
  -5  -4   3   12.20    1.90
  -5  -4   3   12.30    3.20
  -5   4   3   10.80    1.90
  -5   4   3   14.70    2.60
  -4  -4   3    1.70    2.50
  -4  -4   3    4.40    3.10
  -4  -4   3    6.30    2.30
  -4  -4   3    4.40    1.40
  -4  -4   3    5.10    1.90
  -4   4   3    1.20    1.10
  -4   4   3    3.90    1.20
  -4   4   3    0.80    0.90
  -4   4   3    7.50    1.90
  -4   4   3    2.80    1.40
  -3  -4   3   37.70    4.90
  -3  -4   3   42.00    3.50
  -3  -4   3   32.20    3.70
  -3  -4   3   38.90    4.10
  -3  -4   3   42.70    4.00
  -3  -4   3   30.60    3.90
  -3  -4   3   44.70    3.30
  -3  -4   3   43.80    4.10
  -3   4   3   33.10    3.40
  -3   4   3   41.00    3.00
  -3   4   3   38.80    2.90
  -3   4   3   41.10    3.60
  -3   4   3   38.60    2.80
   3   4  -3   42.90    3.90
  -3   4   3   41.00    3.20
  -3   4   3   39.30    2.80
  -2  -4   3   67.69    5.90
  -2  -4   3   60.09    5.00
   2  -4  -3   65.19    4.50
  -2  -4   3   68.49    5.00
  -2  -4   3   57.89    5.40
  -2  -4   3   69.59    5.50
  -2  -4   3   64.99    4.50
   2   4  -3   65.59    4.40
  -2   4   3   63.79    4.30
  -2   4   3   63.79    4.30
  -2   4   3   64.39    4.30
  -2   4   3   62.69    4.30
   2   4  -3   67.69    4.60
  -1  -4   3  313.27   19.80
  -1  -4   3  299.17   19.90
   1  -4  -3  326.57   19.50
  -1  -4   3  335.67   20.50
  -1  -4   3  320.27   19.80
  -1  -4   3  322.87   19.70
  -1   4   3  321.97   19.60
   1   4  -3  320.67   19.50
  -1   4   3  335.37   19.40
   1   4  -3  340.07   19.50
  -1   4   3  332.47   19.50
   0  -4   3  178.28   12.10
   0  -4  -3  197.38   10.70
   0  -4  -3  172.68   10.70
   0  -4   3  173.18   10.70
   0  -4   3  140.59   10.90
   0  -4   3  166.28   10.90
   0  -4   3  157.78   11.10
   0   4   3  181.78   10.60
   0   4   3  173.48   10.40
   0   4   3  180.08   10.50
   0   4  -3  181.78   10.60
  -1  -4  -3    5.50    1.30
  -1  -4  -3    6.00    1.30
   1  -4   3    5.80    2.30
   1  -4   3    5.60    2.10
   1   4   3    6.60    0.80
  -1   4  -3    5.70    1.30
   1   4   3    4.30    0.90
  -1   4  -3    5.80    1.10
   1   4   3    2.80    1.10
  -2  -4  -3  141.79    8.60
  -2  -4  -3  142.69    8.80
   2  -4   3  161.68    9.60
  -2  -4  -3  144.89    8.90
   2   4   3  131.99    8.60
   2   4   3  128.99    8.40
  -2   4  -3  142.69    8.60
  -2   4  -3  139.39    8.50
   2   4   3  135.39    8.80
  -2   4  -3  127.59    8.70
  -2   4  -3  136.89    8.80
  -3  -4  -3    6.00    1.10
  -3  -4  -3    6.00    3.80
  -3  -4  -3    3.70    1.90
  -3  -4  -3    2.30    2.40
  -3  -4  -3    6.80    1.50
  -3  -4  -3    7.00    1.50
   3  -4   3    5.10    2.90
  -3   4  -3    5.60    1.00
  -3   4  -3    7.10    1.70
  -3   4  -3    5.20    1.90
   3   4   3    5.70    1.70
   3   4   3    6.90    2.20
  -3   4  -3    7.40    1.70
   4  -4   3 1456.85   83.49
  -4  -4  -3 1430.26   82.69
  -4  -4  -3 1376.86   82.69
  -4  -4  -3 1419.46   82.39
  -4  -4  -3 1308.57   82.89
   4   4   3 1440.56   82.69
  -4   4  -3 1352.76   82.59
  -4   4  -3 1376.16   82.29
  -4   4  -3 1324.77   82.39
   5  -4   3    6.90    5.30
  -5  -4  -3    8.30    2.30
  -5  -4  -3   12.20    5.20
  -5  -4  -3   10.10    2.60
  -5  -4  -3    9.20    1.60
  -5   4  -3   11.50    2.60
  -5   4  -3    9.40    1.40
  -5   4  -3   10.80    1.60
   5   4   3    7.50    3.20
  -5   4  -3   10.70    2.20
  -6  -4  -3    5.40    1.50
  -6  -4  -3    7.80    2.90
  -6  -4  -3    7.30    2.90
  -6   4  -3    5.40    2.70
   6   4   3    7.60    3.00
  -6   4  -3    5.90    2.40
  -6   4  -3    7.20    1.70
  -7  -4  -3   -1.70    2.70
  -7  -4  -3   -1.20    4.20
  -7  -4  -3    0.50    1.60
  -7   4  -3    1.20    2.80
  -7  -5   3   11.20    3.70
  -7  -5   3   21.80    3.20
  -7  -5   3   19.30   10.10
  -6  -5   3    8.30    2.20
  -6  -5   3    3.80    6.10
  -6  -5   3    6.90    3.30
   6  -5  -3    8.50    6.90
  -6   5   3    6.20    2.20
  -5  -5   3   -4.40    4.30
  -5  -5   3    5.90    2.70
  -5  -5   3    3.90    1.70
  -5  -5   3    3.80    5.10
  -5  -5   3    1.80    3.50
   5  -5  -3    5.50    4.20
  -5   5   3    1.00    1.50
  -5   5   3    2.70    1.90
  -4  -5   3    0.30    1.50
   4  -5  -3    2.50    3.20
  -4  -5   3   -3.10    2.90
  -4  -5   3    3.50    4.10
  -4  -5   3    2.40    2.70
  -4  -5   3    2.30    2.00
  -4   5   3    1.50    1.50
  -4   5   3   -1.10    0.90
  -4   5   3   -0.90    1.20
  -3  -5   3   54.19    5.10
  -3  -5   3   60.39    4.40
  -3  -5   3   45.40    6.60
  -3  -5   3   60.89    4.40
  -3  -5   3   40.30    5.80
  -3  -5   3   56.69    5.50
  -3   5   3   55.49    3.70
  -3   5   3   50.49    4.20
  -3   5   3   55.19    3.80
  -3   5   3   55.79    4.00
  -2  -5   3 1812.42  116.29
   2  -5  -3 2064.79  115.99
  -2  -5   3 1955.40  116.29
  -2  -5   3 2136.59  116.19
  -2  -5   3 2031.50  116.09
  -2  -5   3 1845.72  116.19
  -2  -5   3 1767.42  116.29
  -2  -5   3 1673.03  116.39
  -2   5   3 2039.10  115.79
   2   5  -3 2103.39  115.89
  -2   5   3 1925.51  115.79
  -2   5   3 2086.19  115.99
  -1  -5   3   39.70    4.40
  -1  -5   3   41.50    5.20
  -1  -5   3   28.60    3.80
  -1  -5   3   34.60    5.00
   1  -5  -3   37.80    3.30
  -1  -5   3   40.80    3.90
  -1  -5   3   32.60    4.40
  -1   5   3   37.90    2.60
  -1   5   3   36.80    2.80
   1   5  -3   36.10    3.10
   0  -5   3   15.90    3.50
   0  -5   3   12.60    3.20
   0  -5  -3   22.60    2.90
   0  -5   3   19.60    2.90
   0  -5  -3   15.90    2.00
   0  -5   3   15.20    2.80
   0   5  -3   18.90    2.20
   0   5   3   15.90    1.90
   0   5   3   16.10    1.50
  -1  -5  -3   52.59    4.00
   1  -5   3   54.09    5.30
  -1  -5  -3   47.40    4.00
   1  -5   3   34.00    4.40
  -1  -5  -3   50.69    4.00
  -1   5  -3   50.19    3.50
   1   5   3   47.40    3.60
   1   5   3   47.00    3.10
  -2  -5  -3   36.40    3.80
  -2  -5  -3   39.60    3.30
  -2  -5  -3   35.30    3.40
   2  -5   3   43.80    5.10
   2   5   3   38.10    2.70
  -2   5  -3   38.40    2.90
   2   5   3   37.90    3.30
  -2   5  -3   39.90    3.10
  -3  -5  -3  386.26   24.50
  -3  -5  -3  405.66   24.60
  -3  -5  -3  409.46   24.40
   3  -5   3  434.26   25.60
  -3  -5  -3  416.46   25.00
  -3  -5  -3  369.36   24.70
   3   5   3  409.66   24.50
  -3   5  -3  408.86   24.30
  -3   5  -3  402.96   24.60
  -4  -5  -3   -1.70    3.20
  -4  -5  -3    0.50    1.30
  -4  -5  -3    1.30    1.90
   4  -5   3   -2.90    4.10
  -4  -5  -3    0.00    1.90
  -4   5  -3    0.80    1.00
  -4   5  -3   -0.10    2.30
  -4   5  -3   -0.80    1.80
   4   5   3   -1.60    1.90
  -5  -5  -3   17.80    3.10
  -5  -5  -3   27.50    3.30
   5  -5   3   22.80    6.00
  -5  -5  -3   22.60    2.70
  -5  -5  -3   14.90    5.40
  -5   5  -3   25.50    2.40
  -5   5  -3   13.20    2.80
  -5   5  -3   22.10    3.20
   5   5   3   24.00    2.90
  -6  -5  -3    2.90    2.80
  -6  -5  -3   -0.70    3.30
  -6  -5  -3    5.10    1.60
   6  -5   3    6.50   10.70
  -6   5  -3   -6.00    2.70
  -6   5  -3    3.40    1.80
  -6   5  -3    3.70    2.40
  -6  -6   3    8.60    2.60
  -6  -6   3    0.30    5.70
   6  -6  -3   15.80    8.10
  -6   6   3   11.30    2.90
  -5  -6   3    5.30    4.50
  -5  -6   3   -0.30    2.10
  -5  -6   3    7.80    7.10
   5  -6  -3   -6.80    4.30
  -5  -6   3   -0.70    2.70
  -5  -6   3    9.30    5.30
  -5   6   3   -1.70    1.40
  -5   6   3    1.70    2.30
  -4  -6   3   66.19    7.00
  -4  -6   3   61.29    9.10
  -4  -6   3   67.29    5.50
  -4  -6   3   79.99    5.80
   4  -6  -3   91.49    7.50
  -4  -6   3   58.59    7.60
  -4   6   3   66.99    4.60
  -4   6   3   68.39    6.60
  -4   6   3   62.49    4.90
  -3  -6   3   61.29    4.90
   3  -6  -3   81.09    6.70
  -3  -6   3   62.59    6.70
  -3  -6   3   61.79    5.90
  -3  -6   3   47.60    6.60
  -3  -6   3   60.59    5.30
  -3   6   3   61.99    4.50
  -3   6   3   64.59    4.20
  -3   6   3   58.79    4.40
  -2  -6   3  348.07   20.50
  -2  -6   3  291.67   21.00
   2  -6  -3  344.77   20.60
  -2  -6   3  299.77   20.40
  -2   6   3  338.77   20.10
  -2   6   3  355.86   19.90
   1  -6  -3   27.30    3.60
  -1  -6   3   25.80    6.00
  -1  -6   3   19.50    3.60
  -1  -6   3   24.10    3.10
  -1   6   3   30.20    2.60
  -1   6   3   23.90    2.10
   1   6  -3   27.80    2.90
   0  -6   3    6.30    3.10
   0  -6  -3    8.50    3.30
   0  -6  -3   14.90    3.20
   0  -6  -3    6.40    2.20
   0  -6   3   12.00    4.30
   0   6   3    6.10    1.30
   0   6  -3    8.10    1.50
   0   6   3    9.60    1.00
  -1  -6  -3    5.00    2.30
   1  -6   3    3.40    3.60
  -1  -6  -3    2.10    2.10
   1  -6   3   -3.20    3.60
  -1  -6  -3   -0.70    2.30
  -1   6  -3    0.10    1.10
  -1   6  -3    0.80    1.20
   1   6   3    0.90    1.20
   1   6   3   -0.20    0.70
  -2  -6  -3    3.60    2.20
  -2  -6  -3    6.70    1.90
  -2  -6  -3    2.50    2.40
   2   6   3    2.40    1.00
   2   6   3    2.70    1.50
  -2   6  -3    2.20    1.10
  -3  -6  -3  229.68   14.10
   3  -6   3  219.08   15.60
  -3  -6  -3  217.08   14.50
  -3  -6  -3  229.68   14.30
  -3  -6  -3  220.58   14.00
  -3  -6  -3  216.78   14.80
   3   6   3  236.18   14.00
  -3   6  -3  224.38   13.70
  -4  -6  -3  160.98   10.50
  -4  -6  -3  171.78   11.20
  -4  -6  -3  150.88   12.10
  -4  -6  -3  166.88   10.90
   4  -6   3  161.08   13.00
   4   6   3  166.78   10.60
  -4   6  -3  165.48   10.20
  -5  -6  -3   11.10    3.30
   5  -6   3   13.90    7.30
  -5  -6  -3   10.60    2.00
  -5  -6  -3    8.20    2.80
   5   6   3    8.40    2.60
  -5   6  -3   11.60    1.80
  -5   6  -3   10.10    1.60
  -6  -6  -3    2.50    3.00
  -6  -6  -3    1.00    1.70
   6  -6   3   -4.10   13.50
  -6  -6  -3    3.40    4.40
  -5  -7   3    1.70    6.80
  -5  -7   3    1.90    3.00
   5  -7  -3  -13.50    5.90
  -5  -7   3   -0.90    2.30
  -5   7   3   -0.70    1.40
  -4  -7   3   12.40    2.50
  -4  -7   3   16.40    2.90
  -4  -7   3    7.70    6.10
   4  -7  -3   15.10    4.80
  -4  -7   3   20.20    4.00
  -4   7   3   15.30    2.20
  -4   7   3   11.20    1.50
   3  -7  -3  241.58   14.40
  -3  -7   3  203.78   13.40
  -3  -7   3  205.18   13.00
  -3  -7   3  175.88   16.40
  -3   7   3  204.58   12.40
  -3   7   3  200.08   12.70
  -3   7   3  195.48   12.60
  -2  -7   3    1.30    2.60
  -2  -7   3    1.40    3.50
  -2  -7   3   -0.60    2.30
   2  -7  -3    0.70    3.20
  -2   7   3    0.40    1.20
  -2   7   3   -2.80    1.50
  -2   7   3   -0.10    0.90
   1  -7  -3   12.00    3.50
   1  -7  -3   15.40    3.40
  -1  -7   3   11.10    3.60
  -1   7   3   10.20    1.30
   1   7  -3    8.70    2.10
   0  -7   3    4.20    5.30
   0  -7  -3    2.70    2.70
   0  -7   3    0.20    3.60
   0  -7  -3    3.20    3.90
   0   7   3    4.30    1.50
   0   7   3    5.10    0.90
   0   7  -3    6.20    1.70
  -1  -7  -3   -5.80    3.10
  -1  -7  -3    3.10    2.70
   1  -7   3    4.60    5.00
  -1   7  -3    1.20    1.50
  -1   7  -3    1.60    1.30
   1   7   3    0.30    1.00
  -2  -7  -3   23.20    3.60
   2  -7   3   24.50    4.70
  -2  -7  -3   20.70    3.80
  -2  -7  -3   20.10    3.30
   2   7   3   19.60    1.90
   2   7   3   22.00    2.80
  -2   7  -3   19.80    2.50
  -3  -7  -3    7.00    3.10
  -3  -7  -3    9.30    3.50
  -3  -7  -3    9.70    2.30
   3  -7   3   14.90    5.10
  -3  -7  -3    8.20    2.20
  -3  -7  -3   10.60    3.90
  -3   7  -3    8.30    1.60
   3   7   3    9.90    2.00
  -4  -7  -3   23.30    6.30
  -4  -7  -3    7.70    2.20
  -4  -7  -3   16.20    5.00
  -4  -7  -3   14.70    2.80
   4  -7   3    7.30    6.40
  -4   7  -3   12.30    1.80
   4   7   3   13.80    2.50
  -5  -7  -3    2.60    2.10
  -5  -7  -3   -0.20    4.70
  -5  -7  -3    7.90    2.80
   5  -7   3    3.20    7.50
  -5   7  -3    2.60    1.40
   4  -8  -3    0.50    5.80
  -4  -8   3   -4.40    3.80
  -3  -8   3  352.46   20.80
   3  -8  -3  342.97   22.30
  -3  -8   3  331.97   21.20
  -3   8   3  347.97   20.30
  -3   8   3  312.67   20.50
  -2  -8   3   17.80    3.10
   2  -8  -3   11.50    5.00
  -2   8   3   12.80    2.00
  -2   8   3   11.50    1.80
  -2   8   3   12.20    1.40
  -1  -8   3    8.40    2.60
   1  -8  -3    9.80    5.10
   1  -8  -3    1.40    4.90
  -1   8   3    7.60    1.70
   1   8  -3    3.70    1.40
  -1   8   3    8.50    1.30
   0  -8  -3   33.60    4.90
   0  -8   3   21.00    8.40
   0   8  -3   31.50    2.70
   0   8   3   33.60    2.60
   0   8  -3   30.40    3.60
   0   8  -3   36.90    3.80
   0   8   3   28.90    3.00
  -1  -8  -3    4.00    3.60
   1  -8   3    1.80    6.30
   1   8   3    0.30    1.10
   1   8   3    1.20    1.60
  -1   8  -3   -0.20    1.80
   2  -8   3   73.29   10.40
  -2  -8  -3   71.89    5.80
  -2  -8  -3   82.29    6.50
  -2  -8  -3   67.69    7.90
   2   8   3   75.79    5.40
  -2   8  -3   72.39    5.30
  -3  -8  -3   47.20    6.60
  -3  -8  -3   51.19    6.70
   3  -8   3   58.69    8.50
  -3  -8  -3   62.99    5.10
  -3   8  -3   56.49    4.50
  -3   8  -3   55.59    4.00
   3   8   3   65.79    4.90
  -4  -8  -3    9.80    5.80
  -4  -8  -3   -1.90    3.00
   4  -8   3    5.50    8.00
  -2  -9   3   13.70    3.10
   2  -9  -3   13.70    7.20
  -2   9   3   12.70    1.40
  -1  -9   3    2.60    2.70
  -1   9   3   -4.00    2.30
  -1   9   3   -0.50    1.00
  -1   9   3   -0.20    1.60
   0  -9  -3   12.20    5.80
   0  -9   3    4.90    2.70
   0   9   3    2.20    1.70
   0   9   3    5.90    1.30
   0   9  -3    2.50    1.20
   0   9  -3    4.60    2.20
   1  -9   3    7.00    3.30
   1  -9   3   12.20   10.30
  -1  -9  -3    3.80    4.90
  -1   9  -3    3.20    1.20
   1   9   3    1.60    1.50
   1   9   3    4.10    1.90
  -1   9  -3    6.40    2.10
   2  -9   3   -3.60    8.50
  -2  -9  -3    1.00    3.80
  -2  -9  -3    4.30    4.90
  -2  -9  -3    4.70    3.40
   2  -9   3    6.20    3.20
   2   9   3    7.30    2.20
  -2   9  -3    3.50    1.20
  -8   0   4    1.60    2.20
  -8   0   4    0.60    4.00
  -7   0   4    1.50    1.90
  -7   0   4   -2.90    3.00
  -7   0   4    9.50    6.50
  -6   0   4    3.90    6.20
  -6   0   4   -0.10    1.20
  -6   0   4   -0.60    2.70
  -6   0   4    1.40    1.70
  -6   0   4   -1.60    4.70
  -5   0   4   12.00    1.40
  -5   0   4    8.70    3.70
  -5   0   4   12.50    1.70
  -5   0   4   15.50    4.80
  -5   0   4    3.20    3.80
  -5   0   4   14.70    2.60
  -4   0   4  272.17   16.90
  -4   0   4  279.37   16.00
  -4   0   4  275.77   17.10
  -4   0   4  264.17   16.40
  -4   0   4  267.37   16.10
  -4   0   4  278.07   16.60
  -4   0   4  245.18   16.80
  -4   0   4  250.17   16.90
  -3   0   4   44.90    2.80
  -3   0   4   42.20    4.20
  -3   0   4   38.60    4.30
  -3   0   4   42.00    3.10
  -3   0   4   40.70    4.10
  -2   0   4  186.88   11.00
   2   0  -4  191.88   10.90
  -2   0   4  167.38   11.40
   1   0  -4  535.45   33.00
  -1   0   4  545.65   33.10
   1   0  -4  548.05   32.20
   0   0   4  651.33   41.00
   0   0  -4  676.53   39.70
   0   0   4  679.23   39.80
   0   0  -4  675.03   41.10
   1   0   4 1323.17   83.09
  -1   0  -4 1404.26   81.49
  -1   0  -4 1427.96   81.49
  -1   0  -4 1344.57   83.09
   2   0   4   41.50    7.10
  -2   0  -4   46.70    2.90
  -2   0  -4   54.79    7.90
  -3   0  -4 2558.34  148.49
  -3   0  -4 2421.46  148.79
  -3   0  -4 2486.55  148.59
  -3   0  -4 2540.15  148.59
  -3   0  -4 2537.05  148.59
  -4   0  -4   38.30    3.50
  -4   0  -4   45.60    3.50
  -4   0  -4   40.30    2.80
  -4   0  -4   37.80    4.20
  -4   0  -4   43.30    3.30
  -5   0  -4    8.40    1.20
  -5   0  -4    7.10    2.30
  -5   0  -4    7.90    2.00
  -5   0  -4    8.40    1.10
  -5   0  -4    7.50    1.70
  -6   0  -4    4.60    1.80
  -6   0  -4    7.50    2.90
  -6   0  -4    5.60    1.50
  -6   0  -4    6.10    1.30
  -7   0  -4    2.50    1.30
  -7   0  -4   -3.00    2.30
  -7   0  -4   -0.70    1.90
  -7   0  -4    5.00    3.00
  -8   0  -4  134.39    9.30
  -8   0  -4  140.39    8.70
  -8   0  -4  119.39    9.00
  -8  -1   4   12.40    4.30
  -8  -1   4   23.30    3.00
  -8   1   4   19.70    2.50
  -8   1   4    9.80    4.10
  -7  -1   4   18.50    3.60
  -7  -1   4   12.20    2.30
  -7  -1   4   17.90    8.20
  -7  -1   4    4.90    5.60
  -7   1   4   10.90    3.50
  -7   1   4   11.00    2.20
  -6  -1   4   21.70    2.50
  -6  -1   4   11.70    4.60
  -6  -1   4   23.40    3.30
  -6  -1   4   20.20    2.40
  -6  -1   4   25.10    5.60
  -6  -1   4   31.70    4.10
  -6   1   4   22.20    2.50
  -6   1   4   21.50    2.30
  -6   1   4   18.50    3.30
  -6   1   4   15.30    5.90
  -5  -1   4    7.60    3.20
  -5  -1   4    6.30    3.30
  -5  -1   4    9.30    1.30
  -5  -1   4    8.80    1.60
  -5  -1   4    8.40    2.30
  -5  -1   4   13.00    3.90
  -5  -1   4   11.60    1.80
  -5   1   4    8.90    1.30
  -5   1   4    9.40    2.30
  -5   1   4    2.00    4.00
  -5   1   4    9.40    1.60
  -5   1   4   14.70    5.20
  -5   1   4    8.20    5.50
  -4  -1   4   79.09    6.10
  -4  -1   4   74.89    4.70
  -4  -1   4   63.09    5.80
  -4  -1   4   74.89    5.90
  -4  -1   4   80.99    6.80
  -4  -1   4   74.49    4.90
  -4  -1   4   76.69    7.20
  -4  -1   4   76.29    5.50
  -4  -1   4   68.49    4.90
  -4   1   4   75.29    4.70
  -4   1   4   71.79    5.50
  -4   1   4   59.79    6.50
  -4   1   4   72.59    7.50
  -3  -1   4 1875.51   99.99
  -3  -1   4 1657.53  100.19
  -3  -1   4 1601.44   99.99
  -3  -1   4 1780.92  100.29
  -3  -1   4 1777.02  100.19
  -3  -1   4 1797.52   99.79
  -3  -1   4 1894.71   99.99
  -3  -1   4 1468.15   99.79
  -3   1   4 1659.33   99.79
  -3   1   4 1614.14   99.99
  -3   1   4 1710.13   99.89
  -3   1   4 1525.45   99.69
  -3   1   4 1505.35  100.09
  -3   1   4 1724.73  100.29
   2  -1  -4    0.50    0.40
  -2  -1   4    1.20    0.50
  -2  -1   4   -0.30    1.30
   2  -1  -4    0.20    2.90
  -2  -1   4    4.60    3.40
  -2  -1   4   -0.20    2.80
  -2   1   4    2.10    2.00
   2   1  -4    0.20    0.40
  -2   1   4    0.60    0.40
  -2   1   4    0.60    0.30
  -2   1   4    0.60    0.50
   1  -1  -4  503.45   31.60
  -1  -1   4  504.05   31.50
   1  -1  -4  483.75   30.30
   1   1  -4  557.94   31.40
  -1   1   4  511.05   30.30
  -1   1   4  504.55   31.50
   0  -1  -4    1.30    0.40
   0  -1   4    4.60    3.70
   0  -1  -4    1.10    0.40
   0  -1  -4    0.10    4.00
   0   1   4    2.30    0.40
   0   1   4    2.40    3.40
   0   1  -4    2.20    3.20
   0   1  -4    1.40    0.40
  -1  -1  -4   12.80    0.90
  -1  -1  -4    7.30    5.30
  -1  -1  -4   11.70    0.90
   1  -1   4   16.60    5.10
   1  -1   4   14.50    2.30
  -1   1  -4   12.00    0.90
   1   1   4   12.40    4.80
   1   1   4   12.70    0.90
  -1   1  -4    9.00    4.80
   2  -1   4 1041.70   75.19
  -2  -1  -4 1213.68   72.99
  -2  -1  -4 1052.19   75.39
  -2  -1  -4 1312.07   72.89
  -2  -1  -4 1291.77   72.99
   2  -1   4 1396.16   73.49
   2   1   4 1122.79   75.19
   2   1   4 1373.56   72.89
  -2   1  -4 1273.87   72.89
  -2   1  -4 1115.09   75.19
  -2   1  -4 1306.47   72.99
  -3  -1  -4  377.96   22.30
  -3  -1  -4  384.36   22.40
  -3  -1  -4  378.86   22.60
   3  -1   4  373.86   23.10
  -3  -1  -4  345.87   22.30
  -3  -1  -4  372.86   22.50
  -3  -1  -4  387.76   22.50
  -3   1  -4  380.26   22.70
  -3   1  -4  374.56   22.50
  -3   1  -4  402.46   22.30
  -3   1  -4  353.26   22.20
  -3   1  -4  367.06   22.40
  -4  -1  -4   14.60    1.80
  -4  -1  -4   11.00    1.30
  -4  -1  -4   10.00    2.00
  -4  -1  -4   10.10    1.20
  -4  -1  -4   12.10    1.70
  -4   1  -4   12.70    1.60
  -4   1  -4   11.20    1.20
  -4   1  -4   11.30    1.50
  -4   1  -4    9.40    2.10
  -5  -1  -4    3.40    1.60
  -5  -1  -4    0.50    0.90
  -5  -1  -4    1.80    2.10
  -5  -1  -4    0.90    1.50
  -5  -1  -4   -0.80    0.90
  -5   1  -4    2.90    2.30
  -5   1  -4    0.70    0.80
  -5   1  -4    3.30    1.60
  -5   1  -4   -0.10    0.90
  -6  -1  -4    2.80    2.60
  -6  -1  -4    3.10    2.70
  -6  -1  -4    1.90    1.80
  -6  -1  -4    1.90    1.10
  -6  -1  -4    2.20    1.40
  -6   1  -4    1.10    1.10
  -6   1  -4    2.10    2.70
  -6   1  -4    1.10    1.30
  -6   1  -4    3.10    1.80
  -7  -1  -4   11.90    1.70
  -7  -1  -4   15.90    2.40
  -7  -1  -4   14.70    3.30
  -7   1  -4   17.70    2.60
   7   1   4   12.20    3.80
  -7   1  -4   16.40    1.80
  -7   1  -4   14.40    2.30
  -7   1  -4   13.30    3.10
  -7  -2   4   -2.80    5.30
  -7  -2   4    2.10    2.80
  -7  -2   4   -5.80    3.20
  -7   2   4   -3.80    3.10
  -7   2   4   -1.00    1.80
  -6  -2   4    3.80    1.60
  -6  -2   4   -0.40    2.80
  -6  -2   4    2.50    2.10
  -6  -2   4    4.80    4.10
  -6  -2   4   -2.00    4.60
  -6  -2   4   -2.80    1.90
  -6   2   4    4.60    7.10
  -6   2   4    0.70    1.80
  -6   2   4    0.60    1.10
  -6   2   4    0.30    2.70
  -5  -2   4   24.40    4.40
  -5  -2   4   24.30    2.50
  -5  -2   4   26.50    3.20
  -5  -2   4   26.00    4.50
  -5  -2   4   25.40    3.90
  -5  -2   4   25.60    3.00
  -5  -2   4   23.20    3.10
  -5   2   4   22.30    5.50
  -5   2   4   28.80    6.20
  -5   2   4   29.00    4.00
  -5   2   4   25.60    2.40
  -5   2   4   32.10    3.10
  -4  -2   4   -0.90    2.50
  -4  -2   4    2.90    1.20
  -4  -2   4    2.90    5.20
  -4  -2   4    2.10    1.30
  -4  -2   4    1.90    0.90
  -4  -2   4    0.30    2.00
  -4  -2   4    1.30    4.00
  -4  -2   4    3.90    2.40
  -4   2   4    4.20    2.50
  -4   2   4    3.80    0.90
  -4   2   4    2.70    1.20
  -4   2   4    2.50    0.90
  -4   2   4    6.50    3.70
  -4   2   4    0.50    4.10
  -3  -2   4   14.20    1.90
  -3  -2   4   14.80    1.40
  -3  -2   4   14.60    2.00
  -3  -2   4   15.80    2.00
  -3  -2   4   15.00    1.80
  -3  -2   4   14.00    2.20
   3  -2  -4   11.20    1.40
  -3  -2   4   18.30    1.90
  -3  -2   4   18.90    2.40
  -3   2   4   13.80    1.30
  -3   2   4   13.20    1.40
  -3   2   4   15.10    1.50
  -3   2   4   13.00    1.40
  -3   2   4   13.90    1.50
  -3   2   4    5.20    4.70
  -3   2   4   14.90    2.00
  -3   2   4   14.80    3.20
   3   2  -4   10.50    1.40
  -3   2   4   13.60    1.30
   3   2  -4   13.50    1.50
  -2  -2   4   39.00    8.70
  -2  -2   4   43.50    3.60
   2  -2  -4   43.40    2.80
  -2  -2   4   44.50    3.50
   2  -2  -4   39.60    2.80
  -2  -2   4   45.00    3.60
  -2  -2   4   42.90    2.80
  -2   2   4   41.30    3.00
  -2   2   4   41.70    2.80
  -2   2   4   41.40    5.10
  -2   2   4   43.80    2.70
  -1  -2   4   16.50    2.60
  -1  -2   4   18.60    5.20
  -1  -2   4   27.10    5.10
   1  -2  -4   25.20    1.70
   1  -2  -4   24.20    5.90
  -1  -2   4   23.50    2.80
  -1  -2   4   22.20    3.40
   1  -2  -4   25.30    1.80
  -1   2   4   25.80    1.70
  -1   2   4   31.70    5.40
  -1   2   4   25.00    1.80
   0  -2  -4    2.80    5.80
   0  -2   4    5.90    5.00
   0  -2  -4    8.60    1.10
   0  -2   4    6.40    2.20
   0  -2  -4    8.60    0.80
   0   2   4    9.90    5.20
   0   2   4    9.10    0.80
   0   2  -4   10.10    5.00
   1  -2   4   81.39    5.60
  -1  -2  -4   71.29    4.50
  -1  -2  -4   56.69    9.00
   1  -2   4   79.39   10.00
  -1   2  -4   70.49    4.50
   1   2   4   73.59   10.20
   1   2   4   74.39    4.50
  -2  -2  -4  726.63   40.40
   2  -2   4  736.23   41.00
   2  -2   4  596.04   45.10
  -2  -2  -4  680.33   40.40
  -2  -2  -4  639.64   40.50
  -2  -2  -4  699.23   40.50
  -2  -2  -4  671.23   40.40
  -2   2  -4  703.73   40.40
   2   2   4  612.84   45.00
   2   2   4  739.93   40.40
  -2   2  -4  653.53   40.60
  -2   2  -4  661.23   46.70
  -3  -2  -4   59.39    4.30
   3  -2   4   61.29    5.40
  -3  -2  -4   58.09    4.00
  -3  -2  -4   58.79    3.70
  -3  -2  -4   54.29    4.20
  -3  -2  -4   55.09    3.80
  -3  -2  -4   58.09    3.80
  -3   2  -4   54.89    3.70
   3   2   4   58.39    3.70
  -3   2  -4   58.59    3.70
  -3   2  -4   64.19    4.50
  -3   2  -4   60.89    4.30
  -4  -2  -4  301.97   18.30
  -4  -2  -4  304.57   18.20
  -4  -2  -4  304.87   18.40
  -4  -2  -4  306.67   18.00
   4  -2   4  287.07   19.30
  -4  -2  -4  285.07   18.80
  -4  -2  -4  289.77   18.00
  -4   2  -4  304.17   18.20
  -4   2  -4  302.57   18.40
  -4   2  -4  304.37   18.00
  -5  -2  -4   35.40    4.10
  -5  -2  -4   26.30    2.40
  -5  -2  -4   31.20    3.80
   5  -2   4   24.00   10.60
  -5  -2  -4   23.60    3.30
  -5  -2  -4   28.70    2.50
  -5   2  -4   34.30    4.10
  -5   2  -4   28.10    2.30
  -5   2  -4   23.80    3.20
  -5   2  -4   30.70    2.50
  -6  -2  -4    3.00    2.10
  -6  -2  -4    5.40    1.30
  -6  -2  -4    5.60    2.50
  -6  -2  -4    2.60    2.80
   6   2   4    4.50    3.20
  -6   2  -4    4.20    1.30
  -6   2  -4    9.20    2.90
  -6   2  -4    4.30    2.10
  -6   2  -4    6.40    1.50
  -7  -2  -4    2.90    1.30
  -7  -2  -4    3.20    4.70
  -7  -2  -4    7.90    2.30
  -7  -2  -4    3.00    3.20
   7   2   4    1.00    3.40
  -7   2  -4    0.40    2.00
  -7   2  -4    3.00    2.10
  -7   2  -4    2.00    1.60
  -7   2  -4    2.20    2.90
  -7  -3   4   -4.70    3.60
  -7  -3   4    4.90    5.90
  -7  -3   4   -6.30    7.90
  -7  -3   4    3.60    3.10
  -7   3   4   -0.60    3.20
  -7   3   4   -1.80    1.90
  -6  -3   4   -0.20    2.00
  -6  -3   4   -1.40    2.90
  -6  -3   4    3.60    3.80
  -6  -3   4   -0.70    4.70
  -6   3   4    1.50    1.80
  -6   3   4    1.60    2.80
  -6   3   4    3.80    1.50
  -5  -3   4    6.70    2.40
  -5  -3   4    8.40    1.80
  -5  -3   4    7.20    3.70
  -5  -3   4    5.20    3.10
  -5  -3   4    7.70    4.00
  -5   3   4    5.80    2.40
  -5   3   4    6.40    1.30
  -5   3   4    9.10    6.80
  -5   3   4    8.60    1.70
  -4  -3   4  180.08   11.10
  -4  -3   4  181.88   11.60
  -4  -3   4  166.28   10.60
  -4  -3   4  181.78   11.50
  -4  -3   4  171.98   12.00
  -4  -3   4  166.38   11.80
  -4  -3   4  170.68   11.50
  -4  -3   4  186.08   10.80
  -4   3   4  160.98   10.50
  -4   3   4  177.68   10.80
  -4   3   4  176.38   11.10
  -4   3   4  175.48   10.60
  -4   3   4  179.58   13.60
  -4   3   4  162.58   10.50
  -3  -3   4    8.60    1.10
  -3  -3   4    6.00    1.80
  -3  -3   4    8.90    1.60
  -3  -3   4    7.10    1.70
  -3  -3   4    7.70    1.40
  -3  -3   4    8.60    2.10
  -3  -3   4   10.30    2.20
  -3   3   4   15.50    1.90
  -3   3   4   13.50    1.60
  -3   3   4   11.60    1.30
  -3   3   4    8.70    1.10
  -3   3   4   13.60    1.40
  -3   3   4   10.20    1.80
   3   3  -4    8.50    1.40
   2  -3  -4  464.65   28.90
  -2  -3   4  511.55   29.20
  -2  -3   4  461.15   29.20
  -2  -3   4  489.75   29.10
  -2  -3   4  524.65   29.30
  -2  -3   4  512.45   29.10
  -2  -3   4  471.15   28.80
  -2  -3   4  504.95   29.20
   2  -3  -4  460.95   28.90
  -2   3   4  462.25   28.90
  -2   3   4  498.65   29.90
  -2   3   4  497.65   28.90
  -2   3   4  473.95   29.10
  -2   3   4  467.15   28.90
  -2   3   4  481.55   29.00
  -2   3   4  491.95   28.90
  -1  -3   4   35.60    4.10
  -1  -3   4   43.50    5.70
   1  -3  -4   48.10    3.10
  -1  -3   4   42.80    4.00
  -1  -3   4   42.40    3.60
   1  -3  -4   48.10    3.20
  -1   3   4   46.10    3.00
  -1   3   4   51.59    3.00
  -1   3   4   47.80    3.20
  -1   3   4   50.79    5.50
   0  -3   4   38.50    4.10
   0  -3  -4   28.00   14.30
   0  -3   4   24.70    2.80
   0  -3   4   23.00    3.30
   0  -3   4   31.10    8.40
   0  -3  -4   33.30    2.30
   0  -3   4   39.70    8.60
   0  -3  -4   32.00    2.20
   0   3   4   29.60    2.10
   0   3   4   31.60    2.50
   0   3   4   32.20    7.10
   0   3   4   32.00    2.20
  -1  -3  -4    5.10    0.90
   1  -3   4    9.20    8.90
   1  -3   4    7.20    2.00
  -1  -3  -4    6.10    0.90
  -1  -3  -4   13.30   10.50
  -1   3  -4    6.30    0.80
   1   3   4    7.50    1.00
   1   3   4    1.40    7.50
  -1   3  -4    8.60    1.10
   1   3   4    8.00    1.30
  -1   3  -4    7.20    1.40
   2  -3   4   32.90    3.90
  -2  -3  -4   29.60    2.40
  -2  -3  -4   29.60    2.50
  -2  -3  -4   27.30    2.20
  -2  -3  -4   27.30    2.30
   2   3   4   29.60    2.90
  -2   3  -4   24.20    3.00
   2   3   4   29.90    2.10
  -2   3  -4   28.90    2.10
   3  -3   4  390.16   23.00
  -3  -3  -4  408.06   22.40
  -3  -3  -4  375.36   22.30
  -3  -3  -4  352.76   22.10
  -3  -3  -4  354.86   22.30
  -3   3  -4  344.07   22.10
   3   3   4  368.76   22.00
  -3   3  -4  345.47   22.20
  -3   3  -4  379.36   22.50
   3   3   4  374.36   22.50
  -4  -3  -4   -1.00    1.60
  -4  -3  -4    4.20    2.70
  -4  -3  -4    2.10    1.70
   4  -3   4    2.00    3.60
  -4  -3  -4    0.40    0.80
  -4  -3  -4   -0.10    1.40
  -4   3  -4    1.50    1.80
  -4   3  -4    2.60    1.50
  -4   3  -4   -1.00    0.70
   4   3   4   -2.20    2.00
  -5  -3  -4    5.50    2.00
  -5  -3  -4    2.30    1.10
  -5  -3  -4    4.80    2.40
  -5  -3  -4    3.30    1.70
  -5   3  -4    5.30    1.00
   5   3   4    3.40    2.60
  -5   3  -4    4.00    1.20
  -5   3  -4    6.90    2.50
  -5   3  -4    1.40    1.80
  -6  -3  -4   10.90    2.80
  -6  -3  -4    4.80    2.90
  -6  -3  -4    6.60    1.40
  -6  -3  -4    8.20    2.40
  -6   3  -4    9.40    2.90
  -6   3  -4    7.10    2.20
  -6   3  -4    7.30    1.50
   6   3   4    8.50    2.80
  -6   3  -4    7.60    1.60
  -7  -3  -4    1.60    1.40
  -7  -3  -4    1.10    4.20
  -7  -3  -4    2.70    3.50
  -7  -3  -4   -0.90    2.90
   7   3   4   -0.90    3.40
  -7   3  -4    2.40    2.80
  -7   3  -4    0.80    2.20
  -7  -4   4    3.90    4.30
  -7  -4   4    3.60    3.10
  -7  -4   4    2.20    5.60
  -7  -4   4    7.60    7.20
  -7   4   4    1.80    2.00
  -6  -4   4   -0.80    2.10
  -6  -4   4    2.40    5.30
  -6  -4   4   -5.40    3.80
   6  -4  -4    5.60    6.00
  -6  -4   4   -1.30    3.10
  -6   4   4   -1.90    2.70
  -6   4   4   -1.40    1.80
  -5  -4   4   -1.80    3.90
  -5  -4   4   -2.10    1.70
   5  -4  -4    2.40    3.50
  -5  -4   4    3.30    2.60
  -5  -4   4    1.10    3.00
  -5  -4   4    0.50    4.10
  -5   4   4   -1.70    1.10
  -5   4   4   -3.50    2.20
  -5   4   4    3.50    1.60
  -4  -4   4  188.78   11.80
  -4  -4   4  195.28   11.60
  -4  -4   4  172.38   13.60
  -4  -4   4  196.98   12.50
  -4  -4   4  167.78   12.60
  -4  -4   4  173.48   12.50
  -4  -4   4  184.08   12.30
  -4   4   4  173.58   11.20
  -4   4   4  189.08   11.30
  -4   4   4  178.78   11.20
  -4   4   4  190.08   11.80
  -4   4   4  195.38   11.40
  -3  -4   4    5.70    1.90
  -3  -4   4    5.20    1.50
  -3  -4   4    6.50    2.30
  -3  -4   4    8.80    2.40
  -3  -4   4    8.90    2.70
  -3  -4   4    5.70    2.50
  -3  -4   4    7.60    2.80
  -3  -4   4    7.40    1.80
  -3   4   4    6.50    1.70
  -3   4   4   11.30    4.50
  -3   4   4    6.70    1.30
  -3   4   4    5.50    1.20
  -3   4   4    6.00    0.90
  -3   4   4    6.40    1.10
  -3   4   4    7.00    1.10
  -3   4   4    6.80    1.70
  -2  -4   4  189.88   12.20
  -2  -4   4  190.28   12.20
  -2  -4   4  191.98   12.20
  -2  -4   4  192.38   11.90
  -2  -4   4  197.78   12.00
  -2  -4   4  188.08   12.00
   2  -4  -4  188.58   11.70
  -2   4   4  190.88   11.50
  -2   4   4  190.78   11.60
  -2   4   4  177.08   11.60
  -2   4   4  181.98   11.60
  -2   4   4  208.28   13.80
  -2   4   4  191.68   11.60
   2   4  -4  197.78   11.70
  -1  -4   4   53.99    4.60
  -1  -4   4   66.69    4.90
  -1  -4   4   68.49    4.40
  -1  -4   4   51.29    4.10
  -1  -4   4   55.99    5.00
   1  -4  -4   61.99    4.10
  -1  -4   4   60.09    6.90
  -1  -4   4   47.80    5.00
  -1   4   4   58.19    4.10
   1   4  -4   65.89    4.20
  -1   4   4   62.59    4.00
  -1   4   4   61.69    4.00
  -1   4   4   62.39    3.80
   1   4  -4   62.79    4.20
   0  -4   4    0.90    1.50
   0  -4   4   -1.40    3.40
   0  -4  -4   -0.20    1.10
   0  -4   4   -2.60    1.90
   0  -4  -4    0.20    1.00
   0  -4   4   -1.70    2.60
   0  -4   4    0.10    1.30
   0   4   4    0.20    0.80
   0   4   4    0.90    0.90
   0   4  -4    1.00    1.00
   0   4   4    0.30    0.50
  -1  -4  -4  131.59    8.00
  -1  -4  -4  123.99    8.10
   1  -4   4  139.49    9.10
  -1  -4  -4  136.29    8.10
  -1   4  -4  135.79    7.90
   1   4   4  118.59    7.90
   1   4   4  121.29    7.80
   1   4   4  129.79    8.10
  -1   4  -4  125.29    8.00
  -2  -4  -4   57.69    4.20
   2  -4   4   57.19    5.40
  -2  -4  -4   55.39    4.00
  -2  -4  -4   58.59    3.70
   2   4   4   51.29    3.90
   2   4   4   56.79    4.20
  -2   4  -4   47.40    4.10
  -2   4  -4   56.19    3.60
  -2   4  -4   56.39    4.20
   2   4   4   52.39    3.60
  -3  -4  -4  146.29    9.60
  -3  -4  -4  145.19    9.00
  -3  -4  -4  144.49    9.30
   3  -4   4  161.28   10.70
  -3  -4  -4  152.58    9.40
  -3   4  -4  146.79    9.50
  -3   4  -4  122.09    9.30
  -3   4  -4  146.29    9.00
   3   4   4  157.68    9.50
   4  -4   4   41.30    5.70
  -4  -4  -4   54.69    3.70
  -4  -4  -4   54.59    5.00
  -4  -4  -4   54.49    4.50
  -4  -4  -4   50.59    5.80
  -4   4  -4   51.19    4.30
  -4   4  -4   50.99    3.60
  -4   4  -4   47.80    4.60
   4   4   4   53.49    4.70
  -5  -4  -4    5.80    2.40
  -5  -4  -4   10.20    2.50
  -5  -4  -4   10.70    2.50
   5  -4   4    9.00    5.60
  -5  -4  -4    4.80    1.30
  -5   4  -4    9.00    2.10
  -5   4  -4    9.50    1.30
  -5   4  -4    4.80    1.40
   5   4   4    9.60    2.50
  -5   4  -4   10.00    2.40
  -6  -4  -4    7.10    3.00
  -6  -4  -4    5.70    3.00
  -6  -4  -4    7.40    1.50
  -6   4  -4   10.20    1.70
  -6   4  -4   10.50    2.90
  -6   4  -4    5.70    2.40
   6   4   4    9.30    2.80
  -7  -4  -4    3.50    3.20
  -7  -4  -4   -0.50    1.60
  -7  -4  -4    8.00    4.90
  -7   4  -4    0.20    2.50
  -7   4  -4    0.30    3.50
  -6  -5   4    5.10    5.80
  -6  -5   4    2.30    2.50
  -6  -5   4   -0.60    3.40
  -6  -5   4    5.10    6.00
   6  -5  -4   12.80    6.50
  -6   5   4    0.60    2.00
  -5  -5   4   41.40    5.50
  -5  -5   4   30.20    4.60
   5  -5  -4   43.30    5.60
  -5  -5   4   32.50    3.90
  -5  -5   4   39.90    6.40
  -5  -5   4   40.10    4.90
  -5   5   4   38.80    4.00
  -5   5   4   35.40    3.20
  -4  -5   4   10.30    3.30
  -4  -5   4    7.30    2.30
  -4  -5   4    6.80    3.10
  -4  -5   4    8.60    2.00
  -4  -5   4    3.00    4.30
  -4   5   4    7.30    1.50
  -4   5   4    7.70    1.20
  -4   5   4    9.20    1.80
  -3  -5   4  132.89    9.80
  -3  -5   4  135.69    9.20
  -3  -5   4  130.89   11.20
  -3  -5   4  114.59   10.00
  -3  -5   4  139.69    8.70
  -3  -5   4  132.69    8.80
  -3  -5   4  120.99    9.80
  -3   5   4  137.29    8.30
  -3   5   4  143.49    8.50
  -3   5   4  135.69    8.20
  -3   5   4  134.49    8.50
  -2  -5   4   64.49    6.80
  -2  -5   4   81.99    5.70
  -2  -5   4   73.89    6.20
   2  -5  -4   75.89    5.30
  -2  -5   4   72.19    5.50
  -2  -5   4   59.89    6.40
  -2  -5   4   67.19    7.00
  -2   5   4   76.39    4.70
  -2   5   4   78.59    5.00
  -1  -5   4   -2.70    3.10
  -1  -5   4    0.80    2.30
  -1  -5   4    1.00    1.80
  -1  -5   4    2.40    4.30
  -1  -5   4   -4.40    2.60
   1  -5  -4   -0.90    1.30
  -1  -5   4    0.30    2.20
  -1   5   4   -0.60    0.60
  -1   5   4    1.00    1.00
   1   5  -4   -1.50    1.40
   0  -5   4    4.10    2.40
   0  -5   4    6.30    2.80
   0  -5   4    6.70    2.50
   0  -5  -4    6.00    1.50
   0  -5   4    1.40    3.30
   0  -5  -4    6.00    2.00
   0   5  -4    6.00    2.00
   0   5   4    6.60    1.20
   0   5   4    3.90    0.70
  -1  -5  -4   10.80    1.80
  -1  -5  -4   10.30    1.80
  -1  -5  -4    8.40    1.80
   1  -5   4    2.40    3.10
   1  -5   4    9.30    3.10
  -1   5  -4    9.10    1.40
  -1   5  -4    9.40    1.30
   1   5   4   10.00    1.20
   1   5   4   10.80    1.60
   2  -5   4   84.29    7.50
  -2  -5  -4   84.59    5.90
  -2  -5  -4   90.59    6.10
  -2  -5  -4   81.59    5.60
   2   5   4   78.49    5.40
  -2   5  -4   81.29    5.50
   2   5   4   86.69    5.80
  -3  -5  -4   59.39    4.90
   3  -5   4   61.99    7.20
  -3  -5  -4   66.39    4.50
  -3  -5  -4   59.09    5.50
  -3  -5  -4   62.09    4.90
   3   5   4   70.39    4.90
  -3   5  -4   64.29    4.30
  -3   5  -4   58.09    5.00
  -4  -5  -4   77.89    5.80
  -4  -5  -4   68.09    7.00
  -4  -5  -4   71.59    5.70
  -4  -5  -4   70.89    5.00
   4  -5   4   69.69    8.10
  -4   5  -4   65.09    5.60
   4   5   4   75.49    5.60
  -4   5  -4   69.29    4.80
  -5  -5  -4    5.00    5.70
  -5  -5  -4   23.50    3.30
  -5  -5  -4   22.90    2.60
   5  -5   4   20.50    6.90
  -5  -5  -4   24.30    3.20
  -5   5  -4   15.70    3.00
   5   5   4   19.40    2.80
  -5   5  -4   22.20    2.40
  -5   5  -4   18.20    2.50
  -5   5  -4   23.00    3.10
  -6  -5  -4    4.60    3.20
  -6  -5  -4    4.50    1.70
  -6  -5  -4    3.20    2.90
   6  -5   4   18.00   12.00
  -6   5  -4   -0.40    3.00
  -6   5  -4    6.10    1.80
  -6   5  -4    4.10    2.60
  -6  -6   4    2.10    3.50
   6  -6  -4   10.40    7.60
  -6  -6   4    8.90    5.50
  -6  -6   4    1.20    3.40
  -6   6   4   -2.40    2.50
  -5  -6   4   -5.10    6.60
  -5  -6   4    2.20    5.30
  -5  -6   4    1.60    2.20
  -5  -6   4    4.80    2.90
   5  -6  -4   -0.40    4.30
  -5  -6   4    3.80    5.20
  -5   6   4    4.70    2.30
  -5   6   4    3.40    1.50
  -4  -6   4   13.20    4.40
   4  -6  -4   13.60    3.90
  -4  -6   4   14.30    3.60
  -4  -6   4   11.80    2.60
  -4  -6   4   18.50    6.70
  -4  -6   4   13.80    2.80
  -4   6   4   12.00    2.00
  -4   6   4   20.90    2.50
  -4   6   4   12.70    1.60
  -3  -6   4  431.26   30.40
  -3  -6   4  445.36   29.60
  -3  -6   4  510.15   29.90
  -3  -6   4  508.15   29.50
  -3   6   4  512.65   29.10
  -3   6   4  498.35   29.20
  -3   6   4  512.35   29.30
  -3   6   4  467.45   29.20
  -2  -6   4   45.20    5.70
   2  -6  -4   42.80    4.60
  -2  -6   4   38.00    4.50
  -2  -6   4   37.20    4.30
  -2  -6   4   26.60    4.50
  -2   6   4   41.70    2.90
  -2   6   4   44.10    3.40
   1  -6  -4   -0.50    2.00
  -1  -6   4   -7.70    5.60
  -1  -6   4    2.10    3.10
  -1  -6   4   -0.60    2.10
   1   6  -4   -0.70    1.70
  -1   6   4    0.80    1.10
  -1   6   4    0.10    0.70
   0  -6   4   41.10    6.00
   0  -6   4   49.90    6.10
   0  -6  -4   61.19    4.80
   0   6  -4   56.79    4.10
   0   6   4   57.39    3.70
   0   6   4   55.39    4.10
  -1  -6  -4   -4.30    2.40
   1  -6   4   -0.50    3.60
  -1  -6  -4    0.00    2.10
  -1  -6  -4    3.40    2.20
   1   6   4    0.80    1.20
  -1   6  -4   -1.10    1.20
   1   6   4    0.90    0.70
  -1   6  -4   -0.60    1.00
  -2  -6  -4  270.47   16.40
  -2  -6  -4  246.78   16.10
   2  -6   4  269.87   17.50
  -2  -6  -4  241.18   15.90
  -2   6  -4  255.37   15.60
   2   6   4  263.27   15.90
   2   6   4  257.67   15.50
  -3  -6  -4  142.89    9.70
  -3  -6  -4  137.79   10.30
   3  -6   4  148.39   11.70
  -3  -6  -4  148.89    9.90
  -3  -6  -4  144.99   10.40
  -3  -6  -4  148.49    9.50
   3   6   4  156.28    9.90
  -3   6  -4  148.49    9.20
  -4  -6  -4   81.79    6.80
  -4  -6  -4   77.29    8.30
   4  -6   4   92.69    9.80
  -4  -6  -4   89.29    6.00
  -4  -6  -4   91.19    6.70
  -4   6  -4   87.19    5.70
   4   6   4   78.69    6.20
   5  -6   4    0.70    7.10
  -5  -6  -4    6.00    6.40
  -5  -6  -4    2.10    1.80
  -5  -6  -4    0.70    2.60
  -5  -6  -4    1.90    3.50
  -5   6  -4   -0.40    1.50
   5   6   4    1.20    2.30
  -6  -6  -4    6.20    3.30
  -6  -6  -4    4.20    4.30
  -6  -6  -4    4.50    1.80
  -5  -7   4   -2.90    6.20
  -5  -7   4    3.40    2.30
  -5  -7   4   -5.30    7.00
   5  -7  -4    7.50    5.70
  -5   7   4    0.60    1.50
  -4  -7   4  112.49    8.50
  -4  -7   4  127.29    9.70
   4  -7  -4  140.39   10.30
  -4   7   4  109.49    8.50
  -4   7   4  119.09    7.50
  -3  -7   4    2.70    2.20
  -3  -7   4   -3.30    6.80
  -3  -7   4    8.30    2.70
   3  -7  -4   13.60    4.10
  -3  -7   4   10.80    2.60
  -3   7   4    8.10    1.90
  -3   7   4    5.20    1.10
  -3   7   4    6.90    1.50
  -2  -7   4   52.09    5.30
   2  -7  -4   58.09    6.40
  -2   7   4   52.59    4.20
  -2   7   4   50.39    4.00
  -2   7   4   50.09    4.00
   1  -7  -4    6.70    3.00
  -1  -7   4   10.30    3.50
   1  -7  -4    7.70    3.50
  -1  -7   4   12.20    3.70
   1   7  -4    7.80    2.60
  -1   7   4    5.60    1.60
  -1   7   4    5.90    1.00
   0  -7  -4   -1.60    3.90
   0  -7   4    0.10    5.60
   0  -7  -4    2.40    2.60
   0   7  -4    0.70    1.50
   0   7  -4    2.80    1.80
   0   7   4    0.40    0.80
   1  -7   4    2.40    5.30
  -1  -7  -4   -5.60    3.60
  -1  -7  -4    1.60    2.60
   1   7   4    0.00    1.40
   1   7   4    2.90    1.00
  -1   7  -4    1.80    1.30
  -2  -7  -4   -1.80    3.20
  -2  -7  -4   -1.00    2.80
  -2  -7  -4    4.00    3.40
   2  -7   4    0.70    4.40
   2   7   4   -1.40    1.40
   2   7   4    5.60    2.30
  -2   7  -4    1.20    1.40
  -3  -7  -4  742.33   42.60
   3  -7   4  705.63   44.10
  -3  -7  -4  694.43   42.80
  -3  -7  -4  657.03   42.50
  -3  -7  -4  685.63   43.30
  -3  -7  -4  695.63   42.90
   3   7   4  739.23   42.40
  -3   7  -4  741.43   42.30
  -4  -7  -4   10.60    2.70
  -4  -7  -4    6.30    2.00
  -4  -7  -4   17.60    4.30
   4  -7   4   10.30    6.50
  -4   7  -4   10.90    1.80
   4   7   4   11.80    2.20
  -5  -7  -4   -0.90    2.60
  -5  -7  -4   -3.10    4.60
   5  -7   4    3.50    8.70
  -5  -7  -4    0.30    2.70
  -5   7  -4   -1.30    1.40
  -4  -8   4    7.00    3.00
   4  -8  -4    5.40    5.90
  -4  -8   4    1.20    4.50
  -4   8   4    8.80    1.40
  -3  -8   4  295.87   18.40
  -3  -8   4  288.57   17.90
   3  -8  -4  305.77   19.50
  -3   8   4  290.67   17.40
  -3   8   4  265.07   17.70
  -2  -8   4   31.30    3.80
  -2  -8   4   20.10    3.40
   2  -8  -4   25.70    4.90
  -2   8   4   24.50    2.20
  -2   8   4   21.50    2.60
  -2   8   4   24.90    2.70
   1  -8  -4   16.40    5.00
  -1  -8   4   22.90    3.30
   1  -8  -4   25.90    5.40
  -1   8   4   21.70    2.10
   1   8  -4   18.70    2.60
   1   8  -4   20.30    2.50
  -1   8   4   22.00    2.70
   0  -8   4   10.60    8.60
   0  -8   4   -3.50    2.40
   0  -8  -4    0.50    3.70
   0   8   4    2.00    1.40
   0   8  -4    1.30    2.00
   0   8   4    0.20    1.00
  -1  -8  -4   26.60    4.30
   1  -8   4   27.80    7.80
   1   8   4   21.40    2.50
   1   8   4   21.90    2.30
  -1   8  -4   23.30    2.50
  -2  -8  -4  122.79    8.40
  -2  -8  -4  122.69   10.00
   2  -8   4   90.49   12.50
   2   8   4  123.89    8.10
  -2   8  -4  130.89    8.00
  -3  -8  -4   15.60    2.90
  -3  -8  -4   11.80    3.10
  -3  -8  -4    8.60    5.00
   3  -8   4   10.20    7.40
  -3   8  -4   14.40    2.00
  -3   8  -4   10.10    1.50
   3   8   4   11.80    2.20
   4  -8   4   -0.30    8.40
  -4  -8  -4   -7.20    5.90
  -4  -8  -4    3.50    2.60
  -4  -8  -4    5.20    2.70
  -4   8  -4    4.60    1.20
  -2  -9   4    2.80    3.00
   2  -9  -4   13.10    7.30
  -2  -9   4    7.00    2.70
  -2   9   4    8.70    1.60
  -1  -9   4    5.10    2.90
  -1   9   4    5.80    1.30
   0  -9   4   -3.00    2.80
   0  -9  -4   10.20    5.60
   0   9   4   -1.30    2.20
   0   9  -4    0.80    1.20
   0   9   4    1.00    1.20
   0   9  -4   -0.90    3.30
  -1  -9  -4    3.70    2.30
   1  -9   4    6.60    3.10
  -1  -9  -4    2.00    5.10
   1  -9   4    0.70   11.00
   1   9   4    7.90    1.90
   1   9   4    2.50    1.70
  -1   9  -4    4.10    1.20
  -2  -9  -4   60.49    8.60
   2  -9   4   71.29    6.90
  -2  -9  -4   55.09    6.60
  -2  -9  -4   62.79    5.30
   2  -9   4   36.40   10.20
   2   9   4   69.29    5.00
  -2   9  -4   64.09    4.40
  -8   0   5    3.20    2.30
  -7   0   5   -0.80    1.90
  -7   0   5    0.20    6.10
  -7   0   5    0.70    3.50
  -7   0   5   -3.60    1.70
  -6   0   5    0.40    1.60
  -6   0   5    1.20    2.90
  -6   0   5    7.80    7.60
  -6   0   5    0.90    4.60
  -6   0   5    0.60    1.20
  -6   0   5    7.70    6.30
  -5   0   5   -0.40    1.00
  -5   0   5   -2.30    3.80
  -5   0   5    5.00    3.20
  -5   0   5   -0.20    2.40
  -5   0   5    0.90    1.40
  -5   0   5    4.70    3.90
  -4   0   5   -0.30    2.00
  -4   0   5    0.00    1.10
  -4   0   5    0.50    0.80
  -4   0   5   -0.80    2.70
  -4   0   5    1.50    2.00
  -4   0   5    1.70    2.70
  -4   0   5    2.40    2.60
  -4   0   5    2.10    2.40
  -3   0   5    0.00    1.80
  -3   0   5    0.80    2.10
  -3   0   5   -0.20    0.50
  -3   0   5    0.50    1.00
  -3   0   5   -0.80    1.90
  -2   0   5   -0.50    2.40
  -2   0   5   -2.60    1.60
   2   0  -5   -0.50    0.30
  -2   0   5   -0.50    0.40
  -2   0   5   -1.50    1.70
   1   0  -5    1.30    3.10
  -1   0   5    0.90    1.70
  -1   0   5    0.40    0.50
  -1   0   5    0.50    2.60
  -1   0   5    1.00    3.60
   1   0  -5   -0.20    0.30
   0   0  -5   -1.40    3.80
   0   0  -5    0.50    0.30
   0   0   5    0.20    1.60
   0   0  -5   -0.60    0.30
   0   0   5    2.50    3.60
   1   0   5    0.20    2.30
  -1   0  -5    0.10    0.30
  -1   0  -5    0.50    0.30
  -1   0  -5    3.40    5.30
   1   0   5    0.70    5.20
  -2   0  -5   -0.10    0.30
   2   0   5   -2.40    2.70
   2   0   5    1.00    6.70
  -2   0  -5   -0.70    0.40
  -2   0  -5    1.10    6.70
  -3   0  -5   -0.40    0.40
  -3   0  -5   -0.10    0.60
   3   0   5    4.10    4.00
  -3   0  -5   -0.40    0.90
  -3   0  -5    1.30    1.50
  -4   0  -5   -0.10    1.30
  -4   0  -5   -0.20    1.20
  -4   0  -5    0.60    0.60
  -4   0  -5   -0.60    0.70
  -4   0  -5   -0.60    1.70
  -5   0  -5   -0.10    1.50
  -5   0  -5   -0.50    0.80
  -5   0  -5   -0.30    2.20
  -5   0  -5   -0.50    0.80
  -5   0  -5   -0.70    1.80
  -6   0  -5    0.40    1.10
  -6   0  -5   -3.70    3.00
  -6   0  -5   -0.80    1.30
  -7   0  -5   -0.50    2.00
  -7   0  -5   -3.70    2.30
  -7   0  -5   -1.40    2.80
  -7   0  -5   -2.10    1.20
  -8  -1   5    6.00    4.60
  -8   1   5    3.10    2.10
  -7  -1   5   11.60    5.80
  -7  -1   5    0.90    3.50
  -7  -1   5    1.20    2.10
  -7   1   5   -2.00    1.80
  -7   1   5    0.90    1.60
  -7   1   5    1.40    3.30
  -6  -1   5    2.60    4.00
  -6  -1   5    8.20    3.10
  -6  -1   5    2.10    5.20
  -6  -1   5    5.40    1.80
  -6  -1   5    9.50    7.50
  -6  -1   5    6.40    1.50
  -6   1   5    5.80    5.70
  -6   1   5   12.10    8.30
  -6   1   5    2.80    1.70
  -6   1   5    3.20    1.30
  -6   1   5    7.50    2.90
  -5  -1   5    8.40    4.50
  -5  -1   5    3.60    1.90
  -5  -1   5    0.90    1.40
  -5  -1   5    3.80    3.40
  -5  -1   5    1.90    3.00
  -5  -1   5    0.40    1.00
  -5  -1   5    5.10    2.40
  -5  -1   5    4.70    3.60
  -5  -1   5    1.40    3.50
  -5   1   5   -5.00    6.20
  -5   1   5    0.30    2.30
  -5   1   5   -5.90    4.50
  -5   1   5    0.30    3.80
  -5   1   5    1.60    1.40
  -5   1   5    0.90    0.90
  -4  -1   5   29.00    3.70
  -4  -1   5   33.00    4.40
  -4  -1   5   30.30    3.00
  -4  -1   5   31.00    3.80
  -4  -1   5   30.10    2.70
  -4  -1   5   30.30    3.20
  -4  -1   5   34.30    3.80
  -4  -1   5   33.20    4.20
  -4  -1   5   29.60    2.30
  -4   1   5   29.30    4.20
  -4   1   5   32.30    2.30
  -4   1   5   27.50    3.70
  -4   1   5   31.20    2.70
  -4   1   5   19.20    4.10
  -4   1   5   30.90    4.90
  -3  -1   5  243.68   14.90
   3  -1  -5  240.28   14.30
  -3  -1   5  221.68   14.50
  -3  -1   5  241.78   15.00
  -3  -1   5  238.98   15.10
   3   1  -5  240.78   14.30
  -3   1   5  246.08   14.50
  -3   1   5  249.18   14.40
  -3   1   5  241.18   15.30
  -3   1   5  233.58   15.10
  -2  -1   5   32.70    3.40
   2  -1  -5   34.80    2.20
  -2  -1   5   37.30    4.80
   2  -1  -5   33.40    4.90
  -2  -1   5   29.70    3.50
  -2  -1   5   34.30    2.20
  -2  -1   5   36.50    5.50
  -2  -1   5   37.20    5.40
  -2   1   5   37.00    5.80
  -2   1   5   32.10    2.20
   2   1  -5   33.50    2.20
  -2   1   5   32.40    2.20
  -2   1   5   33.40    4.10
  -1  -1   5  174.88   11.40
  -1  -1   5  206.18   14.10
   1  -1  -5  194.88   11.40
  -1  -1   5  165.18   12.60
   1  -1  -5  183.48   13.80
  -1   1   5  180.68   11.40
  -1   1   5  194.48   11.40
   1   1  -5  211.08   13.40
   1   1  -5  190.18   11.40
  -1   1   5  195.58   13.80
   0  -1   5    5.50    2.40
   0  -1   5    0.50    1.90
   0  -1  -5    3.90    4.80
   0  -1  -5    4.20    0.50
   0  -1  -5    4.70    0.50
   0  -1   5   11.10    4.60
   0   1   5    5.20    2.70
   0   1  -5    4.30    0.50
   0   1   5    5.50    0.60
   0   1   5    9.10    4.40
   0   1  -5    8.00    4.50
  -1  -1  -5    0.20    0.60
   1  -1   5    1.20    6.10
  -1  -1  -5   -3.00    6.20
   1  -1   5   -1.60    2.20
  -1  -1  -5    0.20    0.40
  -1  -1  -5    0.00    0.30
  -1   1  -5   -0.30    0.40
  -1   1  -5    0.20    0.30
   1   1   5    0.00    5.50
   1   1   5   -0.40    0.30
  -1   1  -5    1.80    6.20
   2  -1   5  763.42   45.60
  -2  -1  -5  659.93   45.00
   2  -1   5  700.43   48.50
  -2  -1  -5  796.72   45.00
  -2  -1  -5  832.72   44.90
  -2  -1  -5  686.23   48.60
  -2   1  -5  673.13   45.00
   2   1   5  755.12   48.40
  -2   1  -5  841.52   44.90
   2   1   5  858.71   44.90
  -2   1  -5  726.73   48.20
  -3  -1  -5   12.30    1.40
  -3  -1  -5   13.70    1.70
  -3  -1  -5   11.70    1.30
  -3  -1  -5   12.20    1.70
   3  -1   5   14.20    3.20
  -3  -1  -5   12.70    1.90
  -3  -1  -5   12.90    1.10
  -3   1  -5   14.70    2.10
  -3   1  -5    9.80    1.20
  -3   1  -5   12.60    1.10
  -3   1  -5   12.20    1.50
  -3   1  -5   14.70    1.70
  -4  -1  -5   16.80    2.20
  -4  -1  -5   12.50    1.50
  -4  -1  -5   13.10    1.40
   4  -1   5    9.80    4.90
  -4  -1  -5   13.40    2.20
  -4  -1  -5   11.40    1.80
  -4   1  -5   13.10    1.80
  -4   1  -5   11.00    2.20
  -4   1  -5   14.60    1.30
  -4   1  -5   14.90    1.90
  -5  -1  -5    2.40    1.60
  -5  -1  -5   -0.60    1.70
  -5  -1  -5    1.20    0.90
  -5  -1  -5    0.30    0.90
  -5  -1  -5   -0.60    2.10
  -5   1  -5   -0.20    0.90
  -5   1  -5    0.50    0.90
  -5   1  -5    2.10    2.30
  -5   1  -5    2.80    1.70
  -6  -1  -5   13.80    1.80
  -6  -1  -5   15.70    3.00
  -6  -1  -5   12.90    4.50
  -6  -1  -5   15.00    1.90
  -6   1  -5   10.80    2.50
  -6   1  -5   18.00    4.10
  -6   1  -5   12.40    1.70
  -7  -1  -5   -2.00    3.00
  -7  -1  -5   -0.30    2.00
  -7  -1  -5    1.60    1.30
   7   1   5    8.70    3.50
  -7   1  -5    5.30    2.30
  -7   1  -5    0.20    2.10
  -7   1  -5    0.20    1.30
  -7   1  -5    2.80    2.90
  -7  -2   5    3.70    5.30
  -7  -2   5   -4.00    6.90
  -7  -2   5    2.50    3.70
  -7   2   5    2.90    1.90
  -7   2   5    6.50    3.50
  -6  -2   5   13.90    2.90
  -6  -2   5   12.30    2.60
  -6  -2   5   13.40    1.90
  -6  -2   5   11.20    4.70
  -6  -2   5   10.80    4.90
  -6  -2   5   23.00    7.00
  -6   2   5   -2.00    8.90
  -6   2   5   10.30    1.50
  -6   2   5   17.60    2.50
  -6   2   5    4.90    8.80
  -5  -2   5    0.90    1.60
  -5  -2   5    8.30    3.40
  -5  -2   5    4.40    1.80
  -5  -2   5    1.30    3.50
  -5  -2   5    0.20    3.60
  -5  -2   5    3.30    1.20
  -5  -2   5    4.10    4.60
  -5  -2   5    2.40    2.50
  -5  -2   5    2.00    3.60
  -5   2   5    1.60    2.40
  -5   2   5    4.10    1.40
  -5   2   5   -9.60    5.10
  -5   2   5   -1.60    5.40
  -5   2   5    3.30    1.10
  -4  -2   5  468.95   28.20
  -4  -2   5  468.45   28.10
  -4  -2   5  394.26   28.40
  -4  -2   5  463.05   27.60
  -4  -2   5  450.75   28.20
  -4  -2   5  463.65   28.10
  -4  -2   5  415.16   27.40
  -4  -2   5  459.55   27.90
  -4  -2   5  480.45   27.40
  -4   2   5  479.35   27.50
  -4   2   5  479.15   28.80
  -4   2   5  455.75   28.80
  -4   2   5  491.65   27.60
  -3  -2   5    1.50    1.80
  -3  -2   5    5.60    1.30
   3  -2  -5    4.00    1.00
   3  -2  -5    4.30    1.00
  -3  -2   5    2.70    1.80
  -3  -2   5    0.20    1.70
  -3  -2   5    4.10    1.30
  -3  -2   5    5.10    1.80
  -3  -2   5    4.40    1.50
  -3   2   5    3.20    1.80
  -3   2   5    4.70    1.00
  -3   2   5    2.90    1.10
  -3   2   5    3.60    0.70
  -3   2   5    3.30    0.80
   3   2  -5    2.40    0.80
  -3   2   5    3.60    0.80
  -3   2   5    1.80    4.10
  -3   2   5    3.80    0.70
  -3   2   5    6.00    2.90
  -2  -2   5   15.00    1.30
  -2  -2   5   19.20    2.20
  -2  -2   5   14.20    2.20
  -2  -2   5   14.80    2.30
  -2  -2   5   14.50    1.90
   2  -2  -5   12.50    1.30
   2  -2  -5   14.20    1.40
  -2  -2   5   19.40    4.60
  -2   2   5   14.30    1.20
  -2   2   5   13.80    1.70
  -2   2   5   14.10    1.40
  -2   2   5   15.20    2.80
  -2   2   5    8.70    3.10
  -2   2   5   15.60    1.30
  -1  -2   5   13.20    2.30
  -1  -2   5    5.20    5.70
  -1  -2   5    9.90    3.30
   1  -2  -5   15.90    1.40
   1  -2  -5    5.30    6.00
  -1  -2   5   17.00    1.90
   1  -2  -5   14.00    1.30
  -1   2   5   15.10    1.30
  -1   2   5   16.90    1.20
  -1   2   5   20.70    5.80
  -1   2   5   17.40    2.80
   0  -2  -5   28.30    7.50
   0  -2  -5   26.90    1.90
   0  -2  -5   27.00    1.90
   0  -2   5   22.40    6.30
   0  -2   5   28.70    3.30
   0   2   5   21.00    6.10
   0   2  -5   18.20    5.80
   0   2  -5   27.30    1.80
   0   2   5   27.60    1.80
  -1  -2  -5  297.97   17.50
  -1  -2  -5  273.77   22.80
  -1  -2  -5  299.57   17.50
  -1  -2  -5  289.17   17.60
   1  -2   5  285.07   21.90
   1  -2   5  318.17   18.30
  -1   2  -5  296.37   17.50
   1   2   5  261.07   21.80
   1   2   5  310.27   17.50
   1   2   5  293.07   17.80
  -1   2  -5  270.67   21.80
   2  -2   5  114.29    7.60
  -2  -2  -5  103.09    6.40
  -2  -2  -5   97.79    6.60
  -2  -2  -5   97.99    6.30
  -2  -2  -5  102.79    6.30
  -2  -2  -5  102.89    6.30
  -2   2  -5   99.49    6.90
  -2   2  -5  102.69    6.30
   2   2   5  104.79    6.20
  -3  -2  -5  124.79    7.60
  -3  -2  -5  122.39    7.30
  -3  -2  -5  115.19    7.30
  -3  -2  -5   99.29    7.70
  -3  -2  -5  123.09    7.30
  -3  -2  -5  120.39    7.60
   3  -2   5  126.69    8.90
  -3   2  -5  111.19    7.30
  -3   2  -5  121.29    7.30
   3   2   5  118.49    7.20
  -3   2  -5  121.19    7.80
  -3   2  -5  124.59    7.60
  -4  -2  -5   19.00    2.50
   4  -2   5   12.50    4.30
  -4  -2  -5   18.80    1.70
  -4  -2  -5   19.40    2.30
  -4  -2  -5   20.60    1.80
  -4  -2  -5   19.40    2.40
  -4   2  -5   24.50    3.30
  -4   2  -5   20.80    2.70
  -4   2  -5   19.30    1.70
  -5  -2  -5    7.70    2.10
  -5  -2  -5    7.00    1.20
  -5  -2  -5    7.20    1.20
  -5  -2  -5    8.40    2.00
  -5  -2  -5    7.90    2.50
  -5   2  -5    8.80    1.30
  -5   2  -5    8.40    1.80
  -5   2  -5    8.20    1.10
  -5   2  -5   10.70    2.50
  -6  -2  -5   17.00    3.30
  -6  -2  -5   16.50    2.50
  -6  -2  -5   17.50    2.10
  -6  -2  -5   20.70    3.00
  -6   2  -5   18.80    2.30
  -6   2  -5   10.70    2.50
  -6   2  -5   18.20    3.40
   6   2   5   10.70    3.40
  -6   2  -5   21.80    2.40
  -7  -2  -5    1.40    4.70
  -7  -2  -5    0.10    1.30
  -7  -2  -5   -0.70    3.20
  -7  -2  -5   -1.10    2.20
  -7   2  -5   -4.90    2.90
  -7   2  -5    4.50    2.20
   7   2   5    3.00    3.20
  -7   2  -5   -3.50    2.00
  -7   2  -5    1.20    1.50
  -7  -3   5    3.20    7.90
  -7  -3   5   -0.10    5.50
  -7  -3   5   -1.40    4.00
  -7   3   5    6.90    1.90
  -7   3   5    5.90    3.50
  -6  -3   5   19.00    5.20
  -6  -3   5   22.10    5.60
  -6  -3   5   12.00    6.70
  -6  -3   5   13.90    3.50
  -6  -3   5   17.10    2.80
  -6   3   5   17.70    2.30
  -6   3   5   17.70    2.00
  -6   3   5   17.40    3.30
  -5  -3   5   39.90    5.60
  -5  -3   5   49.30    4.30
  -5  -3   5   46.70    5.10
  -5  -3   5   40.80    6.10
  -5  -3   5   49.70    6.50
  -5   3   5   48.10    3.60
  -5   3   5   63.89    7.90
  -5   3   5   51.59    4.90
  -5   3   5   54.69    4.10
  -4  -3   5   47.10    5.20
  -4  -3   5   43.10    5.00
  -4  -3   5   47.30    3.40
  -4  -3   5   41.10    5.10
  -4  -3   5   42.30    4.70
  -4  -3   5   42.90    4.30
  -4  -3   5   39.10    5.30
  -4  -3   5   50.49    3.90
  -4   3   5   49.90    4.30
  -4   3   5   45.10    3.20
  -4   3   5   47.30    3.70
  -4   3   5   46.90    3.30
  -4   3   5   63.59    7.90
  -3  -3   5   10.80    2.10
  -3  -3   5   13.40    2.40
  -3  -3   5    8.30    1.80
  -3  -3   5   12.90    1.90
  -3  -3   5   12.50    2.40
   3  -3  -5   11.10    1.60
  -3  -3   5   12.50    2.40
  -3  -3   5   14.40    1.80
  -3   3   5   12.20    1.20
  -3   3   5   11.70    1.40
  -3   3   5   12.30    1.50
  -3   3   5   14.20    1.50
  -3   3   5   14.90    2.00
  -3   3   5   12.80    3.50
  -3   3   5   14.20    1.40
  -3   3   5   14.70    1.60
   3   3  -5   17.00    1.70
   2  -3  -5   86.09    5.50
  -2  -3   5   85.89    6.00
  -2  -3   5   67.99    9.90
   2  -3  -5   86.09    5.40
  -2  -3   5   78.29    6.20
  -2  -3   5   84.69    5.30
  -2  -3   5   88.19    5.90
  -2  -3   5   87.49    5.70
  -2   3   5   83.89    5.30
  -2   3   5   85.89    5.30
  -2   3   5   84.79    7.40
  -2   3   5   88.19    5.30
  -2   3   5   85.19    5.70
  -2   3   5   86.89    5.40
  -2   3   5   86.89    5.40
   1  -3  -5   38.60    2.80
  -1  -3   5   32.90    3.50
  -1  -3   5   36.80    4.30
   1  -3  -5   41.20    2.80
  -1  -3   5   40.80    3.30
  -1  -3   5   41.10    3.40
  -1  -3   5   45.40    5.80
  -1   3   5   43.10    2.70
  -1   3   5   40.90    2.90
  -1   3   5   39.90    3.00
  -1   3   5   39.30    4.30
  -1   3   5   38.30    2.60
  -1   3   5   41.60    2.70
   0  -3  -5   51.29    3.40
   0  -3  -5   49.40    3.30
   0  -3   5   53.99   10.20
   0  -3   5   53.89    5.40
   0   3   5   49.99    3.50
   0   3   5   49.00    3.20
   0   3   5   51.49    3.20
  -1  -3  -5    7.80    1.00
   1  -3   5    8.60    2.70
  -1  -3  -5    7.40    1.10
   1   3   5    7.40    0.80
   1   3   5    7.20    1.30
  -1   3  -5    5.90    1.40
  -1   3  -5    5.60    0.70
   1   3   5    6.40    0.80
   2  -3   5  805.62   45.30
  -2  -3  -5  712.83   44.60
  -2  -3  -5  767.12   44.70
  -2  -3  -5  766.52   44.50
  -2  -3  -5  704.63   44.50
  -2  -3  -5  781.62   44.70
  -2   3  -5  688.83   44.60
   2   3   5  752.42   44.80
   2   3   5  741.03   44.40
  -2   3  -5  745.83   44.70
  -2   3  -5  779.32   44.50
   2   3   5  747.73   44.50
   3  -3   5   12.00    3.00
  -3  -3  -5   12.50    1.80
  -3  -3  -5    9.10    1.50
  -3  -3  -5    9.40    1.10
  -3  -3  -5    8.10    1.70
  -3   3  -5    6.80    0.90
  -3   3  -5    8.00    1.70
  -3   3  -5    8.80    2.10
   3   3   5    9.70    2.00
   3   3   5    9.40    1.30
  -4  -3  -5    0.10    1.80
  -4  -3  -5    1.60    2.70
  -4  -3  -5    3.00    1.40
  -4  -3  -5    2.00    0.90
  -4  -3  -5    2.20    1.70
   4  -3   5   -1.90    3.70
  -4   3  -5    3.90    1.90
  -4   3  -5    1.30    1.60
   4   3   5   -0.40    2.00
  -4   3  -5    1.80    0.80
   5  -3   5   -8.20    6.20
  -5  -3  -5    1.40    1.70
  -5  -3  -5    0.70    2.20
  -5  -3  -5   -0.60    1.00
  -5  -3  -5    0.80    1.80
  -5   3  -5    0.30    1.00
  -5   3  -5    1.00    0.90
   5   3   5    1.40    2.60
  -5   3  -5    2.10    2.30
  -5   3  -5   -1.50    1.80
  -6  -3  -5    7.70    2.70
  -6  -3  -5    7.80    3.00
  -6  -3  -5    5.90    1.40
  -6  -3  -5    7.80    2.30
  -6   3  -5    9.20    2.40
   6   3   5    6.80    2.70
  -6   3  -5    5.10    2.90
  -6   3  -5   11.00    1.70
  -6   3  -5    4.20    1.40
  -7  -3  -5   49.99    5.60
  -7  -3  -5   43.00    5.80
  -7  -3  -5   49.90    3.60
  -7  -3  -5   39.90    4.80
   7   3   5   42.70    5.60
  -7   3  -5   41.90    4.70
  -7   3  -5   47.60    5.40
  -7  -4   5   -0.50    4.40
  -7  -4   5    4.60    3.70
  -7  -4   5    0.10    5.60
  -7  -4   5    4.00    7.50
  -7   4   5    1.00    1.90
  -6  -4   5   -1.00    2.40
  -6  -4   5    0.30    4.40
  -6  -4   5    5.30    3.40
  -6  -4   5   -7.00    8.20
  -6  -4   5   -1.80    4.80
   6  -4  -5    5.00    6.00
  -6   4   5    1.10    2.80
  -6   4   5   -0.50    1.80
  -5  -4   5    0.50    2.60
  -5  -4   5    4.00    4.00
  -5  -4   5    4.80    3.30
  -5  -4   5    3.60    2.00
  -5   4   5    2.00    2.40
  -5   4   5    1.70    1.10
  -5   4   5    1.30    1.60
  -4  -4   5   62.89    6.50
  -4  -4   5   66.59    9.50
  -4  -4   5   57.19    5.80
  -4  -4   5   63.39    5.30
  -4  -4   5   63.79    4.90
  -4  -4   5   59.19    6.20
  -4  -4   5   57.59    7.20
  -4   4   5   75.19    8.00
  -4   4   5   66.79    4.40
  -4   4   5   66.49    5.20
  -4   4   5   64.09    4.60
  -4   4   5   66.09    4.70
  -4   4   5   63.69    4.20
  -3  -4   5   24.00    3.00
  -3  -4   5   22.70    3.10
  -3  -4   5   23.30    3.00
  -3  -4   5   25.00    2.90
  -3  -4   5   25.10    3.00
  -3  -4   5   22.40    3.30
  -3  -4   5   24.00    3.10
  -3   4   5   20.90    1.90
  -3   4   5   21.70    2.10
  -3   4   5   21.80    2.10
  -3   4   5   23.40    2.40
  -3   4   5   23.00    4.90
  -3   4   5   22.70    2.30
   2  -4  -5   19.40    2.20
  -2  -4   5   21.50    6.40
  -2  -4   5   17.30    2.30
  -2  -4   5   20.20    2.90
  -2  -4   5   16.70    2.20
  -2  -4   5   20.70    3.30
  -2  -4   5   15.10    2.90
  -2  -4   5   21.40    2.50
  -2  -4   5   19.30    2.40
   2   4  -5   23.10    2.20
  -2   4   5   18.20    2.30
  -2   4   5   20.60    2.00
  -2   4   5   17.60    2.20
  -2   4   5   20.40    4.50
  -2   4   5   17.50    1.80
  -1  -4   5    9.70    2.70
  -1  -4   5   13.30    1.40
  -1  -4   5   11.40    1.90
  -1  -4   5   14.10    2.10
  -1  -4   5    7.50    2.30
  -1  -4   5   14.90    4.10
   1  -4  -5   12.30    1.80
  -1   4   5   14.50    1.70
  -1   4   5   15.00    2.30
  -1   4   5   14.90    1.20
   0  -4  -5  327.67   18.70
   0  -4   5  335.37   19.80
   0  -4   5  270.77   18.70
   0   4   5  310.67   18.60
   0   4   5  308.67   18.50
   0   4   5  312.07   18.70
   0   4  -5  306.77   18.60
   1  -4   5   19.00    3.30
  -1  -4  -5   21.40    2.40
  -1  -4  -5   23.40    2.30
  -1  -4  -5   21.80    2.30
  -1   4  -5   22.60    1.90
   1   4   5   23.10    1.70
   1   4   5   24.10    2.40
   1   4   5   19.80    2.10
  -2  -4  -5   16.20    1.90
  -2  -4  -5   17.80    2.20
  -2  -4  -5   19.00    2.40
   2  -4   5   17.30    3.30
  -2   4  -5   14.80    1.60
   2   4   5   22.20    2.70
   2   4   5   17.00    1.70
   2   4   5   17.60    2.30
   3  -4   5   44.80    6.20
  -3  -4  -5   48.40    4.20
  -3  -4  -5   43.70    3.80
  -3  -4  -5   46.30    3.80
  -3  -4  -5   44.30    3.30
  -3   4  -5   47.90    3.30
  -3   4  -5   45.50    4.20
   3   4   5   50.79    4.10
  -3   4  -5   42.10    4.30
  -4  -4  -5   11.40    3.30
  -4  -4  -5   11.90    2.10
  -4  -4  -5   13.50    1.60
  -4  -4  -5   14.40    2.40
  -4  -4  -5   13.70    2.40
   4  -4   5    3.30    4.60
  -4   4  -5   10.30    2.20
  -4   4  -5   14.90    1.70
   4   4   5   13.20    2.50
  -4   4  -5   13.90    2.30
  -5  -4  -5    4.60    2.10
   5  -4   5    0.70    6.30
  -5  -4  -5    0.60    2.10
  -5   4  -5    4.60    1.30
  -5   4  -5    3.80    1.20
  -5   4  -5    2.50    2.30
   5   4   5    6.10    2.30
  -6  -4  -5    5.50    2.90
  -6  -4  -5    8.20    3.20
  -6  -4  -5    3.80    1.40
  -6   4  -5    4.10    2.40
   6   4   5    6.20    2.60
  -6   4  -5    5.60    1.50
  -6   4  -5    2.80    2.70
  -6   4  -5    5.40    1.60
  -7  -4  -5    1.30    1.60
  -7  -4  -5    4.00    3.00
  -7  -4  -5    0.30    4.60
  -7   4  -5    4.10    2.70
  -7   4  -5   13.60    3.00
  -6  -5   5    1.20    3.60
   6  -5  -5   -3.10    6.40
  -6  -5   5    3.90    2.70
  -6  -5   5    1.00    5.90
  -6  -5   5   11.90    5.60
  -6   5   5   -2.40    2.00
  -5  -5   5   53.29    6.70
  -5  -5   5   54.69    5.00
   5  -5  -5   64.69    7.30
  -5  -5   5   59.19    5.70
  -5  -5   5   46.90    6.70
  -5  -5   5   54.89    6.10
  -5   5   5   50.99    4.90
  -5   5   5   56.29    4.70
  -4  -5   5    2.40    3.90
  -4  -5   5    0.00    2.00
  -4  -5   5   -1.20    2.20
  -4  -5   5   -1.30    2.90
  -4  -5   5    0.50    3.40
  -4   5   5   -0.70    1.00
  -4   5   5   -0.60    1.50
  -4   5   5   -0.20    1.50
  -3  -5   5   -1.00    1.80
  -3  -5   5    1.10    2.70
  -3  -5   5    4.40    3.10
  -3  -5   5    4.20    1.90
  -3  -5   5    3.20    2.20
  -3  -5   5    2.00    3.10
  -3  -5   5    0.70    3.30
  -3   5   5    4.20    1.30
  -3   5   5    4.70    1.50
  -3   5   5    4.30    1.30
  -3   5   5    5.10    1.40
  -3   5   5    1.50    0.90
  -2  -5   5   23.90    2.90
  -2  -5   5   25.70    4.10
  -2  -5   5   29.30    3.60
  -2  -5   5   29.20    3.80
  -2  -5   5   31.20    4.00
  -2  -5   5   26.00    3.20
   2  -5  -5   31.10    3.20
  -2   5   5   27.80    2.60
  -2   5   5   30.20    2.80
  -2   5   5   30.20    2.20
  -1  -5   5    4.20    4.80
  -1  -5   5   -2.70    3.70
  -1  -5   5    2.20    1.90
   1  -5  -5    2.00    1.30
  -1  -5   5    0.10    2.60
  -1   5   5   -2.00    0.90
  -1   5   5   -0.50    0.60
   0  -5  -5   30.00    2.90
   0  -5   5   29.60    3.20
   0  -5   5   25.90    4.40
   0  -5   5   27.30    3.30
   0  -5  -5   25.00    3.40
   0   5  -5   30.10    3.20
   0   5   5   26.90    2.50
   0   5   5   26.20    2.00
  -1  -5  -5   35.00    3.20
   1  -5   5   33.80    4.60
  -1  -5  -5   32.40    3.30
  -1  -5  -5   31.40    3.40
   1   5   5   33.20    2.30
   1   5   5   27.20    2.90
  -1   5  -5   31.20    2.60
  -2  -5  -5    1.90    1.80
  -2  -5  -5   -1.00    1.40
   2  -5   5   -1.10    3.00
  -2  -5  -5    1.60    1.50
   2   5   5   -0.80    1.30
  -2   5  -5    1.00    0.90
   2   5   5    2.80    0.90
  -3  -5  -5  221.68   13.60
  -3  -5  -5  219.78   13.80
  -3  -5  -5  217.08   14.40
   3   5   5  225.58   13.80
  -3   5  -5  218.88   13.40
  -4  -5  -5   30.70    3.90
  -4  -5  -5   23.90    4.10
  -4  -5  -5   26.30    2.80
  -4  -5  -5   30.40    3.90
   4  -5   5   21.90    4.90
  -4   5  -5   29.70    3.70
  -4   5  -5   27.00    2.50
   4   5   5   30.80    4.60
  -5  -5  -5    0.20    1.40
   5  -5   5    2.20    6.60
  -5  -5  -5   16.60    6.20
  -5  -5  -5    2.10    2.60
  -5  -5  -5    4.20    2.30
  -5   5  -5    2.80    2.50
  -5   5  -5    4.40    3.40
   5   5   5    1.90    2.20
  -5   5  -5    0.20    1.30
  -5   5  -5   -0.80    1.40
  -6  -5  -5    4.80    3.00
  -6  -5  -5   10.90    3.40
  -6  -5  -5    4.40    1.60
  -6   5  -5    2.20    1.90
   6   5   5    4.40    2.80
   6  -6  -5    4.40    8.10
  -6  -6   5   13.60    4.10
  -6  -6   5   -1.40    6.20
  -6  -6   5   17.30    7.90
  -6  -6   5    7.60    2.90
  -6   6   5   -0.70    2.50
   5  -6  -5   12.80    4.90
  -5  -6   5   10.30    6.80
  -5  -6   5    7.30    2.60
  -5  -6   5    9.60    5.10
  -5  -6   5   17.30    3.40
  -5  -6   5    0.10    5.20
  -5   6   5   11.80    2.50
  -5   6   5   10.60    1.70
  -4  -6   5   27.30    5.30
   4  -6  -5   32.60    4.70
  -4  -6   5   24.70    3.40
  -4  -6   5   29.50    4.10
  -4  -6   5   35.00    4.50
  -4  -6   5   39.10    7.00
  -4   6   5   30.90    2.60
  -4   6   5   30.70    3.00
  -3  -6   5   55.19    5.60
  -3  -6   5   62.09    8.50
  -3  -6   5   68.49    8.80
  -3  -6   5   71.69    5.40
  -3   6   5   70.39    4.40
  -3   6   5   68.29    4.80
   2  -6  -5   54.79    5.00
  -2  -6   5   52.29    5.00
  -2  -6   5   44.50    6.50
  -2  -6   5   36.90    4.70
  -2  -6   5   44.90    6.20
  -2  -6   5   43.40    5.50
  -2   6   5   51.79    3.80
  -2   6   5   50.89    3.40
   1  -6  -5    6.70    2.10
  -1  -6   5   -4.40    4.70
  -1  -6   5    3.70    4.00
  -1  -6   5    2.10    2.10
  -1  -6   5   -2.60    5.90
  -1  -6   5    1.20    3.20
  -1   6   5    3.30    1.20
  -1   6   5    4.00    0.80
   0  -6   5    6.10    4.70
   0  -6  -5   -0.90    1.90
   0   6   5    0.60    1.20
   0   6  -5    0.10    1.50
   0   6   5   -0.10    0.70
  -1  -6  -5  266.87   16.60
  -1  -6  -5  245.88   16.80
   1  -6   5  267.87   18.30
   1   6   5  273.87   16.10
   1   6   5  270.47   16.50
  -1   6  -5  282.17   16.30
  -2  -6  -5   76.79    5.90
  -2  -6  -5   86.79    6.30
  -2  -6  -5   78.19    5.80
   2  -6   5   74.69    8.40
   2   6   5   78.29    5.60
   2   6   5   73.09    5.10
  -2   6  -5   80.09    5.20
  -3  -6  -5  145.29   10.90
  -3  -6  -5  153.78    9.80
  -3  -6  -5  160.68   10.70
  -3  -6  -5  151.98   10.00
   3  -6   5  152.98   12.30
  -3  -6  -5  151.48   10.10
   3   6   5  145.39    9.80
  -3   6  -5  149.69    9.50
  -4  -6  -5   17.30    3.00
  -4  -6  -5   19.70    2.30
  -4  -6  -5   15.60    4.50
   4  -6   5   12.10    6.30
  -4  -6  -5   20.30    3.00
   4   6   5   21.40    2.50
  -4   6  -5   16.60    1.90
  -5  -6  -5    1.60    3.00
  -5  -6  -5    0.20    1.70
  -5  -6  -5    4.00    6.90
  -5  -6  -5    2.70    2.60
   5  -6   5    2.30    7.30
  -5   6  -5   -3.90    1.50
   5   6   5    3.00    2.20
  -6  -6  -5   10.10    4.50
  -6  -6  -5   11.10    3.10
  -6  -6  -5    6.90    1.80
  -5  -7   5   25.40    6.20
  -5  -7   5   19.90    3.00
   5  -7  -5   26.90    5.50
  -5  -7   5   24.80    3.90
  -5  -7   5   14.10    7.60
  -5   7   5   18.30    2.10
  -4  -7   5   13.00    2.70
   4  -7  -5   25.10    4.90
  -4  -7   5   20.90    3.40
  -4  -7   5   23.00    7.60
  -4  -7   5   20.00    3.90
  -4   7   5   19.90    2.10
  -3  -7   5   89.99   11.40
  -3  -7   5  120.79    8.70
  -3  -7   5  123.09    9.20
   3  -7  -5  150.88   10.30
  -3   7   5  128.89    7.90
  -3   7   5  130.69    8.20
   2  -7  -5   38.40    5.10
  -2  -7   5   39.50    5.00
   2  -7  -5   48.10    6.20
  -2   7   5   41.60    3.00
  -2   7   5   35.80    3.40
  -2   7   5   44.60    3.80
   1  -7  -5    2.30    3.30
   1  -7  -5    1.60    2.90
  -1  -7   5    3.50    2.40
  -1   7   5    2.20    1.20
  -1   7   5    4.20    1.00
   0  -7  -5    2.20    2.50
   0  -7  -5    1.70    3.80
   0  -7   5    0.00    6.30
   0   7   5    0.60    0.90
   0   7  -5   -0.60    1.40
   0   7   5    1.10    1.40
  -1  -7  -5   17.90    3.30
   1  -7   5   18.10    5.80
  -1   7  -5   22.40    2.60
   1   7   5   18.70    2.00
   1   7   5   23.40    2.70
  -2  -7  -5   26.90    3.90
  -2  -7  -5   26.30    3.80
  -2  -7  -5   21.20    3.50
   2  -7   5   21.30    5.90
  -2  -7  -5   29.10    3.90
  -2   7  -5   26.40    2.90
   2   7   5   28.60    3.00
   2   7   5   22.20    2.70
  -3  -7  -5    7.60    3.10
  -3  -7  -5    8.00    2.40
  -3  -7  -5   12.90    2.70
   3  -7   5   11.60    6.20
  -3  -7  -5    2.70    3.70
   3   7   5    9.10    2.00
  -3   7  -5   12.70    2.60
  -4  -7  -5   24.30    5.50
  -4  -7  -5   19.60    3.00
  -4  -7  -5   13.20    2.50
   4  -7   5   17.60   10.30
  -4  -7  -5   11.50    3.90
   4   7   5   19.00    2.40
  -4   7  -5   13.40    1.90
   5  -7   5   -6.70    8.80
  -5  -7  -5   -1.40    4.50
  -5  -7  -5   -1.00    3.10
  -5  -7  -5   -0.80    1.90
  -5   7  -5    0.00    1.40
   5   7   5    2.50    2.80
  -4  -8   5   10.70    4.60
   4  -8  -5    4.40    6.10
  -4  -8   5   10.60    3.40
  -4   8   5   12.50    1.50
  -3  -8   5  216.98   14.50
  -3  -8   5  216.18   13.90
   3  -8  -5  219.38   15.30
  -3   8   5  219.18   13.10
  -3   8   5  210.88   13.90
   2  -8  -5    0.40    4.40
  -2  -8   5   -0.10    2.50
  -2  -8   5   -0.10    2.40
  -2   8   5    2.60    1.40
  -2   8   5   -0.40    1.00
   2   8  -5   -1.20    2.80
  -2   8   5   -0.40    2.10
   1  -8  -5   -0.80    4.50
   1  -8  -5   -3.90    4.70
  -1  -8   5    1.80    2.50
   1   8  -5    1.60    2.20
  -1   8   5   -1.00    1.40
   1   8  -5   -4.20    1.30
  -1   8   5    0.30    0.90
   0  -8   5   14.70    9.00
   0  -8   5   24.90    3.40
   0  -8  -5   30.30    4.50
   0   8  -5   31.70    3.30
   0   8   5   23.20    2.80
   0   8   5   25.40    2.30
   1  -8   5   -0.40    6.90
   1  -8   5    0.50    2.70
  -1  -8  -5    2.90    3.60
   1   8   5   -0.40    1.20
  -1   8  -5    0.20    1.70
   1   8   5    2.20    1.50
   2  -8   5  393.06   28.10
  -2  -8  -5  410.16   26.30
   2  -8   5  399.96   25.70
  -2  -8  -5  431.06   25.50
   2   8   5  438.06   25.30
  -2   8  -5  424.56   25.20
  -3  -8  -5   17.30    3.00
  -3  -8  -5   17.50    5.20
   3  -8   5   20.10    7.90
  -3  -8  -5   11.50    5.00
   3   8   5   21.60    3.00
  -3   8  -5   20.70    2.30
  -4  -8  -5    3.50    3.00
  -4  -8  -5   -3.80    8.50
   4  -8   5   -1.60    9.10
  -4  -8  -5    5.90    2.60
  -4   8  -5    3.10    1.30
   4   8   5    2.60    2.50
  -2  -9   5    2.90    3.30
  -2  -9   5   -3.80    2.70
  -2   9   5    3.70    1.20
  -1  -9   5    8.00    3.10
  -1   9   5    7.00    1.70
  -1   9   5    4.90    1.30
   0  -9   5    5.10    3.60
   0  -9  -5   14.00    5.70
   0   9   5    6.10    1.40
   0   9   5    4.90    2.00
   0   9  -5    6.50    2.20
   1  -9   5   26.80   12.30
  -1  -9  -5    5.70    4.80
   1  -9   5    5.60    3.30
   1   9   5   -2.00    1.70
  -1   9  -5    0.30    1.20
   2  -9   5    7.40   15.90
   2  -9   5    4.60    4.40
  -2  -9  -5    7.70    4.10
  -2  -9  -5    6.50    5.00
  -2  -9  -5   -1.50    2.50
  -2   9  -5    0.50    1.00
   2   9   5    2.50    2.00
  -8   0   6    0.30    2.30
  -7   0   6   -2.30    4.00
  -7   0   6    3.60    6.10
  -7   0   6   -2.50    1.70
  -7   0   6   -1.00    2.00
  -6   0   6   42.40    6.70
  -6   0   6   66.59    4.30
  -6   0   6   59.79    6.20
  -6   0   6   64.79    4.80
  -5   0   6   -3.60    3.80
  -5   0   6    1.80    4.30
  -5   0   6   -4.10    2.60
  -5   0   6   -2.70    3.50
  -5   0   6    0.50    1.00
  -5   0   6    0.90    1.30
  -5   0   6   -1.40    5.30
  -5   0   6   -1.30    4.60
  -4   0   6  201.38   12.50
  -4   0   6  215.78   13.00
  -4   0   6  188.48   13.30
  -4   0   6  212.38   13.60
  -4   0   6  215.48   12.50
  -4   0   6  193.38   13.00
  -4   0   6  214.68   13.30
  -3   0   6    7.90    2.50
   3   0  -6    6.90    0.80
  -3   0   6    7.60    0.90
  -3   0   6    9.20    1.90
  -3   0   6    6.70    1.10
  -3   0   6    5.10    2.40
  -2   0   6   28.10    4.60
   2   0  -6   19.80    1.90
  -2   0   6   14.80    2.60
  -2   0   6   24.10    2.60
   2   0  -6   20.70    3.70
  -2   0   6   26.20    1.60
  -1   0   6  273.57   18.90
  -1   0   6  251.07   17.50
   1   0  -6  270.47   16.30
  -1   0   6  289.77   16.30
   1   0  -6  278.47   18.50
   0   0   6   87.29    7.60
   0   0   6   82.99   10.20
   0   0  -6   99.99   10.40
   0   0  -6  103.79    5.90
   0   0  -6  101.49    5.90
  -1   0  -6  292.47   24.70
  -1   0  -6  336.17   19.10
  -1   0  -6  327.47   19.10
   1   0   6  286.07   20.10
   1   0   6  337.07   26.40
  -2   0  -6   42.40    2.60
  -2   0  -6   29.10   10.20
  -2   0  -6   40.70    2.90
   2   0   6   22.50    8.80
   2   0   6   36.40    4.40
  -2   0  -6   43.50    2.60
  -3   0  -6   78.29    5.10
  -3   0  -6   80.49    5.80
  -3   0  -6   88.69    5.10
   3   0   6   70.19    8.40
  -4   0  -6   -0.10    0.60
  -4   0  -6   -3.30    1.80
  -4   0  -6   -1.20    1.30
  -4   0  -6   -1.50    1.40
  -4   0  -6    0.80    0.70
  -5   0  -6    0.80    1.70
  -5   0  -6    0.50    0.90
  -5   0  -6   -3.80    2.20
  -5   0  -6    0.20    0.90
  -5   0  -6    0.60    1.90
  -6   0  -6   -0.10    1.00
  -6   0  -6    5.30    2.00
  -6   0  -6   -0.60    1.40
  -6   0  -6   -1.00    2.90
  -7   0  -6    1.90    1.30
  -7   0  -6   -2.60    2.90
  -7   0  -6    3.30    2.10
  -7   0  -6    3.80    2.40
  -7  -1   6    8.40    2.30
  -7  -1   6    7.20    5.10
  -7  -1   6    9.30    2.30
  -7  -1   6    0.20    4.00
  -7  -1   6    9.80    8.40
  -7   1   6    7.20    7.60
  -7   1   6    9.20    4.00
  -7   1   6    8.60    2.00
  -7   1   6    8.30    1.70
  -6  -1   6   31.50    3.80
  -6  -1   6   41.20    7.20
  -6  -1   6   33.00    3.00
  -6  -1   6   33.00    4.20
  -6  -1   6   33.30    7.30
  -6  -1   6   29.60    6.70
  -6   1   6   25.80    6.30
  -6   1   6   38.40    7.90
  -6   1   6   39.30    4.80
  -6   1   6   33.10    4.20
  -6   1   6   38.80    2.90
  -5  -1   6   13.50    2.90
  -5  -1   6   17.40    2.00
  -5  -1   6   14.10    4.30
  -5  -1   6   18.80    4.10
  -5  -1   6   22.90    4.00
  -5  -1   6   17.00    4.50
  -5  -1   6   14.90    3.70
  -5  -1   6   17.10    2.00
  -5   1   6   20.40    2.60
  -5   1   6   18.50    3.00
  -5   1   6   19.40    5.10
  -5   1   6   19.80    4.50
  -5   1   6    7.00    6.50
  -5   1   6   19.60    2.00
  -4  -1   6    2.80    0.90
  -4  -1   6    9.70    2.60
  -4  -1   6    3.00    2.20
  -4  -1   6    3.70    1.90
  -4  -1   6    0.80    2.40
  -4  -1   6   -0.70    2.60
  -4  -1   6    4.00    1.20
  -4  -1   6    2.80    2.20
  -4  -1   6    4.10    2.00
  -4   1   6    6.50    2.20
  -4   1   6    3.70    3.20
  -4   1   6    3.90    0.90
  -4   1   6    0.30    4.40
  -4   1   6    6.80    3.30
  -4   1   6    2.20    1.20
  -4   1   6    5.80    2.50
  -3  -1   6   15.90    2.40
  -3  -1   6   12.50    1.50
  -3  -1   6   15.20    1.30
  -3  -1   6   13.20    2.50
   3  -1  -6   14.60    1.50
  -3  -1   6   17.90    2.80
   3   1  -6   13.30    1.30
  -3   1   6   13.10    1.30
  -3   1   6   16.30    1.80
  -3   1   6   14.50    2.70
  -3   1   6    7.00    3.10
  -3   1   6   17.20    3.10
  -2  -1   6   19.70    2.40
  -2  -1   6   14.20    2.50
  -2  -1   6   18.40    1.40
   2  -1  -6   17.50    1.40
  -2  -1   6   15.20    2.30
   2  -1  -6   14.90    4.90
  -2  -1   6   23.90    4.60
  -2  -1   6   22.20    5.90
  -2   1   6   23.30    5.10
  -2   1   6   26.70    2.90
  -2   1   6   19.70    1.40
   2   1  -6   16.50    1.40
  -2   1   6   18.00    1.40
  -2   1   6   17.80    1.90
  -1  -1   6  120.49   10.10
  -1  -1   6  136.69    8.50
   1  -1  -6  143.09    8.40
  -1  -1   6  136.49   12.40
   1  -1  -6  124.79   12.20
   1   1  -6  141.49    8.40
   1   1  -6  153.78   11.60
  -1   1   6  140.39    8.40
  -1   1   6  147.99    8.40
  -1   1   6  146.09   12.20
   0  -1   6   -9.00    5.20
   0  -1  -6    1.00    0.40
   0  -1   6    0.40    2.70
   0  -1  -6   -7.90    5.90
   0  -1   6    0.30    1.80
   0  -1  -6    2.00    0.40
   0   1   6    1.10    2.80
   0   1   6    1.00    0.40
   0   1  -6    1.50    0.40
   0   1  -6    1.60    0.50
   0   1  -6   -1.50    5.00
   0   1   6    1.70    4.80
   1  -1   6   39.50    5.00
  -1  -1  -6   55.19    9.70
  -1  -1  -6   42.00    2.80
  -1  -1  -6   43.80    2.90
  -1  -1  -6   44.70    2.70
   1  -1   6   34.40    7.90
   1   1   6   48.50    8.10
   1   1   6   43.40    5.50
   1   1   6   44.10    2.80
  -1   1  -6   26.60    7.40
  -1   1  -6   43.60    2.70
  -1   1  -6   44.30    2.80
  -2  -1  -6  430.36   24.50
  -2  -1  -6  428.26   24.50
   2  -1   6  425.46   25.50
  -2  -1  -6  422.86   24.60
   2  -1   6  353.66   30.20
  -2  -1  -6  416.76   24.50
  -2   1  -6  424.76   24.50
   2   1   6  444.36   24.50
   2   1   6  365.56   25.70
  -2   1  -6  360.66   30.10
   2   1   6  345.47   29.80
  -2   1  -6  442.56   24.50
  -3  -1  -6   66.59    4.60
  -3  -1  -6   65.69    4.10
  -3  -1  -6   63.19    4.20
  -3  -1  -6   66.89    4.80
  -3  -1  -6   63.59    4.10
  -3   1  -6   67.09    5.00
  -3   1  -6   59.99    4.10
  -3   1  -6   65.69    4.70
  -3   1  -6   66.69    4.10
  -4  -1  -6    8.20    2.20
   4  -1   6    4.10    5.50
  -4  -1  -6   10.20    1.20
  -4  -1  -6    9.30    1.80
  -4  -1  -6    8.00    1.00
  -4  -1  -6    8.80    1.60
  -4   1  -6    9.30    1.20
  -4   1  -6    8.60    1.70
  -4   1  -6    6.30    2.10
  -4   1  -6   10.50    1.80
  -5  -1  -6    1.00    0.80
  -5  -1  -6    0.60    1.70
  -5  -1  -6    2.00    2.20
  -5  -1  -6    3.20    1.90
  -5  -1  -6    0.80    0.90
  -5   1  -6    0.90    0.90
  -5   1  -6   -2.00    2.30
  -5   1  -6   -0.20    0.90
  -5   1  -6    1.10    1.70
  -6  -1  -6    1.20    1.10
  -6  -1  -6    1.20    2.50
  -6  -1  -6    7.80    3.30
  -6  -1  -6    2.50    1.40
  -6  -1  -6   -1.60    2.00
  -6   1  -6    2.80    1.30
  -6   1  -6    4.00    3.00
  -6   1  -6    2.40    1.10
  -6   1  -6    2.20    1.90
  -7  -1  -6   26.30    3.10
  -7  -1  -6   29.90    4.00
  -7  -1  -6   31.40    2.80
  -7   1  -6   32.90    3.90
   7   1   6   35.30    4.20
  -7   1  -6   31.30    4.00
  -7   1  -6   27.60    2.80
  -7   1  -6   26.70    3.10
  -7  -2   6   -5.40    5.10
  -7  -2   6    6.60    4.30
  -7  -2   6    0.80    6.70
  -7   2   6   -2.30    2.20
  -7   2   6    7.30    4.00
  -7   2   6   -0.60    1.80
  -6  -2   6   -1.50    2.40
  -6  -2   6    4.80    4.80
  -6  -2   6    0.20    1.50
  -6  -2   6   -9.00    5.80
  -6  -2   6    3.70    4.90
  -6  -2   6   -0.40    3.40
  -6   2   6  -10.10    7.50
  -6   2   6    4.00    9.00
  -6   2   6    0.30    1.20
  -6   2   6   -2.10    1.60
  -6   2   6   -2.10    3.20
  -5  -2   6    1.00    2.10
  -5  -2   6    2.80    2.60
  -5  -2   6    2.20    1.70
  -5  -2   6    6.00    4.40
  -5  -2   6    1.40    3.60
  -5  -2   6    2.10    1.20
  -5  -2   6    0.40    3.40
  -5  -2   6    1.60    3.30
  -5  -2   6    2.60    3.30
  -5   2   6    0.60    2.50
  -5   2   6   -4.60    5.10
  -5   2   6    1.60    1.40
  -5   2   6    5.30    5.60
  -4  -2   6    6.60    2.40
  -4  -2   6   14.60    2.60
  -4  -2   6    9.80    2.90
  -4  -2   6    9.10    1.60
  -4  -2   6   11.00    2.60
  -4  -2   6    9.40    2.30
  -4  -2   6    9.40    1.20
  -4  -2   6    9.70    2.70
  -4   2   6    9.50    1.20
  -4   2   6   10.90    3.90
  -4   2   6    5.50    4.20
  -4   2   6    9.10    1.40
  -4   2   6    5.50    4.10
  -3  -2   6   67.39    4.20
   3  -2  -6   62.79    4.30
   3  -2  -6   66.39    4.30
  -3  -2   6   62.59    5.00
  -3  -2   6   66.09    4.70
  -3  -2   6   65.29    6.00
  -3  -2   6   61.59    5.60
  -3  -2   6   71.69    5.10
  -3   2   6   63.19    4.20
   3   2  -6   67.39    4.20
  -3   2   6   62.39    4.10
  -3   2   6   68.69    4.40
  -3   2   6   60.79    4.40
  -3   2   6   61.99    7.60
  -3   2   6   70.49    4.20
  -3   2   6   60.69    5.20
  -3   2   6   64.59    6.80
  -2  -2   6    4.90    1.40
   2  -2  -6    2.70    0.80
  -2  -2   6    5.10    2.10
  -2  -2   6    3.50    1.60
  -2  -2   6    3.40    4.50
  -2  -2   6    4.60    0.70
   2  -2  -6    4.80    0.80
  -2  -2   6    4.10    1.50
  -2   2   6    4.30    0.70
  -2   2   6    4.80    0.70
  -2   2   6    3.20    1.00
  -2   2   6    4.50    0.70
  -2   2   6    4.40    0.90
  -2   2   6    3.90    3.00
  -2   2   6    5.70    2.50
  -1  -2   6   15.30    3.70
  -1  -2   6   12.20    1.80
   1  -2  -6   10.90    1.20
   1  -2  -6   11.40    1.20
  -1  -2   6    8.20    2.30
  -1  -2   6   15.80    2.10
  -1   2   6   12.90    1.10
  -1   2   6   15.60    2.80
  -1   2   6   10.50    1.20
   1   2  -6   12.40    1.10
  -1   2   6   10.40    1.20
  -1   2   6   12.60    1.10
   0  -2   6  540.25   36.30
   0  -2  -6  571.44   32.90
   0  -2  -6  517.25   37.10
   0  -2  -6  569.84   32.90
   0  -2   6  529.25   33.70
   0   2   6  584.94   32.90
   0   2  -6  552.14   36.10
   0   2   6  539.55   33.00
   0   2   6  540.45   36.00
   0   2  -6  567.84   32.80
   1  -2   6   48.60    5.30
   1  -2   6   43.90    9.40
  -1  -2  -6   31.60   10.00
  -1  -2  -6   50.49    3.10
  -1  -2  -6   48.40    3.20
  -1  -2  -6   49.00    3.20
  -1   2  -6   29.20    8.90
   1   2   6   37.80    9.30
   1   2   6   50.59    3.90
   1   2   6   49.00    3.10
  -1   2  -6   48.70    3.10
  -2  -2  -6  217.88   12.90
  -2  -2  -6  208.38   13.00
  -2  -2  -6  213.28   12.80
  -2  -2  -6  219.48   12.80
  -2  -2  -6  203.08   12.80
   2  -2   6  209.28   14.00
   2   2   6  229.58   12.80
   2   2   6  218.08   12.80
  -2   2  -6  218.68   12.80
  -2   2  -6  203.68   13.20
  -2   2  -6  211.68   13.10
  -2   2  -6  198.98   12.80
  -3  -2  -6   22.80    1.80
  -3  -2  -6   24.40    2.30
   3  -2   6   15.20    3.60
  -3  -2  -6   23.60    1.90
  -3  -2  -6   22.90    2.50
  -3  -2  -6   27.00    2.70
  -3  -2  -6   23.30    2.70
  -3   2  -6   22.50    2.70
  -3   2  -6   25.60    3.20
  -3   2  -6   17.90    2.20
   3   2   6   23.80    2.10
  -3   2  -6   24.80    1.80
  -4  -2  -6   12.40    1.60
  -4  -2  -6   11.40    2.20
  -4  -2  -6   13.40    2.10
   4  -2   6   12.30    5.00
  -4  -2  -6   12.60    2.00
  -4  -2  -6   12.00    1.50
  -4   2  -6   11.10    1.80
  -4   2  -6   12.90    2.40
  -4   2  -6   14.30    1.40
  -5  -2  -6   37.60    2.90
  -5  -2  -6   38.10    4.60
  -5  -2  -6   44.50    4.20
  -5  -2  -6   36.20    3.70
  -5  -2  -6   34.90    2.90
  -5   2  -6   36.40    3.70
  -5   2  -6   32.30    2.80
  -5   2  -6   44.00    4.50
  -5   2  -6   37.80    2.80
  -6  -2  -6    8.00    2.20
  -6  -2  -6    3.90    1.20
  -6  -2  -6    3.20    2.90
  -6  -2  -6    7.00    2.60
  -6   2  -6    6.70    3.10
  -6   2  -6    5.00    1.20
   6   2   6    5.30    3.10
  -6   2  -6    7.20    1.60
  -6   2  -6    2.10    2.00
  -7  -2  -6   18.90    5.10
  -7  -2  -6   10.30    2.40
  -7  -2  -6   11.90    3.30
  -7  -2  -6   13.10    1.70
  -7   2  -6    7.80    2.10
  -7   2  -6   19.30    3.40
   7   2   6    7.10    3.10
  -7   2  -6   13.10    2.50
  -7   2  -6   11.00    1.70
  -7  -3   6    0.50    4.90
  -7  -3   6    6.10    7.00
  -7   3   6    2.70    1.80
  -6  -3   6   10.00    4.70
  -6  -3   6   18.30    6.30
  -6  -3   6   16.20    5.50
  -6  -3   6   15.60    3.20
  -6  -3   6   18.50    3.90
  -6   3   6   21.00    2.40
  -6   3   6   18.90    2.40
  -6   3   6   17.00    3.60
  -6   3   6   16.40    8.90
  -5  -3   6   89.79    6.30
  -5  -3   6   64.79    7.80
  -5  -3   6   82.59    8.20
  -5  -3   6   63.59    9.00
  -5  -3   6   86.59    7.90
  -5  -3   6   81.39    5.60
  -5  -3   6   79.69    8.00
  -5  -3   6   72.39    6.70
  -5   3   6   78.69    6.60
  -5   3   6   82.49    5.50
  -5   3   6   94.59    5.80
  -5   3   6   90.19   11.30
  -4  -3   6   71.19    6.60
  -4  -3   6   74.39    6.10
  -4  -3   6   63.09    5.90
  -4  -3   6   70.29    4.40
  -4  -3   6   65.29    5.10
  -4  -3   6   63.99    6.10
  -4  -3   6   60.89    6.90
  -4  -3   6   63.79    5.40
  -4   3   6   66.09    4.30
  -4   3   6   58.29    5.30
  -4   3   6   63.79    4.40
  -4   3   6   65.49    4.60
  -4   3   6   75.29    8.60
  -3  -3   6   31.00    4.00
  -3  -3   6   38.10    3.90
   3  -3  -6   35.70    2.90
  -3  -3   6   46.20    4.30
  -3  -3   6   34.00    4.60
  -3  -3   6   35.40    4.10
  -3  -3   6   34.10    3.60
  -3  -3   6   35.20    3.50
  -3  -3   6   37.10    2.60
  -3   3   6   31.10    2.70
  -3   3   6   36.40    2.90
  -3   3   6   34.60    2.90
  -3   3   6   35.00    3.60
  -3   3   6   38.30    2.50
  -3   3   6   47.50    4.90
  -3   3   6   38.10    2.60
  -2  -3   6   81.49    5.00
  -2  -3   6   86.99    5.80
   2  -3  -6   78.59    5.20
  -2  -3   6   73.89    6.30
   2  -3  -6   77.19    5.30
  -2  -3   6   75.59    9.70
  -2  -3   6   73.79    5.70
  -2  -3   6   82.09    5.70
  -2   3   6   84.79    7.30
  -2   3   6   79.89    5.10
  -2   3   6   82.99    5.10
  -2   3   6   85.09    5.20
  -2   3   6   87.19    5.30
  -2   3   6   82.19    5.00
   1  -3  -6   67.29    4.60
  -1  -3   6   81.29    5.20
  -1  -3   6   75.59    4.90
  -1  -3   6   63.69    7.30
   1  -3  -6   74.89    4.60
  -1  -3   6   55.29    5.20
  -1   3   6   63.99    6.80
  -1   3   6   72.29    4.70
  -1   3   6   74.49    4.50
  -1   3   6   70.59    4.50
  -1   3   6   78.79    4.60
  -1   3   6   71.99    4.70
   0  -3   6  192.18   12.20
   0  -3  -6  183.48   11.90
   0  -3  -6  206.38   12.00
   0  -3   6  190.58   13.40
   0   3  -6  209.68   11.90
   0   3   6  181.38   13.50
   0   3   6  202.08   12.00
   0   3   6  197.48   11.80
   0   3   6  203.38   11.90
   1  -3   6   56.19    5.60
  -1  -3  -6   54.99    3.60
  -1  -3  -6   50.29    3.50
   1   3   6   52.19    3.30
   1   3   6   50.99    3.40
  -1   3  -6   54.09    3.40
   1   3   6   50.39    3.90
  -1   3  -6   46.90    4.10
  -2  -3  -6   47.30    3.10
  -2  -3  -6   42.50    3.50
  -2  -3  -6   49.00    3.40
  -2  -3  -6   46.40    3.60
   2  -3   6   36.60    5.40
   2   3   6   45.60    3.10
   2   3   6   43.70    3.00
  -2   3  -6   43.20    3.90
   2   3   6   43.30    3.90
  -2   3  -6   38.80    4.00
  -2   3  -6   46.50    3.00
  -3  -3  -6    4.60    1.60
  -3  -3  -6    3.50    1.60
  -3  -3  -6    3.80    1.30
  -3  -3  -6    5.00    0.90
   3  -3   6    4.50    3.40
  -3   3  -6    3.20    1.80
  -3   3  -6    3.50    0.80
  -3   3  -6    2.30    1.50
   3   3   6    4.30    1.40
   3   3   6    4.30    1.80
  -4  -3  -6    0.40    2.70
  -4  -3  -6    0.60    0.90
  -4  -3  -6    0.30    1.90
  -4  -3  -6    1.20    1.40
   4  -3   6    2.60    4.20
  -4  -3  -6    1.60    1.90
  -4   3  -6    3.40    2.00
   4   3   6    3.00    2.20
  -4   3  -6    1.10    1.60
  -4   3  -6   -0.80    0.80
  -5  -3  -6   12.10    2.50
  -5  -3  -6    3.30    2.60
  -5  -3  -6    9.80    2.20
   5  -3   6   13.40    7.40
  -5  -3  -6    8.30    1.40
  -5   3  -6    4.90    1.90
  -5   3  -6    7.40    1.20
  -5   3  -6    7.60    1.30
  -5   3  -6    9.10    2.70
  -6  -3  -6   13.70    1.70
  -6  -3  -6   11.80    3.30
  -6  -3  -6   16.90    3.00
  -6  -3  -6   14.10    2.50
  -6   3  -6   14.80    1.80
  -6   3  -6   15.70    1.70
  -6   3  -6   13.80    2.60
  -6   3  -6   11.80    3.20
   6   3   6   21.80    3.20
  -7  -3  -6   22.80    4.00
  -7  -3  -6   31.90    3.60
  -7  -3  -6   34.30    2.90
  -7  -3  -6   33.90    5.00
   7   3   6   29.00    3.80
  -7   3  -6   35.50    4.30
  -7   3  -6   36.10    4.90
  -7   3  -6   31.20    3.60
  -7  -4   6    3.80    7.20
  -6  -4   6    4.70    5.30
  -6  -4   6   -4.00    3.60
  -6  -4   6   -4.90    6.10
  -6  -4   6   14.30    5.20
   6  -4  -6   14.40    6.00
  -6  -4   6    2.70    3.00
  -6   4   6    3.90    1.90
  -5  -4   6    1.20    3.90
  -5  -4   6    2.60    4.20
  -5  -4   6   -0.10    2.90
  -5  -4   6    0.50    3.70
  -5  -4   6   -0.40    2.30
  -5   4   6    4.10    1.80
  -5   4   6   -2.30    2.50
  -5   4   6    3.30    1.40
  -4  -4   6  137.79    9.60
  -4  -4   6  120.79    8.80
  -4  -4   6  125.99   10.50
  -4  -4   6  131.69   10.00
  -4  -4   6  119.39   10.10
  -4  -4   6  143.89    9.00
  -4  -4   6  125.29    9.70
  -4   4   6  132.19   12.70
  -4   4   6  140.39    8.50
  -4   4   6  136.59    8.90
  -4   4   6  136.19    8.30
  -4   4   6  132.59    8.20
  -3  -4   6    1.10    2.70
  -3  -4   6    1.70    1.70
  -3  -4   6    1.40    2.00
   3  -4  -6    0.30    1.80
  -3  -4   6   -0.80    1.80
  -3  -4   6   -0.40    2.20
  -3  -4   6    3.60    2.40
  -3  -4   6    0.70    2.20
  -3   4   6    2.00    0.80
  -3   4   6    1.00    1.00
  -3   4   6    0.00    1.10
  -3   4   6    2.00    1.20
  -3   4   6   10.40    4.30
  -3   4   6    1.80    1.10
  -2  -4   6    9.90    3.00
   2  -4  -6   13.50    2.00
  -2  -4   6   10.90    2.00
  -2  -4   6   21.10    6.80
  -2  -4   6   12.20    2.20
  -2  -4   6   14.90    2.50
  -2  -4   6   17.60    2.40
  -2  -4   6   13.50    2.10
  -2   4   6    9.30    3.90
  -2   4   6   11.20    1.40
  -2   4   6   12.80    1.70
  -2   4   6   12.60    1.40
  -2   4   6   11.30    2.00
  -2   4   6   14.00    1.40
  -1  -4   6   11.50    1.90
  -1  -4   6   13.00    4.30
  -1  -4   6    9.30    1.20
   1  -4  -6    8.00    1.30
  -1  -4   6    8.20    2.00
  -1  -4   6   10.70    3.00
  -1  -4   6    8.50    1.90
  -1   4   6    8.90    1.30
  -1   4   6    9.10    0.90
  -1   4   6    8.30    1.30
   0  -4   6    1.00    1.70
   0  -4   6    4.60    3.20
   0  -4  -6    2.50    1.00
   0  -4   6   -6.70    3.50
   0   4   6    1.10    1.00
   0   4   6    1.30    0.50
   0   4   6    1.10    1.00
   0   4  -6    1.00    0.80
  -1  -4  -6 1644.74   95.39
  -1  -4  -6 1610.74   95.19
   1  -4   6 1620.44   96.19
   1   4   6 1617.64   95.19
   1   4   6 1617.54   95.39
  -1   4  -6 1665.23   95.19
   1   4   6 1468.35   95.19
  -2  -4  -6    1.00    1.20
   2  -4   6    2.40    3.10
  -2  -4  -6    0.30    1.00
  -2  -4  -6    1.50    1.40
  -2  -4  -6   -1.50    1.40
  -2   4  -6    1.30    0.80
   2   4   6    1.50    1.40
  -2   4  -6    2.50    1.50
   2   4   6    1.30    0.90
  -3  -4  -6    8.20    1.90
  -3  -4  -6   11.40    2.10
  -3  -4  -6   10.80    1.30
   3  -4   6    4.40    3.40
  -3  -4  -6    9.80    1.80
  -3   4  -6   10.40    2.10
  -3   4  -6    7.50    2.00
  -3   4  -6    7.60    1.10
   3   4   6    8.70    2.00
   4  -4   6   20.20    5.30
  -4  -4  -6   23.70    4.50
  -4  -4  -6   22.50    2.80
  -4  -4  -6   19.90    2.30
  -4  -4  -6   25.60    3.10
  -4  -4  -6   25.30    2.90
  -4   4  -6   25.00    2.90
  -4   4  -6   19.80    2.10
   4   4   6   22.40    2.90
  -4   4  -6   21.00    2.60
  -5  -4  -6   -0.60    2.70
  -5  -4  -6   -0.20    2.00
  -5  -4  -6    2.90    2.20
  -5  -4  -6   -1.20    1.10
   5  -4   6    2.90    6.90
   5   4   6    2.50    2.20
  -5   4  -6   -6.60    2.20
  -5   4  -6    1.20    2.60
  -5   4  -6    0.10    1.10
  -6  -4  -6   59.99    6.10
  -6  -4  -6   50.09    5.70
  -6  -4  -6   39.30    4.90
  -6  -4  -6   50.99    3.70
  -6   4  -6   45.20    5.30
  -6   4  -6   49.70    3.70
  -6   4  -6   35.80    5.10
  -6   4  -6   50.49    3.80
   6   4   6   46.50    4.90
  -7  -4  -6   13.30    3.40
  -7  -4  -6   12.00    1.80
  -7   4  -6   17.50    3.20
   7   4   6    8.40    4.20
  -7   4  -6    5.20    2.90
  -6  -5   6  -13.50    7.10
  -6  -5   6   -0.10    5.80
  -6  -5   6    3.90    4.10
  -6  -5   6   -0.50    5.20
   6  -5  -6   11.90    6.20
  -6  -5   6   -0.70    3.00
  -6   5   6    3.50    2.00
  -5  -5   6  230.28   16.30
  -5  -5   6  293.47   17.80
  -5  -5   6  223.78   18.00
  -5  -5   6  277.27   16.70
  -5   5   6  278.07   16.10
  -4  -5   6   -2.30    2.10
  -4  -5   6   -3.10    4.30
  -4  -5   6   -3.20    5.10
  -4  -5   6    0.40    3.40
  -4  -5   6   -0.10    2.50
  -4  -5   6   -0.50    3.80
  -4   5   6   -2.00    1.50
  -4   5   6   -3.70    1.50
  -4   5   6    1.50    1.10
  -3  -5   6   36.10    4.60
  -3  -5   6   34.00    3.90
  -3  -5   6   45.10    5.20
  -3  -5   6   34.70    4.50
  -3  -5   6   30.00    4.00
  -3  -5   6   42.00    4.70
  -3   5   6   34.50    3.10
  -3   5   6   39.90    3.30
  -3   5   6   31.50    3.10
  -3   5   6   34.90    2.60
  -3   5   6   30.70    3.00
   2  -5  -6    2.10    1.60
  -2  -5   6   -1.00    1.90
  -2  -5   6    3.20    3.60
  -2  -5   6    2.40    2.20
  -2  -5   6    1.10    2.80
  -2  -5   6   -0.30    2.40
  -2  -5   6   -2.20    2.70
  -2   5   6   -0.10    1.00
  -2   5   6    0.90    0.70
  -1  -5   6   -1.20    4.70
  -1  -5   6   -1.00    1.70
  -1  -5   6    2.50    2.20
  -1  -5   6    1.40    2.50
  -1  -5   6    4.80    2.70
   1  -5  -6    1.50    1.40
  -1  -5   6   -6.00    4.00
  -1   5   6    1.30    0.70
  -1   5   6    1.20    1.00
   0  -5   6   21.90    2.90
   0  -5   6   21.30    3.20
   0  -5  -6   19.50    2.30
   0  -5  -6   17.10    2.60
   0  -5   6   18.30    4.40
   0   5   6   20.90    1.70
   0   5   6   20.40    2.30
   0   5  -6   19.10    2.10
  -1  -5  -6   20.70    2.80
  -1  -5  -6   25.00    2.60
   1  -5   6   19.10    4.60
  -1  -5  -6   23.80    2.90
   1   5   6   22.80    1.80
   1   5   6   20.50    2.60
  -1   5  -6   25.60    2.20
  -2  -5  -6   21.50    2.50
  -2  -5  -6   26.80    3.20
  -2  -5  -6   21.10    2.30
  -2  -5  -6   23.00    2.90
   2  -5   6   15.70    4.20
  -2   5  -6   20.70    2.20
   2   5   6   21.90    2.80
   2   5   6   24.40    2.10
  -3  -5  -6    2.50    1.40
  -3  -5  -6    0.40    1.70
  -3  -5  -6    3.10    2.30
   3  -5   6    0.40    4.30
  -3  -5  -6    0.10    1.80
  -3   5  -6    2.20    0.90
   3   5   6    2.60    1.70
  -4  -5  -6    1.80    1.40
  -4  -5  -6    4.70    3.40
   4  -5   6    1.30    4.90
  -4  -5  -6   -2.10    2.30
  -4  -5  -6   -0.90    1.80
   4   5   6    1.80    1.90
  -4   5  -6   -3.00    2.10
  -4   5  -6   -0.30    1.10
  -5  -5  -6   24.70    2.70
  -5  -5  -6   24.10    3.60
  -5  -5  -6   25.60    3.30
   5  -5   6   20.80    7.40
  -5   5  -6   23.70    2.60
  -5   5  -6   24.80    2.70
  -5   5  -6   28.60    3.40
   5   5   6   27.10    3.10
  -6  -5  -6    0.50    1.60
  -6  -5  -6    2.80    3.00
  -6  -5  -6    3.20    3.50
   6   5   6    2.10    2.50
  -6   5  -6   -1.10    1.90
  -6  -6   6    0.40    2.90
  -6  -6   6   -0.20    6.10
  -6  -6   6    6.40    7.80
  -5  -6   6   24.20    6.90
   5  -6  -6   24.20    6.70
  -5  -6   6   34.60    4.40
  -5  -6   6   26.90    3.50
  -5  -6   6   45.00    5.90
  -5  -6   6   28.60    7.20
  -5   6   6   31.70    4.00
  -5   6   6   30.30    3.00
  -4  -6   6    9.50    3.30
   4  -6  -6   12.90    4.20
  -4  -6   6    6.60    2.40
  -4  -6   6    1.70    5.80
  -4  -6   6    9.70    3.10
  -4  -6   6    6.10    5.20
  -4   6   6    7.90    1.40
  -3  -6   6   -3.50    5.40
  -3  -6   6   -6.80    4.40
  -3  -6   6    0.60    2.20
  -3  -6   6    2.00    2.70
  -3  -6   6    1.80    2.20
  -3   6   6    1.10    1.40
  -3   6   6    0.20    1.60
  -3   6   6    1.50    0.90
  -2  -6   6    4.00    2.40
  -2  -6   6   -4.50    5.40
  -2  -6   6   -2.00    4.60
  -2  -6   6    4.90    3.90
  -2  -6   6    1.10    2.10
   2  -6  -6    6.00    2.50
  -2   6   6    3.70    1.00
  -2   6   6    1.70    1.30
  -1  -6   6    9.20    6.60
   1  -6  -6    5.00    2.30
  -1  -6   6    7.60    2.30
  -1  -6   6    0.80    3.90
  -1  -6   6    4.30    4.60
  -1   6   6    3.90    1.40
  -1   6   6    3.60    0.90
   0  -6   6   96.59   10.60
   0   6   6  101.89    6.70
   0   6  -6  104.79    6.60
   0   6   6   97.79    6.30
   1  -6   6  185.28   15.50
  -1  -6  -6  202.98   12.30
  -1  -6  -6  178.68   12.10
  -1   6  -6  197.08   11.80
   1   6   6  193.58   12.00
   1   6   6  185.78   11.60
  -2  -6  -6  250.17   16.00
   2  -6   6  253.17   18.20
  -2  -6  -6  255.67   16.00
  -2  -6  -6  236.58   15.90
  -2  -6  -6  272.97   16.30
  -2   6  -6  268.17   15.70
   2   6   6  258.37   15.50
   2   6   6  259.27   15.90
  -3  -6  -6    5.90    2.90
  -3  -6  -6   10.30    3.20
  -3  -6  -6    6.70    2.00
  -3  -6  -6    7.80    2.30
   3  -6   6    6.40    5.30
  -3   6  -6    9.00    1.50
   3   6   6    8.40    1.90
  -4  -6  -6    1.90    2.50
  -4  -6  -6    3.80    2.60
  -4  -6  -6    4.00    1.70
  -4  -6  -6    2.90    4.20
   4  -6   6   -8.20    6.00
  -4   6  -6    0.00    1.50
   4   6   6    0.70    1.90
  -5  -6  -6   11.50    3.10
   5  -6   6   -1.30    8.70
  -5  -6  -6    6.40    3.20
  -5  -6  -6   10.40    2.00
   5   6   6    6.00    2.30
  -5   6  -6   12.20    1.80
   5  -7  -6   -3.00    5.30
  -5  -7   6    0.00    4.10
  -5  -7   6   11.80    8.40
  -5  -7   6    8.60    5.90
  -5   7   6    3.90    1.80
   4  -7  -6  106.39   13.60
  -4  -7   6  147.39   10.50
  -4  -7   6   89.69   14.70
  -4  -7   6  138.99    9.70
  -4   7   6  142.89    8.30
  -3  -7   6   -1.80    7.90
  -3  -7   6   -2.40    2.80
  -3  -7   6    3.30    2.60
   3  -7  -6   -1.30    3.70
  -3   7   6   -0.90    0.90
  -3   7   6   -0.20    1.40
  -3   7   6    2.70    2.20
  -2  -7   6   13.70    2.90
   2  -7  -6   18.20    4.20
   2  -7  -6   12.20    3.90
  -2   7   6    9.90    2.10
  -2   7   6   10.40    1.40
  -2   7   6   10.60    1.80
   2   7  -6   10.50    2.60
   1  -7  -6    3.70    2.80
   1  -7  -6    5.60    3.70
  -1  -7   6   -0.30    2.40
  -1   7   6    2.50    1.40
   1   7  -6    2.40    1.80
   0  -7  -6    0.60    2.50
   0  -7   6    7.50    6.40
   0  -7  -6    2.40    3.90
   0  -7   6   -6.00    2.30
   0   7   6    1.10    1.40
   0   7  -6    2.80    1.50
   0   7   6    0.40    0.80
   1  -7   6    4.00    5.50
  -1  -7  -6    3.30    2.50
   1  -7   6   -1.10    2.50
  -1   7  -6    0.70    1.50
   1   7   6   -2.30    1.40
  -2  -7  -6    4.30    3.40
  -2  -7  -6    1.50    3.10
  -2  -7  -6    2.00    2.40
  -2  -7  -6    2.40    2.80
   2  -7   6    6.60    3.10
   2  -7   6   -4.70    5.50
  -2   7  -6    0.90    1.50
   2   7   6    0.30    1.50
   2   7   6    0.20    1.50
  -3  -7  -6   16.30    3.00
   3  -7   6    0.60    6.20
  -3  -7  -6   10.00    2.70
  -3  -7  -6   15.20    3.30
  -3  -7  -6   11.70    4.00
  -3   7  -6    9.90    1.70
   3   7   6    8.40    2.00
  -4  -7  -6    0.60    5.00
  -4  -7  -6   -0.40    3.50
  -4  -7  -6   -1.40    2.10
   4  -7   6   -7.20    6.80
  -4  -7  -6   -1.90    2.70
  -4   7  -6    0.20    1.50
   4   7   6    3.00    1.90
   5  -7   6   -3.80    9.80
  -5  -7  -6    1.60    2.20
  -5  -7  -6    4.60    3.10
   5   7   6   -0.20    2.50
  -5   7  -6    3.80    1.50
   4  -8  -6   24.70    5.80
  -4  -8   6   22.60    4.70
  -4   8   6   21.30    2.30
  -3  -8   6   -3.20    3.00
   3  -8  -6    3.20    4.60
  -3  -8   6    4.10    3.20
  -3   8   6    2.40    1.10
   2  -8  -6    7.90    5.50
  -2  -8   6    3.20    2.60
  -2  -8   6   -1.00    2.60
  -2   8   6    1.10    1.00
  -2   8   6    4.50    1.60
  -2   8   6    4.10    2.30
  -1  -8   6   46.60    5.20
   1  -8  -6   41.40    6.00
   1  -8  -6   54.89    7.40
   1   8  -6   49.99    4.50
  -1   8   6   42.20    3.70
  -1   8   6   42.90    3.30
   0  -8   6   93.19    7.60
   0  -8   6   71.29   11.50
   0  -8  -6   95.79    8.30
   0   8  -6   99.69    6.80
   0   8   6  102.79    6.20
   0   8   6   98.89    6.60
  -1  -8  -6   83.79    7.40
   1  -8   6   61.99    9.80
   1  -8   6   81.19    6.80
   1   8   6   80.49    5.10
   1   8   6   74.69    5.50
  -1   8  -6   75.69    5.70
  -2  -8  -6  228.98   14.00
  -2  -8  -6  213.78   15.10
   2  -8   6  208.38   14.50
   2  -8   6  191.58   18.10
  -2   8  -6  224.68   13.50
   2   8   6  228.58   13.60
   3  -8   6   40.70    8.80
  -3  -8  -6   40.70    4.70
  -3  -8  -6   29.10    5.90
  -3   8  -6   39.00    3.60
   3   8   6   34.30    3.60
  -2  -9   6    2.70    3.10
  -2  -9   6   -0.30    3.10
  -2   9   6    1.40    1.10
  -1  -9   6   15.50    3.40
  -1  -9   6   16.10    3.10
  -1   9   6   19.20    2.20
  -1   9   6   23.60    2.40
   0  -9  -6   37.00    6.40
   0  -9   6   40.50    5.10
   0   9   6   34.40    3.50
   0   9  -6   38.70    3.10
   0   9   6   38.50    3.00
   1  -9   6    2.10    3.40
  -1  -9  -6    3.40    2.60
  -1  -9  -6    7.80    5.00
   1   9   6    5.70    1.90
   1   9   6    1.30    1.70
  -1   9  -6    1.80    1.10
  -7   0   7    0.30    1.70
  -7   0   7    1.20    2.00
  -7   0   7   -0.90    6.50
  -6   0   7    1.20    1.20
  -6   0   7   -1.60    6.60
  -6   0   7    5.30    4.00
  -6   0   7   13.20    6.20
  -5   0   7    4.20    4.50
  -5   0   7    8.70    5.40
  -5   0   7    0.40    1.30
  -5   0   7    4.20    5.20
  -5   0   7    6.20    3.00
  -5   0   7    4.30    3.80
  -5   0   7   -2.20    3.60
  -4   0   7    0.90    0.80
  -4   0   7   -2.20    3.10
  -4   0   7    1.40    2.40
  -4   0   7   -2.20    2.00
  -4   0   7    0.40    3.20
  -4   0   7   -3.70    2.30
  -4   0   7   -0.40    1.10
  -4   0   7   -3.50    2.50
  -3   0   7   -0.60    0.90
  -3   0   7   -1.70    2.20
  -3   0   7    2.40    2.50
   3   0  -7    0.00    0.80
  -3   0   7   -0.30    0.60
  -3   0   7   -0.70    1.80
  -2   0   7    0.80    2.30
  -2   0   7   -0.60    1.20
  -2   0   7   -0.20    0.50
  -2   0   7    0.30    0.90
  -2   0   7    3.00    1.90
   2   0  -7   -0.70    0.50
  -1   0   7    0.10    0.50
  -1   0   7    0.90    1.80
   1   0  -7   -3.70    5.30
   1   0  -7    0.40    0.50
  -1   0   7    0.00    6.20
  -1   0   7   -1.00    2.90
  -1   0   7   -0.40    1.80
   0   0   7    3.40    2.80
   0   0  -7    0.20    0.40
   0   0   7    0.80    6.10
   0   0  -7    0.10    0.40
   0   0  -7   -1.20    6.40
  -1   0  -7   -7.30    8.40
  -1   0  -7   -0.60    0.40
   1   0   7   -1.80    7.30
  -1   0  -7   -0.90    0.50
   1   0   7   -1.10    2.70
   2   0   7    3.10    3.40
  -2   0  -7    0.10    0.60
  -2   0  -7    0.00    0.90
  -2   0  -7    0.10    0.40
   2   0   7   -1.50    1.10
   3   0   7   -4.20    4.30
  -3   0  -7    0.00    0.50
  -3   0  -7    0.50    0.90
  -3   0  -7   -1.20    1.80
  -4   0  -7    2.20    2.00
  -4   0  -7   -1.30    1.50
  -4   0  -7   -0.50    0.70
  -4   0  -7   -0.30    0.70
  -4   0  -7   -1.70    1.30
  -5   0  -7   -1.60    2.00
  -5   0  -7   -0.20    0.90
  -5   0  -7   -0.30    0.90
  -5   0  -7    3.30    2.40
  -5   0  -7   -0.20    1.90
  -6   0  -7    1.00    1.00
  -6   0  -7    1.50    2.00
  -6   0  -7    1.80    3.00
  -6   0  -7    0.40    1.30
  -7   0  -7   -0.30    1.20
  -7   0  -7   -3.40    2.40
  -7   0  -7   -1.20    2.00
  -7   0  -7   -1.70    3.00
  -7  -1   7   16.00    5.70
  -7  -1   7   25.20    3.00
  -7  -1   7   30.60    3.40
  -7  -1   7    7.20    8.80
  -7   1   7   28.00    2.70
  -7   1   7   29.40    2.90
  -7   1   7   25.90    8.30
  -6  -1   7    2.60    2.20
  -6  -1   7    2.80    5.60
  -6  -1   7   10.70    6.10
  -6  -1   7   -1.30    4.70
  -6  -1   7    2.50    1.30
  -6   1   7   -0.10    1.70
  -6   1   7    3.90    6.30
  -6   1   7   20.50    6.90
  -6   1   7    2.90    1.30
  -5  -1   7   11.00    4.50
  -5  -1   7   14.80    4.60
  -5  -1   7   19.50    4.00
  -5  -1   7   10.40    3.40
  -5  -1   7   13.30    1.80
  -5  -1   7   12.00    3.20
  -5  -1   7   14.70    4.00
  -5  -1   7   15.50    1.60
  -5   1   7   25.80    4.90
  -5   1   7   12.30    1.80
  -5   1   7    9.70    4.30
  -5   1   7    9.60    6.50
  -5   1   7   17.70    3.30
  -5   1   7   13.60    1.80
  -4  -1   7   21.50    2.70
  -4  -1   7   21.80    3.50
  -4  -1   7   14.30    3.50
  -4  -1   7   17.50    1.80
  -4  -1   7   21.60    3.00
  -4  -1   7   20.50    3.20
  -4  -1   7   20.00    1.80
  -4  -1   7   19.60    2.80
  -4   1   7   19.90    1.80
  -4   1   7   24.70    4.00
  -4   1   7   23.80    2.90
  -4   1   7   22.10    3.00
  -4   1   7    4.20    4.70
  -4   1   7   19.90    2.30
  -4   1   7   18.20    3.50
  -3  -1   7    7.80    0.90
  -3  -1   7    7.30    2.30
  -3  -1   7    8.50    2.00
   3  -1  -7    6.70    1.10
  -3  -1   7    1.20    2.50
  -3  -1   7    4.30    2.60
  -3  -1   7    6.40    1.20
  -3   1   7    6.50    1.10
  -3   1   7    8.30    2.30
   3   1  -7    5.70    0.90
  -3   1   7    7.80    0.90
  -3   1   7    2.70    3.30
  -3   1   7    6.00    2.40
  -3   1   7    6.80    1.10
  -2  -1   7   62.69    3.80
  -2  -1   7   60.49    6.20
   2  -1  -7   56.99    3.80
  -2  -1   7   63.99    4.90
  -2  -1   7   56.69    4.20
  -2   1   7   58.59    3.90
  -2   1   7   62.39    3.80
  -2   1   7   58.69    3.80
  -2   1   7   63.89    5.40
   2   1  -7   59.59    3.80
  -2   1   7   54.99    3.90
   1  -1  -7  115.09    6.80
  -1  -1   7  109.89    7.00
  -1  -1   7  107.49    7.40
  -1  -1   7  109.29    6.80
  -1  -1   7   98.89    8.80
  -1   1   7  112.69    6.90
   1   1  -7  114.99    6.80
  -1   1   7  113.29    6.80
  -1   1   7  113.59    6.80
  -1   1   7  113.79    7.90
   0  -1  -7  661.13   35.90
   0  -1  -7  541.05   39.50
   0  -1   7  590.94   39.20
   0  -1  -7  636.94   35.90
   0  -1   7  563.34   36.80
   0   1   7  522.15   36.90
   0   1  -7  578.64   39.00
   0   1  -7  652.23   35.90
   0   1  -7  620.44   35.80
   0   1   7  589.84   39.00
   0   1   7  657.03   35.90
  -1  -1  -7    5.70    0.90
   1  -1   7    8.30    7.70
  -1  -1  -7    6.10    0.70
   1  -1   7    7.50    3.00
  -1  -1  -7    5.30    0.60
  -1  -1  -7   -2.40    9.40
   1  -1   7    4.60    1.10
  -1   1  -7   -6.00    8.20
   1   1   7    2.50    8.40
  -1   1  -7    5.90    0.70
   1   1   7    6.40    0.80
   1   1   7    1.70    3.30
  -1   1  -7    6.40    0.80
   1   1   7    6.10    1.00
  -2  -1  -7    1.20    0.50
  -2  -1  -7    1.10    0.90
  -2  -1  -7    2.30    0.70
   2  -1   7    2.90    3.10
  -2  -1  -7    1.30    0.60
   2   1   7   -0.10    1.00
   2   1   7    7.00    3.80
  -2   1  -7    2.20    0.70
  -2   1  -7    1.80    0.50
   2   1   7   -0.30    0.80
  -3  -1  -7    3.20    1.80
  -3  -1  -7    4.30    1.50
  -3  -1  -7    2.70    0.60
  -3  -1  -7    2.90    0.80
   3  -1   7   -0.50    3.70
  -3  -1  -7    1.00    1.10
  -3   1  -7    2.90    0.60
  -3   1  -7    2.10    1.90
  -3   1  -7    2.20    1.50
  -3   1  -7    2.20    1.00
   3   1   7    2.60    1.90
  -4  -1  -7    7.20    1.10
  -4  -1  -7    5.50    1.00
   4  -1   7   -3.40    6.10
  -4  -1  -7    6.70    1.60
  -4  -1  -7    5.40    2.10
  -4  -1  -7    4.10    1.70
  -4   1  -7    5.80    1.80
  -4   1  -7    5.10    1.70
  -4   1  -7    6.20    2.20
  -4   1  -7    7.00    1.00
  -5  -1  -7   16.60    2.40
  -5  -1  -7   19.10    2.50
  -5  -1  -7   16.50    2.00
  -5  -1  -7   18.70    1.90
  -5  -1  -7   15.40    2.90
  -5   1  -7   11.00    2.80
  -5   1  -7   20.60    1.90
  -5   1  -7   16.50    1.90
  -5   1  -7   15.70    2.30
  -6  -1  -7    2.20    3.00
  -6  -1  -7    0.00    2.00
  -6  -1  -7    1.40    1.50
  -6  -1  -7    3.90    2.70
  -6  -1  -7    0.10    1.00
  -6   1  -7    2.30    1.10
  -6   1  -7    1.60    1.30
  -6   1  -7    3.40    2.00
  -6   1  -7    4.10    3.00
  -7  -1  -7   14.40    3.40
  -7  -1  -7   12.20    1.70
  -7  -1  -7   13.80    2.40
   7   1   7    9.90    3.40
  -7   1  -7   13.40    1.70
  -7   1  -7   18.20    2.60
  -7   1  -7   14.80    2.70
  -7   1  -7   16.50    3.50
  -7  -2   7    2.00    5.00
  -7  -2   7   14.20    7.60
  -7   2   7    8.00    2.00
  -7   2   7    6.10    1.80
  -6  -2   7   90.99   10.50
  -6  -2   7   83.99    5.80
  -6  -2   7   73.39    9.00
  -6  -2   7   88.99    8.10
  -6   2   7   87.99    5.70
  -6   2   7   97.39   12.20
  -6   2   7   80.59    7.70
  -6   2   7   89.19    6.10
  -5  -2   7   -1.00    3.40
  -5  -2   7   -0.20    2.80
  -5  -2   7    2.60    1.70
  -5  -2   7   -0.90    3.10
  -5  -2   7    1.20    3.00
  -5  -2   7   -1.80    3.70
  -5  -2   7    0.90    3.50
  -5  -2   7   10.60    4.40
  -5  -2   7   -1.30    1.20
  -5   2   7    3.50    5.10
  -5   2   7   -1.60    1.40
  -5   2   7    6.00    5.90
  -5   2   7    0.60    0.90
  -5   2   7   -1.00    2.90
  -4  -2   7    2.20    2.10
  -4  -2   7    1.20    1.50
  -4  -2   7    0.70    2.30
  -4  -2   7    4.20    3.30
  -4  -2   7    4.30    2.00
  -4  -2   7   -1.00    2.50
  -4  -2   7    1.60    2.20
  -4  -2   7    2.20    0.90
  -4   2   7    2.50    3.70
  -4   2   7   -1.00    3.10
  -4   2   7   -7.40    7.50
  -4   2   7    1.40    1.10
  -4   2   7    0.60    0.90
  -3  -2   7    0.60    1.70
   3  -2  -7   -0.20    1.30
  -3  -2   7    2.40    2.70
  -3  -2   7   -2.10    1.90
  -3  -2   7   -0.10    0.70
   3  -2  -7   -0.20    0.90
   3   2  -7   -2.30    1.10
  -3   2   7   -1.10    1.10
  -3   2   7    0.60    0.70
  -3   2   7   -0.50    0.70
  -3   2   7   -0.20    2.60
  -3   2   7    2.30    4.40
  -3   2   7    0.30    1.30
  -3   2   7    3.10    3.30
   2  -2  -7    2.50    0.90
  -2  -2   7   -0.40    1.80
  -2  -2   7    2.20    1.30
  -2  -2   7    1.80    1.70
  -2  -2   7    2.10    4.60
  -2  -2   7    0.50    2.10
  -2   2   7    3.00    0.90
  -2   2   7    2.80    0.80
  -2   2   7    1.90    2.50
  -2   2   7    3.70    1.10
   2   2  -7    0.70    0.90
  -2   2   7    3.10    0.60
  -2   2   7    2.60    0.70
   1  -2  -7   88.69    5.70
   1  -2  -7   91.99    5.70
  -1  -2   7   79.89    8.20
  -1  -2   7   90.19    5.90
  -1  -2   7   96.79    6.40
  -1   2   7   94.09    5.70
  -1   2   7   87.59    5.60
  -1   2   7   98.49    5.80
  -1   2   7   84.99    5.80
   1   2  -7   94.49    5.60
  -1   2   7   96.39    5.70
  -1   2   7  105.09    7.30
   0  -2   7   13.70    3.30
   0  -2   7   12.60    1.90
   0  -2  -7   11.60    1.30
   0  -2   7    6.50    2.60
   0  -2  -7   14.20    1.30
   0   2   7   14.20    1.10
   0   2   7   13.20    1.20
   0   2  -7   12.00    1.20
   0   2   7   16.30    3.30
   0   2   7   18.20    2.10
   0   2   7   10.80    1.30
  -1  -2  -7  831.72   47.50
  -1  -2  -7  757.82   47.50
  -1  -2  -7  776.12   47.70
  -1   2  -7  825.42   47.50
   1   2   7  801.12   47.50
   1   2   7  799.92   47.70
   1   2   7  808.22   47.50
   2  -2   7    4.30    3.10
  -2  -2  -7    1.50    1.00
  -2  -2  -7    0.30    0.90
  -2  -2  -7    0.90    0.70
  -2  -2  -7    1.90    1.60
  -2  -2  -7    1.70    0.50
  -2   2  -7    6.80    1.80
   2   2   7    0.00    1.70
   2   2   7    2.00    0.90
  -2   2  -7   -0.80    0.90
  -2   2  -7    1.70    0.60
   2   2   7    0.50    0.70
  -3  -2  -7    2.00    1.10
  -3  -2  -7    4.30    1.50
   3  -2   7    8.00    3.90
  -3  -2  -7    3.70    0.80
  -3  -2  -7    3.40    0.70
  -3  -2  -7    0.40    1.60
  -3   2  -7    2.70    1.50
   3   2   7    2.70    2.30
  -3   2  -7    3.40    0.70
   3   2   7    1.40    1.30
  -3   2  -7    2.80    1.90
  -4  -2  -7   27.00    2.20
  -4  -2  -7   22.00    2.90
  -4  -2  -7   24.00    2.10
  -4  -2  -7   26.60    2.80
   4  -2   7   26.90    5.80
  -4  -2  -7   26.50    2.90
  -4   2  -7   26.80    3.20
  -4   2  -7   23.90    3.00
  -4   2  -7   25.10    2.00
  -5  -2  -7    1.50    1.00
  -5  -2  -7    0.00    1.70
  -5  -2  -7   -0.60    2.40
  -5  -2  -7    3.80    2.00
  -5  -2  -7    2.60    1.20
  -5   2  -7    0.50    1.00
  -5   2  -7    1.40    1.70
   5   2   7   -0.20    2.80
  -5   2  -7    2.90    1.00
  -5   2  -7   -0.90    2.40
  -6  -2  -7  105.59    6.70
  -6  -2  -7   97.69    7.80
  -6  -2  -7  104.89    7.40
  -6  -2  -7  103.99    8.20
  -6   2  -7   98.99    7.30
  -6   2  -7  104.39    6.60
  -6   2  -7   98.69    6.80
   6   2   7  110.79    8.20
  -6   2  -7  107.29    8.20
  -7  -2  -7   -0.50    3.20
  -7  -2  -7   -0.10    6.00
  -7  -2  -7    1.80    1.30
  -7  -2  -7    1.40    2.20
  -7   2  -7    0.30    1.40
  -7   2  -7    3.80    3.20
  -7   2  -7    2.80    2.30
   7   2   7    2.70    3.00
  -7  -3   7   -0.30    5.10
  -7  -3   7   -2.10    6.60
  -7   3   7   -0.50    1.80
  -6  -3   7    8.70    5.50
  -6  -3   7    8.20    4.00
  -6  -3   7   -0.20    3.60
  -6  -3   7    2.90    4.90
  -6  -3   7   -1.90    5.70
  -6   3   7    5.90    8.10
  -6   3   7    5.00    3.70
  -6   3   7    5.20    1.30
  -6   3   7    3.60    1.70
  -5  -3   7  143.69   10.40
  -5  -3   7  143.59   11.20
  -5  -3   7  143.79   13.60
  -5  -3   7  118.59   11.50
  -5  -3   7  147.69   12.00
  -5  -3   7  142.39    9.30
  -5  -3   7  149.88   10.20
  -5  -3   7  163.78   11.50
  -5   3   7  195.28   14.20
  -5   3   7  149.59   10.30
  -5   3   7  159.08    9.60
  -5   3   7  153.28    9.30
  -4  -3   7    5.70    1.20
  -4  -3   7    7.70    2.60
  -4  -3   7    5.70    2.70
  -4  -3   7    9.30    2.80
  -4  -3   7    0.20    2.00
  -4  -3   7    6.60    2.40
  -4  -3   7    2.30    2.70
  -4  -3   7    7.80    3.10
  -4   3   7    5.80    4.00
  -4   3   7    4.50    2.40
  -4   3   7    5.80    1.40
  -4   3   7    7.60    1.30
  -4   3   7    6.00    1.10
  -3  -3   7   10.30    2.00
  -3  -3   7   10.70    1.20
  -3  -3   7   11.20    2.30
  -3  -3   7    8.10    2.70
  -3  -3   7    9.50    2.20
  -3  -3   7    9.20    2.00
   3  -3  -7    9.20    1.50
  -3  -3   7    9.50    1.80
  -3  -3   7   11.60    2.30
  -3   3   7    6.50    3.80
  -3   3   7   10.30    1.40
  -3   3   7    6.60    2.00
  -3   3   7    8.90    1.60
  -3   3   7   10.50    1.50
  -3   3   7   10.10    1.20
  -3   3   7   10.20    1.20
   2  -3  -7   13.80    1.60
  -2  -3   7   12.00    1.40
  -2  -3   7    7.70    2.90
  -2  -3   7   12.50    5.40
  -2  -3   7   12.20    2.00
  -2  -3   7   15.80    2.20
  -2  -3   7   13.10    2.20
  -2  -3   7   13.90    1.90
  -2   3   7   14.50    3.30
  -2   3   7   14.60    1.80
  -2   3   7   13.30    1.30
  -2   3   7   12.20    1.40
  -2   3   7   11.50    1.40
  -2   3   7   14.90    1.50
  -1  -3   7   56.99    4.40
   1  -3  -7   53.89    3.60
  -1  -3   7   53.09    4.00
  -1  -3   7   52.89    7.00
  -1  -3   7   41.40    5.50
  -1   3   7   54.19    3.60
  -1   3   7   69.39    6.40
  -1   3   7   51.89    3.50
  -1   3   7   55.49    3.40
  -1   3   7   52.19    3.70
   1   3  -7   57.39    3.50
   0  -3  -7  363.76   21.10
   0  -3   7  343.97   22.40
   0  -3   7  354.06   21.30
   0   3   7  348.67   21.10
   0   3   7  338.77   21.00
   0   3  -7  359.16   20.90
   0   3   7  349.96   22.30
   0   3   7  346.17   20.90
   1  -3   7   23.60    2.80
  -1  -3  -7   23.20    2.30
  -1  -3  -7   30.10    2.30
   1  -3   7   26.00    4.00
   1   3   7   28.10    1.90
   1   3   7   23.70    2.10
  -1   3  -7   28.10    2.00
   1   3   7   29.40    2.80
  -2  -3  -7    3.10    1.60
  -2  -3  -7    5.10    1.30
   2  -3   7    1.60    3.50
  -2  -3  -7    4.30    0.90
   2   3   7    4.10    0.90
  -2   3  -7    5.50    0.90
  -2   3  -7    5.10    1.80
  -2   3  -7    8.40    1.90
   2   3   7    3.20    1.10
   2   3   7    2.80    1.60
   3  -3   7    7.30    4.20
  -3  -3  -7    8.30    1.40
  -3  -3  -7    6.00    1.80
  -3  -3  -7    6.80    1.00
  -3  -3  -7    7.40    1.80
  -3   3  -7    3.70    1.80
  -3   3  -7    7.10    2.10
   3   3   7    5.80    2.10
  -3   3  -7    6.70    0.90
  -4  -3  -7   11.90    2.30
  -4  -3  -7   12.20    1.40
   4  -3   7   13.50    5.60
  -4  -3  -7   12.30    2.50
  -4  -3  -7   15.50    3.10
   4   3   7   12.00    2.70
  -4   3  -7   11.80    2.40
  -4   3  -7   13.10    1.60
  -4   3  -7   10.00    2.00
  -5  -3  -7    7.80    1.30
   5  -3   7   -0.30    7.80
  -5  -3  -7   11.20    2.50
  -5  -3  -7    9.60    2.90
  -5  -3  -7    7.10    2.00
  -5   3  -7    7.70    2.10
   5   3   7    3.70    2.70
  -5   3  -7   10.80    2.80
  -5   3  -7    7.20    1.30
  -5   3  -7    6.90    1.20
  -6  -3  -7   14.70    2.90
  -6  -3  -7   14.40    3.30
  -6  -3  -7   13.30    1.60
  -6  -3  -7   12.70    2.40
  -6   3  -7   15.30    2.00
   6   3   7   15.80    3.00
  -6   3  -7   17.60    3.20
  -6   3  -7   12.40    1.60
  -6   3  -7   14.20    2.70
  -7  -3  -7   96.19    7.40
  -7  -3  -7   70.69    9.20
  -7  -3  -7   81.89    5.50
  -7  -3  -7   76.59    6.60
  -7   3  -7   87.79    7.10
  -7   3  -7   76.59    5.40
  -7   3  -7   73.99    6.30
   7   3   7   68.59    6.60
  -7  -4   7   13.60    6.90
  -7  -4   7   26.80    6.50
  -7   4   7   34.60    3.60
   6  -4  -7    8.30    6.60
  -6  -4   7    5.90    5.70
  -6  -4   7   -8.00    5.60
  -6  -4   7    3.50    4.90
  -6  -4   7    8.20    3.40
  -6   4   7    5.00    1.90
  -6   4   7    6.70    1.70
  -5  -4   7    2.60    4.10
  -5  -4   7    6.50    5.40
  -5  -4   7    0.00    3.50
  -5  -4   7    3.00    6.10
  -5  -4   7   -4.20    4.50
  -5  -4   7    3.20    2.80
  -5   4   7    2.40    6.60
  -5   4   7    1.40    1.30
  -5   4   7    0.60    1.70
  -4  -4   7   -2.30    4.00
  -4  -4   7    4.30    2.80
  -4  -4   7   -0.40    2.60
  -4  -4   7    0.30    2.30
  -4  -4   7    3.30    3.40
  -4  -4   7    3.70    3.30
  -4  -4   7    5.00    3.90
  -4   4   7    1.80    1.40
  -4   4   7    2.00    1.00
  -4   4   7   10.00    5.20
  -3  -4   7   58.09    6.00
  -3  -4   7   58.59    5.50
  -3  -4   7   58.09    5.00
   3  -4  -7   58.99    4.60
  -3  -4   7   56.39    5.50
  -3  -4   7   62.29    4.90
  -3  -4   7   58.29    5.30
  -3  -4   7   49.99    6.50
  -3  -4   7   62.19    4.00
  -3   4   7   59.19    4.30
  -3   4   7   59.49    4.00
  -3   4   7   51.49    4.50
  -3   4   7   58.89    6.70
  -3   4   7   61.59    4.30
  -3   4   7   62.89    3.90
  -2  -4   7    4.90    1.10
  -2  -4   7    8.80    6.50
  -2  -4   7    2.70    1.90
  -2  -4   7    6.70    2.10
   2  -4  -7    4.00    1.20
  -2  -4   7    3.90    3.00
  -2  -4   7    2.00    1.90
  -2   4   7    5.30    1.20
  -2   4   7    3.40    0.70
  -2   4   7    6.10    3.80
  -2   4   7    4.00    1.10
  -2   4   7    5.00    1.10
  -1  -4   7   22.20    2.90
  -1  -4   7   18.40    2.50
   1  -4  -7   16.80    2.00
  -1  -4   7   14.90    4.60
  -1  -4   7   19.50    1.90
  -1  -4   7   12.70    3.50
  -1   4   7   20.10    1.60
  -1   4   7   19.60    4.50
   1   4  -7   19.60    2.00
  -1   4   7   18.40    2.10
   0  -4  -7   17.20    2.00
   0  -4   7   16.90    2.20
   0  -4   7   12.90    4.10
   0  -4   7   17.00    2.10
   0  -4   7    4.90    4.10
   0   4  -7   16.30    1.60
   0   4   7   13.00    2.10
   0   4   7   13.30    1.70
  -1  -4  -7  205.88   12.80
  -1  -4  -7  210.58   13.00
   1  -4   7  200.08   14.60
   1  -4   7  210.38   13.20
  -1   4  -7  214.18   12.70
   1   4   7  214.38   12.70
   1   4   7  214.38   13.00
  -2  -4  -7   62.99    4.90
  -2  -4  -7   71.69    4.90
   2  -4   7   66.99    7.50
  -2  -4  -7   63.79    4.40
   2  -4   7   54.19    7.40
  -2  -4  -7   67.79    4.70
  -2   4  -7   67.39    4.30
   2   4   7   60.69    4.60
   2   4   7   70.39    5.00
  -3  -4  -7    1.20    1.00
   3  -4   7    0.40    4.20
  -3  -4  -7   -3.60    1.80
  -3  -4  -7    0.60    1.40
  -3  -4  -7   -0.50    1.90
   3   4   7    0.10    1.70
  -3   4  -7   -0.70    1.80
  -3   4  -7    2.10    0.80
  -4  -4  -7    4.30    2.40
  -4  -4  -7    4.00    1.20
  -4  -4  -7    7.90    3.10
  -4  -4  -7    2.60    2.50
  -4  -4  -7    6.70    1.80
   4  -4   7    3.30    5.50
  -4   4  -7    5.20    2.30
  -4   4  -7    3.00    2.20
  -4   4  -7    6.30    1.10
   4   4   7    5.90    2.30
   5  -4   7   22.20    8.00
  -5  -4  -7    8.30    3.00
  -5  -4  -7    6.70    1.40
  -5  -4  -7   10.20    2.80
  -5  -4  -7    7.60    2.30
  -5   4  -7    7.30    2.40
  -5   4  -7    4.50    2.80
   5   4   7    6.50    2.40
  -5   4  -7    7.20    1.40
  -6  -4  -7   13.00    3.50
  -6  -4  -7   14.70    1.80
  -6  -4  -7   10.70    3.00
  -6  -4  -7   12.60    3.10
  -6   4  -7   12.90    1.70
   6   4   7   12.90    2.70
  -6   4  -7   11.60    2.80
  -6   4  -7   15.00    1.90
  -6   4  -7   15.30    3.10
  -6  -5   7   54.49    7.20
  -6  -5   7   31.60    6.80
  -6  -5   7   36.50    4.30
  -6  -5   7   33.40    6.50
   6  -5  -7   49.99    7.30
  -5  -5   7   16.20    3.20
  -5  -5   7   16.10    5.10
  -5  -5   7   20.30    4.20
  -5  -5   7   24.10    4.70
  -5  -5   7   17.70    5.40
  -5   5   7   23.20    2.60
  -4  -5   7    6.90    5.30
  -4  -5   7   -2.80    2.70
  -4  -5   7   -2.70    4.10
  -4  -5   7   -0.20    2.80
  -4  -5   7    2.80    3.90
  -4  -5   7   -0.70    2.40
  -4  -5   7   -1.90    3.60
  -4   5   7    0.10    1.00
  -4   5   7    0.70    1.50
  -4   5   7    1.70    1.60
  -3  -5   7    6.80    3.50
  -3  -5   7    0.40    4.10
  -3  -5   7    4.90    2.70
  -3  -5   7    4.80    3.40
  -3  -5   7    6.30    2.30
  -3  -5   7    2.40    4.10
  -3  -5   7    7.80    2.30
  -3   5   7    7.00    1.00
  -3   5   7    7.90    1.60
  -3   5   7   10.10    1.70
  -3   5   7    6.90    1.70
  -3   5   7    6.60    1.50
  -2  -5   7   11.50    3.00
  -2  -5   7    8.90    2.40
   2  -5  -7    9.70    1.90
  -2  -5   7   12.50    4.40
  -2  -5   7    5.50    2.20
  -2  -5   7   11.50    3.00
  -2  -5   7   11.10    2.70
  -2   5   7    7.80    1.00
  -2   5   7    9.00    1.50
  -1  -5   7    0.90    2.50
  -1  -5   7    3.40    2.60
   1  -5  -7    3.40    1.50
  -1  -5   7    1.70    2.10
  -1  -5   7    1.50    2.30
  -1  -5   7    2.20    5.20
  -1  -5   7    5.90    4.30
   1   5  -7    2.40    1.30
  -1   5   7    3.50    0.80
  -1   5   7    2.90    1.20
   0  -5   7    6.00    2.20
   0  -5  -7    9.90    1.70
   0  -5  -7    8.60    1.80
   0  -5   7   10.90    4.60
   0   5  -7    7.20    1.30
   0   5   7    7.50    1.00
   0   5   7    9.40    1.50
   1  -5   7    0.20    4.10
  -1  -5  -7    1.30    1.50
  -1  -5  -7    3.00    1.60
  -1   5  -7    2.50    1.00
   1   5   7    1.90    0.80
   1   5   7    2.60    1.40
  -2  -5  -7   43.80    4.10
  -2  -5  -7   39.60    4.10
  -2  -5  -7   39.50    3.80
  -2  -5  -7   42.20    3.70
   2  -5   7   41.60    6.20
  -2   5  -7   50.59    3.30
   2   5   7   42.40    3.80
   2   5   7   45.40    3.20
  -3  -5  -7   23.10    2.90
   3  -5   7   21.70    5.40
  -3  -5  -7   23.20    3.20
  -3  -5  -7   21.10    2.60
  -3  -5  -7   21.70    3.10
   3   5   7   19.20    2.60
  -3   5  -7   20.20    2.10
  -4  -5  -7   23.60    4.10
   4  -5   7   24.70    6.10
  -4  -5  -7   24.30    3.90
  -4  -5  -7   23.70    3.50
  -4  -5  -7   22.20    2.60
  -4   5  -7   20.90    2.40
   4   5   7   24.20    2.90
  -5  -5  -7   -1.00    2.40
   5  -5   7   11.10    7.80
  -5  -5  -7    0.10    1.40
  -5  -5  -7    5.40    3.10
  -5   5  -7    2.10    1.50
   5   5   7    3.60    2.00
  -6  -5  -7    8.80    3.40
  -6  -5  -7    9.70    1.90
  -6  -5  -7   15.50    3.60
   6   5   7   12.30    2.60
  -6  -6   7   19.90    8.10
  -6  -6   7    6.10    9.10
  -5  -6   7    0.60    2.60
  -5  -6   7    0.10    6.40
  -5  -6   7   -0.30    6.60
   5  -6  -7    3.60    4.30
  -5  -6   7    1.60    4.80
  -5  -6   7    1.40    4.20
  -5   6   7    0.20    2.70
  -4  -6   7   27.00    6.30
  -4  -6   7   29.70    4.00
  -4  -6   7   33.20    4.20
  -4  -6   7   25.10    3.30
  -4   6   7   26.60    2.50
  -3  -6   7   -3.20    5.20
  -3  -6   7    2.70    3.60
  -3  -6   7   13.30    6.10
  -3  -6   7    9.70    4.90
  -3  -6   7    5.10    4.10
  -3  -6   7   -3.20    5.40
  -3  -6   7    3.10    2.90
  -3   6   7    3.50    1.50
  -3   6   7    5.30    2.00
  -2  -6   7   22.40    6.20
  -2  -6   7   28.00    5.50
  -2  -6   7   31.00    4.90
  -2  -6   7   26.50    3.50
   2  -6  -7   31.00    4.00
  -2   6   7   31.10    2.90
  -2   6   7   32.10    2.40
   2   6  -7   32.80    3.70
   1  -6  -7  167.18   10.60
  -1  -6   7  160.98   11.00
  -1  -6   7  150.18   12.30
  -1  -6   7  156.58   14.10
  -1  -6   7  129.79   15.20
  -1   6   7  166.38    9.90
  -1   6   7  161.28   10.30
   1   6  -7  175.88   10.20
   0  -6   7  115.09    8.50
   0  -6  -7  119.59    8.10
   0   6   7  114.09    7.80
   0   6  -7  125.49    7.60
   0   6   7  116.79    7.30
   1  -6   7  170.98   11.90
  -1  -6  -7  182.58   11.70
   1  -6   7  169.88   14.20
  -1   6  -7  188.38   11.10
   1   6   7  177.68   10.90
   1   6   7  183.78   11.40
  -2  -6  -7   12.80    2.30
  -2  -6  -7   16.60    3.00
  -2  -6  -7   12.60    2.60
  -2  -6  -7    8.80    2.60
   2  -6   7   18.70    5.40
   2  -6   7   17.30    3.30
  -2   6  -7   15.70    1.70
   2   6   7   12.20    1.60
   2   6   7    6.60    2.90
  -3  -6  -7    3.50    2.80
  -3  -6  -7    5.00    2.00
   3  -6   7    4.00    5.70
  -3  -6  -7    2.30    2.70
  -3  -6  -7    0.10    2.20
  -3   6  -7    1.20    1.30
   3   6   7    3.10    1.80
  -4  -6  -7    9.50    2.80
  -4  -6  -7   14.40    4.60
   4  -6   7    3.40    6.80
  -4  -6  -7    8.70    2.00
  -4  -6  -7    7.80    3.10
   4   6   7   11.60    2.20
  -4   6  -7   11.20    1.60
  -5  -6  -7    1.30    2.80
  -5  -6  -7    6.20    3.10
  -5  -6  -7    2.50    1.90
   5  -6   7    0.00    8.70
  -5   6  -7    3.60    1.70
   5   6   7    0.70    2.20
  -5   6  -7    3.70    2.20
   5  -7  -7   12.50    5.40
  -5  -7   7   13.80    4.80
  -4  -7   7    9.10    3.80
   4  -7  -7    2.30    4.30
  -4  -7   7   -8.50    3.60
  -4  -7   7    1.20    8.40
  -4   7   7   -1.70    1.10
  -3  -7   7   -5.90    8.20
   3  -7  -7   -1.70    4.00
  -3  -7   7   -1.60    2.90
  -3  -7   7   -2.10    2.90
  -3   7   7    1.70    1.50
  -3   7   7   -0.70    1.00
   2  -7  -7   20.70    4.30
  -2  -7   7   20.60    3.40
  -2   7   7   20.80    2.10
  -2   7   7   21.50    2.60
  -2   7   7   19.30    2.60
   1  -7  -7   61.69    6.10
  -1  -7   7   68.69    6.20
   1   7  -7   79.99    5.30
  -1   7   7   68.09    4.60
  -1   7   7   65.09    4.90
   0  -7   7   -1.60    2.60
   0  -7  -7   -0.70    2.60
   0  -7   7   -1.20    6.40
   0  -7  -7    1.60    4.20
   0   7   7    3.50    1.50
   0   7   7   -0.20    1.00
   0   7  -7   -1.70    1.60
   1  -7   7    0.20    6.30
   1  -7   7    4.50    2.80
  -1  -7  -7    3.10    2.70
   1   7   7    2.30    1.10
   1   7   7    0.60    1.40
  -1   7  -7   -0.90    1.60
   2  -7   7    6.00    6.10
  -2  -7  -7   -0.90    2.70
  -2  -7  -7   -0.70    3.10
  -2  -7  -7   -3.30    2.70
   2  -7   7   -3.00    3.40
   2   7   7    1.20    1.50
   2   7   7    4.10    1.60
  -2   7  -7    1.60    1.50
  -3  -7  -7    4.40    2.80
   3  -7   7   -3.00    6.90
  -3  -7  -7    1.10    2.80
  -3  -7  -7    3.60    3.50
  -3  -7  -7    0.20    3.60
  -3   7  -7    0.80    1.50
   3   7   7    1.90    1.70
  -4  -7  -7    9.80    5.40
  -4  -7  -7    7.80    3.10
  -4  -7  -7    9.80    2.60
   4  -7   7   18.90    7.90
  -4  -7  -7    8.70    3.40
   4   7   7   14.20    2.10
  -4   7  -7   10.00    1.90
   3  -8  -7    5.60    4.90
  -3  -8   7    7.60    3.40
  -3  -8   7    6.90    3.60
  -3   8   7    3.00    1.20
   2  -8  -7   -2.80    4.50
  -2  -8   7    6.00    2.90
  -2  -8   7    0.60    3.00
  -2   8   7    0.90    1.50
  -2   8   7    4.30    2.70
  -2   8   7    4.00    1.10
  -1  -8   7    1.20    2.70
   1  -8  -7    6.00    4.50
   1  -8  -7   -3.00    5.20
  -1   8   7    1.70    1.50
   1   8  -7   -2.70    3.10
  -1   8   7   -0.20    1.00
   0  -8   7  379.56   25.10
   0  -8  -7  417.66   25.40
   0   8  -7  406.86   24.60
   0   8   7  410.36   24.60
   0   8   7  414.46   24.30
   1  -8   7   17.30   14.00
  -1  -8  -7    3.40    2.90
  -1  -8  -7    4.00    4.00
   1  -8   7    2.40    3.40
   1   8   7    4.00    1.70
   1   8   7    1.10    1.40
  -1   8  -7    7.50    2.00
  -2  -8  -7   62.49    6.80
   2  -8   7   48.30    6.10
   2  -8   7   35.80    8.70
  -2  -8  -7   51.19    7.30
  -2  -8  -7   58.59    5.50
   2   8   7   56.19    4.30
  -2   8  -7   50.19    4.40
  -3  -8  -7   -2.40    5.10
  -3  -8  -7   -0.80    4.80
   3  -8   7    4.20    8.40
   3   8   7    2.50    1.70
  -1  -9   7   86.89    7.70
  -1  -9   7   89.79    7.40
  -1   9   7   95.09    6.00
  -1   9   7   97.59    6.40
   0  -9  -7   35.90    4.80
   0  -9   7   28.40    4.00
   0  -9  -7   19.30    8.10
   0   9   7   25.50    2.50
   0   9  -7   21.40    2.60
   0   9   7   23.00    3.00
  -1  -9  -7   10.70    2.80
   1  -9   7    3.30    4.00
  -1  -9  -7   12.80    5.50
  -1   9  -7    6.80    1.30
   1   9   7    9.70    1.90
  -7   0   8    5.90    2.10
  -7   0   8   -0.30    1.70
  -7   0   8    0.20    6.30
  -6   0   8  181.18   13.50
  -6   0   8  150.58    9.70
  -6   0   8  154.48    9.50
  -6   0   8  128.89   12.50
  -5   0   8    6.50    5.60
  -5   0   8    4.40    3.60
  -5   0   8    4.20    1.40
  -5   0   8    1.80    3.80
  -5   0   8    2.40    1.10
  -5   0   8   -3.40    4.60
  -5   0   8   -5.30    6.50
  -4   0   8   76.59    5.30
  -4   0   8   83.09    5.20
  -4   0   8   82.59    7.20
  -4   0   8   78.99    6.60
  -3   0   8   27.50    3.40
   3   0  -8   31.70    2.50
  -3   0   8   30.00    3.70
  -3   0   8   30.60    2.20
  -3   0   8   26.20    2.50
  -2   0   8  119.99    6.90
  -2   0   8  108.49    6.90
   2   0  -8  108.99    6.80
  -2   0   8  114.79    7.90
  -2   0   8  116.79    7.20
  -2   0   8  102.49    6.90
  -1   0   8 1509.15   90.69
  -1   0   8 1488.15   91.09
  -1   0   8 1622.64   90.79
   1   0  -8 1582.94   90.69
  -1   0   8 1452.25   91.79
   0   0   8   11.70    1.40
   0   0   8   13.80    3.90
   0   0  -8   12.80    1.00
   0   0  -8   11.60    1.20
  -1   0  -8  140.69    8.10
  -1   0  -8  129.99    8.20
   1   0   8  131.39   10.10
   1   0   8  134.59    8.30
  -2   0  -8   -0.60    0.90
   2   0   8    4.10    3.40
  -2   0  -8    0.30    0.50
   2   0   8    2.10    1.30
  -2   0  -8   -1.40    0.80
  -3   0  -8   51.19    4.50
  -3   0  -8   38.10    3.60
  -3   0  -8   49.60    3.10
   3   0   8   44.60    6.20
  -4   0  -8   42.70    4.80
  -4   0  -8   50.99    3.40
  -4   0  -8   46.60    4.00
  -4   0  -8   50.19    4.20
  -4   0  -8   53.59    3.50
  -5   0  -8    8.10    2.00
  -5   0  -8    5.20    1.20
  -5   0  -8    1.40    2.60
  -5   0  -8    4.70    1.20
  -5   0  -8    8.40    2.20
  -6   0  -8   86.19    5.50
  -6   0  -8   81.39    7.30
  -6   0  -8   83.99    6.40
  -6   0  -8   83.99    5.70
  -7   0  -8    5.70    3.20
  -7   0  -8    0.70    2.50
  -7   0  -8    3.80    1.30
  -7   0  -8    1.80    2.10
  -7  -1   8   40.20   10.80
  -7  -1   8   62.79    5.90
  -7  -1   8   70.19    5.10
  -7   1   8   64.39    5.20
  -7   1   8   72.59    4.80
  -6  -1   8    5.80    1.50
  -6  -1   8    4.00    5.60
  -6  -1   8    7.50    2.00
  -6  -1   8    8.10    4.60
  -6  -1   8   13.70    5.80
  -6   1   8    8.30    6.50
  -6   1   8    5.50    1.30
  -6   1   8    7.40    1.90
  -6   1   8   15.00    6.30
  -5  -1   8    0.10    1.50
  -5  -1   8   -0.40    3.90
  -5  -1   8   -0.20    1.10
  -5  -1   8    0.80    3.70
  -5  -1   8   -2.30    4.50
  -5  -1   8   -6.00    3.90
  -5  -1   8   -2.50    3.20
  -5   1   8    4.40    6.50
  -5   1   8   -0.30    1.40
  -5   1   8   -5.20    4.10
  -5   1   8    1.50    1.00
  -5   1   8   -0.90    4.20
  -4  -1   8    1.30    2.10
  -4  -1   8    1.00    1.20
  -4  -1   8    0.60    2.30
  -4  -1   8   -0.10    2.20
  -4  -1   8   -0.30    3.20
  -4  -1   8    1.40    0.90
  -4  -1   8   -1.30    2.70
  -4   1   8    0.20    0.90
  -4   1   8    0.40    3.00
  -4   1   8   -3.60    4.40
  -4   1   8   -3.70    3.00
  -4   1   8    1.80    1.10
  -3  -1   8   -3.90    2.50
  -3  -1   8    0.50    1.70
  -3  -1   8    2.50    1.10
  -3  -1   8    2.50    2.20
   3  -1  -8   -0.40    1.20
  -3  -1   8    0.80    0.70
  -3   1   8    1.10    1.00
  -3   1   8    2.40    0.70
   3   1  -8   -0.40    1.10
  -3   1   8    0.00    1.00
  -3   1   8   -2.90    2.30
  -3   1   8   -1.20    2.10
  -3   1   8   -1.60    3.50
  -2  -1   8   70.09    5.00
  -2  -1   8   80.49    5.20
   2  -1  -8   71.59    4.80
  -2  -1   8   74.09    5.80
  -2  -1   8   80.09    4.80
  -2  -1   8   61.49    8.60
  -2   1   8   78.19    4.90
  -2   1   8   74.99    5.30
  -2   1   8   75.39    4.80
   2   1  -8   78.39    4.80
  -2   1   8   80.59    4.80
  -2   1   8   81.99    6.40
  -1  -1   8    1.80    0.70
  -1  -1   8    1.30    1.90
  -1  -1   8    1.50    1.00
  -1  -1   8    5.90    3.60
  -1  -1   8    1.00    1.00
   1  -1  -8    0.00    0.60
  -1   1   8    0.00    2.30
  -1   1   8    0.40    0.60
  -1   1   8   -1.70    2.60
   1   1  -8    0.80    0.60
  -1   1   8    2.60    0.60
  -1   1   8    0.70    0.70
   0  -1   8 1011.40   62.99
   0  -1  -8 1174.28   62.89
   0  -1  -8 1055.79   62.99
   0  -1   8  949.71   63.89
   0   1   8  944.71   63.99
   0   1  -8 1077.39   62.89
   0   1  -8 1057.49   62.99
   0   1   8 1111.19   62.99
   0   1   8 1161.48   62.99
  -1  -1  -8    9.40    1.10
  -1  -1  -8   12.50    1.40
   1  -1   8   12.90    3.60
  -1  -1  -8   12.40    1.10
   1  -1   8   13.30    1.50
  -1   1  -8    9.80    1.10
   1   1   8   12.00    1.20
   1   1   8   10.40    1.30
   1   1   8   10.00    3.50
  -1   1  -8   12.90    1.10
  -2  -1  -8   16.20    1.80
  -2  -1  -8   15.40    1.30
   2  -1   8   10.60    3.50
  -2  -1  -8   12.90    1.70
   2  -1   8   10.00    1.60
  -2  -1  -8   11.40    2.60
  -2  -1  -8   13.30    1.50
  -2   1  -8   13.30    2.60
   2   1   8   16.00    1.90
   2   1   8   12.50    4.30
  -2   1  -8   16.30    1.30
  -2   1  -8   13.00    1.60
   3  -1   8   44.40    6.30
  -3  -1  -8   58.89    3.70
  -3  -1  -8   60.19    3.70
  -3  -1  -8   58.29    5.00
  -3  -1  -8   56.49    4.40
  -3   1  -8   56.39    3.60
  -3   1  -8   56.29    4.90
   3   1   8   49.40    4.50
  -4  -1  -8   24.50    3.00
  -4  -1  -8   23.30    2.80
   4  -1   8   24.10    6.90
  -4  -1  -8   23.10    2.10
  -4  -1  -8   22.30    2.00
  -4  -1  -8   21.80    2.60
  -4   1  -8   22.00    1.90
  -4   1  -8   21.00    3.00
  -4   1  -8   25.60    3.10
  -4   1  -8   19.80    2.40
  -5  -1  -8  103.99    6.80
  -5  -1  -8  102.89    7.40
  -5  -1  -8  107.59    6.80
  -5  -1  -8  101.89    7.90
  -5  -1  -8  104.99    7.40
  -5   1  -8  111.59    7.30
  -5   1  -8  109.19    6.80
  -5   1  -8  102.39    6.70
  -5   1  -8  105.69    7.90
  -6  -1  -8   13.80    3.00
  -6  -1  -8   15.60    2.50
  -6  -1  -8   18.00    2.30
  -6  -1  -8    8.30    3.40
  -6  -1  -8   13.90    1.70
  -6   1  -8   13.00    2.40
  -6   1  -8   15.90    1.90
  -6   1  -8   14.90    2.00
  -6   1  -8   14.70    3.40
  -7  -1  -8    2.30    3.20
  -7  -1  -8   -1.40    1.20
  -7  -1  -8    1.40    2.00
  -7   1  -8   -1.40    3.20
  -7   1  -8   -1.00    1.20
  -7   1  -8    2.70    2.20
  -7  -2   8   33.50    6.20
  -7  -2   8   34.50    8.30
  -7   2   8   49.00    3.80
  -7   2   8   43.50    4.00
  -6  -2   8    8.90    5.20
  -6  -2   8    6.70    1.60
  -6  -2   8    2.20    5.50
  -6  -2   8   -0.80    4.60
  -6   2   8    4.10    1.40
  -6   2   8   14.90    6.90
  -6   2   8    5.00    1.80
  -5  -2   8    6.80    5.10
  -5  -2   8    9.10    3.80
  -5  -2   8    2.30    3.70
  -5  -2   8    6.90    1.30
  -5  -2   8    4.10    3.50
  -5  -2   8    3.40    4.20
  -5   2   8    7.20    5.00
  -5   2   8    3.60    6.30
  -5   2   8    8.40    1.40
  -5   2   8    6.00    1.60
  -4  -2   8    2.60    2.80
  -4  -2   8   -1.10    2.10
  -4  -2   8   -4.70    3.20
  -4  -2   8    1.50    2.30
  -4  -2   8    0.30    2.70
  -4  -2   8   -0.60    2.20
   4  -2  -8    0.10    2.10
  -4  -2   8    0.90    0.90
  -4  -2   8    0.60    2.20
  -4   2   8    1.00    3.50
  -4   2   8    1.70    1.10
  -4   2   8    0.00    6.50
  -4   2   8    1.00    1.00
  -4   2   8   -5.00    4.20
  -3  -2   8   13.90    2.60
  -3  -2   8   13.70    3.20
  -3  -2   8   10.90    2.50
  -3  -2   8   15.40    2.20
  -3  -2   8   13.00    1.40
   3  -2  -8   12.80    1.70
  -3   2   8   11.10    1.80
  -3   2   8   11.80    1.40
  -3   2   8   12.10    3.40
  -3   2   8    8.90    4.80
  -3   2   8    9.10    1.10
  -3   2   8   11.80    1.20
  -3   2   8   10.90    3.20
  -2  -2   8   86.69   10.20
  -2  -2   8  103.89    6.40
  -2  -2   8  109.19    7.20
   2  -2  -8  101.19    6.60
  -2  -2   8  106.59    6.80
   2   2  -8   96.79    6.50
  -2   2   8  103.39    6.40
  -2   2   8   95.89    7.20
  -2   2   8  112.99    6.50
  -2   2   8  104.89    6.40
  -2   2   8  103.39    8.00
  -2   2   8   97.89    6.50
  -2   2   8  110.19    6.30
  -1  -2   8   15.50    4.80
   1  -2  -8   23.30    1.80
  -1  -2   8   19.70    2.20
   1  -2  -8   19.50    1.90
  -1  -2   8   18.90    2.50
  -1   2   8   19.70    3.30
  -1   2   8   20.70    1.80
   1   2  -8   20.20    2.10
  -1   2   8   20.80    1.70
  -1   2   8   20.80    2.20
  -1   2   8   19.90    1.60
   1   2  -8   20.50    1.60
   0  -2  -8  378.16   22.40
   0  -2   8  357.56   23.70
   0  -2   8  379.46   22.70
   0  -2  -8  355.06   22.30
   0   2  -8  378.76   22.40
   0   2   8  384.46   22.30
   0   2   8  375.46   22.30
   0   2   8  381.46   22.20
   0   2   8  375.66   23.40
   0   2   8  367.56   22.50
  -1  -2  -8    2.70    1.00
  -1  -2  -8    1.60    0.90
   1  -2   8    1.80    3.20
  -1   2  -8    2.70    0.60
   1   2   8    3.90    1.60
   1   2   8    3.20    0.70
  -1   2  -8    1.90    1.00
   1   2   8    2.50    0.80
   2  -2   8   29.20    4.40
  -2  -2  -8   34.90    2.30
  -2  -2  -8   25.60    3.50
  -2  -2  -8   33.30    2.70
  -2  -2  -8   35.30    2.40
   2   2   8   32.90    2.60
  -2   2  -8   35.20    2.30
   2   2   8   31.70    2.50
  -2   2  -8   25.40    3.80
   2   2   8   32.50    3.70
   3  -2   8    0.70    4.10
  -3  -2  -8    1.00    1.60
  -3  -2  -8    0.30    0.70
  -3  -2  -8    0.00    0.60
  -3   2  -8   -1.50    0.60
   3   2   8    4.70    1.90
  -3   2  -8    1.10    1.50
  -4  -2  -8    0.10    0.70
   4  -2   8    3.60    5.70
  -4  -2  -8    0.00    0.80
  -4  -2  -8    1.00    2.20
  -4  -2  -8    2.40    1.50
  -4  -2  -8   -1.70    1.90
  -4   2  -8    2.40    1.80
  -4   2  -8    1.20    0.80
  -4   2  -8   -3.10    2.20
  -5  -2  -8    4.20    1.30
  -5  -2  -8    6.10    1.20
  -5  -2  -8    6.00    2.10
  -5  -2  -8    7.20    2.80
  -5  -2  -8    4.50    2.10
  -5   2  -8    5.00    1.20
  -5   2  -8    6.00    2.70
   5   2   8    8.40    3.10
  -5   2  -8    5.30    2.00
  -5   2  -8    5.80    1.20
  -6  -2  -8   -2.50    2.70
  -6  -2  -8    1.10    3.40
  -6  -2  -8    0.00    1.10
  -6  -2  -8    0.60    2.00
  -6   2  -8    4.00    3.00
  -6   2  -8   -0.90    2.10
  -6   2  -8   -0.70    1.40
   6   2   8    5.90    3.00
  -6   2  -8    0.20    1.00
  -7  -2  -8    7.90    1.40
  -7   2  -8   10.80    2.50
  -7   2  -8    7.70    1.50
   7   2   8   13.30    3.10
  -7  -3   8    8.30    5.30
  -7  -3   8    2.40    7.40
  -7   3   8    6.20    1.90
  -6  -3   8   -3.50    5.50
  -6  -3   8   -3.70    5.20
  -6  -3   8    5.00    4.40
  -6   3   8    5.80    1.80
  -6   3   8    8.90    7.80
  -6   3   8    1.70    1.40
  -5  -3   8    6.00    4.00
  -5  -3   8    4.10    5.20
  -5  -3   8    5.20    1.50
  -5  -3   8    0.10    3.60
  -5  -3   8    0.50    3.80
  -5  -3   8    6.20    4.60
  -5  -3   8    0.50    3.20
  -5   3   8    3.40    1.20
  -5   3   8    0.60    6.10
  -5   3   8    7.90    1.80
  -4  -3   8    3.50    2.80
  -4  -3   8    2.10    1.10
  -4  -3   8    1.00    2.40
  -4  -3   8    5.10    2.50
  -4  -3   8    3.60    2.90
  -4  -3   8    3.60    2.70
  -4   3   8    3.60    1.40
  -4   3   8    4.50    1.20
  -4   3   8    7.60    4.20
  -4   3   8    2.40    1.10
  -3  -3   8    8.00    1.20
  -3  -3   8    6.90    2.20
  -3  -3   8    9.30    2.20
  -3  -3   8    6.70    3.30
  -3  -3   8   10.50    2.40
   3  -3  -8    9.70    1.50
  -3   3   8    9.50    1.40
  -3   3   8   12.50    4.00
  -3   3   8   10.00    1.60
  -3   3   8    8.80    1.10
  -3   3   8   11.50    1.30
  -2  -3   8   32.60    5.10
  -2  -3   8   43.10    6.70
   2  -3  -8   39.30    2.90
  -2  -3   8   31.50    3.50
  -2  -3   8   45.70    4.30
  -2  -3   8   40.80    2.70
  -2   3   8   46.40    4.90
  -2   3   8   40.70    2.80
  -2   3   8   40.80    2.70
  -2   3   8   33.50    3.10
  -2   3   8   39.80    3.10
  -2   3   8   41.90    3.20
   1  -3  -8  141.99    8.90
  -1  -3   8  149.79    9.10
  -1  -3   8  157.08    9.40
  -1  -3   8  127.19   11.40
   1   3  -8  151.48    8.70
  -1   3   8  139.99    8.70
  -1   3   8  143.59    8.90
  -1   3   8  136.89    8.80
  -1   3   8  145.69    8.70
  -1   3   8  135.79   10.70
   0  -3   8   91.59    6.50
   0  -3   8   81.79    8.50
   0  -3  -8   98.29    6.00
   0   3   8   89.59    5.90
   0   3   8   88.19    5.80
   0   3   8   92.59    8.60
   0   3   8   92.29    5.70
   0   3  -8  102.59    5.80
   0   3   8   96.19    6.10
  -1  -3  -8   -1.40    1.00
  -1  -3  -8    1.30    1.80
   1  -3   8   -0.70    3.30
  -1  -3  -8    0.60    1.00
   1  -3   8    2.20    2.30
   1   3   8    1.20    0.60
   1   3   8    1.10    0.90
   1   3   8    1.30    1.30
  -1   3  -8    1.30    0.70
  -2  -3  -8    0.40    1.10
  -2  -3  -8    0.80    0.80
   2  -3   8   -3.70    3.60
  -2  -3  -8   -1.10    1.70
  -2   3  -8   -0.80    1.90
   2   3   8   -0.50    1.20
  -2   3  -8    0.70    0.70
   2   3   8   -1.30    1.50
   2   3   8    1.30    0.90
  -2   3  -8    0.50    1.90
  -3  -3  -8    0.80    1.70
  -3  -3  -8   -0.20    1.30
  -3  -3  -8    0.90    1.90
   3  -3   8    1.60    4.10
  -3  -3  -8    1.10    0.80
  -3   3  -8    1.60    1.80
   3   3   8    2.40    1.80
   3   3   8   -0.70    1.80
  -3   3  -8   -0.10    0.70
  -3   3  -8    1.50    2.00
  -4  -3  -8   12.40    2.60
   4  -3   8   16.70    6.80
  -4  -3  -8   16.70    1.90
  -4  -3  -8   17.00    2.50
  -4  -3  -8   15.20    3.30
  -4  -3  -8   16.70    2.20
   4   3   8   16.50    2.90
  -4   3  -8   11.60    2.20
  -4   3  -8   16.30    1.70
  -4   3  -8   12.40    2.70
  -5  -3  -8    2.80    1.80
  -5  -3  -8    5.20    1.20
  -5  -3  -8    5.20    2.50
   5  -3   8  -10.00    8.90
  -5  -3  -8    2.20    3.70
  -5   3  -8    6.10    1.20
  -5   3  -8    4.70    2.70
  -5   3  -8    4.30    3.10
  -5   3  -8    4.70    1.20
   5   3   8    4.90    2.60
  -6  -3  -8    8.10    1.50
  -6  -3  -8    9.60    3.30
  -6  -3  -8    6.90    3.00
  -6  -3  -8    7.70    2.30
  -6   3  -8    9.60    3.00
   6   3   8    6.00    2.80
  -6   3  -8   12.70    2.60
  -6   3  -8   10.60    1.50
  -6   3  -8   10.50    1.80
  -7  -3  -8    6.80    1.50
  -7  -3  -8   10.40    3.70
  -7  -3  -8    2.60    2.70
  -7   3  -8   11.70    3.30
  -7   3  -8    6.80    1.60
   7   3   8    4.90    2.90
  -7   3  -8    7.60    2.60
  -7  -4   8    6.10    5.60
   6  -4  -8   16.00    6.20
  -6  -4   8    7.50    5.60
  -6  -4   8    1.30    5.70
  -6  -4   8   13.90    4.00
  -6   4   8    8.50    2.50
  -6   4   8    7.90    2.00
  -5  -4   8    7.20    5.30
  -5  -4   8    5.80    3.70
  -5  -4   8   11.40    6.60
  -5  -4   8    3.80    3.00
  -5  -4   8    3.80    4.10
  -5  -4   8   -3.80    3.90
  -5   4   8   -2.10    1.60
  -5   4   8   -1.80    6.10
  -5   4   8   -1.30    1.40
  -4  -4   8    3.70    2.50
  -4  -4   8    2.30    2.90
  -4  -4   8    1.20    3.50
  -4  -4   8   -1.50    3.10
  -4  -4   8    9.50    4.20
  -4  -4   8    4.30    3.40
  -4  -4   8    6.40    3.50
  -4   4   8    2.50    1.50
  -4   4   8    2.80    1.10
  -4   4   8    2.70    1.20
  -4   4   8    7.40    5.20
  -3  -4   8   -0.50    2.10
  -3  -4   8    0.50    3.40
   3  -4  -8    3.40    1.70
  -3  -4   8    0.90    2.40
  -3  -4   8    0.80    2.50
  -3  -4   8    0.00    2.40
  -3  -4   8    0.10    1.10
  -3  -4   8   -0.20    2.50
  -3  -4   8    0.40    2.10
  -3   4   8    2.30    4.00
  -3   4   8    0.00    1.10
  -3   4   8    2.60    1.40
  -3   4   8    1.50    0.90
  -3   4   8    0.30    1.20
  -2  -4   8    1.10    2.10
  -2  -4   8    0.00    1.90
  -2  -4   8    0.50    1.00
  -2  -4   8    1.80    3.20
   2  -4  -8    4.40    1.30
  -2  -4   8    1.10    2.20
  -2  -4   8   -1.90    6.50
  -2   4   8    2.60    1.10
  -2   4   8    0.90    0.70
  -2   4   8    4.90    4.30
  -2   4   8    4.50    1.20
  -2   4   8    3.30    1.20
  -1  -4   8  126.29    8.40
  -1  -4   8  119.49    7.70
  -1  -4   8  113.29   11.10
   1  -4  -8  120.19    7.90
  -1   4   8  122.49    7.80
  -1   4   8  127.89   10.90
  -1   4   8  125.89    7.60
   1   4  -8  132.39    7.70
   0  -4   8    3.70    2.10
   0  -4  -8    4.50    1.30
   0  -4   8    2.10    4.20
   0  -4   8    5.90    1.70
   0  -4   8    3.60    3.90
   0   4  -8    3.00    1.00
   0   4   8    4.80    1.30
   0   4   8    4.10    0.70
   1  -4   8  232.58   17.10
   1  -4   8  243.78   15.60
  -1  -4  -8  252.57   15.30
  -1   4  -8  258.37   15.10
   1   4   8  252.77   15.00
   1   4   8  253.47   15.40
  -2  -4  -8    3.60    1.40
   2  -4   8    1.30    4.30
  -2  -4  -8    1.50    1.10
  -2  -4  -8    1.20    1.50
  -2  -4  -8    3.00    1.80
   2   4   8    2.80    1.60
   2   4   8    2.00    1.00
  -3  -4  -8   12.10    2.40
   3  -4   8    9.80    5.10
  -3  -4  -8    9.60    1.40
  -3  -4  -8   10.50    2.40
   3   4   8   10.60    2.20
  -3   4  -8   12.50    2.30
  -3   4  -8   10.60    1.30
  -4  -4  -8   53.29    3.80
  -4  -4  -8   53.19    5.00
  -4  -4  -8   49.60    4.40
   4  -4   8   41.80    7.40
  -4  -4  -8   54.19    5.60
  -4  -4  -8   46.80    5.70
  -4   4  -8   54.59    5.10
  -4   4  -8   48.50    3.60
  -4   4  -8   48.80    5.00
  -5  -4  -8    2.30    2.10
  -5  -4  -8    0.90    1.20
  -5  -4  -8   -0.40    2.60
  -5  -4  -8    1.30    3.20
   5  -4   8   19.80    8.80
  -5   4  -8    0.50    2.70
  -5   4  -8   -0.70    1.20
   5   4   8   -1.40    2.10
  -5   4  -8   -1.00    2.60
  -6  -4  -8  158.38    9.80
  -6  -4  -8  152.08   11.00
  -6  -4  -8  163.68   10.80
  -6   4  -8  154.98    9.70
   6   4   8  161.38   10.40
  -6   4  -8  150.38    9.90
  -6   4  -8  149.59   10.70
  -6   4  -8  159.88   10.60
  -6  -5   8   14.90    5.80
   6  -5  -8   21.50    7.00
  -6  -5   8   26.70    6.20
  -6  -5   8    2.70    5.70
  -6   5   8   21.80    2.50
  -5  -5   8   68.89    7.30
  -5  -5   8   46.30    5.90
  -5  -5   8   64.69    8.80
  -5   5   8   73.19    5.20
  -4  -5   8   10.20    4.90
  -4  -5   8    5.80    3.20
  -4  -5   8    3.60    4.00
  -4  -5   8    8.70    2.70
  -4   5   8   10.60    2.10
  -4   5   8   12.90    1.90
  -4   5   8    9.80    1.60
  -3  -5   8   23.80    3.90
  -3  -5   8   11.30    4.10
  -3  -5   8   20.70    4.20
  -3  -5   8   22.50    3.40
  -3  -5   8   26.10    3.20
  -3  -5   8   18.30    3.80
  -3  -5   8   11.60    2.80
  -3   5   8   14.30    2.30
  -3   5   8   20.70    1.90
  -3   5   8   20.20    2.20
  -2  -5   8   48.20    5.30
  -2  -5   8   46.40    4.80
   2  -5  -8   41.10    3.80
  -2  -5   8   45.90    9.60
  -2  -5   8   29.50    5.40
  -2  -5   8   40.80    4.40
  -2  -5   8   41.30    5.10
  -2   5   8   45.70    3.00
  -2   5   8   40.40    3.40
  -1  -5   8  109.59    7.80
  -1  -5   8  100.49    7.70
   1  -5  -8  108.69    7.10
  -1  -5   8   94.29   11.50
  -1  -5   8   97.69    6.80
  -1  -5   8  106.19    7.80
  -1  -5   8  110.99    8.60
   1   5  -8  114.59    6.80
  -1   5   8  106.79    6.60
  -1   5   8  109.09    7.00
   0  -5   8  186.28   12.00
   0  -5  -8  199.28   11.60
   0  -5   8  170.68   14.30
   0  -5  -8  182.38   11.50
   0  -5   8  167.58   11.80
   0   5   8  185.08   11.10
   0   5   8  180.68   11.50
   0   5  -8  192.98   11.30
  -1  -5  -8    3.40    1.70
  -1  -5  -8    1.20    1.70
   1  -5   8   -0.10    2.40
   1  -5   8   -5.90    4.50
   1   5   8   -0.30    0.70
   1   5   8   -0.50    1.40
  -1   5  -8    1.00    1.10
   2  -5   8   -3.70    4.80
  -2  -5  -8    4.40    2.00
  -2  -5  -8    3.30    1.80
  -2  -5  -8    1.30    2.20
   2   5   8    1.10    1.60
  -2   5  -8    1.50    1.00
   2   5   8    2.40    1.10
  -3  -5  -8    4.00    1.60
  -3  -5  -8    0.60    1.70
  -3  -5  -8    0.00    2.60
   3  -5   8    3.90    5.60
  -3  -5  -8    2.40    2.40
   3   5   8    4.40    2.00
  -3   5  -8    1.10    1.10
  -4  -5  -8   22.60    4.20
  -4  -5  -8   22.60    2.60
   4  -5   8   27.20    6.80
  -4  -5  -8   21.40    3.80
  -4  -5  -8   22.70    3.70
  -4  -5  -8   20.20    2.80
   4   5   8   19.50    2.80
  -4   5  -8   20.50    2.40
   5  -5   8   43.90   14.90
  -5  -5  -8   34.90    4.70
  -5  -5  -8   27.80    4.00
  -5  -5  -8   27.80    2.90
  -5   5  -8   27.00    2.60
  -5   5  -8   26.40    3.00
   5   5   8   32.70    3.70
  -6  -5  -8    0.00    3.50
  -6  -5  -8    1.60    3.50
  -6  -5  -8   -0.20    1.60
  -6   5  -8    0.50    1.70
   6   5   8    0.40    2.40
  -5  -6   8   -7.70    6.50
   5  -6  -8    7.70    4.50
  -5  -6   8   -2.50    6.00
  -5  -6   8    5.30    4.20
  -4  -6   8    0.50    5.80
  -4  -6   8    4.30    3.40
  -4  -6   8    4.30    5.60
  -4  -6   8    8.70    4.70
  -4   6   8    9.00    1.40
  -3  -6   8   11.40    5.70
  -3  -6   8   -9.00    5.00
  -3  -6   8   12.20    3.20
  -3  -6   8    8.80    5.40
  -3  -6   8    4.80    6.30
  -3  -6   8    8.20    3.00
  -3   6   8    5.70    1.10
  -3   6   8    3.90    1.60
   2  -6  -8   40.60    4.50
  -2  -6   8   34.80    4.40
  -2  -6   8   44.40    6.40
  -2  -6   8   52.69    7.80
  -2  -6   8   30.10    6.80
  -2  -6   8   43.40    5.70
  -2   6   8   47.40    4.60
  -2   6   8   46.90    3.10
  -1  -6   8   22.70    7.80
  -1  -6   8   38.60    4.20
  -1  -6   8   40.00    5.40
  -1  -6   8   33.70    6.00
   1  -6  -8   39.30    4.00
  -1   6   8   39.70    2.80
  -1   6   8   35.60    3.40
   1   6  -8   43.20    3.60
   0  -6  -8  344.67   20.90
   0  -6   8  301.17   23.30
   0  -6   8  336.07   21.20
   0   6   8  343.07   20.70
   0   6  -8  351.86   20.50
   0   6   8  346.07   20.40
  -1  -6  -8    5.40    2.10
   1  -6   8   10.60    5.40
  -1  -6  -8    0.60    2.20
   1  -6   8    8.90    3.00
   1   6   8    4.50    1.70
   1   6   8    4.20    1.00
  -1   6  -8    4.50    1.40
  -2  -6  -8   52.19    5.30
  -2  -6  -8   41.90    4.50
  -2  -6  -8   35.70    4.20
  -2  -6  -8   25.90    4.50
   2  -6   8   31.60    5.30
   2  -6   8   40.80    7.00
  -2   6  -8   35.10    3.20
   2   6   8   42.50    3.10
   2   6   8   38.60    3.70
  -3  -6  -8    3.10    2.10
  -3  -6  -8    0.80    3.00
  -3  -6  -8    2.10    3.00
  -3  -6  -8    1.40    2.30
   3  -6   8    9.60    6.30
   3   6   8    1.30    1.70
  -3   6  -8    2.00    1.30
  -4  -6  -8   12.60    2.80
  -4  -6  -8    2.30    3.20
   4  -6   8    1.00    7.10
  -4  -6  -8    8.60    2.10
  -4  -6  -8   12.10    4.70
  -4   6  -8    5.50    1.60
   4   6   8   10.90    2.10
   5  -6   8  170.48   19.10
  -5  -6  -8  204.78   12.70
  -5  -6  -8  202.28   13.60
  -5  -6  -8  213.08   13.70
   5   6   8  207.18   12.80
  -5   6  -8  204.88   12.40
  -5   6  -8  199.98   12.60
  -4  -7   8   -5.50    8.50
  -4  -7   8    4.60    3.80
   4  -7  -8    0.10    4.00
  -4   7   8    1.00    1.20
  -3  -7   8   -1.10    3.60
  -3  -7   8   -0.90    3.00
   3  -7  -8    1.70    4.10
  -3  -7   8   -0.40   10.60
  -3   7   8    0.60    1.60
  -3   7   8   -0.10    1.00
  -2  -7   8   36.30    3.90
   2  -7  -8   37.40    4.80
  -2  -7   8   40.00    5.10
  -2   7   8   39.10    2.90
  -2   7   8   39.70    3.40
  -2   7   8   27.70    3.50
   1  -7  -8  573.64   34.50
  -1  -7   8  542.65   34.60
  -1   7   8  563.34   34.10
   1   7  -8  563.24   34.00
  -1   7   8  592.14   33.90
   0  -7   8   33.90    4.00
   0  -7  -8   36.30    4.40
   0  -7   8   25.00    8.50
   0   7   8   32.10    2.60
   0   7   8   32.80    3.20
   0   7  -8   28.30    3.50
   1  -7   8    7.70    3.20
   1  -7   8   -1.30    6.50
  -1  -7  -8    2.20    3.10
  -1  -7  -8    5.70    2.80
  -1   7  -8    5.40    1.70
   1   7   8    3.00    1.60
   1   7   8    4.00    1.20
  -2  -7  -8    2.00    3.00
  -2  -7  -8    2.70    3.00
   2  -7   8    0.10    5.60
  -2  -7  -8   -2.40    3.10
   2  -7   8    1.40    7.00
   2   7   8    3.30    1.80
  -2   7  -8    1.80    1.60
   2   7   8   -0.10    1.50
   3  -7   8    4.60    7.30
  -3  -7  -8    3.40    5.30
  -3  -7  -8   -0.50    2.90
  -3  -7  -8    1.30    3.20
  -3   7  -8   -0.80    1.60
   3   7   8    3.30    1.70
  -4  -7  -8   -2.40    2.60
  -4  -7  -8   -1.40    5.70
   4  -7   8    4.60    8.80
  -4  -7  -8    2.60    4.20
  -4  -7  -8    1.60    3.10
  -4   7  -8   -1.10    1.90
   4   7   8    1.80    1.80
   3  -8  -8   -2.10    4.70
  -3  -8   8    4.10    3.50
  -3   8   8    5.30    1.30
  -2  -8   8   17.10    5.80
   2  -8  -8   19.70    4.90
  -2   8   8   27.80    3.00
  -2   8   8   25.00    2.30
   1  -8  -8   51.09    6.10
   1  -8  -8   43.60    6.50
  -1  -8   8   53.89    5.80
  -1   8   8   56.09    3.80
  -1   8   8   52.19    4.20
   0  -8   8  173.58   12.20
   0  -8   8  130.69   19.90
   0  -8  -8  191.78   12.60
   0   8   8  189.18   11.10
   0   8   8  190.18   11.40
   0   8  -8  168.68   11.60
  -1  -8  -8    1.70    3.10
   1  -8   8    3.00    8.60
   1  -8   8    2.50    3.50
  -1  -8  -8    3.90    3.30
   1   8   8    0.50    1.40
   1   8   8    0.30    1.50
  -1   8  -8   -2.90    2.10
  -2  -8  -8    1.70    3.10
   2  -8   8   15.30    8.40
  -2  -8  -8    8.90    4.30
   2   8   8    3.50    1.70
  -2   8  -8    4.40    2.10
  -3  -8  -8    0.80    3.20
  -3  -8  -8    4.40    4.90
   3  -8   8   -0.60    9.20
   3   8   8    2.60    1.80
   0  -9   8  108.99    9.10
   0   9   8  118.19    7.40
   0   9  -8  102.09    7.10
   0   9   8  118.39    7.10
  -7   0   9    0.60    1.70
  -7   0   9   -9.40    6.90
  -7   0   9   -1.10    2.10
  -6   0   9   -2.30    7.10
  -6   0   9   -2.30    5.30
  -6   0   9    0.00    1.80
  -6   0   9   -0.80    1.20
  -6   0   9    8.80    5.40
  -5   0   9   -3.10    5.40
  -5   0   9    1.60    3.50
  -5   0   9   -0.30    1.00
  -5   0   9   -5.10    3.90
  -5   0   9    0.30    1.40
  -5   0   9    6.00    5.60
  -5   0   9   -6.80   10.40
  -4   0   9    5.10    2.80
  -4   0   9    1.90    4.00
  -4   0   9   -0.40    1.10
  -4   0   9   -3.90    2.80
  -4   0   9    0.40    0.80
  -3   0   9   -0.20    1.00
  -3   0   9    0.00    0.70
  -3   0   9   -4.70    3.10
  -3   0   9   -1.40    2.30
  -2   0   9   -2.80    2.50
  -2   0   9   -0.20    0.90
   2   0  -9   -0.30    1.00
  -2   0   9   -1.20    1.00
  -2   0   9   -0.80    0.60
  -2   0   9   -1.90    2.10
  -2   0   9   -1.70    1.30
   1   0  -9   -0.30    0.70
  -1   0   9    0.10    0.60
  -1   0   9    0.80    1.10
  -1   0   9    3.40    3.70
  -1   0   9    2.60    2.30
  -1   0   9    0.80    0.90
  -1   0   9   -2.80    2.40
   0   0   9    0.40    0.80
   0   0  -9   -0.50    0.50
   0   0   9   -1.50    2.50
   0   0  -9    0.50    0.70
   0   0   9    2.30    3.50
  -1   0  -9    0.90    0.50
   1   0   9   -1.80    3.10
   1   0   9    0.90    0.90
  -1   0  -9   -0.50    0.70
  -2   0  -9   -0.40    1.10
   2   0   9    0.00    3.60
   2   0   9    0.90    1.20
  -2   0  -9   -0.40    0.50
   3   0   9   -3.50    4.90
  -3   0  -9   -0.20    0.60
  -3   0  -9   -1.80    2.40
  -4   0  -9    1.00    0.80
  -4   0  -9   -3.90    2.50
  -4   0  -9   -0.70    0.70
  -4   0  -9    1.80    1.60
  -4   0  -9   -1.70    1.70
  -5   0  -9    0.70    2.90
  -5   0  -9    1.80    2.10
  -5   0  -9   -1.00    2.00
  -5   0  -9   -1.80    1.00
  -5   0  -9   -0.50    1.00
  -6   0  -9    0.50    1.00
  -6   0  -9    0.40    3.20
  -6   0  -9    1.20    1.50
  -6   0  -9   -0.20    2.10
  -7   0  -9    2.90    2.10
   7   0   9    1.80    3.20
  -7   0  -9    3.80    5.00
  -7   0  -9    0.90    1.20
  -7  -1   9   10.70    6.10
  -7  -1   9   30.90    2.80
  -7   1   9   24.60    2.80
  -7   1   9   29.80    3.00
  -6  -1   9   -2.50    6.30
  -6  -1   9    0.80    5.30
  -6  -1   9    4.70    4.90
  -6  -1   9    4.70    1.50
  -6  -1   9    2.40    2.10
  -6   1   9    4.60    6.00
  -6   1   9   13.70    6.60
  -6   1   9    6.10    1.90
  -6   1   9    2.70    1.20
  -5  -1   9   25.80    4.50
  -5  -1   9   19.60    2.20
  -5  -1   9   12.80    4.80
  -5  -1   9   17.30    4.10
  -5  -1   9   16.10    5.10
  -5  -1   9   15.20    4.70
  -5  -1   9   18.60    2.10
  -5   1   9   14.10    4.90
  -5   1   9   11.60    6.60
  -5   1   9   16.90    4.60
  -5   1   9   20.90    2.10
  -5   1   9   24.30    2.80
  -4  -1   9    1.30    1.20
  -4  -1   9    0.90    0.80
  -4  -1   9    3.90    2.50
  -4  -1   9    1.70    3.90
  -4  -1   9   -1.00    2.80
  -4   1   9   -1.20    3.40
  -4   1   9   -2.90    3.10
  -4   1   9   -2.10    5.00
  -4   1   9    4.50    1.20
  -4   1   9    1.40    1.00
  -3  -1   9    7.40    1.90
  -3  -1   9    7.20    1.00
  -3  -1   9    4.30    3.20
  -3  -1   9    7.60    1.20
  -3  -1   9    6.80    2.60
  -3   1   9    4.20    3.80
  -3   1   9    7.90    1.20
  -3   1   9    8.50    1.30
  -3   1   9    6.70    1.00
  -3   1   9    7.30    2.90
  -3   1   9    6.10    2.30
  -2  -1   9   13.80    4.90
  -2  -1   9    9.40    2.30
  -2  -1   9    5.70    2.70
  -2  -1   9    8.80    1.60
  -2  -1   9   12.40    1.70
  -2  -1   9   11.70    1.20
   2  -1  -9    8.20    1.30
  -2   1   9   12.90    1.30
  -2   1   9    8.50    2.80
  -2   1   9   12.40    1.30
  -2   1   9    9.80    1.60
   2   1  -9    8.50    1.20
  -2   1   9   10.30    1.10
  -2   1   9    6.20    3.10
  -1  -1   9   22.30    2.30
   1  -1  -9   22.60    2.00
  -1  -1   9   26.50    1.90
  -1  -1   9   24.90    2.90
  -1  -1   9   20.30    4.60
  -1  -1   9   25.00    2.30
  -1   1   9   25.10    2.40
  -1   1   9   27.30    3.50
  -1   1   9   21.00    2.10
  -1   1   9   25.20    1.80
  -1   1   9   23.70    1.90
   1   1  -9   22.60    2.00
   0  -1   9  145.39    9.90
   0  -1  -9  153.68    9.00
   0  -1   9  142.29    9.10
   0  -1  -9  141.19    9.00
   0  -1   9  140.49   11.20
   0   1   9  144.49    9.40
   0   1   9  159.48    9.10
   0   1  -9  141.29    9.00
   0   1   9  145.69   10.60
   0   1   9  141.69   11.40
   0   1   9  153.58    9.10
   0   1  -9  151.18    8.90
   0   1   9  162.18    9.00
  -1  -1  -9    0.60    0.90
  -1  -1  -9    1.10    0.60
   1  -1   9    1.70    1.00
  -1  -1  -9    1.90    0.80
   1  -1   9    5.30    3.70
  -1   1  -9    1.70    0.60
   1   1   9    5.00    1.90
   1   1   9    0.00    3.70
   1   1   9    2.00    0.90
   1   1   9    0.80    0.90
  -1   1  -9    1.60    1.00
   2  -1   9   -2.50    3.40
  -2  -1  -9   -0.70    1.00
   2  -1   9   -0.20    1.30
  -2  -1  -9    1.80    0.70
  -2  -1  -9    0.80    0.60
  -2   1  -9    0.30    0.60
   2   1   9   -1.60    4.20
   2   1   9   -1.60    1.20
  -3  -1  -9    1.70    1.70
  -3  -1  -9    1.90    0.80
   3  -1   9    4.00    4.80
  -3  -1  -9    1.20    0.70
  -3  -1  -9    4.70    2.30
   3   1   9    6.30    6.70
   3   1   9    0.90    1.90
  -3   1  -9    0.90    0.70
  -3   1  -9    2.60    2.30
   4  -1   9   22.20    7.90
  -4  -1  -9   31.10    2.50
  -4  -1  -9   24.10    3.30
  -4  -1  -9   34.00    2.40
  -4  -1  -9   27.80    3.20
  -4  -1  -9   29.80    3.80
  -4   1  -9   28.90    3.60
  -4   1  -9   36.10    4.40
  -4   1  -9   33.70    3.50
  -4   1  -9   29.10    2.40
  -5  -1  -9  140.69    8.90
  -5  -1  -9  143.39   10.10
  -5  -1  -9  144.19    8.90
  -5  -1  -9  142.19    9.50
  -5  -1  -9  144.59    9.50
  -5   1  -9  149.19    9.50
  -5   1  -9  140.69    8.90
  -5   1  -9  136.29   10.00
  -5   1  -9  143.99    8.90
  -6  -1  -9    6.80    3.00
  -6  -1  -9    0.10    1.70
  -6  -1  -9    1.10    1.10
  -6  -1  -9    3.80    2.10
  -6  -1  -9    6.10    3.30
  -6   1  -9    3.50    1.60
   6   1   9    0.70    3.00
  -6   1  -9    2.70    1.90
  -6   1  -9    0.40    3.30
  -6   1  -9    2.20    1.00
  -7  -1  -9    2.10    2.50
  -7  -1  -9    4.40    3.70
  -7  -1  -9   -1.40    1.10
   7   1   9   -3.70    2.90
  -7   1  -9    0.80    2.30
  -7   1  -9   -2.80    3.50
  -7  -2   9    2.20    5.10
  -7  -2   9   -2.30    8.00
  -7   2   9   -0.50    1.70
  -7   2   9    4.70    1.90
  -6  -2   9   38.30    6.10
  -6  -2   9   27.90    3.10
  -6  -2   9   26.10    5.30
  -6  -2   9   14.90    5.80
  -6   2   9   34.00    2.90
  -6   2   9   26.00    7.20
  -6   2   9   32.50    3.50
  -5  -2   9    2.10    3.90
  -5  -2   9   -0.70    3.60
  -5  -2   9    3.60    4.40
  -5  -2   9   -1.70    4.80
  -5  -2   9   -3.90    3.70
  -5  -2   9   -0.70    1.20
  -5   2   9    5.90    4.90
  -5   2   9    0.00    1.10
  -5   2   9   -1.40    1.40
  -4  -2   9    2.10    1.00
   4  -2  -9    1.00    1.70
  -4  -2   9    3.30    4.30
  -4  -2   9    4.00    2.50
  -4  -2   9   -1.10    2.80
  -4  -2   9    0.10    2.20
  -4  -2   9    1.00    2.70
  -4  -2   9    2.40    3.40
  -4   2   9    7.00    4.50
  -4   2   9    2.50    1.30
  -4   2   9    2.80    3.90
  -4   2   9    2.30    6.90
  -4   2   9    3.20    1.10
  -3  -2   9   22.20    3.20
  -3  -2   9   13.30    3.00
  -3  -2   9   12.90    3.40
  -3  -2   9   19.20    3.00
   3  -2  -9   19.50    2.10
  -3  -2   9   18.20    1.70
  -3   2   9   20.70    3.60
  -3   2   9   17.70    1.80
  -3   2   9   17.20    2.10
  -3   2   9   22.50    4.10
  -2  -2   9   34.20    6.30
  -2   2   9   49.70    3.00
  -2   2   9   40.70    3.20
  -1  -2   9  561.54   33.10
  -1  -2   9  519.45   34.20
   1  -2  -9  564.74   32.70
  -1  -2   9  573.24   32.80
  -1   2   9  566.14   32.60
  -1   2   9  507.25   32.70
  -1   2   9  526.35   32.60
  -1   2   9  556.44   32.60
  -1   2   9  585.44   33.60
  -1   2   9  519.25   32.70
   0  -2   9    0.10    2.10
   0  -2  -9    0.90    0.80
   0  -2   9    0.70    2.90
   0  -2   9    1.20    3.30
   0   2   9    1.50    0.80
   0   2   9    6.00    3.50
   0   2   9    0.90    1.30
   0   2   9    0.70    0.60
   0   2  -9    0.60    0.60
   0   2   9    1.90    0.80
  -1  -2  -9   93.19    6.00
   1  -2   9   85.19    8.70
  -1  -2  -9   92.69    6.00
  -1   2  -9   98.79    5.80
   1   2   9  103.39    5.90
   1   2   9   97.59    6.50
   1   2   9   87.79    6.00
   2  -2   9   12.70    4.50
  -2  -2  -9   15.70    1.60
  -2  -2  -9   15.50    1.50
  -2  -2  -9   15.10    2.10
  -2  -2  -9   16.60    2.60
   2   2   9   17.60    1.90
  -2   2  -9   17.10    2.60
   2   2   9   13.60    1.70
  -2   2  -9   16.70    1.50
   2   2   9   15.70    2.50
  -3  -2  -9   24.80    3.00
  -3  -2  -9   21.60    3.00
   3  -2   9   16.60    5.10
  -3  -2  -9   24.00    2.80
  -3  -2  -9   25.60    2.10
   3   2   9   24.30    3.10
  -3   2  -9   22.70    2.30
  -3   2  -9   28.20    2.60
  -3   2  -9   31.90    4.00
   4  -2   9    5.70    6.80
  -4  -2  -9   -0.60    2.60
  -4  -2  -9    0.30    0.90
  -4  -2  -9    0.70    1.60
  -4  -2  -9    2.00    1.00
  -4   2  -9    2.70    1.90
   4   2   9    1.40    2.60
  -4   2  -9    0.50    0.70
  -4   2  -9   -0.40    2.60
  -5  -2  -9   -4.10    3.40
  -5  -2  -9    4.30    1.60
  -5  -2  -9    2.50    1.30
  -5  -2  -9    4.50    1.80
   5   2   9   -0.30    2.70
  -5   2  -9    2.30    1.20
  -5   2  -9    8.80    3.40
  -6  -2  -9   27.50    4.10
  -6  -2  -9   26.30    2.50
  -6  -2  -9   32.60    3.80
  -6  -2  -9   23.00    3.60
  -6   2  -9   28.60    3.10
  -6   2  -9   27.50    2.40
   6   2   9   28.00    3.80
  -6   2  -9   25.80    4.00
  -6   2  -9   21.90    2.90
  -7  -2  -9   -6.80    3.70
  -7  -2  -9   -3.20    2.10
  -7  -2  -9    0.10    1.20
  -7   2  -9   -0.20    3.40
  -7   2  -9   -0.10    1.20
  -7   2  -9    0.20    2.40
   7   2   9    1.60    2.80
  -7  -3   9    5.10    7.90
  -7  -3   9   -1.10    8.00
  -6  -3   9    0.10    4.50
  -6  -3   9    1.30    5.40
  -6  -3   9    4.00    5.70
  -6   3   9    3.10    1.40
  -6   3   9    1.90    7.50
  -6   3   9    7.50    1.90
  -5  -3   9   11.80    5.40
  -5  -3   9    7.00    4.00
  -5  -3   9    4.30    1.50
  -5  -3   9    3.80    5.10
  -5  -3   9   -2.90    3.70
  -5  -3   9   -0.20    3.70
  -5  -3   9   -2.80    5.90
  -5   3   9    3.80    1.20
  -5   3   9   -1.40    5.60
  -5   3   9    5.50    2.40
  -4  -3   9    0.60    2.90
  -4  -3   9    4.60    3.00
  -4  -3   9    0.50    2.80
  -4  -3   9    4.70    3.00
  -4  -3   9    3.60    2.60
  -4  -3   9    2.00    1.10
  -4  -3   9   -0.90    3.30
  -4   3   9   -1.80    1.30
  -4   3   9   -2.30    4.30
  -4   3   9    0.20    1.20
  -3  -3   9   62.89    6.00
   3  -3  -9   76.69    5.20
  -3  -3   9   77.29    6.30
  -3  -3   9   79.99    6.00
  -3  -3   9   73.09    4.90
  -3   3   9   74.99    4.80
  -3   3   9   75.09    4.90
  -3   3   9   69.89    5.30
  -3   3   9   81.69    5.10
  -3   3   9   78.79    8.20
  -2  -3   9   14.30    2.60
  -2  -3   9   12.80    1.30
  -2  -3   9    1.50    5.50
   2  -3  -9   15.40    1.80
  -2  -3   9    7.50    3.40
  -2  -3   9   14.20    2.10
  -2   3   9   11.00    1.50
  -2   3   9   11.40    3.90
  -2   3   9   13.30    1.40
  -2   3   9   13.30    1.50
  -1  -3   9  135.99   12.10
  -1  -3   9  146.99    9.10
  -1  -3   9  149.49    9.90
   1  -3  -9  149.19    9.30
  -1  -3   9  156.08    9.40
  -1   3   9  151.58    9.00
  -1   3   9  161.68   11.30
  -1   3   9  150.28    9.30
  -1   3   9  149.69    9.10
  -1   3   9  139.39    9.20
   0  -3   9   95.29    6.70
   0  -3  -9   91.29    6.00
   0  -3   9   78.79    8.90
   0   3   9   92.29    5.80
   0   3   9  106.89    9.00
   0   3   9   93.89    5.70
   0   3  -9   97.79    5.80
   0   3   9   84.99    5.90
   1  -3   9    3.10    2.70
  -1  -3  -9    6.20    1.30
   1  -3   9    2.20    3.90
  -1   3  -9    4.00    0.80
   1   3   9    7.50    1.60
   2  -3   9    4.00    4.10
  -2  -3  -9    3.20    1.30
  -2  -3  -9    5.00    1.40
  -2  -3  -9    3.80    2.10
  -2   3  -9    4.10    0.80
  -2   3  -9    2.90    2.10
   2   3   9    4.30    1.10
   2   3   9    2.20    1.70
  -2   3  -9    5.50    2.10
  -3  -3  -9   15.20    2.10
  -3  -3  -9   14.40    2.70
  -3  -3  -9   14.30    1.50
   3  -3   9    9.80    5.10
  -3  -3  -9   13.90    2.20
   3   3   9   12.60    2.10
  -3   3  -9   12.80    2.30
  -3   3  -9   15.40    2.60
  -3   3  -9   12.70    1.60
   3   3   9   16.60    2.80
  -4  -3  -9   74.09   10.80
  -4  -3  -9  105.49    6.50
   4  -3   9   86.39   11.70
  -4  -3  -9  104.49    7.00
  -4  -3  -9  102.29    7.70
  -4   3  -9  102.29    6.40
  -4   3  -9   98.09    7.10
  -4   3  -9  104.89    7.50
   4   3   9  105.29    7.60
   5  -3   9   35.80   10.20
  -5  -3  -9   71.09    4.80
  -5  -3  -9   69.49    5.60
  -5  -3  -9   70.09    6.60
  -5  -3  -9   61.29    5.80
  -5   3  -9   70.09    6.40
  -5   3  -9   74.29    5.90
  -5   3  -9   73.09    4.80
  -5   3  -9   71.99    4.70
   5   3   9   71.99    6.20
  -6  -3  -9    8.30    2.70
  -6  -3  -9    3.60    3.70
  -6  -3  -9    7.40    1.40
  -6  -3  -9    5.20    2.20
  -6   3  -9   10.30    3.30
  -6   3  -9    6.50    1.30
  -6   3  -9    5.20    1.90
  -6   3  -9   13.40    2.70
   6   3   9    1.40    2.70
   6  -4  -9   11.50    6.50
  -6  -4   9    7.90    6.60
  -6  -4   9   -6.40    5.20
  -6  -4   9    4.40    5.40
  -6   4   9    3.10    1.90
  -6   4   9   -0.10    1.90
  -5  -4   9    1.60    6.90
  -5  -4   9    0.80    4.00
  -5  -4   9    3.60    3.80
  -5  -4   9   -5.70    5.50
  -5  -4   9    1.70    4.10
  -5  -4   9    4.50    3.30
  -5   4   9    5.00    6.50
  -5   4   9    2.50    1.70
  -5   4   9    3.10    1.40
  -4  -4   9    8.20    4.00
  -4  -4   9    5.40    3.80
  -4  -4   9    5.20    3.70
  -4  -4   9    6.20    3.60
  -4  -4   9   -1.40    4.10
  -4  -4   9   10.30    2.80
  -4   4   9    6.80    1.70
  -4   4   9   13.80    6.30
  -4   4   9    4.50    1.20
  -4   4   9    5.60    1.30
   3  -4  -9   68.29    5.10
  -3  -4   9   67.49    6.00
  -3  -4   9   72.49    6.10
  -3  -4   9   62.09    4.50
  -3  -4   9   74.99    6.20
  -3  -4   9   68.89    6.90
  -3   4   9   62.49    7.20
  -3   4   9   71.29    4.90
  -3   4   9   64.69    4.40
  -3   4   9   64.79    4.60
  -3   4   9   76.09    4.90
   2  -4  -9  818.82   48.20
  -2  -4   9  818.52   48.10
  -2  -4   9  843.62   48.50
  -2  -4   9  849.61   48.80
  -2  -4   9  690.73   50.19
  -2   4   9  846.12   48.00
  -2   4   9  762.02   48.00
  -2   4   9  815.72   48.20
  -2   4   9  817.82   49.70
   1  -4  -9   10.40    1.60
  -1  -4   9    6.50    3.90
  -1  -4   9   11.50    2.00
  -1  -4   9   11.30    5.30
  -1  -4   9    9.90    1.30
  -1  -4   9    8.90    2.40
  -1   4   9    8.80    1.50
   1   4  -9   10.70    1.50
  -1   4   9    9.00    4.80
  -1   4   9    9.50    1.00
   0  -4   9   36.00    6.10
   0  -4   9   43.50    3.90
   0  -4   9   47.40    4.50
   0  -4  -9   46.30    3.50
   0   4  -9   51.09    3.30
   0   4   9   40.50    3.60
   0   4   9   47.00    3.00
  -1  -4  -9    8.80    1.70
   1  -4   9    9.50    2.70
  -1  -4  -9    8.40    2.10
   1  -4   9    6.40    4.40
   1   4   9   10.10    1.10
   1   4   9   10.00    1.70
  -1   4  -9    9.40    1.20
  -2  -4  -9    7.10    1.30
  -2  -4  -9    4.50    2.40
  -2  -4  -9    4.00    1.70
   2  -4   9   11.00    5.30
  -2  -4  -9    3.30    1.50
   2   4   9    3.90    1.80
   2   4   9    4.80    1.10
  -2   4  -9    7.00    1.10
  -3  -4  -9   28.90    3.60
   3  -4   9   20.80    6.00
  -3  -4  -9   31.50    4.30
  -3  -4  -9   29.80    3.20
  -3  -4  -9   28.90    2.60
  -3   4  -9   30.80    2.50
   3   4   9   31.30    3.80
  -3   4  -9   29.30    3.30
  -4  -4  -9    3.50    2.50
  -4  -4  -9    3.10    3.00
   4  -4   9    9.20    6.40
  -4  -4  -9    2.40    1.70
  -4  -4  -9   -1.60    3.20
  -4  -4  -9    1.10    1.30
  -4   4  -9    2.20    1.10
   4   4   9   -0.10    2.10
  -4   4  -9    2.10    2.60
  -4   4  -9   -0.80    2.60
  -5  -4  -9   36.00    4.60
   5  -4   9   21.10   11.20
  -5  -4  -9   36.50    3.10
  -5  -4  -9   34.20    3.60
  -5  -4  -9   42.20    4.40
  -5   4  -9   38.80    3.90
  -5   4  -9   29.70    3.10
  -5   4  -9   38.70    2.90
  -5   4  -9   37.70    4.20
   5   4   9   36.20    4.30
  -6  -4  -9    2.80    2.90
  -6  -4  -9   -1.80    2.60
  -6  -4  -9    0.50    3.70
  -6  -4  -9    1.40    1.40
  -6   4  -9   -3.30    3.00
   6   4   9    1.50    3.60
  -6   4  -9    2.60    2.00
  -6   4  -9   -3.80    3.20
  -6   4  -9    1.80    1.30
   6  -5  -9   -2.50    7.00
  -6  -5   9   -1.50    5.80
  -6  -5   9    0.20    6.30
  -6  -5   9    0.80    6.90
  -5  -5   9    6.10    3.90
  -5  -5   9    7.80    5.80
  -5  -5   9    0.60    5.00
  -5   5   9    1.90    2.20
  -5   5   9    4.40    1.90
  -4  -5   9    9.60    4.50
  -4  -5   9   -6.80    4.30
  -4  -5   9    2.70    5.70
  -4  -5   9    4.90    4.70
  -4  -5   9    4.40    3.10
  -4   5   9    2.20    1.20
  -4   5   9    1.40    1.80
  -3  -5   9   26.70    4.60
  -3  -5   9   31.70    4.70
   3  -5  -9   24.10    3.30
  -3  -5   9   17.40    5.00
  -3  -5   9   31.60    4.40
  -3  -5   9   28.30    4.40
  -3   5   9   28.20    3.10
  -3   5   9   28.30    3.00
  -3   5   9   27.90    2.30
  -2  -5   9  106.89    8.00
  -2  -5   9  106.99    8.00
  -2  -5   9   76.19   11.50
  -2  -5   9  101.39    7.80
  -2  -5   9  105.59    8.80
  -2   5   9  102.09    6.30
  -2   5   9   95.79    6.70
  -1  -5   9  449.95   28.60
   1  -5  -9  501.45   28.90
  -1  -5   9  403.96   31.10
  -1  -5   9  457.95   29.10
  -1  -5   9  493.35   29.20
  -1  -5   9  496.15   29.30
  -1   5   9  485.55   28.60
  -1   5   9  486.15   28.80
   1   5  -9  519.45   28.70
   0  -5  -9    3.70    1.50
   0  -5   9    2.00    2.30
   0  -5   9    3.20    2.50
   0  -5   9   -3.70    5.50
   0   5  -9    2.70    1.30
   0   5   9    0.50    1.30
   0   5   9    3.50    0.80
  -1  -5  -9   13.90    2.90
   1  -5   9    6.80    2.90
   1  -5   9   14.30    2.70
   1  -5   9    7.30    5.50
  -1  -5  -9   12.80    2.00
  -1   5  -9   12.70    1.50
   1   5   9    9.30    1.90
   1   5   9   11.40    1.30
  -2  -5  -9    9.90    2.80
  -2  -5  -9    6.40    2.20
  -2  -5  -9    3.90    1.80
  -2  -5  -9    3.80    2.10
   2  -5   9    8.10    5.40
  -2   5  -9    6.80    1.20
   2   5   9    6.80    1.80
   2   5   9    6.90    1.30
  -3  -5  -9   37.00    4.30
  -3  -5  -9   38.40    3.90
  -3  -5  -9   46.70    4.60
  -3  -5  -9   34.30    3.40
   3  -5   9   33.80    6.90
   3   5   9   31.90    3.80
  -3   5  -9   34.80    3.00
  -4  -5  -9  235.98   15.40
  -4  -5  -9  222.08   14.70
  -4  -5  -9  226.58   14.00
  -4  -5  -9  233.48   14.50
   4  -5   9  190.88   18.30
  -4  -5  -9  225.58   15.20
   4   5   9  235.08   14.40
  -4   5  -9  234.58   13.90
  -5  -5  -9   37.50    4.70
  -5  -5  -9   34.10    4.60
  -5  -5  -9   30.00    3.10
   5  -5   9   14.70   11.30
   5   5   9   34.70    3.80
  -5   5  -9   30.80    3.10
  -5   5  -9   25.40    2.60
  -6  -5  -9   -1.20    1.70
  -6  -5  -9    6.20    3.80
  -6  -5  -9    0.90    3.80
  -6   5  -9   -1.00    1.60
   6   5   9   -0.20    2.30
  -5  -6   9    0.80    6.70
   5  -6  -9    0.10    4.40
  -4  -6   9   -3.90    5.70
  -4  -6   9   13.00    3.60
  -4  -6   9   -2.10    6.10
  -4   6   9    2.30    1.30
  -3  -6   9   -4.90    6.50
  -3  -6   9    1.40    2.80
  -3  -6   9   -3.50    5.30
  -3  -6   9    5.40    6.00
  -3  -6   9   -5.70    5.10
  -3   6   9   -1.10    1.00
  -3   6   9    0.80    1.60
  -2  -6   9   32.40    5.50
  -2  -6   9   37.30    6.60
   2  -6  -9   37.00    4.20
  -2  -6   9   38.10    5.60
  -2  -6   9   33.20    4.40
  -2  -6   9   31.20    4.10
  -2  -6   9   15.90    6.90
  -2   6   9   28.90    3.00
  -1  -6   9  202.88   19.80
   1  -6  -9  267.07   16.10
  -1  -6   9  237.58   17.50
  -1  -6   9  225.28   18.80
   1   6  -9  293.77   15.90
  -1   6   9  266.47   15.50
   0  -6   9    8.50    6.10
   0  -6   9    5.80    2.90
   0  -6  -9    6.80    2.20
   0   6   9    5.50    1.00
   0   6   9    1.40    2.60
   0   6  -9    4.20    1.70
   1  -6   9   21.30    3.80
   1  -6   9   17.10    6.20
  -1  -6  -9   31.60    3.80
  -1  -6  -9   22.90    2.90
  -1  -6  -9   23.20    3.10
   1   6   9   23.30    2.90
   1   6   9   21.30    2.20
  -1   6  -9   25.10    2.70
  -2  -6  -9    4.60    2.40
  -2  -6  -9   -0.70    2.10
   2  -6   9    5.50    6.00
  -2   6  -9    0.80    1.40
   2   6   9    2.00    1.70
  -3  -6  -9   31.80    4.30
   3  -6   9   24.70    7.20
  -3  -6  -9   27.40    3.20
  -3  -6  -9   30.70    4.10
  -3  -6  -9   20.70    3.10
   3   6   9   28.00    3.30
  -3   6  -9   30.10    2.80
  -4  -6  -9  167.98   10.80
  -4  -6  -9  177.38   12.00
  -4  -6  -9  165.28   12.80
  -4  -6  -9  167.58   12.20
   4  -6   9  139.19   16.90
  -4   6  -9  168.68   10.60
   4   6   9  179.48   10.90
  -5  -6  -9   27.70    3.50
  -5  -6  -9   31.30    4.50
  -5  -6  -9   25.60    3.80
   5  -6   9   10.50   11.60
   5   6   9   32.40    3.60
  -5   6  -9   26.50    2.70
   4  -7  -9   -0.40    4.10
  -4  -7   9    3.80   10.40
  -4  -7   9    0.20    5.40
  -4   7   9   -1.20    1.30
  -3  -7   9    1.80    2.90
  -3   7   9    2.80    1.80
  -3   7   9    1.20    1.10
   2  -7  -9   41.30    5.00
  -2  -7   9   32.90    4.40
  -2   7   9   45.10    3.10
  -2   7   9   39.10    3.70
  -1  -7   9   35.70    4.40
   1  -7  -9   45.80    5.00
  -1   7   9   40.80    3.10
  -1   7   9   41.40    3.50
   0  -7   9   -3.80    7.80
   0  -7  -9    6.80    2.70
   0  -7   9    2.00    3.00
   0   7   9    3.40    1.50
   0   7  -9    5.10    2.40
   0   7   9    8.10    1.30
   1  -7   9   -0.30    3.30
  -1  -7  -9    2.00    2.80
  -1  -7  -9    7.60    3.60
   1  -7   9    0.20    7.20
   1   7   9    5.80    1.30
   1   7   9    1.80    1.50
  -1   7  -9    2.30    1.90
  -2  -7  -9    0.40    3.20
  -2  -7  -9    3.60    3.60
   2  -7   9    1.20    7.10
   2   7   9    0.90    1.60
   2   7   9    2.60    1.90
  -2   7  -9    1.60    1.70
   3  -7   9  -16.90    7.60
  -3  -7  -9   -0.70    3.00
  -3  -7  -9   -0.60    3.50
  -3  -7  -9    0.20    3.90
  -3   7  -9    3.30    1.70
   3   7   9   -0.60    1.60
  -4  -7  -9   25.80    4.20
  -4  -7  -9   15.90    3.70
  -4  -7  -9    2.30    6.50
   4  -7   9   13.90    9.70
   4   7   9   21.80    2.50
   3  -8  -9   -1.50    4.90
  -3  -8   9    1.60    3.40
  -3   8   9    0.10    1.20
  -2  -8   9    4.70    3.10
   2  -8  -9    0.60    4.90
  -2   8   9    2.00    1.10
  -1  -8   9   15.20    3.50
   1  -8  -9    5.10    4.50
   1  -8  -9    9.10    5.70
  -1   8   9   12.90    2.00
  -1   8   9   11.90    1.50
   0  -8  -9  117.69   10.30
   0  -8   9   88.59   14.70
   0  -8  -9  133.29    9.80
   0  -8   9  128.99    9.70
   0   8   9  135.49    8.10
   0   8   9  138.49    8.50
   1  -8   9    6.60    9.00
  -1  -8  -9    1.10    4.60
  -1  -8  -9    2.20    3.60
   1  -8   9    1.50    4.30
   1   8   9    0.90    1.60
   1   8   9    0.30    1.40
  -1   8  -9   -7.20    2.60
  -2  -8  -9   14.30    4.10
   2  -8   9   34.80    9.90
  -2  -8  -9   22.50    4.30
   2   8   9   17.40    2.30
  -3  -8  -9   17.30    9.20
  -3  -8  -9    5.50    4.30
   3  -8   9   -1.60   10.70
  -7   0  10   -0.50    1.80
  -7   0  10   -3.30    3.40
  -7   0  10  -17.40    8.10
  -7   0  10    5.50    7.60
  -6   0  10    6.40    5.30
  -6   0  10    5.20    7.30
  -6   0  10   -0.60    1.80
  -6   0  10    2.60    5.50
  -6   0  10   -1.50    1.20
  -5   0  10   10.80    5.50
  -5   0  10    8.00    1.40
  -5   0  10    8.40    4.40
  -5   0  10    8.40    1.70
  -5   0  10    4.40    4.20
  -4   0  10   53.09    6.30
  -4   0  10   50.69    3.50
  -4   0  10   48.20    5.50
  -4   0  10   47.90    3.80
  -3   0  10  745.53   46.00
  -3   0  10  799.12   46.90
  -3   0  10  814.92   46.40
  -3   0  10  706.53   46.00
  -3   0  10  804.12   46.00
  -2   0  10   75.39    5.20
  -2   0  10   82.59    5.10
  -2   0  10   80.89    6.60
  -2   0  10   80.39    5.40
  -1   0  10 1235.58   82.59
  -1   0  10 1357.36   81.69
  -1   0  10 1452.35   81.39
  -1   0  10 1346.07   81.19
  -1   0  10 1450.45   81.29
   0   0  10   -0.30    2.90
   0   0  10    0.70    3.80
   0   0 -10    0.10    0.60
   0   0  10    3.20    1.00
   1   0  10    8.30    1.40
  -1   0 -10    5.60    0.80
   1   0  10    4.70    4.20
   2   0  10    1.80    4.30
  -2   0 -10   -0.50    0.70
   2   0  10    0.50    1.20
  -2   0 -10   -2.40    1.00
  -3   0 -10    1.70    2.80
   3   0  10   10.20    5.90
  -3   0 -10    3.10    0.80
  -4   0 -10  184.28   10.90
  -4   0 -10  168.58   11.80
  -4   0 -10  172.58   10.80
  -4   0 -10  167.78   11.20
  -4   0 -10  190.18   11.30
  -5   0 -10   23.60    2.40
  -5   0 -10   24.30    2.90
  -5   0 -10   28.00    3.90
  -5   0 -10   20.40    3.80
  -6   0 -10    7.20    2.00
  -6   0 -10    7.30    1.20
  -6   0 -10    8.50    3.60
  -6   0 -10    7.70    2.30
  -7   0 -10    6.00    2.30
  -7   0 -10   11.80    1.50
   7   0  10   12.10    3.30
  -7   0 -10   13.90    4.00
  -7  -1  10   24.90    6.40
  -7  -1  10   34.00    8.80
  -7  -1  10   34.30    3.70
  -7   1  10   31.90    3.30
  -7   1  10   39.30    9.40
  -7   1  10   34.40    3.90
  -6  -1  10   -2.20    6.10
  -6  -1  10    0.40    4.90
  -6  -1  10    3.30    1.50
  -6  -1  10    2.20    5.30
  -6  -1  10    2.10    2.20
  -6   1  10   -1.00    5.60
  -6   1  10    2.10    1.80
  -6   1  10   12.50    6.90
  -6   1  10   -2.20    1.20
  -5  -1  10    3.30    1.20
  -5  -1  10    4.10    4.60
  -5  -1  10    3.60    4.90
  -5  -1  10    4.70    4.50
  -5  -1  10   -0.80    5.20
  -5  -1  10    0.60    3.90
  -5  -1  10    0.50    1.70
  -5   1  10    2.80    1.20
  -5   1  10   -5.80    6.30
  -5   1  10    1.70    1.50
  -5   1  10   -1.20    4.70
  -4  -1  10   17.00    3.70
  -4  -1  10   14.50    1.80
  -4  -1  10   13.60    4.40
  -4  -1  10   19.70    3.20
  -4  -1  10   18.80    1.80
  -4   1  10    8.00    5.30
  -4   1  10   13.10    4.10
  -4   1  10   15.80    3.70
  -4   1  10   14.70    1.70
  -4   1  10   13.70    1.60
  -3  -1  10   92.39    7.60
  -3  -1  10   97.69    6.60
  -3  -1  10   95.09    5.90
  -3   1  10   92.59    6.80
  -3   1  10   86.69    6.00
  -3   1  10   90.19    6.00
  -3   1  10   91.79    5.90
  -3   1  10  100.69    8.00
  -2  -1  10    0.90    0.70
  -2  -1  10   -3.90    2.90
  -2  -1  10    8.80    5.00
  -2  -1  10   -0.10    2.30
  -2  -1  10    2.00    1.50
  -2   1  10   -0.30    1.40
  -2   1  10   -1.30    2.80
  -2   1  10    1.10    0.90
  -2   1  10   -1.00    3.30
  -2   1  10    0.30    0.90
  -2   1  10    0.60    0.70
  -1  -1  10   -0.20    0.70
  -1  -1  10   -0.90    2.10
  -1  -1  10    0.40    1.20
  -1  -1  10    0.70    1.10
  -1  -1  10   -2.00    4.00
  -1  -1  10    1.20    2.80
  -1   1  10    0.30    0.80
  -1   1  10    0.80    0.70
  -1   1  10   -0.50    2.60
  -1   1  10    1.00    1.20
   0  -1  10   64.49    5.90
   0  -1  10   66.79    7.70
   0  -1  10   64.19    4.60
   0   1  10   54.29    8.00
   0   1  10   71.89    4.40
   0   1  10   65.49    5.00
   0   1  10   66.29    7.10
   0   1  10   72.19    4.40
   0   1 -10   67.89    4.30
   1  -1  10    7.80    3.90
  -1  -1 -10    6.10    1.20
   1  -1  10    9.00    1.60
  -1  -1 -10    8.90    0.90
  -1   1 -10    8.70    0.90
   1   1  10   10.00    1.20
   1   1  10    8.20    2.20
   1   1  10    9.10    4.10
   2  -1  10   12.30    1.90
   2  -1  10   13.60    4.60
  -2  -1 -10   13.50    1.60
  -2  -1 -10   14.50    1.40
  -2  -1 -10   13.20    1.60
  -2   1 -10   14.50    1.40
   2   1  10   16.80    5.10
   2   1  10   12.40    1.60
  -3  -1 -10  130.79    8.20
  -3  -1 -10  137.59    7.70
   3  -1  10   91.99   11.80
   3   1  10   93.99   13.90
   3   1  10  117.69    8.10
  -4  -1 -10   76.79    5.80
   4  -1  10   63.29    9.90
  -4  -1 -10   72.29    6.60
  -4  -1 -10   79.59    5.00
  -4  -1 -10   75.99    5.00
  -4   1 -10   75.69    5.70
  -4   1 -10   73.29    4.90
  -4   1 -10   70.29    6.50
  -4   1 -10   71.79    5.80
  -4   1 -10   79.49    5.00
  -5  -1 -10   88.39    6.20
  -5  -1 -10   95.29    6.10
  -5  -1 -10   98.29    7.00
  -5  -1 -10   93.19    6.90
  -5   1 -10  104.39    7.40
  -5   1 -10   96.59    6.10
  -5   1 -10   91.19    6.10
  -6  -1 -10    5.80    1.20
  -6  -1 -10    0.80    2.10
  -6  -1 -10    1.70    3.30
  -6  -1 -10    4.40    1.80
  -6  -1 -10    2.70    3.60
  -6   1 -10    5.30    1.20
  -6   1 -10    3.80    1.70
   6   1  10    6.40    3.10
  -6   1 -10    3.30    2.20
  -6   1 -10   -0.10    3.50
  -7  -1 -10    0.60    2.00
  -7  -1 -10    0.20    1.10
  -7  -1 -10   -7.10    4.00
  -7   1 -10    2.60    1.20
  -7   1 -10    0.30    3.70
   7   1  10   -3.60    2.80
  -7   1 -10   -2.60    2.30
  -7  -2  10   12.10    6.30
  -7  -2  10   -6.60    8.60
  -7  -2  10   28.00   11.50
  -7   2  10    7.10   11.80
  -7   2  10   18.40    3.40
  -7   2  10   22.50    2.20
  -6  -2  10   -0.20    1.70
  -6  -2  10   -1.60    5.70
  -6  -2  10   -4.00    4.30
  -6  -2  10    0.50    4.80
  -6   2  10    4.30    1.80
  -6   2  10    2.00    1.30
  -6   2  10    4.20    6.20
  -5  -2  10    1.80    3.90
  -5  -2  10   -2.50    5.20
  -5  -2  10    0.70    1.20
  -5  -2  10   -7.70    4.20
  -5  -2  10   -0.50    4.70
  -5  -2  10   -0.40    4.00
  -5   2  10    0.90    1.60
  -5   2  10   -0.10    1.00
  -5   2  10    1.10    5.00
  -4  -2  10    6.90    2.60
   4  -2 -10    8.40    1.90
  -4  -2  10    6.00    4.30
  -4  -2  10    4.70    3.20
  -4  -2  10    8.60    2.80
  -4  -2  10    7.40    1.20
  -4  -2  10    9.10    2.90
  -4   2  10    5.90    4.10
  -4   2  10    4.20    1.60
  -4   2  10    6.00    4.80
  -4   2  10    5.00    1.40
   3  -2 -10    0.40    1.10
  -3  -2  10   -2.10    3.10
  -3  -2  10    3.50    2.00
  -3  -2  10    0.60    0.80
  -3  -2  10    3.50    2.50
  -3   2  10   -0.40    1.10
  -3   2  10    1.20    1.00
  -3   2  10    1.00    0.90
  -3   2  10    0.30    3.30
  -2  -2  10 1222.08   81.29
  -2  -2  10 1409.06   80.39
  -2  -2  10 1371.06   79.79
  -2  -2  10 1410.56   80.09
  -2   2  10 1410.26   79.79
  -2   2  10 1394.16   79.79
  -2   2  10 1166.98   79.79
  -2   2  10 1399.16   79.69
  -2   2  10 1401.86   80.69
  -2   2  10 1258.17   79.89
  -1  -2  10   43.50    6.10
  -1  -2  10   48.40    3.70
   1  -2 -10   50.09    3.40
  -1  -2  10   52.29    3.40
  -1   2  10   48.40    3.80
  -1   2  10   46.30    7.40
  -1   2  10   50.19    3.20
  -1   2  10   47.80    3.80
  -1   2  10   51.79    3.30
  -1   2  10   43.80    3.50
   0  -2 -10   30.20    2.50
   0  -2  10   33.10    4.10
   0  -2  10   31.00    5.20
   0   2  10   30.40    2.40
   0   2  10   30.00    2.60
   0   2  10   33.10    2.30
   0   2  10   34.30    4.60
   0   2  10   31.00    3.10
   1  -2  10   28.80    5.50
  -1  -2 -10   37.00    2.90
  -1  -2 -10   37.30    2.80
   1   2  10   47.60    3.80
   1   2  10   38.10    2.90
  -1   2 -10   34.10    2.60
   1   2  10   41.50    2.70
   1   2  10   32.50    3.00
  -2  -2 -10  119.89    7.50
   2  -2  10  107.79   10.70
  -2  -2 -10  119.89    7.80
   2   2  10  124.69    8.40
  -2   2 -10  123.49    7.50
   2   2  10  128.29    7.70
  -3  -2 -10  363.56   21.90
   3  -2  10  329.67   24.20
  -3  -2 -10  368.06   21.70
  -3  -2 -10  368.46   21.70
  -3  -2 -10  351.86   22.20
   3   2  10  390.36   22.40
  -3   2 -10  358.16   21.90
  -3   2 -10  345.47   22.20
  -3   2 -10  367.76   21.60
   3   2  10  358.96   21.90
  -4  -2 -10   39.40    3.20
  -4  -2 -10   39.70    5.20
  -4  -2 -10   44.20    3.20
   4  -2  10   39.00    8.60
  -4  -2 -10   45.70    3.90
  -4   2 -10   47.70    4.40
  -4   2 -10   40.10    5.20
   4   2  10   43.60    5.20
  -4   2 -10   43.30    3.20
  -5  -2 -10   15.30    2.00
  -5  -2 -10   10.50    1.80
  -5  -2 -10   15.90    3.70
  -5  -2 -10   12.20    2.60
  -5  -2 -10   14.80    2.50
   5   2  10   16.20    3.40
  -5   2 -10   14.20    1.90
  -5   2 -10   21.70    3.60
  -5   2 -10   12.90    2.60
  -5   2 -10   15.60    1.80
  -6  -2 -10   -1.10    2.00
  -6  -2 -10    1.60    1.10
  -6  -2 -10    0.10    2.80
  -6  -2 -10    2.60    3.90
  -6   2 -10   -1.40    1.00
  -6   2 -10    0.30    1.70
   6   2  10   -1.60    2.70
  -6   2 -10    2.30    2.40
  -6   2 -10   -0.40    3.40
  -7  -3  10    4.90    5.60
  -7   3  10    3.10    1.90
  -6  -3  10    6.10    4.50
  -6  -3  10    9.60    5.30
  -6   3  10    5.70    1.50
  -6   3  10  -12.10    6.90
  -6   3  10    3.30    1.90
  -5  -3  10   16.10    6.30
  -5  -3  10   15.50    1.80
  -5  -3  10    8.30    4.70
  -5  -3  10   12.80    4.20
  -5  -3  10   14.90    5.50
  -5  -3  10    6.40    4.80
  -5   3  10    9.70    6.00
  -5   3  10   15.60    1.80
  -5   3  10   14.00    2.10
  -4  -3  10   15.50    4.70
  -4  -3  10   24.30    4.10
  -4  -3  10   17.20    2.10
  -4   3  10   17.90    1.90
  -4   3  10   22.80    2.40
  -4   3  10   16.70    5.60
  -4   3  10   19.60    2.20
  -3  -3  10  244.48   14.70
   3  -3 -10  217.78   14.10
  -3  -3  10  226.08   15.00
  -3  -3  10  224.28   13.90
  -3   3  10  223.28   13.90
  -3   3  10  241.28   14.10
  -3   3  10  229.08   14.00
  -3   3  10  235.68   16.30
  -2  -3  10   84.79    5.40
   2  -3 -10   82.29    5.60
  -2  -3  10   82.89    6.60
  -2  -3  10   89.29    6.10
  -2  -3  10   68.39    8.90
  -2   3  10   83.79    5.30
  -2   3  10   88.89    8.60
  -2   3  10   83.09    5.40
  -2   3  10   87.09    5.70
  -1  -3  10   23.50    2.70
  -1  -3  10   20.60    5.40
  -1  -3  10   24.40    2.20
   1  -3 -10   25.50    2.30
  -1  -3  10   24.10    3.10
  -1   3  10   31.30    4.60
  -1   3  10   25.90    2.10
  -1   3  10   24.00    1.90
  -1   3  10   30.00    2.70
   0  -3  10    8.90    1.60
   0  -3  10   -1.60    3.70
   0  -3  10    4.60    2.40
   0  -3 -10    5.10    1.20
   0  -3  10    4.20    4.30
   0   3  10    9.10    4.40
   0   3  10    7.20    1.00
   0   3 -10    6.00    1.00
   0   3  10    7.80    1.40
   0   3  10    6.90    1.50
   1  -3  10   11.60    4.80
   1  -3  10   14.20    3.60
  -1  -3 -10   13.30    1.80
   1   3  10   13.50    1.60
  -1   3 -10   14.00    1.60
   1   3  10   15.10    2.10
   2  -3  10   -3.00    4.70
  -2  -3 -10    1.00    1.00
  -2  -3 -10    0.20    1.40
   2   3  10    0.30    1.20
  -2   3 -10   -0.20    0.80
   2   3  10    0.40    1.80
   3  -3  10   73.69   10.80
  -3  -3 -10   86.69    7.30
  -3  -3 -10   95.29    6.60
  -3  -3 -10   91.79    5.80
  -3   3 -10   98.19    5.80
   3   3  10   95.59    6.90
  -3   3 -10   81.09    6.70
  -3   3 -10   87.49    7.10
   3   3  10   90.19    6.40
  -4  -3 -10  388.16   24.00
  -4  -3 -10  390.46   23.30
  -4  -3 -10  405.86   23.70
   4  -3  10  338.57   26.50
  -4   3 -10  371.56   23.50
  -4   3 -10  388.26   23.30
  -4   3 -10  381.16   23.80
   4   3  10  422.86   24.40
  -5  -3 -10   12.70    2.40
   5  -3  10   12.10   10.00
  -5  -3 -10    9.40    2.60
  -5  -3 -10    9.90    1.40
  -5  -3 -10    6.20    3.80
  -5   3 -10   11.70    1.50
   5   3  10   10.90    2.80
  -5   3 -10   12.60    1.70
  -5   3 -10   14.20    2.70
  -5   3 -10   12.70    3.50
  -6  -3 -10   -2.10    2.70
  -6  -3 -10   -2.20    1.20
  -6  -3 -10    5.10    4.10
  -6  -3 -10    1.10    2.10
  -6   3 -10   -3.30    3.30
   6   3  10   -0.40    2.40
  -6   3 -10    0.60    1.10
  -6   3 -10    1.30    2.80
  -6   3 -10   -1.30    1.80
  -6  -4  10   -5.40    7.00
   6  -4 -10  -14.20    6.50
  -6  -4  10    2.30    5.00
  -6  -4  10    4.10    5.50
  -6   4  10    0.80    1.80
  -6   4  10   -1.60    1.80
  -5  -4  10   -5.50    5.30
  -5  -4  10   -2.00    3.80
  -5  -4  10    4.70    5.90
  -5  -4  10    3.00    4.30
  -5  -4  10    2.60    7.30
  -5   4  10   -2.80    5.80
  -5   4  10    1.90    1.80
  -5   4  10    3.40    1.50
  -4  -4  10    1.80    4.40
  -4  -4  10   -4.30    3.00
  -4  -4  10   -0.30    3.70
  -4  -4  10   -1.20    3.50
  -4  -4  10   -1.70    1.40
  -4  -4  10   -2.60    4.20
  -4   4  10    3.10    4.60
  -4   4  10    1.80    1.50
  -4   4  10    0.90    1.20
  -4   4  10   -1.10    1.40
  -3  -4  10   17.90    3.30
  -3  -4  10   11.40    3.10
  -3  -4  10    7.80    4.40
  -3  -4  10   11.50    2.90
  -3  -4  10   17.30    3.10
  -3  -4  10   12.70    1.70
  -3   4  10   13.20    4.90
  -3   4  10   15.20    1.70
  -3   4  10   17.00    1.80
  -3   4  10   15.20    2.20
  -2  -4  10  148.59    9.20
  -2  -4  10  132.39   14.90
  -2  -4  10  149.49   10.30
  -2  -4  10  153.08   10.00
   2  -4 -10  147.19    9.40
  -2   4  10  155.48    9.10
  -2   4  10  152.88    9.40
  -2   4  10  139.29    9.20
  -2   4  10  153.28   12.50
  -1  -4  10   19.50    3.30
  -1  -4  10   16.70    6.10
   1  -4 -10   21.50    2.50
  -1  -4  10    9.20    4.60
  -1  -4  10   21.10    3.10
  -1  -4  10   19.30    2.10
  -1   4  10   18.10    2.10
  -1   4  10   23.00    1.80
  -1   4  10   14.40    5.20
   0  -4  10   10.60    5.00
   0  -4  10    3.90    2.50
   0  -4  10   -4.40    5.00
   0  -4  10    4.10    1.60
   0  -4 -10    3.00    1.30
   0   4  10    3.60    0.80
   0   4  10    4.30    1.40
   0   4 -10    3.80    1.20
   1  -4  10   52.39    7.70
  -1  -4 -10   74.39    5.30
   1  -4  10   62.99    6.90
   1   4  10   79.69    5.30
  -1   4 -10   77.59    5.00
   1   4  10   77.99    4.80
   2  -4  10    2.40    5.10
  -2  -4 -10    1.70    1.70
  -2  -4 -10    4.00    3.10
  -2  -4 -10    1.20    1.40
   2   4  10    1.30    1.70
   2   4  10    1.00    1.20
  -2   4 -10    3.20    1.00
  -3  -4 -10   16.80    2.70
  -3  -4 -10   16.00    3.80
  -3  -4 -10   17.90    2.30
  -3  -4 -10   17.70    1.90
   3  -4  10   18.10    6.50
   3   4  10   15.40    2.60
   3   4  10   17.90    2.50
  -3   4 -10   17.30    2.00
  -4  -4 -10  173.38   12.90
  -4  -4 -10  189.58   11.70
  -4  -4 -10  195.48   12.90
   4  -4  10  155.88   16.90
  -4  -4 -10  185.58   12.40
  -4  -4 -10  203.48   12.30
  -4   4 -10  184.38   12.50
   4   4  10  204.58   12.40
  -4   4 -10  194.18   11.70
   5  -4  10   -7.40   10.10
  -5  -4 -10   -1.60    3.60
  -5  -4 -10   -1.30    1.30
  -5  -4 -10    0.10    2.30
  -5  -4 -10   -5.10    2.70
  -5   4 -10    2.20    1.40
  -5   4 -10    1.10    3.20
  -5   4 -10    0.50    1.00
   5   4  10    0.50    2.30
  -5   4 -10   -2.20    3.00
  -6  -4 -10    1.40    2.60
  -6  -4 -10    3.60    3.00
  -6  -4 -10    5.90    1.90
  -6  -4 -10   10.00    4.50
   6   4  10    1.30    2.30
  -6   4 -10    5.00    1.30
  -6  -5  10   -2.20    5.80
  -6  -5  10   -3.20    7.00
  -6  -5  10   -2.40    5.60
  -5  -5  10   10.50    6.10
  -5  -5  10   11.30    5.30
  -5  -5  10   16.00    4.30
  -5   5  10   12.80    2.50
  -4  -5  10   15.90    6.30
  -4  -5  10   10.30    5.50
  -4  -5  10   13.40    5.20
  -4  -5  10   13.50    3.90
  -4  -5  10   12.50    4.80
  -4   5  10   16.50    2.30
  -4   5  10   15.90    1.80
  -3  -5  10   16.10    4.60
  -3  -5  10   20.00    4.00
  -3  -5  10    8.70    5.00
  -3  -5  10   19.90    3.50
   3  -5 -10   15.50    3.00
  -3  -5  10   12.10    4.00
  -3   5  10   18.70    2.30
  -3   5  10   17.20    1.90
  -2  -5  10  135.59    9.20
   2  -5 -10  143.29    9.50
  -2  -5  10  150.18   10.50
  -2  -5  10  146.99   10.30
  -2  -5  10  153.38   10.70
  -2  -5  10  160.18   11.40
  -2   5  10  144.69    9.40
  -2   5  10  149.88    9.00
   1  -5 -10   51.39    4.20
  -1  -5  10   55.59    5.20
  -1  -5  10   53.69    4.00
  -1  -5  10   43.90    8.40
  -1  -5  10   57.09    5.70
  -1   5  10   51.69    4.10
  -1   5  10   53.29    3.60
   0  -5  10    1.50    2.30
   0  -5  10   -1.40    2.70
   0  -5 -10   -0.10    1.50
   0   5 -10    2.40    1.40
   0   5  10    0.40    1.40
   0   5  10    1.90    0.90
  -1  -5 -10  -10.80    4.50
   1  -5  10    0.00    5.60
  -1  -5 -10   -3.20    1.70
   1  -5  10    4.30    2.50
   1  -5  10   -1.70    3.10
  -1  -5 -10   -0.50    1.70
  -1   5 -10   -0.60    1.20
   1   5  10    0.90    1.00
   1   5  10   -0.80    1.50
  -2  -5 -10   -4.90    3.60
   2  -5  10   -1.10    3.30
  -2  -5 -10   -1.00    2.00
   2  -5  10    0.30    5.80
  -2  -5 -10    1.10    1.70
  -2   5 -10    0.10    1.20
   2   5  10   -0.60    1.70
   2   5  10    1.50    1.40
  -3  -5 -10    0.80    1.80
  -3  -5 -10    0.60    1.90
  -3  -5 -10    1.00    6.00
  -3  -5 -10   -0.10    2.70
   3  -5  10    1.80    6.30
   3   5  10   -0.80    1.80
  -3   5 -10    0.50    1.20
  -4  -5 -10  131.09    8.80
  -4  -5 -10  117.29    8.10
  -4  -5 -10  135.39    9.60
   4  -5  10   94.99   12.40
  -4  -5 -10  126.69    9.30
  -4  -5 -10  126.99   10.10
   4   5  10  129.89    8.50
  -4   5 -10  131.49    8.00
  -5  -5 -10    4.30    2.70
   5  -5  10   -9.20   10.40
  -5  -5 -10   -3.20    3.90
  -5  -5 -10    3.70    1.70
   5   5  10    7.60    2.10
  -5   5 -10    3.30    1.90
  -5   5 -10    0.00    1.20
  -5  -6  10    5.30    4.20
  -5  -6  10    0.00    6.80
  -5  -6  10    0.70    6.80
   5  -6 -10   11.90    5.10
  -4  -6  10   -4.00    6.60
  -4  -6  10    0.90    3.60
  -4  -6  10    3.50    5.80
  -4   6  10    1.40    1.30
  -3  -6  10   49.80    5.50
  -3  -6  10   45.60    7.80
  -3  -6  10   40.10    6.30
  -3  -6  10   30.80    6.60
  -3  -6  10   23.60    7.70
  -3   6  10   42.80    3.90
  -3   6  10   44.50    3.20
  -2  -6  10  308.07   19.70
   2  -6 -10  318.87   19.20
  -2  -6  10  311.37   20.30
  -2  -6  10  285.87   22.60
  -2  -6  10  292.87   20.80
  -2   6  10  300.67   18.80
  -2   6  10  327.37   18.60
  -1  -6  10    2.20    2.90
  -1  -6  10    5.90    4.80
   1  -6 -10    6.70    2.30
  -1  -6  10   -4.70    7.70
  -1  -6  10    0.70    5.30
  -1   6  10    3.00    1.60
  -1   6  10    4.20    1.30
   0  -6  10   -2.60    2.90
   0  -6 -10    5.10    2.10
   0  -6  10    4.20    6.80
   0   6  10    1.30    1.00
   0   6  10    3.90    1.60
   0   6 -10   -0.50    1.80
  -1  -6 -10   -1.30    4.30
   1  -6  10    1.30    6.40
  -1  -6 -10    0.70    2.30
   1  -6  10   -0.60    3.40
  -1  -6 -10    2.60    2.10
  -1   6 -10    1.90    1.60
   1   6  10    1.90    1.60
  -2  -6 -10    5.70    4.40
   2  -6  10   18.40    7.00
  -2  -6 -10   11.90    2.60
  -2  -6 -10   12.00    2.80
  -2   6 -10   15.60    1.80
   2   6  10   13.40    2.20
   2   6  10   15.90    2.00
  -3  -6 -10   27.30    4.40
   3  -6  10   13.30    7.30
  -3  -6 -10   15.00    2.90
  -3  -6 -10   13.60    3.60
   3   6  10   20.30    2.50
  -3   6 -10   24.70    2.70
  -4  -6 -10   11.70    2.80
  -4  -6 -10   11.90    5.30
  -4  -6 -10   22.10    4.20
   4  -6  10   15.00    9.50
  -4  -6 -10   13.20    3.00
   4   6  10   14.40    2.20
  -4   6 -10   13.70    2.00
  -5  -6 -10  111.49    9.40
  -5  -6 -10   97.29    8.20
  -5  -6 -10   80.59    6.70
   5   6  10  105.09    6.80
  -5   6 -10   97.89    6.20
   4  -7 -10    9.50    4.70
  -4  -7  10   10.40    4.00
  -4   7  10    5.50    1.50
  -3  -7  10    1.90    3.10
  -3   7  10    1.20    1.10
  -3   7  10    6.20    2.00
  -2  -7  10   -0.60    2.90
   2  -7 -10   -2.10    6.30
  -2   7  10    1.40    1.10
  -2   7  10    1.00    1.70
  -1  -7  10  242.78   16.10
   1  -7 -10  250.07   15.70
  -1   7  10  248.78   14.90
  -1   7  10  237.78   15.10
   0  -7  10    3.10    3.40
   0  -7  10    5.00    8.40
   0  -7 -10    8.60    2.70
   0   7  10    4.90    1.20
   0   7  10    5.10    1.60
   1  -7  10   14.40    7.70
  -1  -7 -10    2.80    2.70
   1  -7  10   11.00    4.20
   1   7  10    7.00    1.70
   1   7  10    5.10    1.50
  -1   7 -10    5.00    2.10
  -2  -7 -10    0.10    4.50
   2  -7  10    4.50    8.30
  -2  -7 -10    5.70    3.10
   2   7  10    1.80    1.70
   2   7  10   -1.90    2.10
  -2   7 -10    3.20    1.80
   3  -7  10    3.50    8.80
  -3  -7 -10    1.70    4.30
  -3  -7 -10    5.40    7.60
  -3  -7 -10   -8.10    3.30
  -3   7 -10   -2.80    1.90
   3   7  10   -1.60    1.70
   4  -7  10  154.98   18.20
   4   7  10  190.38   11.50
  -2  -8  10   24.40    3.70
   2  -8 -10   20.00    5.80
  -2   8  10   18.90    2.20
  -2   8  10   17.90    2.40
  -1  -8  10    4.60    4.20
   1  -8 -10    3.40    4.70
   1  -8 -10   12.10    7.30
  -1   8  10   12.70    2.50
  -1   8  10   10.90    1.60
   0  -8  10   -0.90    4.10
   0  -8 -10   -0.90    3.50
   0   8  10    0.20    1.60
   0   8  10    1.00    1.30
  -1  -8 -10    4.80    3.60
   1  -8  10   12.30   10.30
   1   8  10   -0.20    1.80
  -2  -8 -10    0.90    4.40
   2  -8  10   -2.10    8.90
   2   8  10    3.20    1.70
  -7   0  11   10.70    8.00
  -7   0  11    2.70    1.80
  -7   0  11  -10.00    7.60
  -6   0  11   -7.40    7.70
  -6   0  11  -12.10    5.10
  -6   0  11    1.40    1.40
  -6   0  11   -2.10    2.00
  -5   0  11   -2.20    1.60
  -5   0  11    1.40    5.80
  -5   0  11    1.70    4.30
  -5   0  11   -1.30    1.20
  -5   0  11    2.00    4.40
  -4   0  11   -1.70    1.60
  -4   0  11    1.00    2.90
  -4   0  11    2.40    1.30
  -4   0  11    1.50    7.40
  -4   0  11    0.80    3.60
  -3   0  11    0.80    2.80
  -3   0  11    1.60    2.10
  -3   0  11    2.10    1.10
  -3   0  11   -0.30    3.80
  -3   0  11   -3.10    2.80
  -3   0  11    1.60    0.90
  -2   0  11    0.70    0.80
  -2   0  11    4.20    3.20
  -2   0  11    1.90    1.30
  -2   0  11   -1.50    1.40
  -2   0  11    1.80    2.70
  -1   0  11    0.50    0.80
  -1   0  11   -1.10    1.10
  -1   0  11    0.20    1.00
  -1   0  11    1.40    4.90
  -1   0  11    0.70    3.10
  -1   0  11    0.30    2.60
   0   0  11    0.30    1.00
   0   0  11    0.10    4.20
   0   0  11   -0.50    3.30
   0   0 -11    0.60    0.80
   1   0  11   -2.00    3.90
  -1   0 -11    0.00    0.70
   1   0  11   -0.10    1.50
   2   0  11    0.30    1.40
  -2   0 -11   -0.30    1.20
  -2   0 -11   -0.20    0.70
   2   0  11   -6.10    4.70
   3   0  11    0.10    6.00
  -3   0 -11    0.70    0.80
  -4   0 -11   -1.20    1.70
  -4   0 -11   -1.50    0.90
  -4   0 -11    3.80    2.00
  -4   0 -11    0.40    0.90
  -4   0 -11   -2.50    3.40
  -5   0 -11    1.90    2.20
  -5   0 -11    0.70    2.40
  -5   0 -11   -0.50    1.00
  -5   0 -11   -1.40    3.60
  -5   0 -11    2.20    1.30
  -6   0 -11   -3.40    4.00
  -6   0 -11    0.40    2.20
  -6   0 -11   -0.50    1.90
  -6   0 -11   -0.50    1.00
  -7  -1  11    2.10    7.90
  -7  -1  11    6.20    6.00
  -7  -1  11   12.10    2.30
  -7   1  11    6.20    1.90
  -7   1  11    8.60    2.20
  -7   1  11    9.80    8.60
  -6  -1  11   -2.30    2.30
  -6  -1  11   -1.70    4.70
  -6  -1  11   -0.70    1.50
  -6  -1  11   -0.10    6.80
  -6  -1  11   -5.10    4.70
  -6   1  11   -0.30    1.90
  -6   1  11    0.80    1.40
  -6   1  11   -3.70    7.30
  -6   1  11  -10.10    5.50
  -5  -1  11    6.00    5.10
  -5  -1  11   11.70    1.50
  -5  -1  11   12.60    5.30
  -5  -1  11   14.30    5.70
  -5  -1  11    8.10    4.00
  -5  -1  11    8.10    2.00
  -5   1  11    6.90    4.90
  -5   1  11    7.20    5.30
  -5   1  11    8.80    1.50
  -5   1  11    8.50    2.10
  -5   1  11   -3.60    6.90
  -4  -1  11  214.28   14.40
  -4  -1  11  253.57   15.40
  -4  -1  11  243.68   16.00
  -4   1  11  236.68   14.40
  -4   1  11  227.68   15.60
  -4   1  11  243.48   16.40
  -4   1  11  237.38   14.40
  -3  -1  11   17.80    2.60
  -3  -1  11   14.40    1.70
  -3  -1  11   16.00    3.40
  -3   1  11   13.90    1.60
  -3   1  11    9.00    4.60
  -3   1  11   15.80    1.60
  -3   1  11   16.50    2.90
  -3   1  11   18.30    1.90
  -3   1  11   16.40    4.10
  -2  -1  11    3.00    3.20
  -2  -1  11   -0.50    1.50
  -2  -1  11   -0.70    0.70
  -2  -1  11    1.30    5.20
  -2  -1  11    2.90    1.50
  -2  -1  11   -0.10    2.40
  -2   1  11    1.20    1.90
  -2   1  11   -0.30    0.70
  -2   1  11    1.60    1.00
  -2   1  11    0.80    2.90
  -2   1  11    1.40    3.70
  -1  -1  11   13.90    2.10
  -1  -1  11    1.90    3.20
  -1  -1  11   11.20    1.60
  -1  -1  11   11.30    4.60
  -1  -1  11   13.40    1.40
  -1   1  11   14.60    2.20
  -1   1  11    9.20    1.30
  -1   1  11   12.60    1.50
   0  -1  11   23.00    5.20
   0  -1  11   34.50    4.00
   0  -1  11   30.40    2.70
   0   1  11   26.00    3.50
   0   1 -11   32.20    2.40
   0   1  11   36.40    4.60
   0   1  11   35.90    2.50
   0   1  11   31.20    2.70
   0   1  11   29.40    5.40
  -1  -1 -11    1.30    1.00
   1  -1  11    2.00    1.40
  -1  -1 -11    2.10    0.80
   1  -1  11    1.70    4.10
   1   1  11    2.00    4.20
   1   1  11    2.70    1.10
   1   1  11   -1.00    2.10
  -1   1 -11    2.40    0.70
  -2  -1 -11   11.00    1.20
   2  -1  11    5.10    4.80
   2  -1  11    8.70    1.80
  -2  -1 -11    8.80    1.50
  -2  -1 -11   10.20    1.20
   2   1  11   11.20    1.60
   2   1  11    5.20    5.70
  -2   1 -11    9.50    1.10
   2   1  11    8.80    2.50
   3  -1  11  291.97   22.40
  -3  -1 -11  333.27   19.20
  -3  -1 -11  334.27   19.20
  -3  -1 -11  326.47   19.50
   3   1  11  296.37   19.50
  -3   1 -11  340.67   19.20
   3   1  11  285.57   23.60
  -4  -1 -11   42.70    6.00
  -4  -1 -11   37.60    3.80
  -4  -1 -11   36.50    3.10
  -4  -1 -11   40.70    3.10
  -4   1 -11   37.50    4.50
  -4   1 -11   43.00    3.10
  -4   1 -11   43.70    5.10
  -4   1 -11   41.20    4.20
  -4   1 -11   40.40    3.00
  -5  -1 -11    6.00    3.90
  -5  -1 -11    6.40    1.20
  -5  -1 -11    7.60    1.40
  -5  -1 -11    6.50    2.30
  -5  -1 -11    4.20    2.20
   5   1  11    7.50    3.20
  -5   1 -11    6.90    1.40
  -5   1 -11    6.30    1.20
  -5   1 -11    4.60    3.60
  -5   1 -11   10.10    2.40
  -6  -1 -11   -5.00    5.00
  -6  -1 -11   -1.70    4.00
  -6  -1 -11   -1.00    2.00
  -6  -1 -11   -0.60    1.00
  -6  -1 -11   -5.70    2.00
   6   1  11   -1.40    3.00
  -6   1 -11   -1.90    3.80
  -6   1 -11    0.50    1.00
  -6   1 -11    4.00    2.30
  -6   1 -11    5.10    1.90
  -7  -2  11    7.40    5.40
  -7  -2  11   -7.60    8.10
  -7   2  11   -0.40   10.00
  -7   2  11   -0.30    1.90
  -7   2  11    4.20    1.80
  -6  -2  11    4.20    4.80
  -6  -2  11    2.30    5.00
  -6  -2  11    8.10    2.30
  -6  -2  11    5.00    6.20
  -6   2  11    5.20    6.20
  -6   2  11    6.60    1.90
  -6   2  11    9.40    1.70
  -5  -2  11    0.20    3.90
  -5  -2  11   -1.40    5.80
  -5  -2  11    7.40    5.40
  -5  -2  11   -2.50    5.00
  -5  -2  11    5.50    3.80
  -5  -2  11    3.10    1.30
  -5   2  11    3.10    1.30
  -5   2  11    3.70    5.20
  -5   2  11    4.20    1.70
  -4  -2  11   43.50    3.30
  -4  -2  11   57.49    5.70
  -4  -2  11   43.20    5.20
  -4   2  11   41.70    3.30
  -4   2  11   44.70    3.80
  -4   2  11   47.70    6.30
  -4   2  11   30.50    6.60
  -3  -2  11  906.71   54.79
  -3  -2  11  925.31   53.89
   3  -2 -11  932.31   53.99
  -3   2  11  911.71   53.99
  -3   2  11  887.61   53.79
  -3   2  11  845.52   54.39
  -3   2  11  925.31   55.19
  -3   2  11  917.01   53.89
  -2  -2  11    1.50    3.30
  -2  -2  11    1.70    0.80
   2  -2 -11    2.10    1.10
  -2  -2  11    0.20    5.60
  -2  -2  11   -0.30    2.30
  -2  -2  11    2.70    1.60
  -2   2  11   -1.00    2.10
  -2   2  11    0.00    0.90
  -2   2  11    1.00    0.90
  -2   2  11    1.00    3.20
   1  -2 -11   18.10    2.00
  -1  -2  11   22.80    5.40
  -1  -2  11   18.90    1.90
  -1  -2  11   19.70    2.40
  -1  -2  11   18.70    3.00
  -1   2  11   20.70    2.20
  -1   2  11   18.80    1.90
  -1   2  11   20.00    3.90
  -1   2  11   21.90    2.70
  -1   2  11   21.30    1.80
   0  -2  11    7.10    2.80
   0  -2 -11    5.60    1.10
   0  -2  11   12.90    4.60
   0   2  11    2.30    4.20
   0   2  11    5.90    1.70
   0   2  11    4.70    0.90
   0   2 -11    5.00    1.00
   0   2  11    5.80    1.10
  -1  -2 -11   32.80    3.20
   1  -2  11   27.20    5.80
  -1  -2 -11   37.30    2.90
   1   2  11   34.10    2.90
   1   2  11   36.90    2.70
  -1   2 -11   34.40    2.50
   1   2  11   37.70    3.60
  -2  -2 -11  258.87   15.60
   2  -2  11  217.28   18.40
  -2  -2 -11  264.57   15.80
  -2  -2 -11  251.97   15.60
  -2   2 -11  271.97   15.60
   2   2  11  263.27   16.20
   2   2  11  266.27   15.70
  -3  -2 -11   15.10    1.80
  -3  -2 -11   11.90    1.40
  -3  -2 -11   12.70    2.40
   3  -2  11   11.90    6.00
  -3   2 -11   13.40    1.60
   3   2  11   16.30    3.00
   3   2  11   16.20    2.30
  -3   2 -11   14.10    2.30
  -4  -2 -11   31.70    3.40
  -4  -2 -11   31.10    2.70
  -4  -2 -11   33.90    2.70
   4  -2  11   19.10    7.80
  -4  -2 -11   31.40    4.20
  -4   2 -11   30.00    3.20
  -4   2 -11   27.10    2.60
  -4   2 -11   36.10    4.10
  -5  -2 -11   -0.50    1.00
  -5  -2 -11    1.50    4.00
  -5  -2 -11    1.90    2.20
  -5  -2 -11   -1.50    2.10
  -5   2 -11    2.80    3.50
  -5   2 -11    0.70    2.30
  -5   2 -11    0.40    1.40
   5   2  11   -0.60    2.70
  -6  -2 -11    3.40    3.20
  -6  -2 -11    2.40    2.10
  -6  -2 -11    4.60    1.20
  -6  -2 -11    2.20    4.40
  -6   2 -11    7.30    3.90
   6   2  11   -0.30    2.60
  -6   2 -11    0.20    1.90
  -6   2 -11    6.10    2.50
  -6   2 -11    3.10    1.10
  -6  -3  11    2.70    4.80
  -6  -3  11   -7.40    6.50
  -6  -3  11   -0.70    4.70
  -6   3  11    1.20    6.80
  -6   3  11   -0.40    1.70
  -6   3  11    1.20    1.50
  -5  -3  11   -1.10    5.60
  -5  -3  11    3.80    1.60
  -5  -3  11    4.80    6.50
  -5  -3  11    5.40    3.90
  -5  -3  11    3.00    5.10
  -5  -3  11    6.70    4.10
  -5   3  11   -9.30    4.90
  -5   3  11    6.30    1.60
  -5   3  11    4.60    1.80
  -4  -3  11   51.59    6.20
  -4  -3  11   40.10    3.00
   4  -3 -11   35.70    4.10
  -4  -3  11   21.30    5.30
  -4  -3  11   56.39    6.20
  -4  -3  11   42.40    4.80
  -4   3  11   35.40    3.50
  -4   3  11   31.70    3.20
  -4   3  11   36.20    3.00
  -3  -3  11  225.78   15.30
  -3  -3  11  251.27   15.00
  -3  -3  11  230.88   14.10
   3  -3 -11  228.88   14.30
  -3   3  11  232.18   16.60
  -3   3  11  228.78   14.10
  -3   3  11  229.98   14.10
  -2  -3  11    2.90    1.80
  -2  -3  11    0.40    3.90
  -2  -3  11    0.50    0.90
  -2  -3  11   -3.50    6.10
  -2  -3  11    3.80    2.60
   2  -3 -11    0.20    1.20
  -2   3  11    1.40    1.00
  -2   3  11    2.50    1.70
  -2   3  11    0.10    0.80
  -2   3  11   -0.90    4.20
  -1  -3  11   11.10    5.40
  -1  -3  11   10.00    2.80
  -1  -3  11    6.90    4.00
  -1  -3  11   17.10    1.90
  -1  -3  11   19.30    2.60
   1  -3 -11   13.60    2.00
  -1   3  11   15.20    1.90
  -1   3  11   15.70    1.60
  -1   3  11   23.30    4.50
  -1   3  11   16.10    1.60
   0  -3  11   37.80    5.00
   0  -3 -11   42.50    3.40
   0  -3  11   47.00    3.70
   0  -3  11   33.20    6.20
   0   3  11   42.40    3.30
   0   3 -11   43.50    3.10
   0   3  11   45.70    3.70
   0   3  11   45.90    6.10
   0   3  11   45.40    3.00
  -1  -3 -11    9.90    1.70
   1  -3  11    7.40    5.00
   1   3  11   10.70    1.20
   1   3  11   10.80    2.00
  -1   3 -11    9.80    1.20
  -2  -3 -11    5.50    1.70
   2  -3  11   10.10    5.90
  -2  -3 -11    3.10    1.20
  -2   3 -11    0.50    2.50
   2   3  11    4.80    1.40
   2   3  11    2.30    1.90
  -2   3 -11    3.60    1.00
  -3  -3 -11  186.68   11.60
   3  -3  11  156.58   14.60
  -3  -3 -11  164.08   10.40
   3   3  11  168.98   10.90
  -3   3 -11  156.08   11.00
   3   3  11  176.78   11.20
  -3   3 -11  170.98   10.40
  -4  -3 -11   95.09    8.30
   4  -3  11   85.49   11.20
  -4  -3 -11   98.09    6.90
  -4   3 -11   99.79    8.00
   4   3  11  101.79    7.50
  -4   3 -11   97.29    6.30
  -4   3 -11   97.69    7.20
  -5  -3 -11    3.70    1.20
  -5  -3 -11    1.30    2.20
  -5  -3 -11   13.70    4.10
  -5  -3 -11   -1.50    2.30
   5   3  11   -0.70    2.40
  -5   3 -11    1.20    1.00
  -5   3 -11    4.00    3.50
  -5   3 -11    3.70    2.60
  -5   3 -11   -2.00    1.40
  -6  -3 -11    1.30    1.30
  -6  -3 -11   -5.30    4.90
  -6  -3 -11   -1.40    2.40
  -6  -3 -11    2.30    2.90
  -6   3 -11   -0.20    3.20
   6   3  11   -0.80    2.80
  -6   3 -11    7.40    4.00
  -6   3 -11    0.40    1.10
  -6  -4  11   -7.30    5.00
  -6  -4  11   -8.90    6.60
  -6  -4  11    2.50    5.00
  -6   4  11    4.50    2.00
  -5  -4  11   -2.60    7.80
  -5  -4  11    7.70    3.90
  -5  -4  11    0.60    5.20
  -5  -4  11    4.90    4.40
  -5  -4  11    3.80    6.40
  -5   4  11    3.20    1.60
  -5   4  11    1.90    6.20
  -4  -4  11   28.80    4.60
  -4  -4  11   18.00    4.60
  -4  -4  11   22.30    2.60
  -4  -4  11   21.80    5.20
  -4  -4  11   21.10    3.80
  -4  -4  11   11.60    5.20
  -4   4  11   25.10    2.60
  -4   4  11   23.80    6.30
  -4   4  11   17.40    2.10
  -3  -4  11    5.10    2.90
  -3  -4  11    2.50    1.30
   3  -4 -11    6.10    2.00
  -3  -4  11    4.80    3.20
  -3  -4  11    3.60    4.00
  -3  -4  11    5.00    2.70
  -3  -4  11   11.50    3.30
  -3   4  11    6.90    1.20
  -3   4  11    9.00    1.50
  -3   4  11    1.20    4.50
  -2  -4  11  791.62   48.20
  -2  -4  11  780.02   48.90
  -2  -4  11  833.92   48.70
  -2   4  11  813.72   48.30
  -2   4  11  845.32   48.20
  -2   4  11  792.62   48.20
  -2   4  11  811.62   50.09
   1  -4 -11    8.90    1.70
  -1  -4  11   10.90    1.50
  -1  -4  11   12.90    6.40
  -1  -4  11   10.50    2.20
  -1  -4  11    6.00    4.90
  -1  -4  11    8.50    2.80
  -1   4  11   11.30    1.20
  -1   4  11   11.70    5.40
  -1   4  11    9.50    1.70
   0  -4 -11    2.20    1.50
   0  -4  11    0.30    1.70
   0  -4  11   -2.50    5.50
   0  -4  11    0.30    2.90
   0   4  11    1.10    0.80
   0   4 -11    1.00    1.30
   0   4  11    1.00    1.50
   1  -4  11    4.60    1.90
   1  -4  11    3.40    4.00
   1  -4  11    4.10    5.80
  -1  -4 -11    4.30    1.80
  -1   4 -11    5.90    1.20
   1   4  11    4.10    1.60
   1   4  11    5.40    1.10
  -2  -4 -11   20.00    2.60
  -2  -4 -11   19.90    2.40
   2  -4  11   11.90    6.30
   2   4  11   22.80    2.50
   2   4  11   19.70    2.70
  -2   4 -11   21.20    2.20
  -3  -4 -11  849.91   49.20
  -3  -4 -11  846.72   49.80
   3  -4  11  693.23   51.09
  -3  -4 -11  856.51   49.20
  -3  -4 -11  789.02   48.70
   3   4  11  802.72   48.90
  -3   4 -11  845.02   48.70
   3   4  11  850.11   49.20
  -4  -4 -11   17.20    4.10
  -4  -4 -11   10.10    2.40
  -4  -4 -11   15.00    3.00
  -4  -4 -11   12.30    1.70
   4  -4  11    9.50    7.00
  -4  -4 -11    8.70    4.40
  -4   4 -11   11.20    1.70
   4   4  11   10.50    2.50
  -5  -4 -11    7.10    4.40
   5  -4  11   -4.00   10.70
  -5  -4 -11    2.40    2.60
  -5  -4 -11    4.50    2.40
  -5  -4 -11    1.90    1.40
  -5   4 -11    3.20    1.10
   5   4  11    3.10    2.30
  -5   4 -11    2.40    1.70
  -6  -4 -11    6.00    2.80
  -6  -4 -11    5.10    1.60
  -6  -4 -11    7.60    4.20
  -6   4 -11    5.60    1.30
   6   4  11    2.40    2.30
  -5  -5  11    5.90    5.00
  -5  -5  11   -0.60    3.90
  -5  -5  11   -7.40    5.80
  -5   5  11    1.30    2.50
  -4  -5  11    2.30    5.20
  -4  -5  11    9.20    5.70
  -4  -5  11    5.80    3.50
  -4  -5  11   20.60    7.10
  -4  -5  11   12.40    4.90
  -4   5  11    7.60    1.50
  -4   5  11    8.40    2.30
  -3  -5  11  245.78   16.50
  -3  -5  11  271.67   18.50
  -3  -5  11  258.87   17.20
  -3  -5  11  278.27   16.90
   3  -5 -11  234.48   15.80
  -3   5  11  233.88   15.50
  -3   5  11  254.27   15.30
  -2  -5  11   24.70    3.10
  -2  -5  11   19.90    9.70
  -2  -5  11   36.30    5.10
   2  -5 -11   30.70    3.60
  -2  -5  11   40.80    4.60
  -2  -5  11   36.90    4.60
  -2   5  11   32.90    3.40
  -2   5  11   34.40    2.60
  -1  -5  11   12.80    3.30
  -1  -5  11    6.70    7.90
  -1  -5  11   11.60    1.70
  -1  -5  11    0.30    6.40
  -1  -5  11   10.70    2.90
   1  -5 -11   10.40    2.00
  -1   5  11   12.20    1.30
  -1   5  11    8.20    1.80
   0  -5  11    1.00    3.20
   0  -5  11    2.30    2.40
   0  -5  11   -1.10    6.10
   0  -5 -11   -0.20    1.50
   0   5 -11    2.10    1.60
   0   5  11    2.70    1.50
   0   5  11    2.80    1.00
   1  -5  11   -9.40    5.90
   1  -5  11    4.30    2.50
  -1  -5 -11    2.20    1.90
  -1  -5 -11   -1.90    1.70
   1  -5  11    4.00    4.20
   1   5  11    1.50    1.60
   1   5  11    0.70    1.00
  -1   5 -11   -1.00    1.30
  -2  -5 -11    0.30    2.10
   2  -5  11    1.30    2.70
   2  -5  11    5.10    6.50
  -2  -5 -11    2.90    1.90
  -2   5 -11    3.00    1.30
   2   5  11    2.10    1.60
   2   5  11    0.20    1.70
  -3  -5 -11   -8.30    6.40
  -3  -5 -11    5.90    2.10
   3  -5  11   -8.20    6.80
  -3  -5 -11    6.80    2.00
  -3  -5 -11    3.90    2.90
   3   5  11    5.80    1.90
  -3   5 -11    3.90    1.50
  -4  -5 -11  261.57   17.00
  -4  -5 -11  267.97   16.20
   4  -5  11  208.48   21.00
  -4  -5 -11  249.78   16.20
  -4  -5 -11  245.78   15.60
   4   5  11  261.77   15.90
  -4   5 -11  260.77   15.50
  -5  -5 -11    4.50    2.40
  -5  -5 -11    3.50    2.80
   5  -5  11   14.60   10.20
   5   5  11    5.90    2.50
  -5   5 -11    5.80    1.30
  -5  -6  11    4.60    4.50
  -5  -6  11   15.40    7.10
  -5  -6  11    5.20    7.80
   5  -6 -11   14.20    5.40
  -4  -6  11  -11.30    7.20
  -4  -6  11    1.60    3.70
  -4  -6  11   -5.50    6.70
  -4   6  11   -2.10    1.30
  -3  -6  11  121.49    9.00
  -3  -6  11  114.79   10.90
  -3  -6  11   98.29   10.80
  -3  -6  11   97.19   12.80
  -3   6  11  117.29    7.20
  -3   6  11  115.59    7.70
  -2  -6  11   50.09    7.80
  -2  -6  11   57.39    8.00
   2  -6 -11   67.09    5.70
  -2  -6  11   61.39    6.10
  -2  -6  11   56.09    7.20
  -2   6  11   58.39    4.70
  -2   6  11   61.89    4.20
  -1  -6  11    5.20    3.10
   1  -6 -11    2.20    2.20
  -1  -6  11    6.00    4.70
  -1  -6  11   -4.90    5.70
  -1  -6  11   -2.70    5.20
  -1  -6  11    4.70    8.40
  -1   6  11    2.80    1.10
  -1   6  11    3.40    1.60
   0  -6  11    6.20    7.10
   0  -6  11    3.60    1.90
   0  -6  11    9.40    3.50
   0  -6 -11    4.30    2.20
   0   6  11    3.30    1.60
   0   6  11    3.60    1.20
   1  -6  11   39.50    5.50
   1  -6  11   40.40    8.80
  -1  -6 -11   46.20    4.60
  -1  -6 -11   51.99    5.00
   1   6  11   46.80    4.10
   1   6  11   51.39    3.70
  -1   6 -11   49.90    4.10
  -2  -6 -11   69.59    6.20
  -2  -6 -11   79.59    6.20
   2  -6  11   56.49    9.70
   2   6  11   77.49    5.50
  -2   6 -11   66.99    6.50
   2   6  11   77.79    5.40
  -3  -6 -11   84.89    7.40
  -3  -6 -11   81.99    7.20
   3  -6  11   76.29   10.60
   3   6  11   77.79    5.90
  -3   6 -11   80.29    5.70
   4  -6  11   75.49   11.80
  -4  -6 -11   99.79    7.70
  -4  -6 -11   96.79   10.50
  -4   6 -11   93.89    6.60
   4   6  11  104.59    6.80
  -4  -7  11  113.19    9.10
   4  -7 -11  110.09    9.70
  -4   7  11  106.69    7.00
  -3  -7  11   14.10    3.90
  -3   7  11   20.70    2.30
  -2  -7  11   10.00    3.30
   2  -7 -11    1.90    4.10
  -2   7  11   11.80    1.60
  -2   7  11    9.90    2.10
  -1  -7  11    2.40    3.30
   1  -7 -11    7.30    3.00
  -1   7  11    5.60    1.70
  -1   7  11    3.80    1.40
   0  -7 -11    2.80    2.70
   0  -7  11   -1.30    9.00
   0  -7  11    4.20    3.60
   0   7  11    5.70    1.70
   0   7  11    4.00    1.30
  -1  -7 -11    1.30    2.50
   1  -7  11    7.80    9.10
   1   7  11    0.70    1.60
  -1   7 -11   -3.40    2.20
   1   7  11   -1.80    1.30
  -2  -7 -11    5.10    3.40
   2  -7  11   10.70    8.60
   2   7  11    2.20    2.40
   2   7  11    2.90    1.70
  -2   7 -11    5.10    2.20
  -3  -7 -11   18.20    4.00
   3  -7  11   43.60    9.60
  -3  -7 -11   33.20    5.20
   3   7  11   30.10    3.10
  -2  -8  11    3.70    3.50
  -2   8  11    0.70    2.00
  -2   8  11   -0.40    1.30
  -1  -8  11    1.10    3.50
   1  -8 -11   -1.50    4.80
  -1   8  11    7.90    1.90
  -1   8  11    5.70    1.60
   0  -8 -11   13.90    4.10
   0  -8  11    6.00    4.30
   0   8  11    9.40    1.90
   1  -8  11  -18.20   11.70
  -1  -8 -11    0.10    3.50
   1   8  11    2.00    1.80
   1   8  11   -1.00    1.70
  -7   0  12    5.60    2.00
  -7   0  12    0.20    8.10
  -7   0  12    5.90    7.70
  -6   0  12    4.50    5.40
  -6   0  12    1.60    5.70
  -6   0  12   -8.90    8.50
  -6   0  12    2.70    1.50
  -5   0  12   29.20    2.60
  -5   0  12   24.70    5.30
  -5   0  12   24.40    4.70
  -5   0  12   29.40    3.30
  -5   0  12    9.00    6.10
  -4   0  12   30.00    2.70
  -4   0  12   34.50    3.10
  -4   0  12   28.00    5.00
  -3   0  12 1121.39   66.39
  -3   0  12 1165.28   66.09
  -3   0  12 1013.80   66.09
  -3   0  12 1146.69   67.09
  -2   0  12   53.49    4.20
  -2   0  12   48.30    3.90
  -2   0  12   60.39    6.20
  -1   0  12  150.48    9.10
  -1   0  12  154.08    9.40
  -1   0  12  143.49   10.60
  -1   0  12  145.59    9.20
  -1   0  12  141.39   12.90
   0   0  12    2.90    4.60
   0   0  12    9.00    3.80
   0   0  12    6.20    1.20
  -1   0 -12   60.19    3.80
   1   0  12   45.90    5.60
   1   0  12   44.00    6.90
   1   0  12   59.49    4.10
  -2   0 -12 3412.16  183.48
  -2   0 -12 3224.18  183.58
   2   0  12 3002.60  183.58
   2   0  12 2741.23  185.08
  -3   0 -12  116.19    7.10
  -3   0 -12  113.99    7.10
   3   0  12   96.09   11.80
  -4   0 -12   43.00    3.30
  -4   0 -12   41.90    3.20
  -4   0 -12   41.70    4.10
  -4   0 -12   44.00    4.50
  -5   0 -12   22.20    2.80
  -5   0 -12   24.30    3.40
  -5   0 -12   28.40    2.40
  -5   0 -12   26.30    3.20
  -6   0 -12    9.10    1.30
   6   0  12   10.80    3.30
  -6   0 -12    6.60    2.30
  -6   0 -12   11.90    2.50
  -7  -1  12    7.10    6.30
  -7  -1  12   -6.30    7.90
  -7   1  12    6.90    8.60
  -7   1  12    2.70    1.90
  -6  -1  12    0.80    1.60
  -6  -1  12   -7.50    6.70
  -6  -1  12    6.50    5.10
  -6  -1  12   -2.60    4.50
  -6   1  12    1.80    1.50
  -6   1  12   10.50    8.10
  -6   1  12   -0.50    1.80
  -6   1  12    9.60    5.70
  -5  -1  12    2.80    5.50
  -5  -1  12    7.00    3.90
  -5  -1  12    3.70    4.20
  -5  -1  12    4.60    6.00
  -5  -1  12    8.40    6.90
  -5  -1  12    2.20    1.30
  -5   1  12    2.70    1.70
  -5   1  12    0.00    4.50
  -5   1  12    4.00    1.30
  -5   1  12    1.90    5.70
  -5   1  12   -5.40    7.50
  -4  -1  12  970.70   58.59
  -4  -1  12  973.20   57.39
  -4  -1  12  964.00   58.09
  -4   1  12  960.40   58.09
  -4   1  12  961.90   57.39
  -4   1  12  976.70   58.79
  -4   1  12  942.51   57.39
  -3  -1  12  196.48   12.60
  -3  -1  12  185.68   10.90
  -3   1  12  163.88   11.00
  -3   1  12  172.38   10.90
  -3   1  12  172.28   11.70
  -3   1  12  177.08   12.80
  -2  -1  12   25.80    3.00
  -2  -1  12   25.40    3.80
  -2  -1  12   29.30    2.20
  -2  -1  12   16.60    6.20
  -2  -1  12   22.20    2.40
  -2   1  12   24.10    2.50
  -2   1  12   26.50    4.40
  -2   1  12   27.30    2.20
  -2   1  12   26.10    3.20
  -1  -1  12    2.70    3.60
  -1  -1  12    2.10    0.80
  -1  -1  12    1.40    1.30
  -1  -1  12    2.10    1.30
  -1  -1  12    2.80    2.90
  -1  -1  12    2.00    4.90
  -1   1  12    1.60    1.50
  -1   1  12    2.40    0.90
  -1   1  12    1.70    0.90
  -1   1  12    3.70    3.20
   0  -1  12    3.90    3.40
   0  -1  12    5.10    1.30
   0  -1  12    5.40    4.70
   0   1  12    5.70    1.20
   0   1  12    7.70    2.30
   0   1  12    5.60    1.10
   0   1  12    4.40    4.10
   1  -1  12   10.30    5.00
   1  -1  12    6.80    1.60
  -1  -1 -12    8.60    1.30
  -1  -1 -12   10.00    1.20
  -1  -1 -12    8.90    1.40
   1   1  12    9.70    1.60
  -1   1 -12    9.60    1.10
   1   1  12    4.80    5.40
   1   1  12   13.40    2.40
  -2  -1 -12   58.69    4.20
   2  -1  12   46.40    7.50
  -2  -1 -12   66.39    4.20
  -2  -1 -12   66.39    4.60
  -2   1 -12   64.69    4.60
  -2   1 -12   67.39    4.20
   2   1  12   61.79    4.70
   2   1  12   52.19    8.30
   2   1  12   65.19    5.70
  -3  -1 -12  121.99    7.50
  -3  -1 -12  123.39    7.40
  -3  -1 -12  123.09    8.20
   3  -1  12  106.19   13.10
   3   1  12  112.79    8.70
  -3   1 -12  125.69    7.40
   3   1  12  101.89    8.00
  -4  -1 -12   17.60    2.50
  -4  -1 -12   17.20    2.20
   4  -1  12   10.40    9.00
  -4  -1 -12   18.10    2.80
  -4  -1 -12   20.70    2.10
  -4   1 -12   22.70    2.70
  -4   1 -12   16.40    2.70
  -4   1 -12   19.30    2.10
  -4   1 -12   20.80    2.10
   4   1  12   10.10    3.30
  -5  -1 -12   13.20    2.50
  -5  -1 -12   15.60    2.90
  -5  -1 -12   14.80    2.00
  -5  -1 -12   15.80    3.00
  -5   1 -12   16.70    2.70
  -5   1 -12   17.20    2.00
   5   1  12   18.10    3.40
  -5   1 -12   20.20    2.80
  -6  -1 -12    5.80    1.20
  -6  -1 -12   -0.10    2.10
  -6   1 -12    2.30    2.00
  -6   1 -12    4.60    2.30
   6   1  12    5.20    2.90
  -6   1 -12    5.30    1.20
  -6  -2  12    2.50    4.70
  -6  -2  12   -6.20    7.10
  -6  -2  12    1.90    1.80
  -6  -2  12   -1.60    4.50
  -6   2  12    5.50    1.60
  -6   2  12    7.20    1.90
  -6   2  12    2.30    5.80
  -5  -2  12   -2.10    6.60
  -5  -2  12    8.90    6.00
  -5  -2  12   -4.90    5.10
  -5  -2  12    4.40    4.00
  -5  -2  12    7.90    1.60
  -5  -2  12    9.20    4.10
  -5   2  12    8.90    1.80
  -5   2  12   12.50    5.40
  -5   2  12    9.20    1.60
   4  -2 -12   62.59    5.20
  -4  -2  12   74.09    4.80
  -4  -2  12   74.39    6.90
  -4  -2  12   68.09    8.40
  -4   2  12   72.99    4.90
  -4   2  12   74.19    5.10
  -3  -2  12    9.50    3.30
  -3  -2  12   14.00    2.70
  -3  -2  12    9.70    1.40
   3  -2 -12   12.50    1.80
  -3  -2  12    4.90    5.30
  -3   2  12   11.20    1.60
  -3   2  12   10.20    1.40
  -3   2  12   16.80    3.90
  -3   2  12   12.90    4.30
  -2  -2  12   28.30    4.00
   2  -2 -12   31.50    2.60
  -2  -2  12   27.30    3.40
  -2  -2  12   29.10    2.30
  -2  -2  12   32.20    6.80
  -2   2  12   23.60    4.70
  -2   2  12   25.00    2.40
  -2   2  12   27.10    3.20
  -2   2  12   29.40    2.40
  -1  -2  12   72.19    6.40
  -1  -2  12   67.99    4.50
  -1  -2  12   53.79    7.60
  -1  -2  12   67.29    4.90
   1  -2 -12   66.59    4.60
  -1   2  12   68.79    4.40
  -1   2  12   67.29    4.40
  -1   2  12   64.49    7.80
   0  -2  12   47.80    7.00
   0  -2 -12   56.09    3.90
   0  -2  12   53.49    6.00
   0   2  12   53.49    3.70
   0   2  12   60.39    6.50
   0   2  12   51.49    4.30
   0   2  12   52.19    3.70
  -1  -2 -12  181.48   11.20
   1  -2  12  164.18   14.50
   1   2  12  185.28   11.50
   1   2  12  183.38   11.10
   1   2  12  177.18   11.00
  -1   2 -12  180.38   10.90
   2  -2  12  138.59   13.30
  -2  -2 -12  145.89    9.20
  -2  -2 -12  139.89    8.90
   2   2  12  149.49    9.10
  -2   2 -12  146.39    8.90
   2   2  12  139.39    9.70
  -3  -2 -12  740.83   44.70
  -3  -2 -12  734.73   44.70
  -3  -2 -12  752.92   45.00
   3   2  12  721.53   44.90
   3   2  12  780.02   45.30
  -3   2 -12  746.53   44.90
  -3   2 -12  776.92   44.70
   4  -2  12    0.80    7.70
  -4  -2 -12    3.10    1.70
   4   2  12    6.20    2.90
  -4   2 -12    4.00    2.70
  -4   2 -12    0.00    1.20
  -5  -2 -12    0.80    2.30
  -5  -2 -12    1.30    2.20
  -5  -2 -12    1.50    1.10
   5   2  12    6.10    2.80
  -5   2 -12    1.90    2.50
  -5   2 -12    2.40    1.50
  -5   2 -12    1.40    1.00
  -6  -2 -12    5.30    3.50
  -6  -2 -12    8.50    1.40
  -6  -2 -12    9.30    2.30
  -6   2 -12    6.90    1.30
  -6   2 -12   15.30    3.00
  -6   2 -12   10.10    2.90
  -6  -3  12   12.20    5.80
  -6  -3  12   -4.20    6.70
  -6  -3  12    1.60    4.60
  -6   3  12   10.10    8.00
  -6   3  12    2.80    1.70
  -5  -3  12  203.98   13.90
  -5  -3  12  172.88   11.60
  -5  -3  12  187.38   13.50
  -5  -3  12  188.58   18.20
  -5  -3  12  198.18   16.00
  -5   3  12  203.78   15.10
  -5   3  12  175.58   11.60
  -4  -3  12    2.00    3.50
  -4  -3  12    4.70    4.30
  -4  -3  12    7.30    4.20
  -4  -3  12    6.20    3.90
  -4  -3  12    4.40    1.30
   4  -3 -12   -1.10    2.40
  -4   3  12    3.50    1.30
  -4   3  12    1.60    4.50
  -4   3  12   -1.70    1.70
  -3  -3  12  320.67   20.20
  -3  -3  12  344.57   21.00
   3  -3 -12  333.07   20.40
  -3  -3  12  342.37   21.40
  -3   3  12  334.37   20.20
  -3   3  12  357.06   22.60
  -3   3  12  322.77   20.20
  -2  -3  12    1.70    1.00
  -2  -3  12    5.20    4.20
   2  -3 -12    2.10    1.40
  -2  -3  12    5.60    3.00
  -2  -3  12    7.20    2.10
  -2  -3  12   16.40    7.30
  -2   3  12    2.80    1.20
  -2   3  12    2.00    1.00
  -2   3  12   -1.40    4.60
   1  -3 -12    5.80    1.40
  -1  -3  12    6.00    3.10
  -1  -3  12    2.80    4.20
  -1  -3  12   10.70    2.00
  -1  -3  12    9.90    6.20
  -1  -3  12   10.10    1.40
  -1   3  12   10.10    4.50
  -1   3  12    8.50    1.30
  -1   3  12    9.50    1.90
  -1   3  12    7.20    1.10
   0  -3  12   18.00    5.90
   0  -3  12   18.20    2.80
   0  -3 -12   18.90    2.30
   0  -3  12   11.20    3.50
   0   3  12   12.00    5.70
   0   3  12   17.20    2.20
   0   3  12   18.00    1.80
   0   3  12   18.90    1.90
  -1  -3 -12    5.10    1.60
   1  -3  12   12.80    5.80
   1   3  12    7.10    1.90
  -1   3 -12    1.60    1.10
   1   3  12    5.50    1.10
  -2  -3 -12    3.30    1.40
   2  -3  12   13.60    6.80
   2   3  12    1.30    1.50
   2   3  12    2.10    2.00
  -3  -3 -12  138.19    8.60
   3  -3  12  109.69   12.90
  -3  -3 -12  122.59    8.10
  -3  -3 -12  134.99    8.80
   3   3  12  137.49    9.40
   3   3  12  128.69    8.70
  -3   3 -12  119.49    9.00
  -3   3 -12  130.29    8.10
   4  -3  12   14.20    7.60
  -4  -3 -12    9.90    1.50
  -4  -3 -12   11.60    2.20
  -4   3 -12   12.00    2.80
   4   3  12   11.40    2.80
  -4   3 -12   10.40    1.60
  -5  -3 -12   -0.70    2.90
  -5  -3 -12   -3.10    2.30
  -5  -3 -12    0.20    1.20
  -5   3 -12    0.90    1.00
  -5   3 -12    1.30    1.80
   5   3  12    4.80    2.40
  -5   3 -12    5.00    2.90
  -6  -3 -12    2.80    1.30
  -6  -3 -12    3.20    3.30
  -6  -3 -12    0.80    2.40
  -6   3 -12    8.60    3.50
  -6   3 -12    1.30    1.10
   6   3  12    1.20    2.30
  -6  -4  12    6.50    5.60
  -6  -4  12    1.70    4.70
  -6  -4  12   -4.60    6.50
  -6   4  12   -5.30    2.20
  -5  -4  12    3.80    4.80
  -5  -4  12   -6.80    9.70
  -5  -4  12    2.70    4.00
  -5  -4  12    6.20    7.30
  -5   4  12    5.40    6.10
  -5   4  12   -2.10    2.00
  -4  -4  12   12.50    5.40
  -4  -4  12   13.10    4.40
  -4  -4  12   17.80    5.70
  -4  -4  12   14.10    5.00
  -4  -4  12   21.50    4.00
  -4  -4  12   17.90    2.00
  -4   4  12    2.50    5.10
  -4   4  12   18.30    2.00
  -4   4  12   18.30    2.10
  -3  -4  12   11.20    3.50
  -3  -4  12    1.00    4.70
  -3  -4  12   12.90    3.50
  -3  -4  12    8.00    3.60
  -3  -4  12    9.70    1.60
   3  -4 -12   12.50    2.20
  -3  -4  12    3.30    3.40
  -3   4  12   11.80    1.80
  -3   4  12    8.00    1.40
  -3   4  12   13.30    5.30
  -2  -4  12   -1.30    2.90
  -2  -4  12   -1.00    1.20
  -2  -4  12   -1.50    4.50
   2  -4 -12   -0.60    1.50
  -2  -4  12    5.90    7.80
  -2  -4  12   -2.00    2.30
  -2   4  12    1.30    5.00
  -2   4  12    2.10    1.90
  -2   4  12    0.10    0.90
  -2   4  12    0.80    1.60
  -1  -4  12   -3.50    9.30
  -1  -4  12    6.30    2.00
  -1  -4  12    5.20    1.30
  -1  -4  12    4.00    2.90
   1  -4 -12    5.20    1.60
  -1   4  12    5.90    1.10
  -1   4  12    8.40    5.60
  -1   4  12    5.80    1.70
   0  -4  12    2.00    1.80
   0  -4  12    1.80    3.20
   0  -4  12   -2.30    9.30
   0  -4 -12    2.00    1.60
   0   4  12    3.60    1.00
   0   4  12    1.50    1.50
   1  -4  12   35.90    3.70
  -1  -4 -12   33.20    3.40
   1  -4  12   28.30    7.30
   1   4  12   33.30    2.80
   1   4  12   30.30    3.50
  -1   4 -12   32.60    2.90
   2  -4  12   -6.60    5.70
  -2  -4 -12    3.90    2.00
   2   4  12    2.30    1.90
  -2   4 -12    4.80    1.30
   2   4  12    7.60    1.70
  -3  -4 -12   85.19    6.10
   3  -4  12   56.59    9.50
  -3  -4 -12   75.19    5.60
  -3  -4 -12   79.49    6.50
  -3   4 -12   87.19    5.40
   3   4  12   85.79    6.20
  -4  -4 -12    4.90    2.70
  -4  -4 -12    1.90    2.00
   4  -4  12    4.00    8.10
  -4  -4 -12    2.90    1.50
  -4   4 -12    1.80    1.40
   4   4  12    3.10    2.20
  -5  -4 -12   -2.00    1.50
   5  -4  12  -16.80   10.90
  -5  -4 -12    3.50    2.50
  -5  -4 -12   -2.20    2.80
  -5   4 -12   -2.30    1.90
   5   4  12   -3.10    2.10
  -5   4 -12   -0.80    1.10
  -5  -5  12   16.10    5.70
  -5  -5  12    2.50    6.30
  -5  -5  12    7.10    4.70
  -4  -5  12   73.79    8.70
  -4  -5  12   74.09    7.10
  -4  -5  12   64.69    9.30
  -4  -5  12   67.59    8.20
  -4   5  12   72.99    5.00
  -3  -5  12    5.30    3.40
  -3  -5  12    4.50    3.90
  -3  -5  12   -0.80    4.40
   3  -5 -12    4.10    2.90
  -3  -5  12    7.20    5.00
  -3  -5  12    4.10    5.70
  -3   5  12    3.50    1.40
  -2  -5  12    5.10    6.20
  -2  -5  12    0.90    1.60
  -2  -5  12    3.60    4.70
  -2  -5  12    1.20    3.80
   2  -5 -12   -1.10    2.00
  -2  -5  12   -1.20    3.00
  -2  -5  12   -5.50    9.60
  -2   5  12    0.80    1.80
  -2   5  12    0.60    1.20
  -1  -5  12   11.30    3.10
  -1  -5  12   11.20    6.90
   1  -5 -12   13.10    2.10
  -1  -5  12   12.50    1.80
  -1  -5  12   23.60    8.00
  -1   5  12   11.90    1.40
   0  -5 -12    2.30    1.90
   0  -5  12    3.00    1.50
   0  -5  12    2.20    2.50
   0  -5  12   -0.90    3.40
   0  -5  12    1.30    6.40
   0   5  12    3.30    1.10
  -1  -5 -12    5.70    2.10
   1  -5  12    2.00    2.50
  -1  -5 -12    3.20    2.00
   1  -5  12    3.70    6.90
   1   5  12    2.70    1.30
  -1   5 -12    3.40    1.60
   1   5  12    4.20    1.80
  -2  -5 -12    1.20    2.30
   2  -5  12    5.10    2.80
  -2  -5 -12    4.80    2.00
   2  -5  12    5.60    6.80
  -2   5 -12    5.00    1.60
   2   5  12    1.50    1.80
   2   5  12    0.30    1.80
   3  -5  12   14.50    7.90
  -3  -5 -12    1.40    3.10
  -3  -5 -12   -0.40    2.20
  -3   5 -12    2.90    1.50
   3   5  12   -0.20    1.80
   4  -5  12   20.80   10.00
  -4  -5 -12   22.80    3.50
  -4  -5 -12   17.80    3.00
  -4  -5 -12    9.30    5.70
  -4  -5 -12   13.60    2.50
   4   5  12   18.10    2.50
  -4   5 -12   20.00    2.30
  -5  -5 -12    0.90    2.20
  -5  -5 -12    1.30    3.00
  -5   5 -12    1.70    1.20
   5   5  12    0.70    2.00
  -4  -6  12   21.70    4.10
  -4  -6  12   10.60    8.60
  -4   6  12   17.70    2.30
  -3  -6  12    8.60    3.50
  -3  -6  12    3.10    5.50
  -3  -6  12   -1.70    8.30
  -3  -6  12   14.10    8.40
  -3  -6  12    9.90    6.90
  -3   6  12    9.10    1.50
  -3   6  12    8.50    2.40
  -2  -6  12   22.00    5.10
  -2  -6  12   13.50    6.20
   2  -6 -12   19.80    3.10
  -2  -6  12   16.20    3.60
  -2  -6  12   14.10    7.10
  -2  -6  12   -3.80    9.00
  -2   6  12   15.00    1.70
  -2   6  12   18.60    2.30
  -1  -6  12   10.50    6.00
   1  -6 -12    7.30    2.60
  -1  -6  12    1.50    3.30
  -1  -6  12    0.00    9.10
  -1  -6  12   -0.90    6.50
  -1  -6  12    8.20    4.70
  -1   6  12    5.80    1.30
  -1   6  12    7.90    1.80
   0  -6  12   -3.80    7.60
   0  -6  12   -2.50    3.50
   0  -6 -12   -1.60    2.20
   0  -6  12    2.10    1.90
   0   6  12    0.10    1.50
   0   6  12    0.60    1.20
  -1  -6 -12    7.30    2.90
   1  -6  12    2.90    7.80
  -1  -6 -12    3.50    2.50
   1   6  12    8.00    1.70
   1   6  12    4.70    1.70
  -1   6 -12    8.60    2.20
  -2  -6 -12   51.59    5.20
   2  -6  12   39.50    9.50
  -2  -6 -12   39.20    5.20
  -2   6 -12   46.10    4.20
   2   6  12   51.39    4.10
   2   6  12   46.50    4.20
   3  -6  12   56.09    9.70
  -3  -6 -12   67.69    7.10
  -3  -6 -12   74.69    6.30
  -3   6 -12   67.29    5.10
   3   6  12   70.29    5.20
   4  -6  12  -17.80    9.10
  -4  -6 -12    1.40    2.90
   4   6  12    3.40    1.90
  -3  -7  12   -0.10    3.50
  -3   7  12    3.60    2.10
  -2  -7  12   -0.40    3.40
   2  -7 -12    0.60    4.30
  -2   7  12   -0.20    1.30
  -1  -7  12   38.30    4.90
   1  -7 -12   45.30    5.40
  -1   7  12   41.50    3.30
  -1   7  12   42.50    4.00
   0  -7  12    5.70    4.20
   0  -7  12   28.60   10.30
   0  -7 -12   11.60    3.10
   0   7  12    6.80    1.90
   0   7  12    7.90    1.60
   1  -7  12   11.10    8.70
  -1  -7 -12    2.10    2.70
   1   7  12    3.50    1.60
   1   7  12   -2.60    1.50
   2  -7  12    4.30    9.00
  -2  -7 -12    0.30    3.20
   2   7  12    1.10    1.70
  -3  -7 -12    4.40    5.20
   3  -7  12   -7.70    7.80
   3   7  12    4.10    1.80
  -1  -8  12    0.90    4.30
  -1   8  12   -3.00    1.90
  -1   8  12    0.70    1.40
   0  -8 -12    2.00    4.30
   0  -8  12    1.10    5.90
   0   8  12    2.20    1.50
   0   8  12   -3.60    1.80
  -6   0  13    1.40    1.60
  -6   0  13   -7.30    6.20
  -6   0  13    4.20    5.40
  -5   0  13    2.10    4.90
  -5   0  13    2.20    4.60
  -5   0  13   -1.20    6.70
  -5   0  13   -0.70    1.30
  -4   0  13    5.30    3.50
  -4   0  13   -2.10    5.20
  -3   0  13    4.20    2.10
  -3   0  13    2.00    1.80
  -3   0  13   -3.50    4.70
  -3   0  13    3.60    3.50
  -3   0  13   10.40    2.50
  -2   0  13    0.50    3.50
  -2   0  13    0.00    1.50
  -2   0  13   -1.40    1.60
  -2   0  13   -7.90    3.80
  -2   0  13    0.00    0.80
  -1   0  13    0.90    1.50
  -1   0  13   -0.10    0.90
  -1   0  13   -0.30    1.20
  -1   0  13    1.10    3.30
  -1   0  13    3.50    5.90
   0   0  13    1.40    4.50
   0   0  13    2.10    1.10
   0   0  13    2.00    5.10
   0   0  13   -0.50    1.00
  -1   0 -13   -1.80    1.10
   1   0  13    0.30    1.40
   1   0  13    4.00    5.50
   1   0  13    1.60    2.90
   2   0  13   -0.10    1.80
  -2   0 -13    0.60    1.00
   2   0  13   -1.00    6.10
  -2   0 -13   -0.40    1.60
  -3   0 -13   -0.50    1.00
  -3   0 -13    2.00    1.10
  -4   0 -13   -1.00    1.00
  -4   0 -13   -0.20    2.30
  -4   0 -13   -0.80    1.30
  -4   0 -13    0.50    2.00
  -5   0 -13   -1.90    1.50
  -5   0 -13   -4.10    3.40
  -5   0 -13   -1.60    2.40
  -5   0 -13   -0.70    1.00
  -6   0 -13   -2.70    2.30
  -6   0 -13    0.70    1.10
   6   0  13    2.80    3.10
  -6  -1  13   20.00    2.30
  -6  -1  13   15.70    8.00
  -6  -1  13   13.80    5.50
  -6  -1  13   23.80    5.00
  -6   1  13   20.90    2.20
  -6   1  13   25.40    5.80
  -5  -1  13   83.09    9.50
  -5  -1  13  100.79    8.80
  -5  -1  13   83.49    5.70
  -5  -1  13   74.09    8.90
  -5  -1  13   92.49    9.50
  -5   1  13   87.79    9.90
  -5   1  13   80.59   11.00
  -5   1  13   85.49    5.70
  -4  -1  13  446.56   27.50
  -4  -1  13  446.76   26.50
  -4  -1  13  442.06   28.10
  -4   1  13  432.46   26.50
  -4   1  13  435.36   27.70
  -4   1  13  449.16   28.30
  -3  -1  13    4.50    4.40
  -3  -1  13    8.50    2.60
  -3  -1  13    7.60    1.40
  -3  -1  13    7.80    3.40
  -3  -1  13    6.40    3.60
  -3   1  13    2.70    3.90
  -3   1  13    8.80    1.90
  -3   1  13    9.00    2.90
  -3   1  13   10.20    1.90
  -2  -1  13    1.00    0.90
  -2  -1  13    3.50    3.70
  -2  -1  13    0.30    1.70
  -2  -1  13   -3.20    3.10
  -2  -1  13    0.80    1.70
  -2   1  13    0.50    1.30
  -2   1  13    3.80    3.50
  -2   1  13    0.90    1.90
  -2   1  13    0.50    0.90
  -1  -1  13    4.20    1.40
  -1  -1  13   -1.90    3.10
  -1  -1  13    3.40    1.50
  -1  -1  13    4.40    5.20
  -1  -1  13    3.20    1.10
  -1   1  13    2.10    3.90
  -1   1  13    4.50    1.20
  -1   1  13    2.90    1.50
  -1   1  13    4.40    1.10
   0  -1  13   22.00    4.60
   0  -1 -13   22.60    2.30
   0  -1  13   20.70    5.70
   0  -1  13   22.90    2.50
   0   1  13   23.50    2.40
   0   1  13   13.80    5.20
   0   1  13   20.60    2.20
   1  -1  13  131.99   13.10
   1  -1  13  137.59    9.00
  -1  -1 -13  135.19    8.70
  -1  -1 -13  154.18    8.90
  -1  -1 -13  134.09    8.70
   1   1  13  151.18    8.90
   1   1  13  141.19    9.40
   1   1  13  115.29   13.20
  -1   1 -13  141.09    8.60
  -2  -1 -13   33.80    2.70
  -2  -1 -13   35.10    3.30
  -2  -1 -13   35.20    2.70
   2  -1  13   25.70    7.00
   2   1  13   26.80    3.60
   2   1  13   26.70    7.60
  -2   1 -13   29.90    3.40
  -2   1 -13   35.00    2.70
   2   1  13   32.50    3.40
  -3  -1 -13   28.20    2.60
  -3  -1 -13   32.60    3.90
  -3  -1 -13   27.00    2.40
   3  -1  13   12.90    7.40
   3   1  13   24.40    3.00
   3   1  13   27.50    3.70
  -3   1 -13   30.30    2.50
   4  -1  13   -8.00    9.70
  -4  -1 -13   -1.10    1.80
  -4  -1 -13    0.40    1.00
  -4  -1 -13    1.80    2.40
  -4  -1 -13    2.00    1.40
  -4   1 -13   -0.80    2.30
  -4   1 -13   -3.40    2.30
   4   1  13    0.60    2.90
  -4   1 -13    0.90    1.00
  -4   1 -13   -1.70    1.20
  -5  -1 -13    5.10    2.60
  -5  -1 -13    7.40    2.00
  -5  -1 -13    4.80    2.30
  -5  -1 -13    6.40    1.20
  -5   1 -13    6.00    2.50
   5   1  13    3.70    3.00
  -5   1 -13    4.80    1.10
  -5   1 -13    5.20    1.70
  -6  -1 -13   15.20    1.90
  -6  -1 -13   14.20    2.50
   6  -1  13   10.20    3.50
   6   1  13    9.90    3.00
  -6   1 -13   14.00    4.10
  -6   1 -13   15.10    1.90
  -6  -2  13   25.00    8.50
  -6  -2  13   -2.20    4.50
  -6  -2  13    0.00    4.80
  -6  -2  13   -2.90    2.00
  -6   2  13  -14.40    5.90
  -6   2  13    0.40    1.60
  -5  -2  13   42.20    5.60
  -5  -2  13   36.90    3.30
  -5  -2  13   36.10    5.20
  -5  -2  13   31.10    8.00
  -5  -2  13   45.30    7.60
  -5   2  13   39.30    3.30
  -5   2  13   36.50    5.90
  -4  -2  13   13.90    1.70
  -4  -2  13    1.80    4.50
  -4  -2  13   14.20    4.00
   4  -2 -13   15.30    2.40
  -4   2  13   14.90    5.10
  -4   2  13   12.20    1.70
   3  -2 -13   70.69    4.70
  -3  -2  13   76.09    7.10
  -3  -2  13   62.29    4.40
  -3  -2  13   64.09    6.10
  -3   2  13   63.89    4.40
  -3   2  13   58.79    4.60
  -3   2  13   59.09    7.10
  -3   2  13   57.89    7.40
  -2  -2  13   13.80    6.80
  -2  -2  13    0.70    4.20
  -2  -2  13   15.70    2.50
  -2  -2  13   13.00    1.60
   2  -2 -13   13.30    1.90
  -2  -2  13   12.10    3.70
  -2   2  13   14.40    2.90
  -2   2  13   18.00    2.10
  -2   2  13   11.50    4.40
  -2   2  13   15.40    1.60
  -1  -2  13   25.10    3.90
  -1  -2  13   25.30    3.00
   1  -2 -13   25.90    2.60
  -1  -2  13   26.50    2.30
  -1  -2  13   21.00    6.50
  -1   2  13   26.20    2.30
  -1   2  13   24.20    3.30
  -1   2  13   26.30    2.40
  -1   2  13   24.70    4.90
   0  -2  13   16.00    4.20
   0  -2  13    5.50    5.60
   0  -2 -13   19.70    2.20
   0   2  13   17.90    2.00
   0   2  13   20.40    5.80
   0   2  13   18.60    2.40
   0   2  13   17.00    1.80
   1  -2  13   29.30    6.70
  -1  -2 -13   30.50    2.90
   1   2  13   29.30    2.90
   1   2  13   30.50    2.80
   1   2  13   38.10    3.80
  -1   2 -13   32.20    2.60
  -2  -2 -13 1043.60   65.79
  -2  -2 -13 1133.19   66.09
   2   2  13 1108.89   65.99
   2   2  13 1098.29   65.89
   2   2  13 1129.09   66.29
  -2   2 -13 1136.69   65.79
  -3  -2 -13    7.70    1.40
  -3  -2 -13    8.90    2.60
   3  -2  13    4.80    6.40
  -3   2 -13   11.80    1.50
  -3   2 -13   14.40    2.50
   3   2  13    5.40    2.40
   3   2  13    8.30    2.70
  -4  -2 -13   -1.10    1.00
  -4  -2 -13    1.20    2.00
   4  -2  13   -3.20    8.30
  -4   2 -13    1.90    1.30
   4   2  13   -3.40    2.60
  -4   2 -13    3.80    2.60
  -5  -2 -13    2.30    2.30
  -5  -2 -13    4.10    1.30
  -5   2 -13    4.00    1.10
   5   2  13    2.60    2.70
  -5   2 -13    5.60    1.70
  -5   2 -13    7.00    2.70
  -6  -2 -13    4.70    1.30
  -6  -2 -13    3.70    2.30
  -6   2 -13    3.20    1.10
   6   2  13    2.40    2.50
  -6   2 -13    7.10    2.90
  -6  -3  13   -6.80    7.20
  -6  -3  13   14.80    5.60
  -6  -3  13   11.70    4.80
  -6   3  13    3.50    2.00
  -6   3  13    7.40    6.40
  -5  -3  13  141.79   10.60
  -5  -3  13  140.59   10.90
  -5  -3  13  147.99   14.70
  -5  -3  13  115.29    8.40
  -5  -3  13  110.09   12.00
  -5   3  13  126.59    8.20
  -5   3  13  134.19   12.00
  -4  -3  13  232.58   14.80
  -4  -3  13  188.38   12.60
   4  -3 -13  202.28   13.10
  -4  -3  13  224.88   15.80
  -4  -3  13  222.08   14.60
  -4  -3  13  199.38   14.40
  -4   3  13  210.38   12.70
  -4   3  13  203.68   15.90
  -4   3  13  193.58   12.80
  -3  -3  13    8.80    4.70
  -3  -3  13   26.30    2.40
   3  -3 -13   21.80    3.00
  -3  -3  13   35.10    4.60
  -3   3  13   22.10    2.40
  -3   3  13   21.00    2.50
  -2  -3  13    3.00    1.20
  -2  -3  13    1.30   10.60
  -2  -3  13    4.60    2.30
   2  -3 -13    1.40    1.60
  -2  -3  13   -0.10    3.20
  -2  -3  13   -6.80    4.10
  -2   3  13    3.60    1.20
  -2   3  13    1.60    4.90
  -2   3  13    4.50    1.30
  -1  -3  13    3.70    5.00
  -1  -3  13   15.60    2.40
  -1  -3  13    9.20    3.50
  -1  -3  13   21.20    7.10
  -1  -3  13   12.90    1.60
  -1   3  13   10.40    1.40
  -1   3  13   10.60    5.10
  -1   3  13   10.50    2.20
  -1   3  13   11.90    1.60
   0  -3  13    8.00    6.10
   0  -3  13    3.20    3.70
   0  -3 -13   -0.30    1.80
   0  -3  13    0.70    1.60
   0   3  13    1.50    1.60
   0   3  13    3.50    6.30
   0   3  13   -0.30    1.00
   0   3  13    3.20    1.80
  -1  -3 -13  215.28   14.30
   1  -3  13  234.78   18.30
   1   3  13  210.58   14.40
   1   3  13  225.98   14.10
  -1   3 -13  266.57   14.00
  -2  -3 -13   31.90    3.60
   2  -3  13   19.00    7.10
  -2   3 -13   28.40    2.80
   2   3  13   39.00    3.30
   2   3  13   35.30    4.10
   3  -3  13    6.90    6.70
  -3  -3 -13    2.70    2.50
  -3  -3 -13    1.50    1.60
  -3  -3 -13    1.00    1.40
  -3   3 -13   -0.70    1.20
  -3   3 -13   -2.10    2.80
   3   3  13    1.20    2.60
   3   3  13    2.90    2.30
   4  -3  13    4.70    7.90
  -4  -3 -13    6.10    2.10
  -4  -3 -13    2.90    1.30
  -4   3 -13    0.00    2.80
  -4   3 -13    1.50    1.70
   4   3  13    0.80    2.30
  -5  -3 -13    3.10    1.40
  -5  -3 -13    3.20    2.30
  -5  -3 -13    1.90    2.40
  -5   3 -13    5.10    1.90
   5   3  13    7.90    2.50
  -5   3 -13    2.40    1.10
  -5   3 -13    8.00    3.20
  -5  -4  13   26.10    4.40
  -5  -4  13    9.30    5.90
  -5   4  13   29.20    6.80
  -5   4  13   22.00    2.60
  -4  -4  13   82.19   10.60
  -4  -4  13   80.29    6.00
  -4  -4  13   96.89    9.10
  -4  -4  13  105.09    8.50
  -4  -4  13   80.49    8.90
  -4   4  13   89.29    6.20
  -4   4  13   89.59   10.80
  -4   4  13   95.99    6.10
   3  -4 -13   23.50    2.70
  -3  -4  13   27.00    4.40
  -3  -4  13   16.50    2.00
  -3  -4  13    4.40    5.10
  -3  -4  13   11.80    3.50
  -3  -4  13    8.10    4.20
  -3  -4  13   21.90    4.10
  -3   4  13   17.70    5.90
  -3   4  13   21.70    2.40
  -3   4  13   16.50    2.20
  -2  -4  13   40.80    9.50
  -2  -4  13   46.30    5.30
  -2  -4  13   49.30    3.60
   2  -4 -13   47.50    4.10
  -2   4  13   49.10    3.50
  -2   4  13   44.40    3.80
   1  -4 -13    2.60    1.60
  -1  -4  13    5.00    3.50
  -1  -4  13    0.90    1.30
  -1  -4  13   -2.30    6.60
  -1  -4  13    8.40    5.90
  -1  -4  13   -0.20    2.30
  -1   4  13   -0.10    1.00
  -1   4  13    3.00    1.80
   0  -4  13   15.20    2.40
   0  -4  13   11.90    6.70
   0  -4 -13   13.80    2.00
   0  -4  13   11.30    4.10
   0   4  13   18.20    2.00
   0   4  13   14.50    2.20
   1  -4  13  502.55   37.90
  -1  -4 -13  586.54   35.30
   1  -4  13  612.84   35.30
   1   4  13  604.84   35.30
   1   4  13  614.84   35.00
  -1   4 -13  572.94   34.90
  -2  -4 -13   39.30    4.10
   2  -4  13   23.90    7.20
   2   4  13   33.70    3.90
   2   4  13   39.30    3.60
  -2   4 -13   34.80    3.10
   3  -4  13   73.99   10.60
  -3  -4 -13   96.59    6.70
  -3  -4 -13  106.39    7.20
  -3  -4 -13   99.09    7.70
   3   4  13  104.49    7.30
   3   4  13   98.99    7.70
  -3   4 -13  102.39    6.60
   4  -4  13    8.60    8.40
  -4  -4 -13   11.00    2.60
  -4  -4 -13   10.60    2.80
  -4  -4 -13    9.10    1.90
   4   4  13   13.50    2.50
  -4   4 -13   10.90    2.00
  -5  -4 -13    4.30    2.70
  -5  -4 -13   -1.00    2.80
  -5  -4 -13    0.90    1.70
  -5   4 -13    2.00    1.10
   5   4  13   -0.50    2.10
  -5  -5  13  298.77   18.20
  -5  -5  13  254.37   18.90
  -4  -5  13   47.10    5.40
  -4  -5  13   44.50    6.40
  -4  -5  13   20.30    7.30
  -4   5  13   44.20    3.70
  -3  -5  13   30.60    5.00
  -3  -5  13   28.50    6.00
  -3  -5  13   30.90    4.50
   3  -5 -13   33.30    3.80
  -3  -5  13   24.40    5.40
  -3  -5  13   12.70    6.70
  -3   5  13   29.90    2.80
  -2  -5  13    4.40    4.10
  -2  -5  13    3.30    3.20
   2  -5 -13    2.60    2.20
  -2  -5  13   -3.60    4.40
  -2  -5  13    5.70    1.80
  -2  -5  13   17.20   10.50
  -2  -5  13    2.50    3.40
  -2  -5  13    3.60    6.40
  -2   5  13    2.40    1.20
  -2   5  13    5.00    2.00
  -1  -5  13    0.70    3.30
  -1  -5  13    0.30    3.20
   1  -5 -13    0.60    1.70
  -1  -5  13    6.70    8.20
  -1  -5  13    0.80    1.40
  -1   5  13    2.60    1.10
  -1   5  13   -1.20    1.70
   0  -5 -13   10.90    2.10
   0  -5  13   11.90    7.40
   0  -5  13   14.10    4.00
   0  -5  13   11.80    1.90
   0   5  13   10.70    1.50
   0   5  13    9.20    2.00
  -1  -5 -13   29.10    4.10
  -1  -5 -13   41.10    4.10
   1  -5  13   32.20    4.80
   1  -5  13   33.70    8.60
   1   5  13   34.90    3.60
   1   5  13   38.80    3.30
  -2  -5 -13   21.00    3.10
   2  -5  13   23.90    7.60
  -2  -5 -13   19.20    2.70
   2  -5  13   26.90    3.50
  -2   5 -13   23.60    2.70
   2   5  13   19.90    2.50
   2   5  13   16.30    2.50
  -3  -5 -13    8.80    2.60
   3  -5  13   11.00    8.70
  -3  -5 -13    6.40    3.60
  -3   5 -13   12.90    2.00
   3   5  13   12.80    2.30
  -4  -5 -13   24.30    3.20
  -4  -5 -13   24.10    4.20
   4  -5  13   20.30    8.60
   4   5  13   25.90    2.90
  -4   5 -13   17.60    2.50
  -4  -6  13    1.20    3.80
  -4  -6  13   23.90   10.00
  -4  -6  13    7.40    6.50
  -4   6  13    0.10    1.80
  -3  -6  13   18.00    3.90
  -3  -6  13   12.10    5.90
  -3  -6  13   -8.80    9.00
  -3   6  13   16.50    1.80
  -2  -6  13   56.79    8.60
  -2  -6  13   32.70    7.50
  -2  -6  13   41.10    6.00
  -2  -6  13   32.60    4.90
   2  -6 -13   48.90    5.40
  -2   6  13   46.20    3.40
  -2   6  13   46.50    4.30
   1  -6 -13   -0.10    2.40
  -1  -6  13   -0.40    7.80
  -1  -6  13    2.10    4.80
  -1  -6  13  -12.50    9.80
  -1  -6  13    4.20    3.70
  -1  -6  13   28.80    7.30
   0  -6  13   16.30    2.40
   0  -6 -13   17.60    2.80
   0  -6  13   26.10    4.60
   0  -6  13   20.80    9.40
   0   6  13   18.60    2.30
   0   6  13   21.00    2.40
   1  -6  13   41.50    8.90
   1  -6  13   53.89    4.50
  -1  -6 -13   63.49    5.90
  -1  -6 -13   54.89    5.00
   1   6  13   51.89    4.10
   1   6  13   49.40    4.40
  -2  -6 -13  213.88   13.90
   2  -6  13  169.48   18.30
   2   6  13  227.28   13.40
   2   6  13  224.58   13.40
  -2   6 -13  208.78   13.30
   3  -6  13   -0.80    8.50
  -3  -6 -13    0.10    4.00
  -3  -6 -13    4.10    2.90
   3   6  13    2.60    1.90
  -3  -7  13   -1.70    3.50
  -3   7  13    4.50    1.50
  -2  -7  13    4.30    3.80
   2  -7 -13    2.80    4.60
  -2   7  13    1.50    2.30
  -2   7  13    3.10    1.40
   1  -7 -13    9.20    3.50
  -1   7  13   15.60    3.40
  -1   7  13   10.50    1.70
   0  -7  13   23.10   10.90
   0  -7 -13    3.90    2.90
   0  -7  13    0.20    5.10
   0   7  13    1.90    1.50
   0   7  13   -0.50    1.80
  -1  -7 -13   60.19    6.10
   1  -7  13   46.80   10.70
   1   7  13   70.99    5.70
   1   7  13   67.69    4.80
  -2  -7 -13   15.50    3.80
   2  -7  13   10.40    9.70
   2   7  13   25.00    3.10
  -6   0  14    4.00    5.30
  -6   0  14    3.40    1.60
  -5   0  14   97.39    9.50
  -5   0  14  119.49   10.40
  -5   0  14   98.49    6.80
  -4   0  14   36.10    5.70
  -4   0  14   38.50    3.10
  -3   0  14   23.90    2.60
  -3   0  14   35.50    5.40
  -3   0  14   28.40    3.10
  -3   0  14   37.10    4.70
  -2   0  14    2.10    2.00
  -2   0  14   -1.40    3.70
  -2   0  14    2.60    1.70
  -2   0  14    1.10    1.20
  -1   0  14    1.60    1.30
  -1   0  14    0.60    1.00
  -1   0  14    3.60    1.70
  -1   0  14    3.70    4.00
   0   0  14  230.38   17.30
   0   0  14  219.08   18.50
   0   0  14  237.18   14.70
   0   0  14  255.77   14.60
  -1   0 -14    2.90    1.50
   1   0  14    5.20    6.20
   2   0  14  548.05   35.50
  -2   0 -14  619.44   35.20
   2   0  14  576.74   35.80
  -2   0 -14  612.94   35.40
  -3   0 -14   91.79    6.20
   3   0  14   97.49    8.10
   3   0  14   88.69   11.50
  -3   0 -14   95.99    6.10
  -4   0 -14   25.50    3.20
  -4   0 -14   34.80    4.00
  -4   0 -14   25.50    2.40
   4   0  14   18.70    3.90
  -4   0 -14   28.30    3.00
   5   0  14   25.90    4.30
  -5   0 -14   38.40    3.60
  -5   0 -14   39.10    4.70
  -5   0 -14   37.50    2.90
   6   0  14    4.60    3.10
  -6   0 -14    7.00    1.20
  -6   0 -14    4.50    2.40
  -6  -1  14   69.39   10.00
  -6  -1  14   71.79    5.30
  -6   1  14   77.89    5.20
  -5  -1  14  110.89   10.00
  -5  -1  14  101.19    9.80
  -5  -1  14  107.09   11.30
  -5  -1  14  109.29   13.00
  -5  -1  14  105.79    7.00
  -5   1  14  110.69   12.30
  -5   1  14  106.09    7.00
  -5   1  14  117.09   10.90
  -4  -1  14  180.08   12.30
   4  -1 -14  172.38   10.90
  -4  -1  14  163.28   12.80
  -4  -1  14  173.48   10.60
  -4   1  14  161.08   13.40
  -4   1  14  166.98   13.00
  -4   1  14  175.48   10.70
  -3  -1  14   21.80    2.40
  -3  -1  14   21.80    4.60
  -3  -1  14   38.10    4.70
  -3   1  14   24.20    2.70
  -3   1  14   21.90    4.60
  -3   1  14   29.00    2.50
  -3   1  14   33.90    5.20
  -2  -1  14   12.90    2.20
  -2  -1  14   15.40    4.20
  -2  -1  14   19.40    2.60
  -2  -1  14   11.90    2.30
  -2   1  14   15.40    1.70
  -2   1  14   15.00    2.60
  -2   1  14   21.20    4.80
  -2   1  14   15.10    2.00
  -1  -1  14   -1.20    3.60
  -1  -1  14   -0.50    1.60
  -1  -1  14    1.20    1.70
  -1  -1  14    8.10    6.40
  -1  -1  14    0.40    1.00
  -1   1  14    1.70    4.30
  -1   1  14   -1.00    1.30
  -1   1  14    1.00    1.70
  -1   1  14   -0.20    1.00
   0  -1  14   62.19    5.00
   0  -1  14   67.09    7.20
   0  -1  14   52.39    8.30
   0  -1  14   70.19    4.70
   0  -1 -14   71.79    4.80
   0   1  14   69.19    4.60
   0   1  14   67.69    4.80
   0   1  14   91.19   10.90
   1  -1  14  744.93   53.79
  -1  -1 -14  893.41   51.49
  -1   1 -14  891.71   51.19
   1   1  14  855.71   51.59
   1   1  14  874.41   51.39
   1   1  14  895.81   51.49
   2  -1  14   35.10    7.50
  -2  -1 -14   38.70    3.20
  -2  -1 -14   40.00    3.30
   2   1  14   50.29    5.10
  -2   1 -14   41.70    4.00
  -2   1 -14   47.10    3.30
   2   1  14   42.80    3.90
  -3  -1 -14    8.10    1.50
   3  -1  14    8.50    7.30
  -3  -1 -14    5.30    1.30
   3   1  14    6.40    3.30
  -3   1 -14    7.20    1.40
   3   1  14    9.40    2.50
  -4  -1 -14   17.30    2.70
  -4  -1 -14   15.10    2.10
  -4  -1 -14   14.30    2.90
  -4  -1 -14   18.00    2.00
  -4   1 -14   18.80    2.00
   4   1  14   14.00    3.40
  -4   1 -14   15.60    2.90
  -4   1 -14   20.90    2.60
  -5  -1 -14    5.50    2.40
  -5  -1 -14    5.00    2.80
  -5  -1 -14    5.50    1.20
  -5   1 -14    3.90    1.90
   5   1  14    6.70    3.00
  -5   1 -14    5.00    1.20
  -5   1 -14    7.20    2.60
  -6  -1 -14    1.00    2.30
  -6  -1 -14   -0.10    1.20
   6  -1  14   -3.80    3.30
  -6   1 -14   -0.10    1.00
  -6   1 -14   -2.60    2.60
   6   1  14    3.90    2.80
  -6  -2  14   50.99    6.40
  -6  -2  14   52.49    8.20
  -6  -2  14   60.79    5.00
  -6   2  14   79.89   10.10
  -6   2  14   68.89    4.60
  -5  -2  14   35.40    8.30
  -5  -2  14   34.20    5.60
  -5  -2  14   29.90    9.20
  -5  -2  14   36.80    5.70
  -5  -2  14   35.50    3.40
  -5   2  14   36.70    3.20
  -5   2  14   36.30    5.90
  -4  -2  14   14.90    1.80
  -4  -2  14   13.00    3.70
  -4  -2  14   24.40    4.50
   4  -2 -14   27.00    3.40
  -4  -2  14    6.60    5.10
  -4   2  14   16.40    2.00
  -4   2  14   11.70    4.90
  -3  -2  14   36.70    3.10
   3  -2 -14   38.90    3.50
  -3  -2  14   37.20    4.80
  -3   2  14   37.60    3.60
  -3   2  14   40.00    3.10
  -3   2  14   45.40    5.50
  -2  -2  14   29.00    2.50
  -2  -2  14   25.60    4.50
  -2  -2  14   20.40    7.50
   2  -2 -14   27.70    2.80
  -2  -2  14   26.70    4.00
  -2   2  14   29.20    2.70
  -2   2  14   26.40    3.70
  -2   2  14   26.30    5.40
  -2   2  14   22.30    2.40
  -1  -2  14   44.20    5.30
  -1  -2  14   30.20    7.80
  -1  -2  14   46.70    3.40
  -1  -2  14   41.20    4.00
   1  -2 -14   44.90    4.10
  -1   2  14   39.20    6.20
  -1   2  14   45.60    4.30
  -1   2  14   43.90    3.40
  -1   2  14   44.50    3.30
   0  -2 -14    1.80    1.70
   0  -2  14    0.20    1.60
   0  -2  14    3.40    6.20
   0  -2  14    1.90    4.60
   0   2  14   -0.20    6.60
   0   2  14    4.90    1.30
   0   2  14    3.30    1.30
   0   2  14    3.90    4.40
  -1  -2 -14  734.13   41.10
   1  -2  14  604.84   43.60
   1   2  14  676.63   41.10
  -1   2 -14  632.24   40.90
   1   2  14  735.23   40.90
   1   2  14  704.53   40.80
  -2  -2 -14   -0.30    1.40
  -2  -2 -14    2.60    1.90
   2  -2  14   -3.30    6.60
  -2   2 -14    0.10    1.30
   2   2  14    2.70    2.30
   2   2  14    2.00    2.10
   2   2  14    2.80    1.70
  -3  -2 -14   28.40    3.30
   3  -2  14   13.50    7.30
  -3  -2 -14   26.40    2.70
  -3   2 -14   20.20    3.40
  -3   2 -14   26.70    2.70
   3   2  14   20.20    3.20
   3   2  14   24.70    3.40
  -4  -2 -14    2.50    2.50
  -4  -2 -14    5.20    1.30
  -4  -2 -14    4.50    2.20
   4  -2  14  -13.90    9.20
   4   2  14    4.00    2.70
  -4   2 -14    3.80    1.10
  -4   2 -14    0.70    1.60
  -4   2 -14    6.00    2.90
  -5  -2 -14    1.70    1.20
  -5  -2 -14    0.80    2.30
  -5  -2 -14   -0.10    2.70
  -5   2 -14    1.70    2.90
   5   2  14   -0.90    2.50
  -5   2 -14    3.30    2.00
  -5   2 -14    0.40    1.00
  -6  -3  14   -2.10   10.90
  -6  -3  14   -0.70    5.10
  -6  -3  14    3.50    4.60
  -6   3  14   -1.30    2.00
  -6   3  14   -5.20    6.20
  -5  -3  14  474.85   29.40
  -5  -3  14  485.85   30.80
  -5  -3  14  498.05   30.80
  -5   3  14  502.75   31.70
  -5   3  14  496.55   29.50
  -4  -3  14   11.40    3.90
  -4  -3  14   11.50    4.00
  -4  -3  14   10.00    1.60
   4  -3 -14   12.00    2.90
  -4  -3  14    6.00    5.00
  -4  -3  14   16.50    5.20
  -4  -3  14    9.30    4.80
  -4   3  14   10.30    1.70
  -4   3  14   14.40    5.80
  -4   3  14    7.60    2.50
  -3  -3  14   18.40    3.50
   3  -3 -14   13.10    2.20
  -3  -3  14   15.60    3.90
  -3  -3  14    1.60    4.80
  -3  -3  14   13.00    1.80
  -3   3  14   11.30    1.70
  -3   3  14   13.90    2.90
  -3   3  14   12.70    5.80
  -2  -3  14    9.60    2.60
   2  -3 -14    6.30    1.60
  -2  -3  14   -0.80    7.40
  -2  -3  14   10.90    4.00
  -2  -3  14    3.40    4.60
  -2  -3  14    9.50    1.50
  -2   3  14    7.20    1.50
  -2   3  14   -0.20    5.20
  -2   3  14    7.20    1.40
  -1  -3  14    5.50    2.00
   1  -3 -14    3.80    1.50
  -1  -3  14    5.90    1.40
  -1  -3  14   -7.70    6.40
  -1  -3  14   10.60    3.90
  -1   3  14    3.80    1.60
  -1   3  14    0.80    5.70
  -1   3  14    4.10    1.30
   0  -3  14  412.56   23.20
   0  -3  14  357.66   24.30
   0  -3  14  321.07   26.30
   0  -3 -14  384.76   23.00
   0   3  14  373.46   23.00
   0   3  14  399.66   22.90
  -1  -3 -14    9.50    1.90
   1  -3  14   -0.30    6.30
   1   3  14    9.80    2.10
   1   3  14    6.30    1.70
   2  -3  14    6.00    6.40
  -2  -3 -14    9.80    2.30
   2   3  14    7.70    2.00
  -2   3 -14    6.40    1.60
   2   3  14    8.70    2.40
  -3  -3 -14    2.50    1.80
  -3  -3 -14    0.00    1.50
  -3  -3 -14    6.50    2.80
   3  -3  14    0.80    6.80
   3   3  14    4.60    2.70
  -3   3 -14   -1.00    1.50
   3   3  14    2.30    2.30
  -4  -3 -14    7.30    1.60
  -4  -3 -14    7.70    2.60
   4  -3  14   -6.00    8.40
  -4  -3 -14   11.80    2.40
   4   3  14   13.20    2.70
  -4   3 -14    6.10    3.30
  -4   3 -14   12.00    2.00
  -5  -3 -14   17.00    2.80
  -5  -3 -14   18.90    2.80
  -5  -3 -14   15.00    3.10
  -5   3 -14   18.00    2.00
  -5   3 -14   12.10    5.30
  -5  -4  14   14.80    4.90
  -5  -4  14    1.70    7.60
  -5  -4  14    7.60    6.60
  -5   4  14    8.90    2.30
  -4  -4  14    8.30    7.10
  -4  -4  14   -8.70    3.80
  -4  -4  14    0.10    5.80
  -4  -4  14   -3.20    4.20
  -4  -4  14   -4.90    5.50
  -4   4  14    0.70    6.20
  -4   4  14    0.80    2.10
  -3  -4  14   -2.20    5.50
  -3  -4  14    0.10    3.70
  -3  -4  14    3.00    1.50
  -3  -4  14   -4.00    4.00
   3  -4 -14    3.70    2.30
  -3  -4  14    1.70    3.40
  -3  -4  14    1.10    4.40
  -3   4  14   -1.50    5.50
  -3   4  14    1.20    1.80
  -3   4  14    1.50    1.50
  -2  -4  14    7.80    3.20
  -2  -4  14   15.40    3.80
   2  -4 -14   12.40    2.30
  -2  -4  14    3.70    5.80
  -2  -4  14   10.90    1.60
  -2  -4  14   -1.80    8.70
  -2   4  14   12.50    6.30
  -2   4  14   10.10    1.70
  -1  -4  14    3.40    2.60
  -1  -4  14   -1.90    3.70
   1  -4 -14    3.70    1.90
  -1  -4  14    6.10    7.90
  -1  -4  14    2.80    1.40
  -1   4  14    0.60    1.20
   0  -4  14   61.19    9.80
   0  -4  14   75.09    9.10
   0  -4  14   78.19    6.00
   0  -4 -14   74.79    5.50
   0  -4  14   69.49    5.20
   0   4  14   79.89    5.10
   1  -4  14  133.39    8.80
   1  -4  14   97.79   13.60
  -1  -4 -14  125.49    8.40
   1   4  14  126.19    8.30
   1   4  14  123.29    8.40
  -2  -4 -14    1.30    2.30
   2  -4  14    6.50    6.80
   2  -4  14    1.70    2.40
  -2   4 -14    1.50    1.70
   2   4  14    3.60    2.00
   2   4  14    3.00    2.00
   3  -4  14    0.10    7.10
  -3  -4 -14   12.20    2.50
  -3  -4 -14    5.80    3.30
  -3   4 -14   13.70    2.00
   3   4  14   11.10    2.40
   3   4  14   17.30    3.40
   4  -4  14    9.40    9.00
  -4  -4 -14   15.40    2.90
  -4  -4 -14   10.80    2.20
  -4  -4 -14   12.90    2.70
   4   4  14   11.70    2.50
  -4   4 -14   12.10    2.20
  -5  -4 -14   -4.30    2.90
  -5  -4 -14   -2.40    2.10
  -5  -4 -14   -2.50    2.80
   5   4  14   -0.40    2.10
  -5   4 -14   -0.50    1.10
  -4  -5  14    6.80    5.10
  -4  -5  14   15.30    7.30
  -4  -5  14   11.90    4.20
  -4   5  14    9.60    2.60
  -3  -5  14    2.10    3.70
   3  -5 -14    3.60    3.40
  -3  -5  14   10.00    5.90
  -3  -5  14   -1.30    4.10
  -3  -5  14   -1.20    8.40
  -3  -5  14    6.70    6.10
  -3   5  14    3.80    1.60
  -2  -5  14    3.50    3.70
  -2  -5  14   -2.40    4.90
  -2  -5  14   12.30    4.70
  -2  -5  14    3.50   11.30
  -2  -5  14    5.60    3.60
  -2  -5  14    5.10    1.90
   2  -5 -14    8.60    2.50
  -2  -5  14    4.50    7.80
  -2   5  14    7.70    1.60
  -1  -5  14    6.90    8.60
  -1  -5  14   11.30    3.50
  -1  -5  14   14.50    4.20
  -1  -5  14   14.00    1.90
   1  -5 -14   12.60    2.30
  -1   5  14   12.50    2.30
  -1   5  14   11.50    1.60
   0  -5 -14    3.20    1.90
   0  -5  14    1.20    7.40
   0  -5  14    5.20    1.60
   0  -5  14   -2.00    4.50
   0  -5  14    7.90    3.10
   0   5  14    6.40    1.40
   0   5  14    6.80    1.90
   1  -5  14   -1.50    2.80
   1  -5  14   -8.40    7.30
  -1  -5 -14   -3.80    2.20
  -1  -5 -14    2.20    2.20
   1   5  14    3.40    1.70
   1   5  14    3.20    1.90
  -2  -5 -14    6.10    2.80
   2  -5  14   -0.70    7.00
   2  -5  14    8.30    3.10
  -2  -5 -14    8.70    2.40
  -2   5 -14    5.20    2.30
   2   5  14    5.50    2.20
   2   5  14    9.00    2.10
   3  -5  14    6.90    7.60
  -3  -5 -14    3.70    3.60
  -3  -5 -14    3.60    2.30
   3   5  14    5.00    2.10
  -3   5 -14    1.50    2.20
   4  -5  14    3.40    9.40
  -4  -5 -14    6.50    3.10
  -4  -5 -14    0.50    2.70
   4   5  14   -1.20    2.00
  -4  -6  14    9.30    7.00
  -4   6  14    6.00    2.20
  -3  -6  14    1.60    4.10
  -3  -6  14   -2.50    9.90
  -3  -6  14   22.10   11.10
  -3   6  14    2.90    1.60
   2  -6 -14   14.90    3.30
  -2  -6  14    6.60    5.30
  -2  -6  14    5.90    3.80
  -2   6  14   11.30    1.70
  -1  -6  14    8.20    5.10
  -1  -6  14    3.00    4.30
  -1  -6  14   -4.70   11.10
   1  -6 -14    0.00    3.60
  -1   6  14    3.40    1.40
  -1   6  14    2.70    2.10
   0  -6  14   65.39    7.20
   0  -6  14   68.09    5.40
   0  -6  14   50.79   10.60
   0  -6 -14   75.39    5.90
   0   6  14   70.29    5.40
   0   6  14   77.39    5.00
   1  -6  14   83.89    6.20
  -1  -6 -14   86.19    7.50
   1   6  14   91.19    6.00
   1   6  14   83.89    6.20
  -2  -6 -14   14.80    3.20
  -2  -6 -14   19.40    3.60
   2  -6  14   13.40    8.00
   2   6  14   18.20    2.90
   2   6  14   18.10    2.40
  -3  -6 -14   -6.00    4.70
   3  -6  14    0.60    8.20
  -3  -6 -14    3.90    2.90
   3   6  14    0.10    1.90
  -2  -7  14    0.80    4.20
  -2   7  14   -0.20    1.50
   1  -7 -14    5.80    3.40
  -1  -7  14    2.00    4.80
  -1   7  14    3.50    1.50
  -1   7  14    2.80    2.30
   0  -7  14   48.40   13.60
   0  -7 -14   58.19    5.90
   0   7  14   65.99    5.10
   0   7  14   64.09    4.60
   1  -7  14   28.60   10.00
  -1  -7 -14   10.70    3.20
   1   7  14    6.70    2.50
   1   7  14   10.50    2.10
  -6   0  15    0.30    1.70
  -6   0  15    4.80    5.20
  -6   0  15    3.40    7.60
  -5   0  15    6.90    5.50
   5   0 -15    4.00    2.90
  -5   0  15    3.10    4.30
  -5   0  15    0.60    1.50
  -4   0  15    5.20    4.10
  -4   0  15    2.40    1.30
  -4   0  15   -5.00    4.20
  -3   0  15    2.10    4.30
  -3   0  15   -0.40    2.40
  -3   0  15    0.10    1.10
  -3   0  15    1.20    2.90
  -2   0  15   -0.30    1.80
  -2   0  15    0.00    1.20
  -2   0  15    0.00    2.10
  -2   0  15   -3.70    4.00
  -1   0  15    0.30    1.30
  -1   0  15    3.80    1.50
  -1   0  15    0.20    4.60
   0   0  15    0.60    1.40
   0   0  15   -0.30    1.40
   0   0  15    5.40    6.70
   1   0  15    0.90    1.70
   1   0  15   -1.20    1.30
   1   0  15   -3.30    6.30
   2   0  15  -11.60    6.90
   2   0  15   -5.60    3.20
  -2   0 -15    1.10    1.10
  -2   0 -15   -2.90    2.00
  -2   0 -15   -1.40    1.50
   2   0  15    3.10    1.90
   3   0  15    3.40    3.20
   3   0  15   -8.50    8.80
  -3   0 -15   -0.50    1.00
  -3   0 -15   -1.60    1.60
  -4   0 -15   -2.40    2.40
   4   0  15    8.40    3.30
  -4   0 -15    3.10    2.40
  -4   0 -15    1.20    1.10
  -4   0 -15    1.50    1.80
   5   0  15    1.70    3.30
  -5   0 -15    3.20    2.60
  -5   0 -15   -0.60    1.10
  -5   0 -15    7.60    2.40
  -6  -1  15   63.19    4.60
  -6  -1  15   52.99    6.90
  -6  -1  15   51.79    7.40
  -6   1  15   57.29    4.50
  -6   1  15   75.29    9.70
  -5  -1  15   36.80    6.00
  -5  -1  15   42.00    3.50
  -5  -1  15   45.00    6.10
  -5   1  15   37.70    8.20
  -5   1  15   41.80    3.40
  -5   1  15   33.00    6.00
  -4  -1  15   -0.30    1.30
  -4  -1  15   -1.40    3.40
  -4  -1  15    7.10    5.40
   4  -1 -15    2.00    2.00
  -4  -1  15    4.00    4.20
  -4   1  15   -1.60    1.30
  -4   1  15   -0.40    5.00
  -4   1  15    4.00    4.90
  -3  -1  15    0.00    4.20
  -3  -1  15    0.50    3.10
  -3  -1  15   -5.00    5.20
  -3  -1  15    2.40    1.30
  -3   1  15    7.50    2.20
  -3   1  15    1.20    3.90
  -3   1  15    1.50    3.50
  -3   1  15    1.30    1.20
  -2  -1  15    4.80    1.10
  -2  -1  15    5.30    2.40
  -2  -1  15    6.00    2.10
  -2  -1  15    8.90    4.20
  -2   1  15    5.10    1.70
  -2   1  15    5.10    1.20
  -2   1  15    4.60    2.50
  -2   1  15    3.10    4.30
  -1  -1  15   69.69    8.60
  -1  -1  15   77.29    5.10
  -1  -1  15   81.59    5.70
  -1  -1  15   61.89    5.50
   1  -1 -15   77.79    5.30
  -1  -1  15   78.09   10.30
  -1   1  15   76.19    5.70
  -1   1  15   76.99    5.10
  -1   1  15   73.29    5.30
  -1   1  15   80.59    9.90
   0  -1  15    7.30    1.80
   0  -1  15   13.30    1.70
   0  -1 -15   10.80    1.70
   0  -1  15    9.10    6.30
   0  -1  15   17.60    2.40
   0   1  15    9.70    1.60
   0   1  15   10.20    2.00
   1  -1  15   87.89    6.70
  -1  -1 -15  105.19    6.50
   1  -1  15   85.49   12.20
   1   1  15  102.79    6.60
   1   1  15   85.29    6.40
   2  -1  15   -2.60    6.60
  -2  -1 -15   -1.60    1.20
  -2  -1 -15    0.10    2.00
   2   1  15    1.90    2.80
  -2   1 -15    2.00    1.60
   2   1  15   -1.10    1.60
  -2   1 -15   -1.20    2.20
   2   1  15   -1.20    2.00
  -3  -1 -15    5.10    1.70
  -3  -1 -15    2.80    1.20
   3  -1  15   19.20    8.40
   3   1  15    3.10    2.90
  -3   1 -15    4.30    1.60
  -3   1 -15    6.80    1.20
  -4  -1 -15    7.80    1.40
  -4  -1 -15    8.40    2.50
  -4  -1 -15    8.90    2.70
   4  -1  15   14.30    3.80
   4   1  15    9.60    3.10
  -4   1 -15    8.60    2.60
  -4   1 -15    6.70    1.30
  -4   1 -15   12.10    2.00
  -5  -1 -15    6.70    3.30
  -5  -1 -15    4.50    1.20
   5  -1  15   -5.50    5.50
  -5  -1 -15   -0.40    2.50
  -5   1 -15    3.10    2.10
  -5   1 -15    0.50    2.60
  -5   1 -15    0.90    1.10
   5   1  15   -1.70    3.10
  -6  -2  15   -3.60    5.10
  -6  -2  15    4.30    4.30
  -6   2  15   -4.10    5.80
  -6   2  15   -3.10    1.80
  -5  -2  15   16.80    4.80
  -5  -2  15   19.30    4.90
  -5  -2  15   20.50    2.40
  -5   2  15   23.50    5.40
  -5   2  15   22.30    2.30
  -4  -2  15    6.40    4.10
  -4  -2  15    4.90    4.20
  -4  -2  15   -2.30    5.20
  -4  -2  15    7.40    1.50
   4  -2 -15    5.70    2.50
  -4   2  15    2.10    1.50
  -4   2  15    5.90    5.20
   3  -2 -15   25.70    3.10
  -3  -2  15   25.50    4.80
  -3  -2  15    9.50    5.50
  -3  -2  15   28.20    2.50
  -3  -2  15   24.80    3.70
  -3   2  15   28.50    6.00
  -3   2  15   23.80    2.50
  -3   2  15   25.30    3.00
  -2  -2  15    5.70    4.90
  -2  -2  15    9.70    2.80
  -2  -2  15   13.10    1.60
   2  -2 -15   10.60    1.80
  -2  -2  15    8.20    4.10
  -2   2  15   12.90    1.90
  -2   2  15   12.10    1.60
  -2   2  15   18.10    5.60
  -2   2  15   14.90    3.60
  -1  -2  15    7.30    4.30
  -1  -2  15    4.80    6.60
  -1  -2  15    3.70    2.20
  -1  -2  15    0.70    1.20
   1  -2 -15   -0.10    1.30
  -1   2  15   -0.80    1.30
  -1   2  15   -1.40    2.40
  -1   2  15    9.40    5.70
  -1   2  15    0.00    1.20
   0  -2 -15    4.30    1.60
   0  -2  15    2.20    1.30
   0  -2  15   -9.60    5.80
   0  -2  15    0.90    1.80
   0   2  15    3.30    2.10
   0   2  15    1.50    1.40
   0   2  15    0.90    2.20
  -1  -2 -15   40.40    3.40
   1  -2  15   22.70    7.40
   1   2  15   34.90    3.20
   1   2  15   33.50    4.40
   1   2  15   33.80    3.40
   2  -2  15   -1.50    6.60
  -2  -2 -15    2.70    2.00
   2   2  15    4.20    2.00
   2   2  15    0.60    2.40
  -2   2 -15   -1.10    1.50
   3  -2  15   -6.30    7.40
  -3  -2 -15   -1.10    3.00
  -3  -2 -15   -0.60    1.30
   3   2  15    6.40    2.60
  -3   2 -15    3.20    2.70
   3   2  15    1.70    2.50
  -3   2 -15    0.40    1.60
  -4  -2 -15    1.00    2.30
  -4  -2 -15    2.30    2.50
   4  -2  15   24.10   19.00
  -4  -2 -15   -0.90    1.30
  -4   2 -15    1.10    1.00
  -4   2 -15   -3.20    2.90
   4   2  15    0.10    2.60
  -4   2 -15    1.30    1.70
  -5  -2 -15   69.99    6.50
  -5  -2 -15   72.69    6.00
   5   2  15   75.29    6.10
  -5   2 -15   67.59    6.70
  -5   2 -15   73.39    4.80
  -5  -3  15   60.89    7.50
  -5  -3  15   60.69    4.90
  -5  -3  15   68.79    8.10
  -5   3  15   62.09    4.70
  -5   3  15   50.29    7.40
  -4  -3  15   13.00    5.90
  -4  -3  15    8.00    5.40
  -4  -3  15   10.60    6.00
  -4  -3  15    9.80    1.80
  -4  -3  15   14.90    4.70
  -4  -3  15   11.60    4.10
  -4   3  15   13.30    2.00
  -4   3  15   12.40    3.20
  -4   3  15   12.50    5.40
  -3  -3  15   11.90    4.00
  -3  -3  15   11.00    1.70
   3  -3 -15   14.00    2.40
  -3  -3  15   15.20    3.50
  -3  -3  15    5.40    5.10
  -3   3  15   16.20    6.00
  -3   3  15    9.60    2.00
  -3   3  15   14.10    1.90
  -2  -3  15    0.70    1.20
  -2  -3  15   -7.00    4.70
   2  -3 -15    2.70    1.50
  -2  -3  15    8.00    8.50
  -2  -3  15   -6.80    3.70
  -2   3  15    3.80    5.40
  -2   3  15   -3.80    1.40
  -1  -3  15   25.00    4.00
  -1  -3  15   25.50    2.50
  -1  -3  15   25.60    5.50
   1  -3 -15   22.10    2.90
  -1  -3  15   23.70    7.50
  -1   3  15   27.20    2.70
  -1   3  15   18.50    7.10
  -1   3  15   23.30    2.70
   0  -3 -15  281.17   16.60
   0  -3  15  260.67   16.40
   0  -3  15  286.77   16.70
   0  -3  15  233.98   20.70
   0   3  15  250.87   16.60
   0   3  15  275.97   16.40
   1  -3  15  136.99   16.00
  -1  -3 -15  174.38   11.00
   1  -3  15  188.08   11.20
   1   3  15  167.88   10.80
   1   3  15  165.48   11.30
  -2  -3 -15    6.90    2.40
   2  -3  15   -0.70    6.80
   2   3  15   10.30    2.20
   2   3  15    7.10    2.40
  -2   3 -15    9.10    1.90
  -3  -3 -15   -0.60    2.00
   3  -3  15    2.50    8.10
  -3  -3 -15    2.10    3.20
   3   3  15    4.40    2.90
   3   3  15    4.00    2.30
  -4  -3 -15    1.30    2.60
  -4  -3 -15    3.40    1.70
   4  -3  15    5.90    9.40
  -4  -3 -15    4.50    2.40
  -4   3 -15    1.10    2.00
   4   3  15    3.40    2.40
  -4   3 -15    2.20    1.10
  -5  -3 -15   -0.80    1.70
  -5  -3 -15    3.20    2.70
  -5  -3 -15    0.80    2.80
  -5   3 -15    4.80    1.10
   5   3  15    6.80    2.50
  -5  -4  15   19.40    5.00
  -5  -4  15   13.70    7.10
  -5  -4  15   16.10    4.30
  -4  -4  15    2.50    2.00
  -4  -4  15   -2.60    6.90
  -4  -4  15    4.40    3.80
  -4  -4  15   -0.20    4.10
  -4   4  15   -3.40    2.40
  -4   4  15   -2.60    2.20
  -4   4  15   -0.40    6.00
  -3  -4  15   -0.60    3.40
  -3  -4  15    0.00    1.50
   3  -4 -15    0.50    2.50
  -3  -4  15   -8.70    4.40
  -3  -4  15    5.10    5.10
  -3  -4  15   -9.30    3.70
  -3  -4  15   10.80    6.80
  -3   4  15    1.10    6.00
  -3   4  15    1.80    1.60
  -3   4  15   -3.20    2.30
   2  -4 -15   -1.20    2.00
  -2  -4  15   12.10    9.70
  -2  -4  15   -0.90    3.80
  -2  -4  15    1.40    1.50
  -2  -4  15    8.70    6.10
  -2  -4  15    1.60    3.10
  -2   4  15    1.30    1.40
  -2   4  15   -4.40    6.20
  -1  -4  15   -1.30    2.80
   1  -4 -15    2.30    1.80
  -1  -4  15    2.80    4.10
  -1  -4  15    6.70    7.80
  -1  -4  15    2.10    1.40
  -1   4  15   -2.60    1.20
   0  -4  15   72.89    5.00
   0  -4 -15   69.49    5.30
   0  -4  15   44.20    9.30
   0   4  15   76.59    5.40
   0   4  15   70.59    5.10
   1  -4  15  203.98   13.00
   1  -4  15  165.08   17.30
  -1  -4 -15  211.48   12.90
   1   4  15  213.68   12.60
   1   4  15  194.28   12.70
   2  -4  15   52.99    5.30
   2  -4  15   47.50    9.00
  -2  -4 -15   52.89    5.10
  -2  -4 -15   55.99    5.00
   2   4  15   56.39    4.80
   2   4  15   52.49    4.70
  -3  -4 -15   19.40    3.90
  -3  -4 -15   30.00    3.80
   3  -4  15   37.80    8.90
   3   4  15   14.50    3.80
   3   4  15   25.10    2.90
  -3   4 -15   21.50    2.70
   4  -4  15   11.00    9.80
  -4  -4 -15   31.70    4.40
  -4  -4 -15   25.70    3.50
   4   4  15   27.30    3.40
  -4  -5  15    5.50    8.30
  -4  -5  15    9.80    4.00
  -4  -5  15   19.90    7.80
  -4   5  15    8.80    2.50
  -3  -5  15   10.40    4.80
   3  -5 -15    7.90    3.60
  -3  -5  15    9.20    4.20
  -3  -5  15    8.50    7.90
  -3   5  15   10.10    1.90
  -2  -5  15    2.40    3.80
  -2  -5  15    2.50    5.10
  -2  -5  15   -1.10    2.50
  -2  -5  15   17.60   16.50
   2  -5 -15   -1.00    2.50
  -2  -5  15    0.30    4.10
  -2  -5  15    2.50    5.60
  -2   5  15    0.50    1.40
  -1  -5  15    6.30   10.10
  -1  -5  15   -6.20    4.30
   1  -5 -15   -0.40    2.00
  -1  -5  15   -0.40    1.60
  -1  -5  15   -0.80    3.60
  -1   5  15   -3.40    2.30
  -1   5  15    2.10    1.40
   0  -5  15  737.53   43.70
   0  -5 -15  727.43   44.00
   0  -5  15  752.62   44.30
   0  -5  15  620.94   47.10
   0   5  15  736.03   43.80
   0   5  15  796.92   43.80
   1  -5  15    9.50    3.20
  -1  -5 -15   10.40    2.60
  -1  -5 -15    7.60    2.60
   1  -5  15   12.50    7.90
   1  -5  15    4.70    1.90
   1   5  15    8.30    2.20
   1   5  15    9.30    2.10
  -2  -5 -15   -0.50    3.20
   2  -5  15   -0.90    3.30
   2  -5  15   -3.90    8.80
  -2  -5 -15    1.50    2.60
   2   5  15   -2.50    2.00
   2   5  15   -0.50    2.50
   3  -5  15    9.50    8.20
  -3  -5 -15   12.30    4.30
  -3  -5 -15   12.40    2.80
   3   5  15   14.80    3.10
  -3  -6  15    6.00    4.10
  -3  -6  15    2.20    6.20
  -3   6  15    4.10    1.70
  -2  -6  15   24.80    7.70
  -2  -6  15   21.90    6.90
   2  -6 -15   42.70    5.30
  -2   6  15   25.10    2.90
   1  -6 -15   25.10    3.40
  -1  -6  15   33.90   13.60
  -1  -6  15   28.10    5.90
  -1  -6  15   19.70    8.80
  -1   6  15   18.40    2.30
  -1   6  15   38.00    4.20
   0  -6 -15   70.29    5.60
   0  -6  15   46.10   10.90
   0  -6  15   58.29    5.30
   0   6  15   62.39    4.70
   0   6  15   68.49    5.30
  -1  -6 -15    1.20    2.70
   1  -6  15   -4.30    9.70
  -1  -6 -15    3.60    3.50
   1  -6  15   -2.60    2.20
   1   6  15    0.10    2.40
   1   6  15    2.30    2.00
  -2  -6 -15   -4.40    3.20
  -2  -6 -15    2.60    3.20
   2  -6  15    3.70    9.80
   2  -6  15    7.80    2.40
   2   6  15   -0.70    1.90
   2   6  15    1.90    2.90
  -1   7  15   66.59    4.80
   0  -7 -15    4.10    3.60
   0   7  15    4.00    1.90
   0   7  15    8.70    2.50
  -5   0  16   -1.80    1.50
  -5   0  16   -1.60    5.90
   5   0 -16    0.00    3.20
  -5   0  16   10.60    5.00
  -4   0  16    7.90    4.50
  -4   0  16   -0.10    1.30
  -4   0  16   -6.10    4.20
  -3   0  16    2.70    1.30
  -3   0  16    3.10    3.40
  -3   0  16    4.90    2.80
  -3   0  16    2.40    4.30
  -2   0  16   -0.40    1.90
  -2   0  16   -0.90    2.50
  -2   0  16   -1.60    7.70
  -2   0  16   -0.40    1.20
  -1   0  16   43.70    6.90
  -1   0  16   48.10    3.50
   0   0  16   10.10    1.60
   1   0  16   67.09    4.60
   1   0  16   72.49   10.10
  -1   0 -16   66.59    5.60
  -1   0 -16   64.09    4.80
   1   0  16   54.99    5.10
  -2   0 -16  110.89    8.00
  -2   0 -16  125.09    7.90
  -2   0 -16  109.29    7.80
   2   0  16  107.99   14.40
  -3   0 -16   83.19    5.50
   3   0  16   79.79    7.30
  -3   0 -16   86.49    6.20
  -4   0 -16    3.40    1.20
  -4   0 -16    6.80    2.60
  -4   0 -16    2.90    2.20
  -4   0 -16   -2.20    2.80
   4   0  16    3.60    3.30
   5   0  16  261.57   17.50
  -5   0 -16  288.77   16.70
  -5  -1  16    6.10    5.00
  -5  -1  16    4.30    4.50
  -5  -1  16    3.40    1.70
  -5   1  16    9.30    5.10
  -5   1  16    7.40    1.70
  -4  -1  16   62.09    4.50
  -4  -1  16   67.39    7.80
  -4  -1  16   64.59    7.80
   4  -1 -16   64.99    5.10
  -4   1  16   58.19    4.50
  -4   1  16   69.19    9.10
  -4   1  16   62.39    7.30
   3  -1 -16    5.00    1.80
  -3  -1  16    2.70    1.30
  -3  -1  16    4.90    2.90
  -3  -1  16   -5.30    4.20
  -3   1  16    2.50    2.40
  -3   1  16    3.70    4.20
  -3   1  16    6.90    5.00
  -3   1  16    3.60    1.40
   2  -1 -16   15.50    2.10
  -2  -1  16    8.70    4.50
  -2  -1  16   12.70    1.70
  -2  -1  16   19.90    3.10
  -2   1  16   22.40    5.60
  -2   1  16   17.10    2.40
  -2   1  16   18.00    3.20
  -2   1  16   19.50    2.20
  -1  -1  16  394.16   23.10
  -1  -1  16  381.86   22.70
  -1  -1  16  372.16   27.00
   1  -1 -16  386.66   22.90
  -1  -1  16  361.76   24.60
  -1   1  16  377.66   23.10
  -1   1  16  362.06   22.80
  -1   1  16  373.76   22.70
  -1   1  16  365.36   25.30
   0  -1  16   83.29    5.50
   0  -1  16   71.29    6.00
   0  -1 -16   82.09    5.70
   0  -1  16   80.69   10.90
   0  -1  16   92.99    6.20
   0   1  16   72.09    5.70
   0   1  16   83.49    6.10
   0   1  16   78.69    5.40
   1  -1  16    4.60    6.70
   1  -1  16    5.50    1.50
  -1  -1 -16    4.30    1.80
   1   1  16   -0.40    1.50
   1   1  16    2.20    1.60
  -1   1 -16    1.40    1.80
   2  -1  16    7.30    7.50
  -2  -1 -16   20.40    2.80
   2   1  16   18.20    2.90
   2   1  16   18.70    3.30
   2   1  16   25.40    2.40
   3  -1  16    0.90    8.50
   3  -1  16    6.60    3.90
  -3  -1 -16   -0.50    1.30
  -3   1 -16   -1.00    2.70
  -3   1 -16    2.70    1.10
   3   1  16   -0.80    2.80
  -3   1 -16    0.20    2.70
   3   1  16    2.50    2.40
   4  -1  16   12.80    4.00
  -4  -1 -16   18.50    3.00
  -4  -1 -16   21.60    3.10
  -4  -1 -16   22.30    2.30
  -4   1 -16   27.70    3.50
  -4   1 -16   18.50    2.70
  -4   1 -16   19.80    2.20
   4   1  16   22.50    3.50
   5  -1  16   54.69    6.80
  -5  -1 -16   64.19    4.50
  -5   1 -16   77.19    6.00
  -5   1 -16   64.79    4.40
   5   1  16   64.09    6.00
  -5  -2  16    1.00    4.10
  -5  -2  16    2.80    6.80
  -5  -2  16    4.30    1.90
  -5  -2  16   -4.60    4.50
  -5   2  16    4.70    1.70
  -5   2  16    8.30    5.50
  -4  -2  16    3.30    6.00
  -4  -2  16    1.10    4.00
  -4  -2  16   -0.80    5.60
  -4  -2  16    2.40    4.30
  -4  -2  16    0.40    1.40
  -4  -2  16    5.00    6.50
  -4   2  16    2.80    5.20
  -4   2  16    0.20    1.60
  -3  -2  16    5.20    5.60
  -3  -2  16   12.50    3.50
   3  -2 -16    8.80    2.10
  -3  -2  16   10.70    4.30
  -3  -2  16   12.20    1.70
  -3   2  16   13.60    2.40
  -3   2  16   15.90    5.50
  -3   2  16   11.60    1.80
  -2  -2  16   -3.60    2.60
  -2  -2  16    5.40    4.30
   2  -2 -16   -1.60    1.60
  -2  -2  16    0.70    1.20
  -2   2  16    1.40    1.30
  -2   2  16    1.00    1.70
  -2   2  16    0.90    5.50
  -1  -2  16    5.70    2.50
   1  -2 -16    6.10    1.80
  -1  -2  16    8.00    7.40
  -1  -2  16    4.50    1.40
  -1   2  16    3.80    1.40
  -1   2  16    6.40    2.90
  -1   2  16    3.30    1.50
   0  -2  16   34.90    3.10
   0  -2  16   28.60    4.10
   0  -2 -16   37.40    3.40
   0  -2  16   17.40    7.30
   0   2  16   35.70    3.20
   0   2  16   37.50    3.50
   0   2  16   44.30    4.40
   1  -2  16    6.20    6.70
  -1  -2 -16    3.40    2.00
   1   2  16    7.00    1.80
   1   2  16    4.60    2.10
   1   2  16   -1.60    3.30
  -2  -2 -16   16.90    2.70
   2  -2  16   12.40    7.60
   2   2  16   11.40    2.40
   2   2  16   16.90    2.90
   3  -2  16    3.90    8.70
  -3  -2 -16   -0.50    1.60
   3   2  16    0.60    2.60
  -3   2 -16    2.50    2.90
   3   2  16    1.10    2.90
  -3   2 -16    3.10    2.00
  -4  -2 -16   68.39    5.00
  -4  -2 -16   76.39    6.20
  -4  -2 -16   75.69    6.00
   4   2  16   80.69    6.30
  -4   2 -16   70.69    6.70
  -4   2 -16   64.49    5.60
  -4   2 -16   73.39    4.90
   5  -2  16  -11.80    4.40
  -5  -2 -16    3.10    2.60
  -5  -2 -16    9.90    1.70
   5   2  16    7.20    2.60
  -5   2 -16    8.50    1.30
  -5   2 -16   14.10    3.70
  -5  -3  16   -4.90    8.00
  -5  -3  16   -0.10    4.20
  -5  -3  16    6.50    3.60
  -5   3  16   -2.60    2.10
  -5   3  16   -1.90    6.00
  -4  -3  16   -0.10    1.60
   4  -3 -16    6.20    3.40
  -4  -3  16   -2.50    6.30
  -4  -3  16   -2.80    4.20
  -4  -3  16    9.60    4.40
  -4   3  16    2.00    5.70
  -4   3  16    1.40    1.80
   3  -3 -16    2.80    2.20
  -3  -3  16    4.00    3.40
  -3  -3  16    8.20    5.80
  -3  -3  16   -1.90    4.10
  -3  -3  16   -0.60    1.40
  -3   3  16   -0.40    2.00
  -3   3  16    6.50    5.80
  -3   3  16    3.40    1.80
  -2  -3  16   70.79    7.80
   2  -3 -16   63.79    5.00
  -2  -3  16   63.59    4.50
  -2   3  16   64.99    8.40
  -2   3  16   64.39    4.80
  -2   3  16   60.79    4.60
  -1  -3  16    2.40    2.50
   1  -3 -16   -1.00    1.70
  -1  -3  16    3.40    7.80
  -1  -3  16    1.30    1.30
  -1  -3  16   -7.20    4.40
  -1   3  16    0.50    1.60
  -1   3  16   -0.80    1.80
  -1   3  16   -3.60    7.20
   0  -3 -16  326.37   19.50
   0  -3  16  322.27   19.20
   0  -3  16  323.87   19.70
   0  -3  16  258.87   23.20
   0   3  16  326.67   19.30
   1  -3  16   14.40    2.80
   1  -3  16   15.70    7.50
   1   3  16    8.90    2.50
  -2  -3 -16   10.30    2.60
   2  -3  16   16.20    7.90
   2   3  16    8.30    2.40
   2   3  16   11.70    2.50
   3  -3  16    2.10    7.80
  -3  -3 -16    1.80    3.80
  -3  -3 -16    9.70    2.30
   3   3  16   12.40    3.30
   3   3  16   11.90    2.70
  -3   3 -16    5.70    2.40
  -4  -3 -16    3.40    2.60
   4  -3  16  -16.80   11.50
  -4  -3 -16    0.60    2.60
   4   3  16    2.80    2.90
  -4   3 -16    1.90    1.10
  -4  -4  16    1.60    7.20
  -4  -4  16   -7.90    4.70
  -4  -4  16    4.90    3.00
  -4  -4  16    2.00    4.30
  -3  -4  16    2.10    3.60
  -3  -4  16   -0.60    6.40
   3  -4 -16    1.70    2.70
  -3  -4  16    0.60    4.30
  -3  -4  16    6.00    5.70
  -3  -4  16    0.60    1.70
  -3  -4  16    7.20    5.10
  -3   4  16    5.30    6.70
  -3   4  16   -2.00    1.80
  -2  -4  16   61.69    4.40
  -2  -4  16   65.79    7.80
  -2  -4  16   62.39    6.30
  -2  -4  16   37.10   11.30
   2  -4 -16   54.79    5.00
  -2   4  16   57.49    4.50
  -1  -4  16    9.60    3.10
  -1  -4  16    3.90    4.90
   1  -4 -16    4.50    2.20
  -1  -4  16   18.80    8.70
  -1  -4  16    3.40    1.50
  -1   4  16    6.10    1.70
   0  -4  16   45.30    3.60
   0  -4  16   41.20    5.20
   0  -4 -16   45.90    4.20
   0  -4  16   26.40    8.50
   0   4  16   51.79    3.90
   0   4  16   42.20    4.40
   1  -4  16    3.50    2.50
  -1  -4 -16    4.30    2.10
   1  -4  16    2.40    1.60
   1  -4  16   -5.10    7.30
   1   4  16    4.90    1.90
   1   4  16    5.30    2.20
   2  -4  16   -2.10    7.80
  -2  -4 -16   -2.50    2.70
  -2  -4 -16    0.50    2.10
   2  -4  16    1.80    2.50
   2   4  16   -3.40    2.30
   2   4  16   -1.40    2.20
  -3  -4 -16   -5.00    4.20
  -3  -4 -16    2.00    2.30
   3  -4  16  -10.20    8.50
   3  -4  16   -4.00    3.00
   3   4  16   -1.30    2.30
  -4  -4 -16   18.20    3.10
  -4  -4 -16   20.50    3.30
   4   4  16   18.00    2.70
  -4   4 -16   20.00    2.10
  -3  -5  16   20.80    7.60
   3  -5 -16    4.70    4.00
  -3  -5  16   12.30    4.60
  -3   5  16   12.00    2.20
  -2  -5  16   25.00    5.10
  -2  -5  16   22.40    2.60
   2  -5 -16   20.60    3.20
  -2  -5  16   26.40    4.70
  -2   5  16   23.60    2.50
  -1  -5  16   75.69    7.30
  -1  -5  16   55.89   12.30
  -1  -5  16   74.09    9.50
  -1  -5  16   62.29    5.00
  -1   5  16   68.89    4.90
   0  -5  16    9.40    9.20
   0  -5  16   15.90    2.70
   0  -5  16    9.70    3.80
   0  -5 -16   18.30    2.70
   0   5  16   11.90    2.50
   0   5  16   13.50    2.10
   1  -5  16    3.40    3.50
  -1  -5 -16    1.20    2.60
   1  -5  16    0.10    1.90
   1  -5  16    6.70   10.30
  -1  -5 -16    2.50    2.60
   1   5  16   -1.80    2.10
   1   5  16    0.30    2.00
   2  -5  16   -1.00    8.00
   2  -5  16   -4.10    5.00
  -2  -5 -16    0.20    3.10
  -2  -5 -16   -2.90    2.60
   2   5  16    2.70    2.80
   3  -5  16   -1.90    8.90
  -3  -5 -16   -0.30    2.70
   3   5  16    2.00    2.20
  -2  -6  16    5.00    6.20
   2  -6 -16    3.80    4.20
  -2  -6  16    1.20    5.30
  -2   6  16   -1.10    1.60
  -1  -6  16  181.98   15.10
  -1  -6  16  185.48   15.40
   1  -6 -16  201.28   12.60
  -1  -6  16  151.58   19.60
  -1   6  16  209.88   12.00
   0  -6 -16   40.30    5.00
   0  -6  16   59.89   13.00
   0   6  16   49.40    5.00
   0   6  16   50.09    4.00
  -1  -6 -16    2.60    3.20
   1  -6  16    1.00    2.50
   1  -6  16    4.50    9.30
   1   6  16    0.20    2.10
   1   6  16   -0.10    2.10
   2  -6  16    9.20   11.20
   2   6  16    1.00    3.50
   2   6  16    5.00    2.10
  -5   0  17    1.00    1.70
  -5   0  17   -3.10    6.60
  -5   0  17    4.30    5.20
   4   0 -17   -5.70    2.50
  -4   0  17    3.80    5.10
  -4   0  17   -4.30    5.00
  -4   0  17    3.00    1.50
  -3   0  17    1.00    1.30
  -3   0  17   -0.60    4.40
  -3   0  17    1.20    3.40
  -3   0  17    4.10    3.00
  -2   0  17   -0.70    1.30
  -2   0  17   -1.80    2.70
  -2   0  17   -2.70    2.10
  -2   0  17   -0.90    5.00
  -1   0  17    6.70    6.50
  -1   0  17    2.20    1.30
   0   0  17    3.60    1.40
   0   0 -17    2.60    1.60
   1   0  17    1.20    2.20
   1   0  17    1.10    1.50
  -1   0 -17    0.90    1.90
  -2   0 -17    1.30    1.40
  -2   0 -17   -5.80    2.60
   2   0  17   -0.40    1.80
   3   0  17   -3.90    3.50
  -3   0 -17   -1.10    1.20
   3   0  17   -0.80    2.20
  -4   0 -17    1.20    1.30
  -4   0 -17    1.10    3.40
   4   0  17    1.30    3.50
   4   0  17    0.00    3.70
  -5  -1  17    1.20    5.00
  -5  -1  17   -1.90    5.50
  -5  -1  17    2.30    1.70
   5   1 -17   -1.60    3.60
  -5   1  17   -0.40    1.80
  -5   1  17    2.70    5.40
  -4  -1  17    9.50    4.70
  -4  -1  17   17.80    4.70
  -4  -1  17    9.50    1.80
   4  -1 -17   15.50    2.70
  -4   1  17    9.40    6.40
  -4   1  17    1.50    5.50
  -4   1  17   12.10    1.90
  -3  -1  17   -0.40    4.60
   3  -1 -17   -1.80    1.80
  -3  -1  17   -0.10    3.20
  -3  -1  17    1.50    1.40
  -3   1  17    5.10    4.40
  -3   1  17    8.10    5.30
  -3   1  17    4.80    2.60
  -3   1  17    1.50    1.40
  -2  -1  17   10.10    3.00
  -2  -1  17    8.50    5.00
   2  -1 -17   11.80    2.10
  -2  -1  17    9.50    1.70
  -2   1  17   11.70    1.70
  -2   1  17    9.90    2.20
  -2   1  17   14.30    3.70
  -2   1  17   19.20    6.00
   1  -1 -17   93.99    6.30
  -1  -1  17   88.89    6.00
  -1  -1  17   93.99    7.00
  -1  -1  17   95.19   11.60
  -1   1  17   84.59    6.40
  -1   1  17   84.99    7.80
  -1   1  17   91.09    9.90
  -1   1  17   91.69    6.00
   0  -1  17   12.40    1.70
   0  -1  17   12.10    8.20
   0  -1  17   13.00    3.10
   0  -1 -17   10.70    2.00
   0   1  17    8.30    1.60
   0   1  17   12.10    2.30
  -1  -1 -17   24.10    3.30
   1  -1  17   15.90    7.80
   1  -1  17   23.30    2.70
   1   1  17   28.30    2.80
   1   1  17   18.70    3.00
  -1   1 -17   21.50    2.70
  -2  -1 -17    0.10    2.40
   2  -1  17  -11.10    8.00
  -2   1 -17   -2.10    1.20
   2   1  17   -2.30    2.00
   2   1  17    1.90    2.50
  -3  -1 -17   -0.70    1.50
   3  -1  17    7.60    9.50
  -3   1 -17   -0.20    2.80
  -3   1 -17    1.40    1.20
   3   1  17    0.00    3.00
  -4  -1 -17   66.59    5.80
   4  -1  17   43.10    5.70
  -4  -1 -17   59.39    4.20
  -4  -1 -17   60.29    5.80
  -4   1 -17   59.39    4.10
  -4   1 -17   59.49    6.30
   4   1  17   56.49    5.90
  -5  -2  17    7.90    4.70
  -5  -2  17    4.70    4.90
  -5  -2  17   10.20    2.10
  -5   2  17    2.90    1.90
  -5   2  17    4.20    5.80
  -4  -2  17    1.20    1.50
  -4  -2  17   -1.70    4.20
  -4  -2  17    5.20    4.50
   4  -2 -17    2.10    2.90
  -4   2  17    3.90    1.80
  -4   2  17    1.20    5.50
  -3  -2  17    4.70    4.50
  -3  -2  17    6.30    3.30
   3  -2 -17    5.90    2.10
  -3  -2  17    6.60    1.50
  -3   2  17    4.60    6.10
  -3   2  17    3.80    1.60
  -3   2  17    7.20    2.40
  -2  -2  17  128.19    8.40
   2  -2 -17  138.29    8.70
  -2  -2  17  139.19    9.60
  -2  -2  17  134.79   11.40
  -2   2  17  124.19    8.70
  -2   2  17  127.49    8.40
  -2   2  17  109.09   13.10
  -2   2  17  151.88   12.90
   1  -2 -17   20.00    2.90
  -1  -2  17   21.20    2.30
  -1  -2  17   17.20    8.80
  -1  -2  17   24.20    3.20
  -1  -2  17   32.80    6.20
  -1   2  17    5.00    7.70
  -1   2  17   18.30    2.10
  -1   2  17   17.90    2.30
  -1   2  17   21.40    3.90
   0  -2  17    2.00    1.40
   0  -2  17    5.50    6.80
   0  -2 -17    1.70    1.60
   0  -2  17    3.30    2.20
   0   2  17   -1.00    2.90
   0   2  17   -0.90    1.50
   0   2  17    0.10    1.70
   1  -2  17    1.80    2.30
   1  -2  17   -2.60    1.40
   1  -2  17   -0.20    6.80
  -1  -2 -17   -2.60    2.00
  -1   2 -17   -0.30    2.20
   1   2  17    0.20    1.70
   1   2  17    1.70    2.30
   2  -2  17    7.40    7.90
  -2  -2 -17    4.50    2.60
   2   2  17   10.00    2.80
   2   2  17    7.00    2.50
  -2   2 -17    2.00    3.50
   3  -2  17    1.60    9.80
   3   2  17    5.90    2.90
  -3   2 -17    0.20    3.70
  -3   2 -17    4.30    1.20
  -4  -2 -17   15.20    2.80
  -4  -2 -17   12.20    2.20
  -4  -2 -17   12.90    3.00
  -4   2 -17   14.60    1.70
  -4   2 -17   17.60    3.90
   4   2  17   21.50    3.20
  -4  -3  17    1.10    4.30
  -4  -3  17    2.70    1.80
  -4  -3  17    4.60    4.80
  -4   3  17    4.10    2.00
  -4   3  17    0.40    6.50
  -3  -3  17    0.60    4.60
  -3  -3  17    4.50    1.60
   3  -3 -17   -0.60    2.50
  -3  -3  17    1.70    3.60
  -3   3  17    4.60    2.20
  -3   3  17    2.50    2.00
  -3   3  17    8.90    6.50
   2  -3 -17    0.00    1.90
  -2  -3  17   -1.40    3.20
  -2  -3  17   -1.30    4.80
  -2  -3  17    0.40    1.30
  -2   3  17   -1.20    1.70
  -2   3  17    0.60    1.90
  -2   3  17   -5.30    7.20
   1  -3 -17   25.60    3.40
  -1  -3  17   17.30    6.20
  -1  -3  17   22.40    2.50
  -1  -3  17   24.60    3.50
  -1  -3  17   27.70    9.60
  -1   3  17   16.90    2.50
   0  -3  17   -1.00    1.50
   0  -3  17    1.00    2.30
   0  -3  17  -12.30    7.60
   0  -3 -17    3.10    2.10
   0   3  17    2.40    1.70
   1  -3  17   36.60    4.10
   1  -3  17   25.80    2.90
   1  -3  17   15.60    7.70
  -1  -3 -17   30.30    3.70
   1   3  17   22.00    2.70
   2  -3  17    3.50    2.60
   2  -3  17    8.90    7.70
  -2  -3 -17    1.00    2.70
   2   3  17    0.30    2.30
   2   3  17   -0.80    2.50
   3  -3  17   -1.70    8.80
  -3  -3 -17    1.40    2.40
   3   3  17    5.00    2.50
  -4  -3 -17  106.79    8.00
  -4  -3 -17  107.69    8.10
  -4   3 -17  107.99    6.90
   4   3  17  111.29    7.70
  -4  -4  17    5.40    4.60
  -4  -4  17   -4.90    4.70
  -3  -4  17   15.90    2.30
   3  -4 -17   17.50    3.30
  -3  -4  17   21.40    5.20
  -3  -4  17   19.50    4.20
  -3   4  17   19.30    2.50
  -2  -4  17   21.50    3.00
  -2  -4  17   25.50    5.50
   2  -4 -17   23.50    3.20
  -2  -4  17   35.10    5.40
  -2   4  17   22.40    2.60
  -1  -4  17   33.90   10.40
  -1  -4  17   71.99    4.90
  -1  -4  17   74.39    6.80
  -1  -4  17   63.79    7.80
   1  -4 -17   68.69    5.40
  -1   4  17   72.49    5.10
   0  -4  17   29.30    3.70
   0  -4 -17   19.80    2.80
   0  -4  17   27.80    2.80
   0  -4  17   15.30    8.90
   0   4  17   20.90    2.70
  -1  -4 -17    7.20    2.60
   1  -4  17    7.70    1.80
   1  -4  17    5.10    8.20
   1  -4  17    6.50    2.90
   1   4  17    1.50    2.40
   1   4  17    8.00    2.40
   2  -4  17   43.20    4.90
   2  -4  17   34.60    8.90
  -2  -4 -17   37.20    4.60
  -2  -4 -17   40.60    5.00
   2   4  17   36.40    3.80
   2   4  17   35.90    3.90
   3  -4  17   11.50    9.40
  -3  -4 -17    0.40    2.50
   3  -4  17    3.50    3.00
   3   4  17   -0.60    2.30
  -3  -5  17   33.40    5.80
  -3  -5  17   39.30    5.80
  -3   5  17   41.40    3.90
   2  -5 -17    0.90    2.90
  -2  -5  17   -4.00    4.10
  -2  -5  17   -0.80    2.30
  -2  -5  17    5.80    5.50
  -2   5  17   -1.80    1.70
  -1  -5  17   13.90   12.40
  -1  -5  17   10.00    2.00
   1  -5 -17   -1.70    2.40
  -1  -5  17    5.60    3.80
  -1   5  17    2.10    1.70
   0  -5 -17   10.10    2.70
   0  -5  17    8.20    1.90
   0  -5 -17    3.00    3.10
   0  -5  17   -5.80    9.30
   0  -5  17   10.50    3.90
   0   5  17   11.30    2.00
  -1  -5 -17   14.00    2.90
  -1  -5 -17    9.90    3.10
   1  -5  17   19.30    9.60
   1  -5  17   11.80    2.20
   1  -5  17   22.70    5.60
   1   5  17   14.00    2.60
   1   5  17   14.90    2.70
  -2  -5 -17    8.90    3.60
  -2  -5 -17    1.40    2.70
   2  -5  17    4.40    2.00
   2  -5  17    5.20    4.50
   2  -5  17    1.70    9.20
   2   5  17    4.30    2.90
   2   5  17    2.90    2.20
   1  -6 -17   89.69    9.50
  -1   6  17  103.29    6.70
   0  -6 -17   22.20    3.40
   0   6  17   24.80    2.70
  -5   0  18    4.90    1.90
  -5   0  18   11.80    7.80
  -5   0  18  -15.10    5.70
  -4   0  18    4.50    5.80
  -4   0  18   24.30    5.60
  -4   0  18   17.30    2.10
   4   0 -18   21.00    2.80
  -3   0  18    1.80    1.50
   3   0 -18   -1.60    1.80
  -3   0  18   -3.60    3.80
  -3   0  18    3.30    6.10
  -2   0  18  176.98   10.20
  -2   0  18  133.69   10.60
  -2   0  18  180.78   11.40
  -2   0  18  149.49   14.20
   1   0 -18    5.10    2.00
  -1   0  18    8.90    2.90
  -1   0  18    2.70    2.40
  -1   0  18    7.00    1.50
   0   0  18    4.70    2.40
   0   0 -18    6.60    2.10
   0   0  18   12.20    2.50
   0   0  18    7.40    1.60
   1   0  18   14.90    2.80
  -1   0 -18   14.10    2.60
   1   0  18    9.00    2.60
   1   0  18   17.70    2.10
   2   0  18    8.90    2.00
  -3   0 -18   11.70    3.10
  -3   0 -18    7.10    1.60
   3   0  18   10.30    2.50
   4  -1 -18   33.00    3.80
  -4  -1  18   44.10    3.40
  -4  -1  18   41.00    6.80
  -4  -1  18   37.20    5.60
  -4   1  18   38.70    3.50
  -4   1  18   38.80    6.70
  -3  -1  18    4.50    5.50
   3  -1 -18    2.00    2.00
  -3  -1  18    3.20    1.50
  -3  -1  18    4.50    3.70
  -3   1  18    0.30    5.10
  -3   1  18    2.00    1.50
  -3   1  18    2.00    6.50
  -3   1  18   -4.80    2.90
  -2  -1  18    7.40    5.90
  -2  -1  18    3.00    1.30
   2  -1 -18    0.20    1.70
  -2  -1  18   -0.90    3.10
  -2   1  18   -0.20    6.80
  -2   1  18   -3.40    3.60
  -2   1  18   -1.00    1.40
  -2   1  18    1.90    2.10
  -1  -1  18    2.90    1.50
  -1  -1  18    6.60    2.80
   1  -1 -18    4.60    1.80
  -1   1  18    3.10    2.30
  -1   1  18    5.80    1.50
  -1   1  18    7.60    3.00
   0  -1 -18   36.00    3.60
   0  -1  18   43.30    4.30
   0  -1  18   38.30    3.30
   0   1 -18   33.40    3.80
   0   1  18   29.40    3.30
   0   1  18   44.70    4.70
   0   1  18   33.50    4.00
   1  -1  18   11.60    8.70
  -1  -1 -18    2.30    2.20
   1  -1  18    5.20    2.40
   1  -1  18    3.20    1.60
   1   1  18    3.20    2.60
  -1   1 -18    4.10    2.40
   1   1  18    5.80    2.20
   1   1  18    4.00    1.80
   2  -1  18   18.20    8.70
  -2  -1 -18   16.70    3.80
   2  -1  18   18.20    2.30
  -2   1 -18   15.00    1.90
   2   1  18   17.90    2.50
   3  -1  18    9.20    2.30
  -3   1 -18    6.50    3.30
  -3   1 -18    3.60    1.40
  -4  -1 -18  138.59    9.90
   4  -1  18  151.68    9.80
  -4  -1 -18  142.19    8.90
  -4   1 -18  146.69   10.20
  -4   1 -18  142.29    8.80
   4   1  18  121.19   10.20
  -4  -2  18    9.60    1.70
   4  -2 -18    4.00    3.40
  -4  -2  18    8.60    6.50
  -4  -2  18    2.50    5.80
  -4   2  18    6.40    2.00
  -4   2  18   10.40    7.20
  -3  -2  18    2.60    5.00
   3  -2 -18   -0.20    2.20
  -3  -2  18    4.10    3.70
  -3   2  18    0.60    2.70
  -3   2  18    1.10    1.70
  -3   2  18   13.00    6.60
  -2  -2  18   28.10    6.20
  -2  -2  18   28.70    2.90
   2  -2 -18   29.70    3.50
  -2  -2  18   30.90    4.10
  -2   2  18   32.90    3.10
  -2   2  18   31.40    3.80
  -2   2  18   32.10    7.70
   1  -2 -18    2.90    2.00
  -1  -2  18    3.60    1.50
  -1  -2  18    2.20    2.60
  -1   2  18    9.10    4.00
  -1   2  18    0.30    2.00
  -1   2  18    1.10    1.70
   0  -2 -18    1.60    1.90
   0  -2  18    0.60    2.20
   0  -2  18   -3.40    1.40
   0  -2  18    5.90    8.50
   0   2  18   -1.20    3.20
   0   2  18    2.60    1.70
   0   2  18    2.50    2.00
   1  -2  18   12.30    2.60
  -1  -2 -18   11.20    2.50
   1  -2  18   17.30    8.00
   1  -2  18    9.40    1.80
   1   2  18   13.50    3.00
   1   2  18   10.10    2.50
  -1   2 -18    5.00    2.70
  -2  -2 -18   69.89    6.30
   2  -2  18   74.79    5.30
   2  -2  18   82.19    6.10
   2  -2  18   64.19   10.80
   2   2  18   60.29    6.00
   3  -2  18  -23.60    9.40
  -3  -2 -18   -0.70    2.20
  -3   2 -18   -0.20    1.20
   3   2  18    5.30    3.10
  -4  -2 -18    9.60    2.70
   4   2  18    7.40    3.20
  -4  -3  18   28.30    5.90
  -4  -3  18   23.70    2.60
  -4  -3  18   19.80    4.60
  -4   3  18   19.00    7.20
  -3  -3  18   69.59    7.20
  -3  -3  18   71.99    9.10
   3  -3 -18   63.49    6.00
  -3  -3  18   77.19    5.10
  -3   3  18   70.89    5.80
  -3   3  18   82.79    9.90
  -3   3  18   72.29    5.50
   2  -3 -18   31.60    4.30
  -2  -3  18   30.90    3.30
  -2  -3  18   53.49    6.80
  -2  -3  18   34.20    4.40
  -2   3  18   33.70    3.90
  -2   3  18   31.80    8.80
  -2   3  18   30.70    3.70
  -1  -3  18   11.20    3.00
  -1  -3  18   19.30    9.50
  -1  -3  18    9.70    1.80
   1  -3 -18   10.60    2.40
  -1   3  18    8.80    2.00
   0  -3 -18   27.80    3.70
   0  -3  18   28.70    3.00
   0  -3  18   31.10    3.80
   0  -3  18   30.00    9.40
   0   3  18   32.70    3.50
  -1  -3 -18    6.90    2.80
   1  -3  18   -2.10    7.90
   1  -3  18    6.20    1.70
   1  -3  18    3.20    2.40
   1   3  18    4.70    2.30
  -2  -3 -18   31.00    3.80
   2  -3  18   33.40    3.60
   2  -3  18   27.50    9.00
   2  -3  18   24.20    2.80
   3  -3  18   39.30    9.90
  -3  -3 -18   29.40    4.40
   3  -3  18   40.90    4.90
  -3   3 -18   27.00    3.40
   3   3  18   23.80    3.50
   3  -4 -18   16.90    3.80
  -3  -4  18   16.50    2.40
  -3  -4  18   14.20    5.70
  -3   4  18   17.70    2.80
   2  -4 -18   74.69    5.80
  -2  -4  18   70.89    5.10
  -2  -4  18   69.19    8.00
  -2  -4  18   64.79    7.10
  -2   4  18   70.59    5.40
  -1  -4  18    5.40    1.70
  -1  -4  18    7.00    3.50
   1  -4 -18    4.80    2.50
  -1  -4  18    3.10   10.90
  -1   4  18    4.50    1.90
   0  -4  18    4.80    3.10
   0  -4  18   11.00   10.20
   1  -4  18   -3.10    1.70
   1  -4  18   -0.60    2.80
   1  -4  18    0.00    8.60
  -1  -4 -18    3.50    2.60
   1   4  18   -1.20    2.40
   2  -4  18    4.60    1.90
  -2  -4 -18   -1.80    3.40
  -2  -4 -18   -1.00    2.50
   2  -4  18  -10.40    9.00
   2   4  18   -1.00    3.70
   2   4  18    1.30    3.10
  -2  -5  18    9.00    7.20
  -2  -5  18   14.60    4.70
  -2   5  18   12.40    2.30
   1  -5 -18   19.20    3.00
  -1  -5  18   16.20    4.40
  -1  -5  18   11.30    2.50
  -1  -5  18  -10.80   12.20
  -1   5  18   18.70    3.00
   0  -5  18   -0.50    1.90
   0  -5  18   -0.90    4.20
   0  -5 -18   -1.70    2.60
   0  -5  18    1.80   10.90
   0   5  18    1.00    2.10
   1  -5  18    6.60    4.40
   1  -5  18    6.10   10.50
  -1  -5 -18   -2.90    3.10
   1  -5  18   -2.30    2.00
   1   5  18   -0.80    2.40
  -4   0  19    1.40    6.50
  -4   0  19   -0.70    1.70
  -4   0  19   -9.40    6.00
   4   0 -19    2.80    2.60
  -3   0  19   -1.00    4.50
  -3   0  19    1.50    1.40
   3   0 -19    0.70    2.10
  -3   0  19   17.70    6.70
  -2   0  19   -3.30    1.40
  -2   0  19    2.20    3.70
   2   0 -19   -1.10    1.90
  -2   0  19   -0.60    7.40
  -1   0  19   -0.90    2.30
   1   0 -19    0.90    1.90
  -1   0  19   -1.50    2.70
  -1   0  19    0.30    1.60
   0   0  19   -0.70    1.50
   0   0  19   -1.40    2.20
   0   0  19    1.30    2.40
   0   0 -19   -1.00    1.90
   1   0  19   -0.40    1.70
   1   0  19   -1.80    2.30
  -1   0 -19   -2.80    3.10
   2   0  19    1.00    2.10
  -3   0 -19   -4.10    3.00
   3   0  19    0.30    2.80
  -3   0 -19   -0.90    3.30
  -4  -1  19    3.80    6.00
  -4  -1  19    2.90    4.80
  -4  -1  19   -0.30    1.70
   4  -1 -19    3.40    3.50
  -4   1  19   -0.20    6.10
  -4   1  19   -0.60    1.90
   4   1 -19    3.30    2.60
  -3  -1  19   16.80    6.40
   3  -1 -19   26.20    3.50
  -3  -1  19   20.40    4.30
  -3  -1  19   21.90    2.30
  -3   1  19   22.10    2.30
  -3   1  19   20.10    4.00
  -3   1  19   16.10   10.10
  -3   1  19   38.50    7.60
  -2  -1  19    8.50    3.30
  -2  -1  19   14.80    7.20
   2  -1 -19   10.60    2.40
  -2  -1  19    7.40    1.60
  -2   1  19    5.90    7.80
  -2   1  19    2.50    2.60
  -2   1  19    6.80    4.30
  -2   1  19    6.60    1.70
   1  -1 -19    1.80    1.90
  -1  -1  19    2.40    2.90
  -1  -1  19    0.00    1.40
  -1   1  19    0.30    3.20
  -1   1  19    3.20    1.70
  -1   1  19   -0.90    2.30
   0  -1  19   10.90    1.80
   0  -1  19    7.20    2.60
   0  -1 -19    9.60    2.20
   0   1  19   11.00    3.00
   0   1  19    6.10    2.20
   0   1  19    8.60    1.90
   0   1 -19    8.60    2.50
   1  -1  19    3.20    2.50
   1  -1  19    7.90    1.80
  -1  -1 -19    3.20    4.10
   1   1  19    1.80    2.50
   1   1  19    6.40    2.70
  -1   1 -19    2.70    2.90
   2  -1  19   25.40    3.40
   2  -1  19   20.90    2.60
   3  -1  19    2.40    2.30
  -3  -1 -19    2.10    2.60
  -3  -1 -19    4.30    3.10
  -3   1 -19    5.20    1.60
  -3   1 -19   -1.60    3.60
  -4  -2  19   42.40    3.80
  -4  -2  19   31.80    7.20
  -4  -2  19   41.50    5.50
  -4   2  19   52.39    8.10
  -3  -2  19   -1.20    3.50
  -3  -2  19    1.50    1.60
   3  -2 -19    5.40    2.50
  -3  -2  19    7.30    6.50
  -3   2  19    3.40    1.90
  -3   2  19   -5.90    7.60
  -3   2  19    0.60    3.10
  -2  -2  19   18.90    3.40
  -2  -2  19   16.50    2.30
  -2  -2  19   23.40    7.60
   2  -2 -19   17.00    2.50
  -2   2  19   27.90    9.20
  -2   2  19   20.10    2.30
  -2   2  19    9.60    2.60
   1  -2 -19    2.00    2.20
  -1  -2  19    2.40    1.40
  -1  -2  19    5.70    2.80
  -1   2  19    4.10    2.00
  -1   2  19    1.80    1.90
   0  -2 -19   -1.10    2.10
   0  -2  19    1.30    1.50
   0  -2  19   -0.40    2.30
   0   2  19    0.00    1.80
   0   2  19    0.20    3.70
   0   2 -19    0.00    3.80
  -1  -2 -19   10.90    2.70
   1  -2  19   19.10   13.50
   1  -2  19   18.10    2.90
   1   2  19   11.60    3.50
   1   2  19   12.80    2.70
   2  -2  19    7.10    2.60
   2  -2  19    5.50    2.00
   2  -2  19    2.90   10.00
  -2  -2 -19    2.10    3.80
   2   2  19    2.90    2.50
   2   2  19   11.70    3.20
  -2   2 -19    2.70    1.60
   3  -2  19  155.98    9.70
  -3  -2 -19  133.49    9.50
   3  -2  19  123.89    8.90
  -3   2 -19  136.89    8.60
  -3  -3  19   78.09    9.30
  -3  -3  19   94.69    6.20
   3  -3 -19  103.59    7.20
  -3   3  19   87.29   10.00
  -3   3  19   85.29    7.10
  -2  -3  19   -8.60    7.10
  -2  -3  19    1.90    3.10
   2  -3 -19    3.60    2.40
  -2  -3  19   -3.80    1.60
  -2   3  19    2.70    2.10
   1  -3 -19    7.90    2.40
  -1  -3  19    8.20    3.20
  -1  -3  19    6.90    1.60
  -1   3  19    3.70    2.10
   0  -3  19   -5.70    8.50
   0  -3 -19    6.90    2.40
   0  -3  19    1.30    1.50
   0  -3  19    1.60    2.80
   0   3  19    0.70    1.90
   1  -3  19   22.90    2.30
   1  -3  19   32.90    9.80
   1  -3  19   23.40    3.20
  -1  -3 -19   20.10    3.30
   1   3  19   12.60    2.60
   2  -3  19    6.10    1.90
  -2  -3 -19    6.80    2.50
   2  -3  19    3.30    9.20
   2  -3  19    6.50    2.60
  -2  -3 -19    9.70    4.00
  -2   3 -19    6.40    1.50
  -2  -4  19    6.80    2.00
   2  -4 -19    0.80    2.70
  -2  -4  19   -0.20    3.80
  -2   4  19    2.30    2.30
   1  -4 -19   33.70    3.90
  -1  -4  19   22.00    4.00
  -1  -4  19   27.10    2.60
  -1   4  19   20.70    2.70
   0  -4  19   11.30    9.40
   0  -4  19    1.10    1.70
   0  -4 -19    1.80    2.60
   0  -4  19    2.00    3.40
   0   4  19   -1.10    2.00
  -1  -4 -19    4.60    2.80
   1  -4  19   18.00    9.80
   1  -4  19    5.30    1.90
   1  -4  19    6.40    3.20
  -1  -4 -19    7.20    3.10
   1   4  19    8.80    3.10
  -3   0  20   -3.90    7.40
   3   0 -20    2.00    2.30
  -3   0  20    2.40    1.60
  -3   0  20    2.20    4.90
   2   0 -20   23.30    3.30
  -2   0  20   19.90    2.20
  -2   0  20   25.20    4.30
  -1   0  20   -1.60    3.10
   1   0 -20    0.10    2.20
  -1   0  20   -0.60    1.60
   0   0  20   25.80    3.00
   0   0 -20   24.00    3.10
   0   0  20   27.00    3.50
  -1   0 -20   97.39    7.90
   1   0  20  118.09    7.70
   1   0  20   98.19    7.00
   2   0  20    7.00    2.40
   2   0  20    9.70    2.70
   3   0  20   32.10    3.60
  -3  -1  20   28.70    7.70
  -3  -1  20   15.40    4.40
   3  -1 -20   10.00    2.70
  -3  -1  20   13.40    1.90
  -3   1  20   10.90    2.00
  -3   1  20   20.30    8.20
   3   1 -20   14.30    2.50
  -2  -1  20    3.00    1.50
  -2  -1  20   -5.30    3.30
   2  -1 -20    2.80    2.10
  -2   1  20   -1.30    1.70
   2   1 -20   -0.60    2.10
  -2   1  20    5.00    2.80
   1  -1 -20    5.20    2.20
  -1  -1  20    5.40    1.50
  -1  -1  20    5.60    2.90
  -1   1  20    6.10    3.90
  -1   1  20    3.00    2.30
  -1   1  20    0.70    1.90
   1   1 -20    4.80    2.30
   0  -1  20   33.50    3.20
   0  -1 -20   36.80    4.00
   0  -1  20   42.10    4.70
   0   1  20   36.20    3.70
   0   1  20   22.80    3.20
   0   1 -20   33.70    4.20
   0   1  20   35.10    4.20
  -1  -1 -20   49.00    5.70
   1  -1  20   52.39    4.10
   1  -1  20   58.49    5.00
  -1   1 -20   49.99    6.20
   1   1  20   41.70    4.70
   1   1  20   54.79    5.60
   2  -1  20   49.80    4.40
   2  -1  20   51.89    4.90
  -2   1 -20   51.29    5.60
   3  -2 -20   -0.90    2.80
  -3  -2  20   -0.60    7.40
  -3  -2  20    1.50    3.70
  -3  -2  20    5.10    1.70
  -3   2  20   -7.30    3.60
  -3   2  20   -2.50    8.90
  -2  -2  20    3.80    1.60
   2  -2 -20    3.00    2.40
  -2  -2  20   -0.90    3.00
  -2   2  20    4.90    2.20
  -2   2  20   -1.80    2.60
  -1  -2  20    2.60    1.50
   1  -2 -20    0.80    2.20
  -1  -2  20    1.70    2.80
  -1   2  20    4.50    2.30
  -1   2  20   -0.60    2.80
   1   2 -20   -0.60    2.30
   0  -2 -20    5.60    2.50
   0  -2  20    4.50    2.60
   0  -2  20    2.00    1.60
   0   2  20   -0.20    2.30
   0   2 -20    3.30    2.90
   1  -2  20    1.30    1.80
   1  -2  20    0.30    2.40
  -1  -2 -20   -1.60    2.80
   1   2  20    5.80    4.00
   1   2  20    1.90    2.30
   2  -2  20    9.30    2.20
   2   2  20    9.40    3.70
  -2  -3  20   -2.10    1.70
  -2  -3  20   -4.10    3.40
   2  -3 -20   -0.80    2.70
  -2   3  20    4.30    2.60
  -1  -3  20    3.00    1.80
   1  -3 -20    2.10    2.40
  -1  -3  20   -0.80    3.00
  -1   3  20    1.10    2.20
   0  -3  20    7.40    3.00
   0  -3  20    5.20    1.70
   0  -3 -20    3.00    2.70
   0   3  20    6.00    2.40
   0   3 -20    9.60    3.80
   1  -3  20   -0.90    1.70
  -1  -3 -20    4.80    3.10
   1  -3  20   -0.80    3.30
   1   3  20   -3.20    2.30
  -2   0  21   -9.10    4.30
   2   0 -21   -3.30    2.40
  -2   0  21   -1.40    1.70
   1   0 -21    0.50    2.40
  -1   0  21    5.90    1.80
   0   0  21   -1.70    3.30
   0   0  21   -0.30    1.90
   0   0 -21    3.10    2.90
   1   0  21   -1.90    2.20
   1   0  21   -0.10    2.80
  -2  -1  21   -0.10    3.50
   2  -1 -21    2.60    2.40
  -2  -1  21   -0.50    1.70
   2   1 -21   -3.70    2.30
  -2   1  21    0.80    2.10
  -1  -1  21    2.20    1.80
  -1  -1  21    5.20    3.50
   1  -1 -21   -0.50    2.30
   1   1 -21    6.70    2.50
  -1   1  21    6.60    2.10
  -1   1  21    0.60    4.60
   0  -1  21   -0.90    2.90
   0  -1 -21   -0.40    2.70
   0  -1  21   -1.80    1.70
   0   1  21   -3.50    3.80
   0   1  21    6.20    2.50
   0   1 -21    5.40    3.00
   1  -1  21   17.80    2.20
   1  -1  21    7.70    3.00
   1   1  21   10.40    3.40
  -2  -2  21    4.10    3.50
  -2   2  21   11.00    2.90
  -1  -2  21   -1.00    3.20
  -1  -2  21    2.90    1.70
   1  -2 -21    0.00    2.60
  -1   2  21   -3.80    2.50
   1   2 -21   -7.20    2.60
   0  -2  21   13.50    3.40
   0  -2  21    6.30    1.90
   0  -2 -21   10.70    2.80
   0   2  21    7.20    2.40
   1  -2  21   52.09    5.00
   1  -2  21   45.50    4.00

_computing_structure_solution     'SHELXT 2014/4 (Sheldrick, 2014)'
;
_shelx_hkl_checksum              63109
_shelx_shelxl_version_number     2014/7
_olex2_date_sample_data_collection 2015-01-26
_olex2_date_sample_submission    2015-01-23
_olex2_exptl_crystal_mounting_method 'mounted on a cryoloop'
_olex2_submission_original_sample_id PhPhCHO
_olex2_submission_special_instructions 'No special instructions were received'
loop_
_space_group_symop_operation_xyz
'x, y, z'
'-x, y+1/2, -z+1/2'
'-x, -y, -z'
'x, -y-1/2, z-1/2'
loop_
_atom_site_label
_atom_site_type_symbol
_atom_site_fract_x
_atom_site_fract_y
_atom_site_fract_z
_atom_site_U_iso_or_equiv
_atom_site_adp_type
_atom_site_occupancy
_atom_site_site_symmetry_order
_atom_site_calc_flag
_atom_site_refinement_flags_posn
_atom_site_refinement_flags_adp
_atom_site_refinement_flags_occupancy
_atom_site_disorder_assembly
_atom_site_disorder_group
O1 O 0.35568(16) 0.30568(14) 0.53431(6) 0.0365(3) Uani 1 1 d . . . . .
C1 C 0.53995(18) 0.32178(15) 0.66071(7) 0.0184(3) Uani 1 1 d . . . . .
C2 C 0.71965(18) 0.41257(15) 0.63307(7) 0.0196(3) Uani 1 1 d . . . . .
H2 H 0.718(2) 0.445(2) 0.5745(9) 0.031(4) Uiso 1 1 d . . . . .
C3 C 0.88541(18) 0.45181(15) 0.68490(7) 0.0187(3) Uani 1 1 d . . . . .
H3 H 1.010(2) 0.5146(19) 0.6672(8) 0.026(4) Uiso 1 1 d . . . . .
C4 C 0.88019(17) 0.40546(15) 0.76681(7) 0.0171(3) Uani 1 1 d . . . . .
C5 C 1.05260(18) 0.44309(16) 0.82137(7) 0.0201(3) Uani 1 1 d . . . . .
H5 H 1.180(2) 0.5029(19) 0.8011(8) 0.027(4) Uiso 1 1 d . . . . .
C6 C 1.04393(19) 0.39640(16) 0.89961(7) 0.0237(3) Uani 1 1 d . . . . .
H6 H 1.163(2) 0.417(2) 0.9368(9) 0.038(4) Uiso 1 1 d . . . . .
C7 C 0.8623(2) 0.31308(17) 0.92778(7) 0.0244(3) Uani 1 1 d . . . . .
H7 H 0.854(3) 0.280(2) 0.9837(10) 0.039(4) Uiso 1 1 d . . . . .
C8 C 0.6912(2) 0.27650(16) 0.87724(7) 0.0215(3) Uani 1 1 d . . . . .
H8 H 0.566(2) 0.2198(19) 0.8976(8) 0.024(4) Uiso 1 1 d . . . . .
C9 C 0.69774(17) 0.31949(15) 0.79516(7) 0.0172(3) Uani 1 1 d . . . . .
C10 C 0.52873(18) 0.27802(15) 0.73975(7) 0.0182(3) Uani 1 1 d . . . . .
H10 H 0.406(2) 0.218(2) 0.7586(8) 0.026(4) Uiso 1 1 d . . . . .
C11 C 0.3616(2) 0.27353(16) 0.60475(8) 0.0239(3) Uani 1 1 d . . . . .
H11 H 0.243(2) 0.211(2) 0.6297(8) 0.027(4) Uiso 1 1 d . . . . .
loop_
_atom_site_aniso_label
_atom_site_aniso_U_11
_atom_site_aniso_U_22
_atom_site_aniso_U_33
_atom_site_aniso_U_23
_atom_site_aniso_U_13
_atom_site_aniso_U_12
O1 0.0451(6) 0.0380(6) 0.0251(5) 0.0011(4) -0.0116(4) -0.0085(4)
C1 0.0206(6) 0.0132(6) 0.0213(6) -0.0026(4) -0.0020(4) 0.0022(4)
C2 0.0260(6) 0.0146(6) 0.0183(6) -0.0001(5) 0.0024(4) 0.0036(4)
C3 0.0200(6) 0.0137(5) 0.0226(6) 0.0005(4) 0.0045(4) 0.0011(4)
C4 0.0190(6) 0.0116(6) 0.0208(6) -0.0010(4) 0.0011(4) 0.0018(4)
C5 0.0194(6) 0.0137(6) 0.0269(6) -0.0030(5) -0.0017(5) 0.0008(4)
C6 0.0283(6) 0.0162(6) 0.0259(7) -0.0040(5) -0.0074(5) 0.0034(5)
C7 0.0395(7) 0.0171(6) 0.0165(6) -0.0002(5) -0.0007(5) 0.0024(5)
C8 0.0289(6) 0.0151(6) 0.0208(6) 0.0002(5) 0.0047(5) -0.0003(5)
C9 0.0207(6) 0.0113(5) 0.0196(6) -0.0008(4) 0.0014(4) 0.0014(4)
C10 0.0186(6) 0.0130(6) 0.0229(6) -0.0011(4) 0.0021(4) 0.0005(4)
C11 0.0253(6) 0.0192(6) 0.0267(7) -0.0018(5) -0.0038(5) -0.0005(5)
loop_
_atom_type_symbol
_atom_type_description
_atom_type_scat_dispersion_real
_atom_type_scat_dispersion_imag
_atom_type_scat_source
C C 0.0140 0.0070 'International Tables Vol C Tables 4.2.6.8 and 6.1.1.4'
H H 0.0000 0.0000 'International Tables Vol C Tables 4.2.6.8 and 6.1.1.4'
O O 0.0390 0.0250 'International Tables Vol C Tables 4.2.6.8 and 6.1.1.4'
loop_
_geom_angle_atom_site_label_1
_geom_angle_atom_site_label_2
_geom_angle_atom_site_label_3
_geom_angle
_geom_angle_site_symmetry_1
_geom_angle_site_symmetry_3
C2 C1 C11 120.33(11) . .
C10 C1 C2 120.58(10) . .
C10 C1 C11 119.09(11) . .
C1 C2 H2 117.5(8) . .
C3 C2 C1 119.69(11) . .
C3 C2 H2 122.8(8) . .
C2 C3 H3 121.0(8) . .
C2 C3 C4 121.05(11) . .
C4 C3 H3 117.9(8) . .
C5 C4 C3 121.78(11) . .
C5 C4 C9 118.82(11) . .
C9 C4 C3 119.39(10) . .
C4 C5 H5 118.4(8) . .
C6 C5 C4 120.61(11) . .
C6 C5 H5 121.0(8) . .
C5 C6 H6 121.2(9) . .
C5 C6 C7 120.51(11) . .
C7 C6 H6 118.3(9) . .
C6 C7 H7 121.1(9) . .
C8 C7 C6 120.72(11) . .
C8 C7 H7 118.2(10) . .
C7 C8 H8 119.9(8) . .
C7 C8 C9 120.01(12) . .
C9 C8 H8 120.1(8) . .
C8 C9 C4 119.29(10) . .
C10 C9 C4 118.38(11) . .
C10 C9 C8 122.33(11) . .
C1 C10 C9 120.86(11) . .
C1 C10 H10 120.5(8) . .
C9 C10 H10 118.6(8) . .
O1 C11 C1 124.34(12) . .
O1 C11 H11 121.2(8) . .
C1 C11 H11 114.5(8) . .
loop_
_geom_bond_atom_site_label_1
_geom_bond_atom_site_label_2
_geom_bond_distance
_geom_bond_site_symmetry_2
O1 C11 1.2098(15) .
C1 C2 1.4205(17) .
C1 C10 1.3764(16) .
C1 C11 1.4806(16) .
C2 H2 1.015(15) .
C2 C3 1.3648(16) .
C3 H3 0.976(15) .
C3 C4 1.4246(16) .
C4 C5 1.4212(15) .
C4 C9 1.4227(16) .
C5 H5 0.994(15) .
C5 C6 1.3671(17) .
C6 H6 0.971(15) .
C6 C7 1.4083(19) .
C7 H7 0.978(16) .
C7 C8 1.3730(17) .
C8 H8 0.975(15) .
C8 C9 1.4223(16) .
C9 C10 1.4202(16) .
C10 H10 0.967(15) .
C11 H11 0.995(15) .
loop_
_geom_torsion_atom_site_label_1
_geom_torsion_atom_site_label_2
_geom_torsion_atom_site_label_3
_geom_torsion_atom_site_label_4
_geom_torsion
_geom_torsion_site_symmetry_1
_geom_torsion_site_symmetry_2
_geom_torsion_site_symmetry_3
_geom_torsion_site_symmetry_4
C1 C2 C3 C4 -0.91(18) . . . .
C2 C1 C10 C9 -1.17(18) . . . .
C2 C1 C11 O1 0.25(19) . . . .
C2 C3 C4 C5 179.11(10) . . . .
C2 C3 C4 C9 -1.02(17) . . . .
C3 C4 C5 C6 -179.68(10) . . . .
C3 C4 C9 C8 -178.78(10) . . . .
C3 C4 C9 C10 1.84(17) . . . .
C4 C5 C6 C7 -1.15(18) . . . .
C4 C9 C10 C1 -0.76(18) . . . .
C5 C4 C9 C8 1.09(17) . . . .
C5 C4 C9 C10 -178.29(9) . . . .
C5 C6 C7 C8 0.29(19) . . . .
C6 C7 C8 C9 1.28(19) . . . .
C7 C8 C9 C4 -1.95(18) . . . .
C7 C8 C9 C10 177.40(10) . . . .
C8 C9 C10 C1 179.88(10) . . . .
C9 C4 C5 C6 0.45(18) . . . .
C10 C1 C2 C3 2.03(18) . . . .
C10 C1 C11 O1 -179.97(11) . . . .
C11 C1 C2 C3 -178.20(10) . . . .
C11 C1 C10 C9 179.05(10) . . . .

_cod_database_fobs_code 3500028
