#------------------------------------------------------------------------------
#$Date: 2017-06-05 18:04:27 +0300 (Mon, 05 Jun 2017) $
#$Revision: 197527 $
#$URL: file:///home/coder/svn-repositories/cod/cif/3/50/00/3500071.cif $
#------------------------------------------------------------------------------
#
# This file is available in the Crystallography Open Database (COD),
# http://www.crystallography.net/
#
# All data on this site have been placed in the public domain by the
# contributors.
#
data_3500071
loop_
_publ_author_name
'Thierry Maris'
_publ_section_references
;
Dolomanov, O.V., Bourhis, L.J., Gildea, R.J, Howard, J.A.K. & Puschmann, H.
 (2009), J. Appl. Cryst. 42, 339-341.

Sheldrick, G.M. (2015). Acta Cryst. A71, 3-8.

Sheldrick, G.M. (2015). Acta Cryst. C71, 3-8.
;
_journal_name_full               'Personal communication to COD'
_journal_year                    2017
_chemical_formula_moiety         'C7 H3 N3'
_chemical_formula_sum            'C7 H3 N3'
_chemical_formula_weight         129.12
_space_group_crystal_system      monoclinic
_space_group_IT_number           15
_space_group_name_Hall           '-I 2ya'
_space_group_name_H-M_alt        'I 1 2/a 1'
_symmetry_space_group_name_Hall  '-I 2ya'
_symmetry_space_group_name_H-M   'I 1 2/a 1'
_atom_sites_solution_hydrogens   difmap
_atom_sites_solution_primary     dual
_audit_creation_date             2017-01-04
_audit_creation_method
;
Olex2 1.2
(compiled 2017.01.04 svn.r3372 for OlexSys, GUI svn.r5289)
;
_cell_angle_alpha                90
_cell_angle_beta                 95.757(3)
_cell_angle_gamma                90
_cell_formula_units_Z            4
_cell_length_a                   7.4485(6)
_cell_length_b                   6.1845(5)
_cell_length_c                   13.4791(13)
_cell_measurement_reflns_used    5877
_cell_measurement_temperature    150
_cell_measurement_theta_max      60.608
_cell_measurement_theta_min      5.678
_cell_volume                     617.79(9)
_computing_cell_refinement       'SAINT v8.37A (Bruker, 2015)'
_computing_data_collection
;
APEX 2 (2013) Bruker AXS Inc., Madison, WI 53719-1173.
;
_computing_data_reduction        'SAINT v8.37A (Bruker, 2015)'
_computing_molecular_graphics    'Olex2 (Dolomanov et al., 2009)'
_computing_publication_material  'Olex2 (Dolomanov et al., 2009)'
_computing_structure_refinement  'ShelXL (Sheldrick, 2015)'
_computing_structure_solution    'XT (Sheldrick, 2015)'
_diffrn_ambient_temperature      150
_diffrn_detector                 'CMOS Area detector'
_diffrn_detector_area_resol_mean 10.24
_diffrn_detector_type            'Bruker Photon 100 CMOS Detector'
_diffrn_measured_fraction_theta_full 0.993
_diffrn_measured_fraction_theta_max 0.990
_diffrn_measurement_device       'k-geometry diffractometer'
_diffrn_measurement_device_type  'Bruker Venture Metaljet'
_diffrn_measurement_method       '\w and \f scans'
_diffrn_radiation_collimation    'Focusing mirrors'
_diffrn_radiation_monochromator  'Helios MX Mirror Optics'
_diffrn_radiation_probe          x-ray
_diffrn_radiation_type           GaK\a
_diffrn_radiation_wavelength     1.34139
_diffrn_reflns_av_R_equivalents  0.0601
_diffrn_reflns_av_unetI/netI     0.0321
_diffrn_reflns_Laue_measured_fraction_full 0.993
_diffrn_reflns_Laue_measured_fraction_max 0.990
_diffrn_reflns_limit_h_max       9
_diffrn_reflns_limit_h_min       -9
_diffrn_reflns_limit_k_max       8
_diffrn_reflns_limit_k_min       -8
_diffrn_reflns_limit_l_max       17
_diffrn_reflns_limit_l_min       -17
_diffrn_reflns_number            6705
_diffrn_reflns_point_group_measured_fraction_full 0.993
_diffrn_reflns_point_group_measured_fraction_max 0.990
_diffrn_reflns_theta_full        53.594
_diffrn_reflns_theta_max         60.682
_diffrn_reflns_theta_min         5.740
_diffrn_source                   'Metal Jet'
_diffrn_source_target            Ga
_diffrn_source_type              'Gallium Liquid Metal Jet Source'
_exptl_absorpt_coefficient_mu    0.478
_exptl_absorpt_correction_T_max  0.7519
_exptl_absorpt_correction_T_min  0.4918
_exptl_absorpt_correction_type   multi-scan
_exptl_absorpt_process_details
;
SADABS-2016/2 (Bruker,2016/2) was used for absorption correction.
wR2(int) was 0.1276 before and 0.0844 after correction.
The Ratio of minimum to maximum transmission is 0.6541.
The \l/2 correction factor is Not present.
;
_exptl_crystal_colour            'clear light colourless'
_exptl_crystal_colour_lustre     clear
_exptl_crystal_colour_modifier   light
_exptl_crystal_colour_primary    colourless
_exptl_crystal_density_diffrn    1.388
_exptl_crystal_description       block
_exptl_crystal_F_000             264
_exptl_crystal_size_max          0.27
_exptl_crystal_size_mid          0.14
_exptl_crystal_size_min          0.1
_exptl_special_details
;
X-ray crystallographic data for I were collected from a single crystal
sample, which was mounted on a loop fiber. Data were collected using
a Bruker Venture diffractometer equipped with a Photon 100 CMOS Detector,
a Helios MX optics and a Kappa goniometer. The crystal-to-detector distance 
was 4.0 cm, and the data collection was carried out in 1024 x 1024 pixel mode.
;
_geom_special_details
;
 All esds (except the esd in the dihedral angle between two l.s. planes)
 are estimated using the full covariance matrix.  The cell esds are taken
 into account individually in the estimation of esds in distances, angles
 and torsion angles; correlations between esds in cell parameters are only
 used when they are defined by crystal symmetry.  An approximate (isotropic)
 treatment of cell esds is used for estimating esds involving l.s. planes.
;
_refine_diff_density_max         0.183
_refine_diff_density_min         -0.272
_refine_diff_density_rms         0.090
_refine_ls_extinction_coef       0.044(7)
_refine_ls_extinction_expression Fc^*^=kFc[1+0.001xFc^2^\l^3^/sin(2\q)]^-1/4^
_refine_ls_extinction_method     'SHELXL-2016/6 (Sheldrick 2016)'
_refine_ls_goodness_of_fit_ref   1.085
_refine_ls_hydrogen_treatment    refall
_refine_ls_matrix_type           full
_refine_ls_number_parameters     54
_refine_ls_number_reflns         704
_refine_ls_number_restraints     0
_refine_ls_restrained_S_all      1.085
_refine_ls_R_factor_all          0.0527
_refine_ls_R_factor_gt           0.0509
_refine_ls_shift/su_max          0.000
_refine_ls_shift/su_mean         0.000
_refine_ls_structure_factor_coef Fsqd
_refine_ls_weighting_details
'w=1/[\s^2^(Fo^2^)+(0.1064P)^2^+0.0565P] where P=(Fo^2^+2Fc^2^)/3'
_refine_ls_weighting_scheme      calc
_refine_ls_wR_factor_gt          0.1375
_refine_ls_wR_factor_ref         0.1412
_reflns_Friedel_coverage         0.000
_reflns_Friedel_fraction_full    .
_reflns_Friedel_fraction_max     .
_reflns_number_gt                645
_reflns_number_total             704
_reflns_special_details
;
 Reflections were merged by SHELXL according to the crystal
 class for the calculation of statistics and refinement.
 
 _reflns_Friedel_fraction is defined as the number of unique
 Friedel pairs measured divided by the number that would be
 possible theoretically, ignoring centric projections and
 systematic absences.
;
_reflns_threshold_expression     'I > 2\s(I)'
_cod_data_source_file            SEJDE01.cif
_cod_data_source_block           sejde01
_cod_depositor_comments
;
The following automatic conversions were performed:

'_diffrn_radiation_probe' value 'X-ray' changed to 'x-ray' according
to the built-in table from CIF Core dictionary named 'cif_core.dic'
version 2.4.1 from 2010-06-29.

Automatic conversion script
Id: cif_fix_values 4973 2017-02-22 13:04:09Z antanas 
;
_cod_database_code               3500071
_shelx_shelxl_version_number     2016/6
_shelx_space_group_comment
;
The symmetry employed for this shelxl refinement is uniquely defined
by the following loop, which should always be used as a source of
symmetry information in preference to the above space-group names.
They are only intended as comments.
;
_shelx_estimated_absorpt_t_max   0.954
_shelx_estimated_absorpt_t_min   0.882
_olex2_refinement_description
;
;
_shelx_res_file
;
TITL sejde01_a.res in I2/a
    sejde01.res
    created by SHELXL-2016/6 at 12:19:18 on 04-Jan-2017
REM Old TITL SEJDE01 in I2/a
REM SHELXT solution in I2/a
REM R1 0.149, Rweak 0.004, Alpha 0.051, Orientation as input
REM Formula found by SHELXT: C7 N3
CELL 1.34139 7.4485 6.1845 13.4791 90 95.757 90
ZERR 4 0.0006 0.0005 0.0013 0 0.003 0
LATT 2
SYMM 0.5-X,+Y,-Z
SFAC C H N
DISP C 0.014 0.007 57.748
DISP H -0 0 0.648
DISP N 0.025 0.014 110.512
UNIT 28 12 12
EQIV $1 1-X,0.5+Y,0.5-Z

L.S. 30
PLAN  10
SIZE 0.1 0.14 0.27
TEMP -123
HTAB C1 N2_$1
HTAB
BOND $H
list 4
fmap 2
ACTA
OMIT 5 5 0
REM <olex2.extras>
REM <HklSrc "%.\\SEJDE01.hkl">
REM </olex2.extras>

WGHT    0.106400    0.056500
EXTI    0.043573
FVAR       1.21848
N1    3    0.250000    0.601647    0.500000    10.50000    0.05287    0.02700 =
         0.04695    0.00000    0.00890    0.00000
C1    1    0.311786    0.490790    0.425449    11.00000    0.05138    0.02928 =
         0.04370    0.00192    0.00944   -0.00131
C2    1    0.316596    0.264402    0.423547    11.00000    0.04967    0.03076 =
         0.04260   -0.00136    0.00688    0.00116
N2    3    0.457560    0.058205    0.283746    11.00000    0.07623    0.04420 =
         0.05549   -0.00470    0.01987    0.00835
C3    1    0.250000    0.147471    0.500000    10.50000    0.05279    0.02588 =
         0.04528    0.00000    0.00554    0.00000
C4    1    0.393357    0.151018    0.344548    11.00000    0.05938    0.03210 =
         0.04626    0.00033    0.01076    0.00222
H1    2    0.355071    0.566141    0.373350    11.00000    0.04853
H3    2    0.250000   -0.013529    0.500000    10.50000    0.04084
HKLF 4




REM  sejde01_a.res in I2/a
REM R1 =  0.0509 for     645 Fo > 4sig(Fo)  and  0.0527 for all     704 data
REM     54 parameters refined using      0 restraints

END

WGHT      0.1063      0.0564

REM Instructions for potential hydrogen bonds
HTAB C1 N2_$1

REM Highest difference peak  0.183,  deepest hole -0.272,  1-sigma level  0.090
Q1    1   0.3277 -0.0113  0.1986  11.00000  0.05    0.18
Q2    1   0.2127  0.6010  0.2862  11.00000  0.05    0.18
Q3    1   0.1429  0.4908  0.3675  11.00000  0.05    0.18
Q4    1   0.5129  0.3688  0.4889  11.00000  0.05    0.17
Q5    1   0.4604  0.5391  0.5524  11.00000  0.05    0.17
Q6    1   0.7047  0.1347  0.3232  11.00000  0.05    0.17
Q7    1   0.3817 -0.1205  0.6020  11.00000  0.05    0.17
Q8    1   0.4344 -0.1422  0.5313  11.00000  0.05    0.17
Q9    1   0.2500  0.7500  0.2500  10.50000  0.05    0.17
Q10   1   0.2459  0.6509  0.2401  11.00000  0.05    0.17
;
_shelx_res_checksum              25001
_shelx_hkl_file
;
   0   0   2 1278.57   96.49
   0   0   2 1335.47   96.49
   0   0   2 1154.48   96.49
   0   0   2 1516.25   96.49
   0   0  -2 1535.15   96.49
   0   0   4  481.25   34.60
   0   0   4  496.35   34.60
   0   0  -4  479.65   34.60
   0   0  -4  496.25   34.60
   0   0  -6   14.20    1.20
   0   0   6   16.20    1.10
   0   0   6   15.20    1.20
   0   0   6   14.50    1.10
   0   0   6   13.50    1.20
   0   0  -6   14.10    1.20
   0   0  -6   14.30    1.20
   0   0  -8   53.29    3.80
   0   0  -8   54.39    3.80
   0   0  -8   43.60    3.80
   0   0  -8   48.70    3.80
   0   0   8   51.79    3.80
   0   0   8   50.69    3.80
   0   0  -8   55.29    3.80
   0   0   8   55.19    3.70
   0   0   8   47.10    3.70
   0   0   8   52.89    3.90
   0   0  10  100.99    7.80
   0   0 -10  109.79    8.10
   0   0  10  118.89    8.00
   0   0 -10  115.39    7.90
   0   0 -10  116.69    7.90
   0   0  10  115.09    8.00
   0   0  10  109.39    7.90
   0   0 -10  104.69    7.90
   0   0  10   96.49    7.90
   0   0  12  485.75   33.90
   0   0  12  506.15   34.00
   0   0 -12  453.75   33.80
   0   0 -12  458.95   33.90
   0   0 -14  720.03   52.69
   0   0  14  800.92   52.79
   0   0  14  716.93   52.59
   0   0 -14  694.53   52.69
   0   0  14  777.12   52.79
   0   0  16    0.50    0.60
   0   0 -16    1.00    0.60
   0   0 -16    2.30    0.90
   0   0  16    2.00    1.10
   0  -1   1 1025.40   64.59
   0  -1  -1  907.81   64.59
   0  -1   1  857.41   64.59
   0  -1  -1  987.30   64.59
   0  -1   1  872.71   64.59
   0   1   1  823.52   64.59
   0   1   1  880.41   64.59
   0   1   1  779.82   64.59
   0   1  -1 1033.00   64.59
   0   1  -1  981.60   64.59
   0   1  -1  894.61   64.59
   0  -1   3 2860.11  188.58
   0  -1   3 2640.34  188.68
   0  -1  -3 2924.01  188.68
   0   1   3 2794.62  188.58
   0   1   3 2535.05  188.68
   0   1  -3 2552.64  188.58
   0   1  -3 2739.53  188.58
   0   1   3 2584.74  188.58
   0   1  -3 2368.26  188.68
   0  -1   5 2822.42  195.28
   0  -1   5 2376.16  195.28
   0  -1  -5 3075.59  195.28
   0  -1   5 2834.12  195.28
   0  -1  -5 2883.71  195.28
   0  -1   5 3094.79  195.28
   0   1   5 2731.03  195.28
   0   1   5 2770.62  195.28
   0   1  -5 2867.61  195.28
   0   1  -5 2683.33  195.28
   0   1   5 2523.85  195.28
   0   1  -5 2456.45  195.28
   0  -1   7   23.20    1.70
   0  -1   7   24.60    1.60
   0  -1   7   23.20    1.70
   0  -1   7   19.40    1.90
   0  -1   7   19.90    1.70
   0  -1  -7   22.90    1.80
   0  -1   7   20.50    1.80
   0  -1  -7   24.60    1.70
   0  -1  -7   20.10    1.70
   0  -1  -7   23.60    1.70
   0  -1  -7   19.30    1.70
   0   1   7   21.20    1.60
   0   1   7   21.60    1.70
   0   1   7   22.30    1.60
   0   1   7   23.90    1.70
   0   1  -7   20.50    1.70
   0  -1   9  135.59    9.70
   0  -1   9  128.19    9.70
   0  -1  -9  141.59    9.80
   0  -1   9  139.29    9.60
   0  -1   9  138.09    9.80
   0  -1  -9  136.29    9.70
   0  -1   9  133.09    9.60
   0  -1  -9  146.29    9.70
   0  -1  -9  128.89    9.70
   0  -1  -9  149.99    9.70
   0  -1   9  134.69    9.80
   0   1   9  131.09    9.60
   0   1  -9  139.89    9.80
   0   1   9  128.29    9.70
   0   1   9  125.79    9.60
   0   1   9  141.19    9.70
   0   1   9  127.59    9.70
   0   1  -9  135.69    9.70
   0   1  -9  121.39    9.70
   0  -1 -11  170.58   13.60
   0  -1 -11  176.18   13.60
   0  -1  11  205.18   13.80
   0  -1  11  187.68   13.70
   0  -1 -11  202.98   13.60
   0  -1 -11  186.08   13.70
   0  -1  11  179.48   13.80
   0  -1 -11  189.08   13.60
   0   1 -11  188.58   13.60
   0   1  11  215.68   13.70
   0   1  11  194.78   13.70
   0   1 -11  184.18   13.70
   0   1 -11  183.98   13.60
   0   1  11  196.98   13.70
   0  -1  13    4.80    1.10
   0  -1  13    3.80    0.70
   0  -1 -13    3.90    1.00
   0  -1 -13    3.50    0.70
   0   1  13    6.00    1.30
   0   1 -13    5.50    0.90
   0   1 -13    3.00    0.90
   0  -1 -15   34.40    2.90
   0  -1 -15   33.60    3.00
   0  -1  15   38.00    3.10
   0  -1  15   35.80    2.90
   0  -1 -15   32.90    2.90
   0   1 -15   34.50    2.90
   0   1 -15   37.20    2.90
   0   1  15   40.00    2.90
   0   1  15   36.60    2.80
   0   1  15   41.50    4.10
   0  -1 -17    5.20    1.00
   0  -1  17    5.70    1.20
   0  -1 -17    1.90    0.60
   0   1  17    3.60    0.80
   0   1 -17    3.20    0.60
   0   1 -17    2.70    1.20
   0  -2   0 1130.39   80.09
   0   2   0 1011.80   80.09
   0   2   0 1201.98   79.99
   0   2   0 1219.68   79.99
   0   2   0 1112.29   80.09
   0   2   0 1111.19   80.09
   0  -2   2  521.85   36.50
   0  -2   2  538.05   36.50
   0  -2   2  485.35   36.50
   0  -2   2  487.85   36.50
   0   2  -2  549.05   36.50
   0   2   2  521.05   36.50
   0   2   2  524.85   36.50
   0   2  -2  483.85   36.50
   0   2  -2  520.75   36.50
   0   2  -2  518.55   36.50
   0  -2  -4  651.83   44.40
   0  -2   4  652.43   44.30
   0  -2   4  679.73   44.50
   0  -2   4  589.94   44.40
   0  -2  -4  631.14   44.40
   0  -2   4  569.14   44.40
   0  -2  -4  670.63   44.40
   0   2  -4  595.24   44.30
   0   2  -4  628.94   44.30
   0   2  -4  589.34   44.30
   0   2   4  609.54   44.30
   0   2  -4  611.64   44.40
   0   2   4  655.93   44.30
   0   2   4  624.84   44.30
   0  -2   6   56.59    4.60
   0  -2   6   62.89    4.50
   0  -2  -6   57.69    4.50
   0  -2  -6   67.69    4.60
   0  -2  -6   57.19    4.50
   0  -2   6   57.19    4.60
   0  -2  -6   62.69    4.50
   0  -2   6   70.69    4.40
   0  -2  -6   62.79    4.50
   0  -2   6   57.39    4.40
   0  -2  -6   71.09    4.50
   0   2   6   56.49    4.50
   0   2  -6   60.29    4.50
   0   2  -6   65.49    4.50
   0   2   6   62.79    4.50
   0   2   6   57.99    4.40
   0  -2  -8    0.60    0.40
   0  -2   8    0.60    0.60
   0  -2  -8    0.90    0.50
   0  -2   8   -0.20    0.40
   0  -2   8   -0.30    1.00
   0  -2   8    0.40    0.40
   0  -2  -8    0.50    0.40
   0  -2  -8    0.10    0.60
   0  -2  -8    0.30    0.60
   0  -2   8    1.10    0.70
   0  -2  -8    0.40    0.50
   0  -2   8    0.30    0.50
   0   2   8    0.50    0.30
   0   2   8   -0.30    0.40
   0   2   8    0.40    0.40
   0   2   8    0.30    0.40
   0   2  -8    0.40    0.50
   0   2  -8    0.30    0.50
   0  -2 -10   51.89    4.00
   0  -2 -10   47.70    3.80
   0  -2  10   48.70    4.00
   0  -2  10   45.50    3.90
   0  -2  10   53.69    4.10
   0  -2 -10   51.29    3.90
   0  -2 -10   48.90    3.90
   0  -2 -10   56.19    3.80
   0  -2 -10   56.49    3.90
   0   2 -10   48.50    4.10
   0   2 -10   51.09    3.90
   0   2  10   59.29    3.90
   0   2  10   52.19    3.90
   0  -2  12   47.30    3.50
   0  -2  12   37.10    3.50
   0  -2 -12   44.10    3.20
   0  -2 -12   43.50    3.20
   0  -2 -12   41.70    3.30
   0  -2 -12   42.30    3.40
   0  -2  12   37.00    3.20
   0  -2 -12   39.80    3.30
   0  -2 -12   40.30    3.10
   0   2  12   48.20    3.30
   0   2 -12   39.10    3.10
   0   2 -12   39.70    3.20
   0  -2  14    9.50    1.30
   0  -2 -14   11.30    1.30
   0  -2  14   11.30    1.50
   0  -2 -14   11.40    1.40
   0   2  14   11.80    1.20
   0   2 -14   10.80    1.40
   0   2 -14   10.00    1.20
   0   2  14   11.40    1.10
   0  -2 -16   -1.10    0.70
   0  -2  16   -0.60    0.80
   0  -2  16    0.90    0.90
   0  -2 -16   -0.40    0.50
   0   2  16   -0.10    0.60
   0   2  16   -0.60    0.50
   0   2 -16    0.30    0.50
   0  -3  -1 1337.97   89.59
   0  -3   1 1264.67   89.69
   0  -3   1 1193.38   89.59
   0  -3  -1 1149.78   89.59
   0  -3  -1 1215.98   89.59
   0  -3   1 1238.78   89.59
   0  -3   1 1330.07   89.59
   0  -3  -1 1249.57   89.59
   0  -3  -1 1159.78   89.59
   0  -3  -1 1194.08   89.59
   0  -3   1 1206.88   89.59
   0   3   1 1241.78   89.59
   0   3   1 1366.46   89.59
   0   3  -1 1215.58   89.59
   0   3   1 1419.86   89.59
   0   3  -1 1456.15   89.59
   0   3  -1 1296.17   89.59
   0   3   1 1246.08   89.59
   0  -3  -3   47.80    3.40
   0  -3   3   44.30    3.40
   0  -3   3   43.60    3.40
   0  -3  -3   47.00    3.30
   0  -3  -3   44.40    3.40
   0  -3   3   42.20    3.50
   0  -3   3   45.50    3.50
   0  -3   3   46.30    3.40
   0  -3   3   42.90    3.40
   0  -3   3   41.70    3.40
   0  -3  -3   44.40    3.40
   0  -3  -3   45.50    3.30
   0  -3  -3   48.10    3.40
   0   3   3   49.10    3.30
   0   3  -3   48.50    3.30
   0   3   3   50.99    3.30
   0   3   3   45.00    3.30
   0  -3  -5  117.89    8.70
   0  -3   5  117.29    8.70
   0  -3  -5  117.39    8.70
   0  -3   5  122.59    8.70
   0  -3   5  122.19    8.70
   0  -3   5  126.69    8.80
   0  -3  -5  131.89    8.70
   0  -3  -5  125.29    8.70
   0  -3  -5  130.79    8.70
   0  -3   5  110.99    8.80
   0  -3   5  107.89    8.80
   0  -3  -5  130.29    8.80
   0   3   5  115.09    8.70
   0   3   5  113.49    8.70
   0   3  -5  124.59    8.80
   0   3  -5  123.99    8.60
   0  -3   7  153.38   10.70
   0  -3  -7  151.28   10.50
   0  -3  -7  157.68   10.40
   0  -3  -7  140.19   10.50
   0  -3   7  137.79   10.60
   0  -3   7  137.59   10.40
   0  -3  -7  165.78   10.50
   0  -3  -7  150.08   10.40
   0  -3  -7  145.29   10.50
   0   3  -7  147.39   10.40
   0   3   7  125.19   10.40
   0   3   7  142.69   10.40
   0   3  -7  152.98   10.60
   0   3   7  131.29   10.40
   0  -3   9  191.88   14.90
   0  -3  -9  207.58   14.80
   0  -3  -9  195.68   14.90
   0  -3  -9  217.08   14.90
   0  -3   9  210.28   15.00
   0  -3  -9  228.88   14.80
   0  -3  -9  195.88   14.90
   0  -3   9  194.88   15.00
   0  -3  -9  227.98   14.80
   0   3   9  194.08   14.80
   0   3  -9  212.28   14.80
   0  -3 -11   14.30    1.60
   0  -3 -11   14.70    1.30
   0  -3 -11   16.60    1.40
   0  -3  11   16.10    1.70
   0  -3 -11   13.50    1.50
   0  -3  11   14.20    1.80
   0  -3 -11   10.90    1.50
   0   3  11   15.30    1.40
   0   3 -11   14.40    1.40
   0  -3 -13  110.09    7.50
   0  -3 -13   96.89    7.70
   0  -3  13  110.89    7.80
   0  -3 -13   99.59    7.70
   0  -3  13  110.99    7.90
   0  -3 -13   98.29    7.50
   0   3  13  109.99    7.50
   0   3 -13   92.49    7.50
   0   3 -13   98.09    7.60
   0   3  13  111.49    7.60
   0  -3 -15    0.90    0.50
   0  -3  15    1.30    0.70
   0  -3 -15    1.20    0.50
   0   3  15    1.80    0.80
   0   3  15    1.60    0.50
   0   3 -15    0.70    1.20
   0  -4   0   45.60    3.40
   0  -4   0   46.10    3.40
   0  -4   0   44.60    3.30
   0  -4   0   41.80    3.40
   0  -4   0   44.20    3.40
   0   4   0   47.60    3.40
   0   4   0   48.50    3.40
   0  -4   2   57.79    4.60
   0  -4   2   53.79    4.20
   0  -4  -2   59.09    4.20
   0  -4   2   57.89    4.30
   0  -4  -2   53.29    4.40
   0  -4   2   64.29    4.50
   0  -4  -2   57.79    4.30
   0  -4   2   60.39    4.30
   0  -4  -2   59.29    4.20
   0  -4  -2   53.79    4.30
   0  -4   2   56.59    4.50
   0  -4   2   54.99    4.30
   0   4   2   59.69    4.20
   0   4  -2   53.89    4.20
   0   4  -2   62.69    4.30
   0  -4  -4  177.78   12.00
   0  -4  -4  174.68   12.00
   0  -4   4  151.58   12.10
   0  -4  -4  176.28   12.00
   0  -4  -4  167.28   12.00
   0  -4  -4  167.28   12.00
   0  -4   4  152.28   12.00
   0  -4   4  159.98   12.20
   0  -4   4  159.48   12.10
   0  -4   4  157.58   12.10
   0  -4   4  190.18   12.00
   0  -4   4  153.88   12.10
   0  -4  -4  182.48   12.00
   0   4   4  169.18   11.90
   0   4  -4  178.78   12.10
   0   4   4  162.08   12.00
   0   4  -4  171.78   11.90
   0   4   4  159.28   11.90
   0  -4  -6 1904.91  130.29
   0  -4  -6 1891.81  130.29
   0  -4   6 1717.23  130.49
   0  -4   6 1767.02  130.39
   0  -4  -6 2010.80  130.39
   0  -4  -6 2067.39  130.29
   0  -4   6 1838.82  130.49
   0  -4   6 1940.71  130.59
   0  -4  -6 1626.54  130.39
   0  -4  -6 1775.22  130.39
   0   4   6 1656.33  130.29
   0   4  -6 1950.60  130.49
   0   4  -6 1951.50  130.29
   0   4   6 1666.33  130.29
   0  -4  -8  717.03   46.40
   0  -4  -8  710.03   46.40
   0  -4  -8  611.64   46.40
   0  -4   8  601.84   46.50
   0  -4   8  684.63   46.60
   0  -4   8  563.94   46.40
   0  -4  -8  670.53   46.30
   0  -4  -8  595.34   46.40
   0  -4  -8  701.43   46.40
   0   4  -8  671.73   46.30
   0  -4 -10   -0.10    0.60
   0  -4  10   -1.40    0.80
   0  -4  10    0.80    1.10
   0  -4 -10    0.20    0.90
   0  -4 -10    0.50    0.50
   0  -4 -10   -0.20    0.60
   0  -4  10    0.60    0.90
   0  -4 -10    0.10    0.50
   0   4  10   -0.60    0.90
   0   4 -10    0.20    0.80
   0   4  10    0.70    0.50
   0  -4  12   -0.20    0.80
   0  -4 -12    0.20    0.50
   0  -4  12    1.40    0.90
   0  -4 -12    0.00    0.60
   0  -4 -12    1.50    0.70
   0  -4  12    2.10    1.00
   0  -4 -12    0.90    0.60
   0   4  12    0.00    0.50
   0   4 -12    1.00    0.90
   0   4  12    0.90    1.00
   0  -4 -14   10.50    1.20
   0  -4 -14    9.90    1.30
   0  -4  14   12.00    1.50
   0  -4  14    9.70    1.30
   0   4 -14    8.50    1.10
   0   4  14    9.50    1.00
   0  -5   1   45.60    3.70
   0  -5   1   48.80    3.80
   0  -5   1   47.80    3.70
   0  -5   1   52.99    3.80
   0  -5   1   52.19    3.90
   0  -5  -1   50.99    3.80
   0  -5  -1   50.09    3.70
   0  -5  -1   49.40    3.60
   0  -5  -1   45.50    3.70
   0  -5   1   51.49    3.80
   0  -5  -1   46.90    3.70
   0  -5   1   42.10    4.00
   0   5  -1   55.69    3.70
   0   5   1   49.50    3.70
   0  -5  -3   33.20    2.70
   0  -5   3   30.20    3.10
   0  -5   3   32.50    2.80
   0  -5   3   40.30    2.80
   0  -5  -3   38.00    2.90
   0  -5  -3   32.50    2.80
   0  -5   3   34.00    2.80
   0  -5  -3   35.70    2.70
   0  -5   3   36.00    3.00
   0  -5  -3   39.60    2.70
   0  -5  -3   36.20    2.70
   0  -5   3   32.90    2.90
   0  -5   3   37.20    2.90
   0   5  -3   37.60    2.70
   0   5  -3   33.20    3.00
   0  -5  -5  220.08   15.50
   0  -5  -5  225.18   15.60
   0  -5  -5  210.98   15.70
   0  -5  -5  221.88   15.60
   0  -5   5  203.88   15.70
   0  -5  -5  205.78   15.60
   0  -5   5  204.48   15.90
   0  -5   5  220.98   15.80
   0   5   5  228.58   15.50
   0   5  -5  232.58   15.50
   0  -5  -7  445.36   30.80
   0  -5   7  474.45   31.00
   0  -5  -7  441.46   30.70
   0  -5   7  424.06   31.10
   0  -5  -7  407.46   30.90
   0  -5  -7  449.36   30.80
   0  -5  -7  380.36   30.80
   0   5   7  430.66   30.70
   0   5  -7  435.06   30.70
   0  -5   9   43.80    3.90
   0  -5  -9   51.79    3.50
   0  -5  -9   47.30    3.50
   0  -5   9   42.80    3.90
   0  -5  -9   42.80    3.60
   0  -5  -9   43.40    3.70
   0  -5  -9   49.70    3.50
   0   5  -9   45.10    3.50
   0   5   9   45.30    3.50
   0  -5  11    1.20    0.90
   0  -5 -11    0.00    0.60
   0  -5 -11   -0.50    0.50
   0  -5 -11    0.40    0.70
   0  -5 -11   -0.10    0.60
   0   5 -11   -1.20    1.00
   0   5  11    0.40    0.50
   0  -5 -13   21.30    1.90
   0  -5  13   20.10    2.30
   0  -5 -13   23.10    2.20
   0  -5 -13   20.20    2.00
   0   5  13   25.20    1.80
   0   5 -13   23.40    1.80
   0  -6   0    9.20    1.40
   0  -6   0    9.10    1.30
   0  -6   0    7.70    1.20
   0  -6   0    8.40    1.20
   0  -6   0    8.50    1.50
   0  -6   0    9.40    1.30
   0   6   0    8.00    1.30
   0  -6   2    6.00    1.40
   0  -6   2    2.50    0.90
   0  -6   2    2.80    0.70
   0  -6   2    3.30    0.70
   0  -6  -2    5.30    1.00
   0  -6   2    1.20    1.50
   0  -6  -2    5.40    1.00
   0  -6  -2    5.10    1.10
   0  -6  -2    4.00    1.00
   0  -6  -2    2.80    0.80
   0  -6   2    5.40    1.20
   0   6   2    4.60    0.80
   0  -6   4   57.19    5.50
   0  -6  -4   67.19    5.10
   0  -6  -4   64.39    5.00
   0  -6  -4   72.09    4.90
   0  -6   4   62.09    5.10
   0  -6  -4   68.99    5.00
   0  -6   4   60.19    5.30
   0   6   4   70.99    5.10
   0   6  -4   71.09    4.90
   0  -6  -6   36.90    3.40
   0  -6  -6   50.79    3.40
   0  -6  -6   48.40    3.40
   0  -6  -6   39.90    3.50
   0  -6   6   39.50    3.80
   0   6  -6   46.20    3.30
   0  -6  -8    2.50    0.70
   0  -6   8    1.70    1.10
   0  -6  -8    1.90    0.60
   0  -6  -8    0.80    0.60
   0   6   8    3.20    1.10
   0   6  -8    0.80    0.90
   0  -6 -10   25.80    2.40
   0  -6 -10   27.90    2.50
   0  -6  10   28.20    2.60
   0   6  10   30.30    2.40
   0  -7  -1   34.00    2.90
   0  -7  -1   33.50    3.30
   0  -7  -1   36.20    3.10
   0  -7   1   32.70    2.90
   0  -7  -1   35.00    3.00
   0  -7   1   33.50    3.20
   0  -7   1   33.80    3.10
   0  -7  -1   34.40    2.80
   0  -7   1   34.80    3.10
   0   7  -1   39.40    2.70
   0  -7  -3   -0.10    0.80
   0  -7   3    0.40    0.70
   0  -7  -3    0.00    0.50
   0  -7  -3    0.00    0.70
   0  -7  -3   -1.00    1.00
   0  -7  -3    1.20    1.00
   0   7  -3    0.50    0.70
   0   7   3    2.80    1.10
   0  -7  -5   12.20    1.70
   0  -7  -5   12.70    1.40
   0  -7  -5   12.50    1.50
   0   7  -5   14.20    1.40
   0   7   5   12.90    1.40
   0  -7  -7  198.08   14.40
   0  -7   7  181.78   14.30
   0  -7  -7  186.58   14.40
   0   7   7  229.28   14.30
   0  -8   0  143.39   10.90
   0  -8   0  139.99   10.70
   0   8   0  159.68   10.60
  -1   0 -17   -0.10    0.40
   1   0  17   -0.30    0.70
  -1   0 -17   -0.30    0.60
  -1   0 -15   -0.60    0.60
   1   0  15    0.20    0.70
  -1   0 -15    0.90    0.80
   1   0  15    0.80    1.00
   1   0  13    0.20    1.00
  -1   0 -13    0.00    0.60
  -1   0 -13   -1.40    0.80
   1   0  13   -0.60    0.60
   1   0  13   -0.10    0.60
  -1   0 -13   -0.70    0.50
  -1   0 -11   -0.40    0.70
   1   0  11   -0.60    0.80
   1   0  11   -0.10    0.50
  -1   0 -11   -0.40    0.50
   1   0  11    1.00    0.50
   1   0   9    0.10    0.50
  -1   0  -9    0.00    0.50
  -1   0  -9   -0.30    0.60
   1   0   9   -0.40    0.30
   1   0   9   -0.50    0.40
   1   0   9    0.10    0.80
  -1   0  -9   -0.50    0.50
  -1   0  -7    0.30    0.40
  -1   0  -7   -0.60    0.50
   1   0   7    0.20    0.20
   1   0   7    0.40    0.30
   1   0   7    0.20    0.20
   1   0   7    0.30    0.20
   1   0   7   -0.10    0.40
   1   0   7    0.60    0.60
  -1   0  -7    0.00    0.30
  -1   0  -5    0.10    0.30
   1   0   5    0.40    0.20
  -1   0  -5    0.00    0.20
  -1   0  -5    0.40    0.20
   1   0   5   -0.10    0.20
   1   0   5    0.20    0.20
   1   0   3    2.90    0.40
  -1   0  -3    3.60    0.40
  -1   0  -3    2.90    0.40
   1   0   3    3.70    0.40
   1   0   1    0.00    0.10
   1   0   1    0.10    0.10
  -1   0  -1    0.10    0.10
  -1   0  -1   -0.10    0.10
   1   0   1    0.10    0.10
   1   0   1   -0.10    0.10
  -1   0   1    0.90    0.10
   1   0  -1    1.20    0.10
   1   0  -1    1.40    0.10
  -1   0   1    1.20    0.20
  -1   0   3    0.30    0.20
   1   0  -3    0.40    0.20
   1   0  -3    0.40    0.20
  -1   0   3    0.20    0.20
   1   0  -3    0.20    0.20
   1   0  -3    0.10    0.10
  -1   0   3    0.20    0.10
  -1   0   5    0.00    0.10
  -1   0   5    0.10    0.20
  -1   0   5    0.00    0.20
   1   0  -5   -0.10    0.20
  -1   0   5    0.30    0.20
   1   0  -5    0.10    0.30
   1   0  -5    0.10    0.10
  -1   0   7   -0.20    0.20
  -1   0   7    0.00    0.40
   1   0  -7   -0.30    0.60
  -1   0   7    0.00    0.20
  -1   0   7    0.80    0.50
   1   0  -7    0.60    0.50
   1   0  -7   -0.40    0.30
   1   0  -7    1.10    0.50
  -1   0   7    0.00    0.30
   1   0  -7    0.10    0.30
   1   0  -7    0.40    0.50
   1   0  -9    1.20    0.70
  -1   0   9   -0.20    0.40
   1   0  -9    0.20    0.60
  -1   0   9    0.10    0.30
   1   0  -9    0.20    0.60
  -1   0   9   -0.20    0.30
  -1   0   9    1.10    0.40
  -1   0   9    0.70    0.60
   1   0  -9   -0.70    0.80
   1   0  -9    0.00    0.50
   1   0  -9    0.50    0.60
  -1   0  11    0.00    0.70
  -1   0  11   -0.10    0.50
   1   0 -11   -0.10    0.60
  -1   0  11    0.30    0.60
   1   0 -11    0.60    0.70
  -1   0  13    0.30    0.60
   1   0 -13    1.30    0.80
   1   0 -13   -0.10    0.50
  -1   0  13    1.00    0.80
  -1   0  15    1.00    0.60
   1   0 -15    0.50    0.50
  -1   0  15   -0.30    1.00
   1   0 -15    0.80    0.80
  -1   0  17    0.90    0.70
   1   0 -17   -0.10    0.70
  -1   0  17   -0.10    1.10
   1   0 -17    0.30    0.90
  -1  -1 -16    1.30    0.70
   1  -1  16    1.00    0.90
   1  -1  16    1.70    0.70
  -1   1 -16    0.90    0.60
   1   1  16    1.20    0.70
   1   1  16    1.60    0.80
   1  -1  14  135.19    9.80
  -1  -1 -14  125.59    9.70
   1  -1  14  148.59   10.00
  -1  -1 -14  130.79    9.80
   1   1  14  135.89    9.70
  -1   1 -14  123.19    9.70
   1   1  14  134.99    9.90
   1   1  14  148.59    9.80
  -1   1 -14  128.09    9.70
   1  -1  12    5.40    1.20
   1  -1  12    5.10    1.00
  -1  -1 -12    6.20    0.90
  -1  -1 -12    6.10    1.10
  -1  -1 -12    5.60    0.90
   1   1  12    4.50    0.70
   1   1  12    5.60    0.90
   1   1  12    6.50    1.30
  -1   1 -12    5.40    0.90
  -1   1 -12    6.00    1.00
   1  -1  10   46.80    3.40
   1  -1  10   46.40    3.50
  -1  -1 -10   39.60    3.30
   1  -1  10   42.90    3.30
  -1  -1 -10   43.40    3.30
   1  -1  10   43.40    3.40
  -1  -1 -10   47.50    3.30
  -1  -1 -10   50.29    3.40
   1  -1  10   42.20    3.50
   1   1  10   40.30    3.30
   1   1  10   40.40    3.30
   1   1  10   39.90    3.30
  -1   1 -10   46.90    3.30
   1   1  10   40.90    3.20
   1   1  10   45.70    3.50
   1   1  10   50.29    3.40
  -1   1 -10   40.40    3.30
  -1   1 -10   45.20    3.50
   1  -1   8  139.89   11.50
   1  -1   8  165.08   11.50
   1  -1   8  168.88   11.40
   1  -1   8  175.98   11.30
  -1  -1  -8  175.68   11.40
  -1  -1  -8  159.28   11.40
   1  -1   8  157.68   11.50
   1  -1   8  159.88   11.40
  -1  -1  -8  179.48   11.50
  -1  -1  -8  149.59   11.40
   1   1   8  165.18   11.40
   1   1   8  151.68   11.50
   1   1   8  153.38   11.40
  -1   1  -8  146.19   11.40
   1   1   8  149.39   11.40
   1   1   8  150.68   11.30
   1  -1   6   41.60    2.60
   1  -1   6   32.70    2.60
  -1  -1  -6   35.30    2.60
  -1  -1  -6   38.30    2.70
   1  -1   6   32.40    2.70
   1  -1   6   34.00    2.80
  -1  -1  -6   42.50    2.70
   1  -1   6   39.30    2.70
   1  -1   6   40.30    2.70
   1  -1   6   32.00    2.80
  -1  -1  -6   34.80    2.70
   1   1   6   31.30    2.70
   1   1   6   35.90    2.70
  -1   1  -6   35.40    2.60
  -1   1  -6   33.40    2.70
   1   1   6   37.20    2.60
   1  -1   4  806.12   55.39
  -1  -1  -4  776.32   55.39
   1  -1   4  857.61   55.39
  -1  -1  -4  704.73   55.39
   1  -1   4  903.41   55.29
   1   1   4  687.33   55.39
   1   1   4  790.02   55.39
   1   1   4  783.62   55.39
  -1   1  -4  763.62   55.39
  -1   1  -4  667.73   55.39
  -1   1  -4  863.01   55.39
   1  -1   2 2550.64  174.28
  -1  -1  -2 2677.93  174.38
  -1  -1  -2 2476.05  174.38
  -1   1  -2 2436.76  174.38
   1   1   2 2287.97  174.38
  -1   1  -2 2344.97  174.38
  -1   1  -2 2400.26  174.28
  -1   1  -2 2361.86  174.28
   1   1   2 2644.84  174.38
  -1  -1   0 3000.80  207.38
  -1  -1   0 2888.41  207.38
   1  -1   0 3112.49  207.38
  -1   1   0 2692.23  207.38
  -1   1   0 2765.12  207.38
  -1   1   0 2471.25  207.38
   1   1   0 3326.47  207.38
   1   1   0 2997.60  207.38
   1   1   0 3128.59  207.38
  -1  -1   2 1012.60   75.39
  -1  -1   2 1068.39   75.39
  -1  -1   2 1218.58   75.39
   1  -1  -2 1141.99   75.39
  -1  -1   2  911.51   75.39
  -1  -1   2 1053.39   75.39
   1   1  -2 1113.89   75.39
   1   1  -2  932.51   75.39
  -1   1   2  991.70   75.39
  -1   1   2 1172.98   75.39
   1   1  -2 1107.99   75.39
  -1   1   2 1201.48   75.39
   1   1  -2  923.51   75.39
   1  -1  -4   69.09    4.90
  -1  -1   4   72.79    4.90
  -1  -1   4   71.59    4.90
   1  -1  -4   74.29    4.90
   1   1  -4   60.69    4.90
   1   1  -4   64.29    4.80
  -1   1   4   62.59    4.80
   1   1  -4   74.89    4.80
   1   1  -4   65.59    4.90
   1   1  -4   60.39    4.90
  -1   1   4   72.49    4.90
   1  -1  -6  529.95   33.90
   1  -1  -6  545.05   33.90
  -1  -1   6  489.95   33.80
   1  -1  -6  469.55   33.80
   1  -1  -6  445.96   33.90
  -1  -1   6  414.26   33.90
   1  -1  -6  429.96   33.90
   1  -1  -6  516.85   33.90
  -1  -1   6  444.46   33.80
  -1  -1   6  474.55   33.80
  -1  -1   6  484.75   34.00
   1   1  -6  541.95   33.90
  -1   1   6  491.45   33.80
   1   1  -6  468.55   33.90
  -1   1   6  449.06   33.80
   1   1  -6  441.96   33.80
   1   1  -6  479.05   33.80
   1  -1  -8  162.78   11.10
  -1  -1   8  146.69   11.10
  -1  -1   8  146.99   11.00
   1  -1  -8  163.98   11.00
   1  -1  -8  150.88   11.10
  -1  -1   8  161.28   11.10
  -1  -1   8  147.69   11.00
  -1  -1   8  148.79   11.00
   1  -1  -8  155.98   11.10
  -1  -1   8  143.89   11.00
   1  -1  -8  161.88   11.10
   1   1  -8  167.18   11.00
  -1   1   8  169.68   11.00
  -1   1   8  146.79   11.00
   1   1  -8  152.88   11.10
  -1   1   8  149.59   11.10
  -1   1   8  152.68   11.00
   1   1  -8  147.09   11.10
  -1  -1  10    0.20    0.60
  -1  -1  10    0.80    0.90
   1  -1 -10    0.30    0.50
   1  -1 -10    0.30    0.60
   1  -1 -10   -0.20    0.60
  -1  -1  10   -0.20    0.50
   1  -1 -10    0.40    0.70
  -1  -1  10    0.30    0.50
   1  -1 -10   -0.20    0.40
  -1  -1  10   -0.70    0.50
   1   1 -10   -0.30    0.50
   1   1 -10   -0.40    0.70
  -1   1  10   -0.70    0.40
  -1   1  10    0.30    0.50
   1   1 -10    0.80    0.60
  -1   1  10   -0.60    0.40
   1   1 -10    0.00    0.60
   1   1 -10    0.40    0.70
  -1   1  10    0.10    0.70
   1  -1 -12  321.47   22.30
  -1  -1  12  330.97   22.40
  -1  -1  12  275.97   22.40
  -1  -1  12  288.97   22.30
   1  -1 -12  283.87   22.40
   1  -1 -12  326.77   22.30
   1  -1 -12  309.27   22.40
   1  -1 -12  306.57   22.40
  -1   1  12  339.27   22.40
   1   1 -12  326.27   22.30
  -1   1  12  333.17   22.40
   1   1 -12  310.67   22.30
  -1  -1  14    7.60    1.10
  -1  -1  14    9.50    1.30
   1  -1 -14    5.50    1.20
   1  -1 -14    6.50    1.20
   1  -1 -14    7.80    1.10
  -1   1  14    9.10    1.10
   1   1 -14    7.20    1.10
  -1   1  14    7.40    1.50
  -1  -1  16   16.40    1.60
   1  -1 -16   16.50    1.60
  -1  -1  16   17.50    1.80
   1  -1 -16   15.90    1.60
   1  -1 -16   13.00    1.60
  -1   1  16   15.10    1.40
  -1   1  16   17.80    1.60
   1   1 -16   15.40    1.60
   1   1 -16   18.00    1.60
   1  -2  15   53.79    4.00
  -1  -2 -15   45.10    3.80
   1  -2  15   47.30    3.80
  -1  -2 -15   45.50    3.80
   1   2  15   54.99    3.80
  -1   2 -15   43.20    3.70
   1   2  15   53.99    3.70
   1  -2  13   29.40    2.50
   1  -2  13   27.80    2.30
  -1  -2 -13   26.80    2.30
  -1  -2 -13   26.10    2.20
  -1  -2 -13   25.70    2.30
   1   2  13   30.40    2.30
  -1   2 -13   23.00    2.10
   1   2  13   27.40    2.10
  -1   2 -13   24.00    2.30
  -1  -2 -11   10.40    1.20
  -1  -2 -11    9.70    1.40
  -1  -2 -11    9.90    1.20
   1  -2  11    9.40    1.50
   1  -2  11   11.90    1.40
   1  -2  11    8.80    1.30
  -1   2 -11   11.60    1.30
  -1   2 -11   11.90    1.10
   1   2  11   12.30    1.20
   1   2  11   11.60    1.00
   1  -2   9  240.78   16.70
  -1  -2  -9  237.98   16.50
  -1  -2  -9  246.88   16.50
   1  -2   9  234.78   16.70
   1  -2   9  222.88   16.50
  -1  -2  -9  244.38   16.60
   1  -2   9  212.08   16.50
  -1  -2  -9  211.88   16.40
  -1   2  -9  247.68   16.60
   1   2   9  225.28   16.40
   1   2   9  232.38   16.50
  -1   2  -9  214.58   16.50
  -1  -2  -7 1023.00   78.99
   1  -2   7 1221.58   79.19
   1  -2   7 1078.39   78.99
   1  -2   7 1059.99   78.99
  -1  -2  -7 1130.29   78.99
   1  -2   7 1100.19   79.09
  -1  -2  -7 1196.28   78.99
   1  -2   7 1137.99   78.99
  -1  -2  -7 1269.67   79.09
  -1   2  -7 1197.68   79.09
  -1   2  -7 1118.69   78.99
   1   2   7  952.70   78.99
   1   2   7 1102.99   78.99
   1   2   7 1024.10   78.99
   1  -2   5  568.64   37.70
  -1  -2  -5  546.15   37.70
  -1  -2  -5  600.64   37.70
   1  -2   5  542.05   37.80
   1  -2   5  482.55   37.70
  -1  -2  -5  525.65   37.70
   1  -2   5  494.25   37.80
  -1  -2  -5  490.55   37.70
   1  -2   5  500.55   37.80
  -1  -2  -5  596.74   37.70
   1   2   5  485.65   37.70
   1   2   5  517.95   37.60
  -1   2  -5  554.84   37.70
  -1   2  -5  511.95   37.60
   1   2   5  551.64   37.70
   1  -2   3   55.09    3.80
   1  -2   3   57.19    3.80
   1  -2   3   54.09    3.80
   1  -2   3   46.80    3.80
  -1  -2  -3   50.69    3.80
   1   2   3   48.90    3.70
  -1   2  -3   53.29    3.70
   1   2   3   54.29    3.70
   1   2   3   54.79    3.80
  -1   2  -3   43.90    3.70
  -1   2  -3   51.19    3.80
   1  -2   1 4701.33  379.56
  -1  -2  -1 5811.42  379.56
  -1  -2  -1 5762.42  379.56
   1  -2   1 4959.90  379.56
   1   2   1 6263.17  379.56
   1   2   1 4694.73  379.56
  -1  -2   1   20.80    1.30
  -1  -2   1   17.00    1.40
   1   2  -1   17.90    1.40
  -1   2   1   19.50    1.40
   1   2  -1   16.60    1.40
  -1   2   1   19.60    1.40
  -1   2   1   17.60    1.40
   1   2  -1   19.00    1.40
   1   2  -1   18.20    1.30
   1   2  -1   17.50    1.40
  -1  -2   3  791.72   53.29
  -1  -2   3  744.63   53.29
  -1  -2   3  727.43   53.29
  -1  -2   3  778.72   53.29
  -1  -2   3  686.23   53.29
  -1   2   3  805.92   53.29
   1   2  -3  739.13   53.29
  -1   2   3  787.02   53.29
   1   2  -3  674.63   53.29
   1   2  -3  747.33   53.29
  -1   2   3  796.52   53.29
   1  -2  -5 2636.54  169.88
   1  -2  -5 2780.02  169.88
  -1  -2   5 2394.16  169.78
   1  -2  -5 2507.05  169.88
   1  -2  -5 2552.24  169.78
  -1  -2   5 2133.89  169.88
   1  -2  -5 2236.88  169.78
   1  -2  -5 2333.87  169.78
  -1  -2   5 2188.88  169.88
   1  -2  -5 2369.36  169.78
   1  -2  -5 2512.55  169.78
  -1  -2   5 2389.56  169.78
  -1  -2   5 2198.78  169.78
   1   2  -5 2343.17  169.88
   1   2  -5 2247.08  169.78
   1   2  -5 2372.66  169.78
   1   2  -5 2222.78  169.78
  -1   2   5 2504.35  169.78
  -1   2   5 2437.86  169.78
  -1   2   5 2633.54  169.78
  -1  -2   7  698.63   47.90
  -1  -2   7  611.74   47.90
   1  -2  -7  734.33   47.80
   1  -2  -7  738.73   47.90
   1  -2  -7  693.03   47.80
  -1  -2   7  651.73   47.80
  -1  -2   7  615.14   47.80
  -1  -2   7  603.34   47.80
  -1  -2   7  692.83   47.80
   1  -2  -7  746.23   47.80
   1  -2  -7  644.54   47.80
   1  -2  -7  657.83   47.90
   1  -2  -7  723.13   47.90
   1  -2  -7  690.33   47.80
  -1  -2   7  624.14   47.80
  -1  -2   7  658.43   47.80
  -1   2   7  672.43   47.80
   1   2  -7  629.34   47.80
  -1   2   7  700.73   47.80
  -1   2   7  672.63   47.80
   1   2  -7  666.03   47.90
   1   2  -7  710.73   47.80
  -1  -2   9   51.69    4.00
   1  -2  -9   53.69    4.00
   1  -2  -9   59.89    3.90
   1  -2  -9   53.99    3.80
  -1  -2   9   45.10    3.90
   1  -2  -9   51.89    4.00
   1  -2  -9   56.89    4.00
  -1  -2   9   51.89    3.80
  -1  -2   9   50.19    4.10
   1  -2  -9   55.49    3.90
  -1   2   9   55.59    3.90
   1   2  -9   51.79    4.00
  -1   2   9   50.79    3.80
   1   2  -9   52.89    3.90
  -1   2   9   45.70    3.80
  -1   2   9   49.90    3.90
   1  -2 -11   36.30    2.70
   1  -2 -11   29.30    2.60
  -1  -2  11   27.00    2.60
   1  -2 -11   32.80    2.70
  -1  -2  11   34.60    2.90
   1  -2 -11   31.80    2.80
  -1  -2  11   34.30    2.70
   1  -2 -11   36.50    2.60
   1  -2 -11   32.80    2.50
   1   2 -11   32.10    2.60
   1   2 -11   37.60    2.60
   1   2 -11   27.00    2.50
  -1   2  11   33.00    2.60
   1  -2 -13  130.69   10.40
  -1  -2  13  141.09   10.50
   1  -2 -13  141.19   10.30
  -1  -2  13  138.29   10.30
   1  -2 -13  152.58   10.40
   1   2 -13  139.19   10.30
  -1   2  13  153.98   10.30
   1  -2 -15    5.50    1.10
  -1  -2  15    6.20    1.30
  -1  -2  15    5.10    1.10
   1  -2 -15    7.70    1.10
  -1   2  15    6.50    1.00
  -1   2  15    7.10    0.80
   1   2 -15    6.00    1.00
   1  -3  14    7.00    1.30
   1  -3  14    5.00    1.00
  -1  -3 -14    5.50    1.00
  -1  -3 -14    3.50    0.80
   1   3  14    5.30    0.80
  -1   3 -14    4.90    0.80
   1   3  14    6.90    1.10
   1  -3  12   79.39    6.00
   1  -3  12   70.29    6.00
   1  -3  12   76.89    6.00
  -1  -3 -12   75.59    5.90
  -1  -3 -12   79.09    5.80
  -1  -3 -12   78.09    5.90
  -1  -3 -12   79.49    5.70
   1   3  12   83.29    5.70
  -1   3 -12   74.79    5.70
   1   3  12   88.79    5.80
  -1   3 -12   74.69    5.80
  -1  -3 -10   12.20    1.40
  -1  -3 -10   10.70    1.30
   1  -3  10   10.10    1.60
   1  -3  10   11.80    1.60
  -1  -3 -10   14.40    1.50
  -1  -3 -10   10.40    1.20
  -1  -3 -10   14.70    1.30
   1   3  10   12.10    1.30
  -1   3 -10   11.30    1.30
   1   3  10   12.90    1.20
   1  -3   8   20.70    2.10
   1  -3   8   22.90    2.10
  -1  -3  -8   20.40    1.70
   1  -3   8   22.10    2.00
  -1  -3  -8   24.00    1.90
  -1  -3  -8   20.70    1.90
  -1  -3  -8   25.30    1.90
   1   3   8   18.20    1.80
  -1   3  -8   17.60    2.00
   1   3   8   20.20    1.70
  -1   3  -8   20.70    1.80
   1   3   8   22.20    1.80
   1  -3   6  304.67   21.50
  -1  -3  -6  286.47   21.50
  -1  -3  -6  313.47   21.50
  -1  -3  -6  283.07   21.70
   1  -3   6  295.77   21.60
   1  -3   6  315.67   21.80
   1  -3   6  332.57   21.70
   1  -3   6  296.07   21.60
  -1  -3  -6  300.67   21.50
  -1  -3  -6  330.17   21.50
   1   3   6  284.37   21.50
  -1   3  -6  307.07   21.40
   1   3   6  276.47   21.50
  -1   3  -6  326.77   21.60
   1   3   6  298.27   21.50
   1   3   6  278.97   21.50
  -1  -3  -4  585.14   40.30
  -1  -3  -4  646.74   40.30
   1  -3   4  531.85   40.30
   1  -3   4  523.75   40.30
   1  -3   4  536.75   40.30
  -1  -3  -4  591.84   40.30
  -1  -3  -4  530.55   40.30
  -1  -3  -4  527.55   40.30
  -1  -3  -4  556.54   40.30
   1  -3   4  561.74   40.40
   1  -3   4  605.74   40.50
  -1  -3  -4  594.34   40.30
   1  -3   4  567.34   40.40
   1  -3   4  592.44   40.30
  -1   3  -4  591.34   40.40
   1   3   4  602.94   40.30
  -1   3  -4  587.64   40.20
   1   3   4  490.75   40.30
   1  -3   2  539.45   33.40
   1  -3   2  454.65   33.30
   1  -3   2  424.06   33.20
  -1  -3  -2  425.06   33.20
  -1  -3  -2  453.35   33.20
   1  -3   2  456.95   33.30
  -1  -3  -2  430.76   33.20
   1  -3   2  491.25   33.20
  -1  -3  -2  504.95   33.20
   1  -3   2  416.36   33.20
   1  -3   2  470.25   33.30
  -1  -3  -2  494.95   33.30
  -1  -3  -2  454.05   33.20
   1   3   2  485.65   33.20
  -1   3  -2  490.95   33.20
   1   3   2  440.16   33.20
   1   3   2  492.45   33.20
  -1   3  -2  507.95   33.30
   1  -3   0  537.55   34.40
   1  -3   0  489.15   34.40
  -1  -3   0  460.65   34.40
   1  -3   0  519.65   34.50
  -1  -3   0  438.26   34.40
  -1  -3   0  487.95   34.40
  -1  -3   0  426.26   34.40
  -1  -3   0  445.76   34.40
  -1  -3   0  441.26   34.40
  -1  -3   0  419.06   34.40
   1  -3   0  480.15   34.40
  -1   3   0  503.25   34.40
   1   3   0  534.05   34.40
  -1   3   0  540.25   34.40
   1   3   0  525.35   34.40
   1   3   0  515.05   34.40
   1  -3  -2 1376.06   88.29
   1  -3  -2 1176.38   88.29
  -1  -3   2 1189.68   88.29
   1  -3  -2 1252.77   88.29
  -1  -3   2 1179.68   88.29
  -1  -3   2 1147.29   88.29
  -1  -3   2 1225.28   88.39
  -1  -3   2 1125.99   88.29
   1  -3  -2 1263.47   88.29
   1  -3  -2 1203.78   88.29
  -1  -3   2 1159.88   88.39
   1   3  -2 1308.27   88.29
  -1   3   2 1364.16   88.29
  -1   3   2 1244.88   88.29
   1   3  -2 1224.18   88.29
  -1   3   2 1390.36   88.29
   1   3  -2 1237.98   88.29
  -1   3   2 1317.07   88.29
   1   3  -2 1311.97   88.29
  -1  -3   4  504.65   41.40
  -1  -3   4  523.55   41.40
  -1  -3   4  565.54   41.40
  -1  -3   4  625.34   41.30
   1  -3  -4  626.74   41.30
  -1  -3   4  612.14   41.30
   1  -3  -4  563.24   41.30
   1  -3  -4  617.64   41.30
   1  -3  -4  598.24   41.30
   1  -3  -4  589.94   41.40
  -1  -3   4  591.84   41.40
  -1  -3   4  544.75   41.30
  -1  -3   4  571.24   41.40
   1  -3  -4  604.74   41.30
  -1   3   4  619.74   41.30
  -1   3   4  609.54   41.30
   1   3  -4  524.95   41.30
   1   3  -4  554.34   41.30
   1   3  -4  618.94   41.30
   1  -3  -6   86.99    5.80
   1  -3  -6   86.89    5.70
  -1  -3   6   73.49    5.90
   1  -3  -6   80.19    5.80
   1  -3  -6   79.59    5.90
  -1  -3   6   79.29    5.70
  -1  -3   6   72.19    5.70
   1  -3  -6   77.29    5.70
  -1  -3   6   72.19    5.80
   1  -3  -6   79.59    5.80
   1   3  -6   81.59    5.70
  -1   3   6   77.69    5.70
   1   3  -6   77.19    5.80
   1   3  -6   81.79    5.80
  -1   3   6   75.49    5.70
  -1   3   6   81.89    5.70
   1  -3  -8   46.30    3.30
   1  -3  -8   45.20    3.30
  -1  -3   8   38.50    3.40
   1  -3  -8   43.60    3.40
   1  -3  -8   45.50    3.30
   1  -3  -8   46.50    3.20
  -1  -3   8   42.00    3.50
   1  -3  -8   45.10    3.30
  -1   3   8   41.40    3.20
  -1   3   8   40.70    3.20
  -1   3   8   40.90    3.20
   1   3  -8   43.30    3.50
  -1   3   8   38.00    3.20
   1   3  -8   43.90    3.20
   1  -3 -10  169.68   12.20
   1  -3 -10  177.88   12.10
  -1  -3  10  166.98   12.40
  -1  -3  10  146.29   12.30
   1  -3 -10  175.68   12.20
   1  -3 -10  189.58   12.20
   1  -3 -10  155.58   12.30
  -1   3  10  168.78   12.10
   1   3 -10  170.28   12.10
   1  -3 -12   13.00    1.50
   1  -3 -12   10.80    1.30
   1  -3 -12   10.90    1.10
  -1  -3  12   11.40    1.60
  -1  -3  12    9.10    1.50
   1  -3 -12    7.50    1.30
   1  -3 -12   10.80    1.30
  -1   3  12   10.30    1.30
   1   3 -12    9.30    1.20
   1  -3 -14   21.80    2.00
   1  -3 -14   20.50    2.10
  -1  -3  14   24.80    2.30
   1  -3 -14   22.80    2.00
   1  -3 -14   25.00    2.10
  -1  -3  14   23.70    2.40
  -1   3  14   26.40    1.90
   1   3 -14   23.20    2.10
  -1   3  14   25.40    2.10
   1  -3 -16    6.10    1.00
  -1  -3  16    6.50    1.00
  -1  -3  16    8.10    1.20
   1   3 -16    6.50    1.20
  -1   3  16    6.30    0.80
  -1   3  16    5.80    1.10
  -1  -4 -13   17.90    1.70
   1  -4  13   17.50    2.00
   1  -4  13   16.90    1.70
  -1  -4 -13   16.30    1.80
  -1   4 -13   18.80    1.50
   1   4  13   17.70    1.50
  -1  -4 -11   41.20    3.00
   1  -4  11   37.70    3.30
   1  -4  11   40.20    3.40
  -1  -4 -11   39.10    3.10
  -1  -4 -11   40.50    3.00
  -1  -4 -11   36.80    3.20
   1  -4  11   31.80    3.10
  -1  -4 -11   36.20    3.10
   1   4  11   38.40    3.00
   1   4  11   45.10    3.30
  -1  -4  -9    0.00    0.50
   1  -4   9    0.00    0.80
  -1  -4  -9   -0.50    0.60
   1  -4   9    1.60    1.10
  -1  -4  -9    1.40    0.70
  -1  -4  -9    0.60    0.60
  -1  -4  -9   -0.70    0.50
   1  -4   9    0.90    0.80
   1   4   9   -0.40    0.50
  -1   4  -9   -0.70    0.80
  -1  -4  -7  103.89    7.20
   1  -4   7   90.89    7.40
  -1  -4  -7  101.29    7.20
  -1  -4  -7  103.09    7.30
  -1  -4  -7   99.89    7.20
   1  -4   7   99.59    7.50
  -1  -4  -7   90.99    7.30
  -1   4  -7  103.79    7.10
   1   4   7   96.39    7.20
   1  -4   5  184.38   13.10
  -1  -4  -5  174.38   13.00
  -1  -4  -5  180.88   13.00
   1  -4   5  190.78   13.20
   1  -4   5  168.38   13.10
   1  -4   5  152.08   12.90
   1  -4   5  178.28   13.10
  -1  -4  -5  188.78   13.00
  -1  -4  -5  180.88   12.90
  -1  -4  -5  186.98   12.90
  -1  -4  -5  195.88   13.00
   1   4   5  162.98   12.90
  -1   4  -5  196.18   13.10
   1   4   5  194.98   12.90
  -1   4  -5  195.58   12.90
   1   4   5  162.68   12.90
   1  -4   3  109.49    7.70
  -1  -4  -3  102.99    7.50
  -1  -4  -3  101.39    7.50
  -1  -4  -3  113.69    7.60
  -1  -4  -3  105.69    7.50
  -1  -4  -3  102.09    7.50
   1  -4   3   97.19    7.60
   1  -4   3  102.69    7.60
   1  -4   3  100.29    7.60
   1  -4   3   93.79    7.50
  -1  -4  -3  106.59    7.50
   1  -4   3  103.09    7.60
   1   4   3  100.49    7.50
  -1   4  -3  118.99    7.60
   1   4   3  106.19    7.50
   1   4   3   98.39    7.50
   1  -4   1  191.28   13.10
   1  -4   1  168.38   12.90
   1  -4   1  175.38   12.90
  -1  -4  -1  176.28   12.90
  -1  -4  -1  187.08   12.90
   1  -4   1  204.58   13.10
  -1  -4  -1  192.88   13.00
   1  -4   1  182.08   13.00
  -1  -4  -1  173.68   12.90
  -1  -4  -1  169.58   12.90
  -1  -4  -1  169.28   12.90
   1  -4   1  168.58   12.90
  -1   4  -1  193.08   12.90
  -1   4  -1  174.88   12.90
   1   4   1  176.58   12.90
  -1  -4   1  151.38   11.20
   1  -4  -1  150.88   11.00
  -1  -4   1  148.89   11.10
  -1  -4   1  141.19   11.10
   1  -4  -1  149.99   11.00
   1  -4  -1  163.88   11.20
  -1  -4   1  143.99   11.00
   1   4  -1  139.39   11.00
  -1   4   1  167.28   11.00
   1   4  -1  153.88   11.00
  -1   4   1  170.48   11.00
   1   4  -1  163.08   11.00
   1  -4  -3  331.07   21.80
  -1  -4   3  285.07   21.80
  -1  -4   3  275.07   21.80
  -1  -4   3  286.27   21.80
   1  -4  -3  314.47   21.80
  -1  -4   3  290.47   21.90
   1  -4  -3  298.37   21.80
  -1  -4   3  344.17   21.80
   1  -4  -3  295.57   21.70
  -1  -4   3  283.47   21.90
   1  -4  -3  306.97   21.80
   1  -4  -3  344.67   21.80
   1  -4  -3  323.37   21.80
   1   4  -3  327.27   21.80
   1   4  -3  295.57   21.80
  -1   4   3  314.37   21.70
   1   4  -3  276.97   21.80
  -1   4   3  312.77   21.80
  -1  -4   5  142.59   10.10
   1  -4  -5  152.48    9.90
   1  -4  -5  146.29    9.80
   1  -4  -5  143.99    9.90
  -1  -4   5  124.79   10.10
  -1  -4   5  120.09   10.00
  -1  -4   5  127.59   10.00
  -1  -4   5  133.49   10.00
  -1  -4   5  139.39    9.90
  -1  -4   5  127.99    9.90
   1  -4  -5  134.59    9.90
   1  -4  -5  141.39    9.90
   1   4  -5  132.79   10.00
   1   4  -5  147.99    9.90
   1   4  -5  142.79    9.80
  -1   4   5  138.29    9.90
  -1   4   5  136.29    9.80
   1  -4  -7    5.70    0.90
  -1  -4   7    5.90    1.30
   1  -4  -7    5.70    0.90
   1  -4  -7    7.30    0.70
  -1  -4   7    5.50    1.30
   1  -4  -7    3.50    0.90
   1  -4  -7    5.40    1.00
  -1  -4   7    3.70    0.90
   1  -4  -7    5.30    0.90
   1   4  -7    5.20    0.80
  -1   4   7    6.90    1.20
   1  -4  -9  114.49    8.40
   1  -4  -9  122.09    8.30
  -1  -4   9  102.49    8.50
  -1  -4   9  117.49    8.60
   1  -4  -9   97.99    8.40
   1  -4  -9  115.99    8.30
  -1  -4   9  115.69    8.40
   1  -4  -9  125.19    8.30
   1   4  -9  113.19    8.30
  -1   4   9  115.99    8.30
   1  -4 -11   52.29    3.70
  -1  -4  11   48.80    4.10
   1  -4 -11   50.69    3.60
   1  -4 -11   49.40    3.80
   1  -4 -11   44.30    3.80
  -1  -4  11   44.60    4.00
   1  -4 -11   53.49    3.80
   1   4 -11   42.80    3.70
  -1   4  11   47.80    3.70
  -1  -4  13   14.20    1.80
   1  -4 -13   14.80    1.60
   1  -4 -13   13.60    1.40
  -1  -4  13   13.90    1.80
   1  -4 -13   14.70    1.60
   1  -4 -13   15.40    1.30
  -1   4  13   14.70    1.70
   1   4 -13   14.90    1.50
  -1   4  13   15.00    1.30
   1   4 -13   12.60    1.40
   1  -4 -15    0.00    0.50
  -1  -4  15    0.70    0.90
  -1   4  15    0.80    0.50
   1   4 -15    0.30    1.10
  -1  -5 -12   -0.10    0.60
  -1  -5 -12    0.10    0.40
   1  -5  12    0.40    1.30
   1   5  12    0.70    0.50
  -1   5 -12    0.50    0.50
   1  -5  10   10.90    2.00
  -1  -5 -10   15.10    1.30
  -1  -5 -10   15.10    1.40
  -1  -5 -10   12.10    1.60
  -1  -5 -10   13.00    1.50
   1  -5  10   14.00    1.80
  -1  -5 -10   14.20    1.50
   1   5  10   12.40    1.30
  -1  -5  -8  651.73   44.60
   1  -5   8  627.14   44.90
   1  -5   8  630.04   44.70
  -1  -5  -8  630.84   44.70
  -1  -5  -8  690.43   44.60
  -1  -5  -8  565.74   44.70
  -1  -5  -8  621.54   44.60
   1  -5   8  560.04   44.80
   1   5   8  667.43   44.50
  -1  -5  -6   63.39    4.90
  -1  -5  -6   68.79    4.90
  -1  -5  -6   65.19    5.00
  -1  -5  -6   60.19    5.00
   1  -5   6   63.79    5.30
  -1  -5  -6   70.19    4.90
   1   5   6   67.29    4.90
  -1   5  -6   66.99    4.80
  -1  -5  -4    0.00    0.60
  -1  -5  -4    0.20    0.60
   1  -5   4    0.30    0.60
  -1  -5  -4    0.90    0.40
  -1  -5  -4    0.70    0.50
  -1  -5  -4    0.30    0.60
  -1  -5  -4    0.30    0.80
   1  -5   4    1.10    1.00
   1  -5   4   -0.10    0.50
  -1   5  -4    0.70    0.60
   1   5   4   -0.60    0.70
  -1  -5  -2    2.00    0.60
   1  -5   2    1.60    0.50
  -1  -5  -2    2.10    0.60
   1  -5   2    1.60    0.60
   1  -5   2    2.80    1.10
  -1  -5  -2    2.00    0.60
   1  -5   2    2.50    0.70
  -1  -5  -2    2.30    0.50
   1  -5   2    1.10    0.60
  -1  -5  -2    1.40    0.70
   1  -5   2    2.80    0.60
   1   5   2    2.60    0.60
  -1   5  -2    3.60    1.10
   1  -5   0    3.30    0.70
   1  -5   0    4.60    0.80
  -1  -5   0    4.00    0.80
   1  -5   0    6.20    0.80
  -1  -5   0    5.30    1.00
   1  -5   0    5.40    0.90
   1  -5   0    5.20    1.00
   1  -5   0    4.70    0.90
   1   5   0    4.60    0.80
   1  -5  -2    0.90    0.40
  -1  -5   2    0.70    0.40
   1  -5  -2    0.70    0.50
  -1  -5   2    0.50    0.50
  -1  -5   2    0.50    0.60
  -1  -5   2    0.80    0.50
  -1  -5   2    0.90    0.60
  -1  -5   2    1.00    1.20
   1  -5  -2    0.10    0.50
   1  -5  -2    0.80    0.40
  -1  -5   2    1.60    0.70
   1   5  -2    1.80    0.80
   1   5  -2    2.20    1.10
  -1  -5   4   28.80    2.80
  -1  -5   4   29.20    2.70
   1  -5  -4   29.30    2.30
   1  -5  -4   29.20    2.30
  -1  -5   4   27.40    2.50
   1  -5  -4   32.20    2.40
  -1  -5   4   27.70    2.60
  -1  -5   4   31.70    2.40
   1  -5  -4   28.00    2.30
   1  -5  -4   27.90    2.40
  -1  -5   4   25.70    2.40
   1   5  -4   31.20    2.70
   1   5  -4   29.90    2.30
   1  -5  -6 1240.98   84.89
   1  -5  -6 1229.18   84.79
  -1  -5   6 1259.47   84.89
  -1  -5   6 1059.49   84.89
  -1  -5   6 1319.77   85.19
   1  -5  -6 1321.37   84.89
   1  -5  -6 1103.19   84.89
  -1  -5   6 1178.68   85.19
   1  -5  -6 1054.79   84.99
   1   5  -6 1245.58   84.79
  -1   5   6 1156.38   84.79
   1  -5  -8   16.30    1.50
   1  -5  -8   15.60    1.70
  -1  -5   8   12.60    2.20
   1  -5  -8   13.90    1.80
  -1  -5   8   15.50    2.10
   1  -5  -8   16.80    1.70
  -1   5   8   16.70    1.40
   1  -5 -10    0.00    0.50
  -1  -5  10    0.80    1.40
   1  -5 -10    0.70    0.60
  -1  -5  10    1.30    1.10
   1  -5 -10    0.20    0.60
   1  -5 -10    0.70    0.60
  -1   5  10    0.90    0.60
   1   5 -10    0.70    0.80
   1  -5 -12    0.40    0.60
  -1  -5  12   -0.40    0.90
   1  -5 -12    1.10    0.70
  -1  -5  12    1.20    1.30
   1  -5 -12    0.10    0.50
   1  -5 -12   -0.10    0.50
   1   5 -12    0.90    0.90
  -1   5  12    0.00    0.50
  -1  -6 -11    0.00    0.40
  -1  -6 -11    1.40    0.80
  -1  -6 -11   -1.50    1.10
   1   6  11    1.80    0.80
   1   6  11    0.50    0.40
  -1  -6  -9    0.60    0.50
  -1  -6  -9    1.00    0.70
  -1  -6  -9    1.40    0.70
   1   6   9    0.70    0.80
  -1  -6  -7   13.30    1.60
  -1  -6  -7   12.50    1.40
  -1  -6  -7   12.10    1.40
   1  -6   7   12.10    1.80
   1   6   7   15.10    1.60
  -1  -6  -5   10.20    1.50
   1  -6   5   12.80    1.80
  -1  -6  -5   10.30    1.20
  -1  -6  -5    7.30    1.30
  -1  -6  -5    9.60    1.30
  -1   6  -5   10.80    1.20
   1   6   5   11.50    1.20
   1  -6   3  187.38   13.20
  -1  -6  -3  165.68   13.30
  -1  -6  -3  170.78   13.00
  -1  -6  -3  194.38   13.00
  -1  -6  -3  167.18   13.00
   1  -6   3  171.38   13.10
  -1   6  -3  197.08   12.80
  -1  -6  -1  125.69   10.50
  -1  -6  -1  146.69   10.70
   1  -6   1  136.99   10.50
  -1  -6  -1  148.89   10.60
   1  -6   1  155.68   10.60
  -1  -6  -1  142.69   10.50
   1  -6   1  156.08   10.70
  -1  -6  -1  147.39   10.60
   1  -6   1  142.19   10.60
   1  -6   1  147.29   10.50
  -1  -6  -1  132.89   10.50
   1   6   1  147.39   10.40
   1  -6  -1  305.77   20.10
  -1  -6   1  249.48   20.20
  -1  -6   1  276.27   20.10
   1  -6  -1  264.67   19.90
   1  -6  -1  316.17   20.20
   1  -6  -1  317.17   20.20
  -1  -6   1  268.57   20.10
   1  -6  -1  286.07   20.00
  -1  -6   1  242.68   20.10
  -1  -6   1  265.47   20.20
   1  -6  -1  319.67   20.30
  -1  -6   1  249.88   20.10
   1   6  -1  278.37   20.00
  -1  -6   3    6.90    1.60
  -1  -6   3    8.40    1.60
  -1  -6   3   10.70    1.40
   1  -6  -3   10.80    1.10
  -1  -6   3    7.70    1.40
   1  -6  -3    9.40    1.60
   1  -6  -3   11.30    1.40
  -1   6   3    7.80    1.30
   1   6  -3    8.70    1.40
   1  -6  -5   19.60    1.60
  -1  -6   5   16.80    2.30
   1  -6  -5   17.90    1.70
   1  -6  -5   19.50    1.90
   1  -6  -5   18.80    1.80
  -1  -6   5   14.40    2.10
   1   6  -5   17.30    1.60
  -1  -6   7    6.60    1.60
   1  -6  -7    5.20    1.10
   1  -6  -7    6.70    1.00
   1  -6  -7    4.10    0.80
   1  -6  -7    5.70    1.30
   1   6  -7    5.50    1.00
   1  -6  -9    0.30    0.60
  -1  -6   9   -0.30    1.10
   1  -6  -9    1.50    0.60
   1  -6  -9   -0.20    0.60
   1  -6  -9    0.30    0.60
   1   6  -9    1.30    0.90
   1  -6 -11  136.49    9.20
   1  -6 -11  115.49    9.20
  -1  -6  11  114.09    9.30
  -1   6  11  136.19    9.10
   1   6 -11  128.59    9.10
  -1  -7  -8   23.00    2.40
   1  -7   8   24.70    2.30
  -1  -7  -8   24.30    2.20
   1   7   8   28.30    2.10
  -1  -7  -6   75.19    6.40
  -1  -7  -6   91.29    6.30
   1   7   6   87.49    6.20
  -1  -7  -4    0.30    0.60
  -1  -7  -4    0.20    0.80
  -1  -7  -4   -0.20    0.70
   1   7   4    0.90    0.70
   1  -7   2   16.30    1.70
  -1  -7  -2   16.00    1.90
  -1  -7  -2   12.80    2.10
   1  -7   2   15.00    1.90
  -1  -7  -2   15.90    1.60
  -1  -7  -2   13.90    1.60
  -1  -7  -2   12.90    1.90
  -1   7  -2   17.90    1.50
   1   7   2   15.60    1.60
  -1  -7   0   23.70    2.40
  -1  -7   0   22.90    2.40
   1  -7   0   24.30    2.20
  -1  -7   0   23.00    2.60
   1  -7   0   26.20    2.40
   1  -7   0   24.60    2.70
   1  -7   0   22.10    2.40
   1  -7   0   26.40    2.20
  -1  -7   0   22.20    2.20
   1   7   0   24.20    2.00
   1  -7  -2    0.30    0.70
   1  -7  -2    0.00    0.60
   1  -7  -2    2.00    1.00
  -1  -7   2    0.20    0.90
   1  -7  -2   -1.30    1.00
  -1  -7   2    0.00    0.70
   1  -7  -2    0.70    0.80
   1   7  -2    0.10    0.60
   1  -7  -4  117.39    9.10
   1  -7  -4  127.29    9.20
   1  -7  -4  131.59    9.10
   1   7  -4  120.79    8.90
   1  -7  -6   46.90    3.50
  -1  -7   6   39.10    4.20
  -1  -7   6   36.10    4.00
   1  -7  -6   44.30    3.60
  -1   7   6   44.10    3.40
   1   7  -6   42.80    3.30
   1  -7  -8   26.60    2.10
   1  -7  -8   22.60    2.20
  -1  -7   8   20.10    2.30
  -1   7   8   25.10    2.00
   1   7  -8   23.00    2.10
   2   0  16  218.88   14.60
   2   0  16  206.68   14.60
  -2   0 -16  189.48   14.50
   2   0  16  195.28   14.60
  -2   0 -14  236.88   16.90
   2   0  14  215.08   16.90
   2   0  14  252.47   17.10
  -2   0 -14  224.88   16.90
   2   0  14  250.07   17.00
  -2   0 -12   44.40    3.30
   2   0  12   40.60    3.30
  -2   0 -12   46.40    3.40
  -2   0 -12   40.90    3.40
   2   0  12   45.80    3.40
   2   0  12   43.50    3.60
   2   0  10   10.00    1.10
   2   0  10   11.10    1.30
  -2   0 -10   10.50    1.20
   2   0  10    8.00    1.10
   2   0  10    8.80    1.00
  -2   0 -10   11.00    1.10
   2   0  10    6.80    1.30
   2   0   8   13.10    1.10
   2   0   8   14.40    1.20
   2   0   8   14.90    1.30
   2   0   8   13.30    1.20
   2   0   8   14.90    1.20
  -2   0  -8   11.70    1.40
  -2   0  -8   14.80    1.30
   2   0   8   14.00    1.50
  -2   0  -8   15.00    1.30
  -2   0  -6   56.39    4.10
   2   0   6   61.19    4.20
   2   0   6   62.39    4.20
  -2   0  -6   61.59    4.20
  -2   0  -6   60.49    4.20
   2   0   6   53.89    4.20
   2   0   6   50.19    4.20
   2   0   6   51.59    4.30
   2   0   4  171.88   13.10
   2   0   4  198.38   13.20
   2   0   4  208.88   13.20
  -2   0  -4  172.78   13.10
   2   0   4  170.18   13.20
  -2   0  -4  185.38   13.20
  -2   0  -4  186.28   13.20
  -2   0  -4  186.68   13.20
   2   0   2 9999.00  624.14
   2   0   2 7648.73  624.04
  -2   0   0 2520.95  177.38
   2   0   0 2583.94  177.38
   2   0   0 2297.67  177.38
   2   0   0 2625.94  177.38
   2   0  -2  514.45   38.50
  -2   0   2  527.15   38.50
   2   0  -2  566.54   38.50
  -2   0   2  563.44   38.50
  -2   0   2  547.35   38.50
   2   0  -4    1.40    0.30
  -2   0   4    1.50    0.20
   2   0  -4    0.90    0.30
  -2   0   4    1.30    0.30
   2   0  -4    1.60    0.30
  -2   0   4    1.20    0.20
   2   0  -6  177.28   11.80
   2   0  -6  176.58   11.80
   2   0  -6  149.99   11.90
   2   0  -6  139.89   11.80
   2   0  -6  184.28   11.80
   2   0  -6  185.88   11.80
  -2   0   6  141.69   11.70
  -2   0   6  165.68   11.70
   2   0  -8  143.89   11.20
  -2   0   8  152.88   11.20
  -2   0   8  143.79   11.30
   2   0  -8  150.88   11.30
   2   0  -8  174.28   11.30
   2   0  -8  151.58   11.20
  -2   0   8  154.78   11.20
   2   0  -8  175.38   11.20
   2   0  -8  180.98   11.20
  -2   0   8  139.29   11.10
   2   0 -10  566.44   44.40
   2   0 -10  636.74   44.40
   2   0 -10  629.44   44.40
  -2   0  10  627.34   44.50
   2   0 -10  679.93   44.50
   2   0 -10  616.24   44.40
   2   0 -12 1730.43  122.79
  -2   0  12 1875.01  122.89
  -2   0  12 1843.62  122.89
   2   0 -12 1653.13  122.79
   2   0 -12 1564.44  122.79
   2   0 -14    0.20    0.80
  -2   0  14    0.10    0.60
   2   0 -14    1.50    0.90
  -2   0  14    1.20    0.90
   2   0 -14    1.10    0.50
  -2   0  16   12.90    1.40
  -2   0  16   12.20    1.60
   2   0 -16   11.50    1.40
   2   0 -16   14.70    1.50
   2  -1  15    2.00    0.60
  -2  -1 -15    2.80    0.70
  -2  -1 -15    0.60    1.00
   2  -1  15    2.40    1.00
   2  -1  15    2.50    0.80
   2   1  15    2.10    0.70
  -2   1 -15    2.00    0.60
   2   1  15    3.00    0.80
  -2   1 -15    2.10    0.70
  -2  -1 -13   62.19    4.90
  -2  -1 -13   66.39    4.90
   2  -1  13   66.89    5.10
   2  -1  13   64.69    5.00
  -2   1 -13   67.39    4.90
   2   1  13   64.49    4.90
   2   1  13   69.49    5.00
   2   1  13   63.99    5.10
   2  -1  11   16.80    1.70
   2  -1  11   19.90    1.90
  -2  -1 -11   17.70    1.60
  -2  -1 -11   21.30    1.80
   2   1  11   14.00    1.90
   2   1  11   16.40    1.50
   2   1  11   19.70    1.70
  -2   1 -11   18.10    1.60
   2  -1   9   14.60    1.40
   2  -1   9   14.50    1.40
   2  -1   9   16.50    1.40
  -2  -1  -9   17.70    1.50
  -2  -1  -9   16.00    1.40
  -2  -1  -9   15.00    1.40
   2  -1   9   18.10    1.60
  -2  -1  -9   14.40    1.40
   2   1   9   15.10    1.30
  -2   1  -9   14.60    1.30
  -2   1  -9   17.00    1.60
   2   1   9   16.10    1.40
   2   1   9   13.80    1.20
   2   1   9   13.40    1.30
   2   1   9   12.00    1.40
   2   1   9   13.70    1.30
  -2   1  -9   11.50    1.40
  -2  -1  -7  756.32   54.59
  -2  -1  -7  893.31   54.69
   2  -1   7  811.62   54.69
   2  -1   7  765.62   54.69
   2  -1   7  722.23   54.59
   2  -1   7  806.22   54.79
  -2  -1  -7  795.62   54.59
  -2  -1  -7  752.72   54.59
  -2  -1  -7  787.32   54.69
   2   1   7  741.73   54.69
   2   1   7  757.32   54.59
   2   1   7  724.83   54.69
   2   1   7  705.23   54.69
   2   1   7  775.62   54.59
   2  -1   5  575.14   43.30
  -2  -1  -5  639.24   43.30
   2  -1   5  549.65   43.40
  -2  -1  -5  608.54   43.30
   2  -1   5  618.44   43.30
  -2  -1  -5  626.54   43.40
   2  -1   5  630.64   43.30
   2  -1   5  589.24   43.40
   2  -1   5  647.84   43.30
  -2  -1  -5  630.94   43.30
  -2  -1  -5  619.64   43.30
   2   1   5  603.34   43.30
   2   1   5  575.04   43.30
  -2   1  -5  647.44   43.20
  -2   1  -5  620.44   43.30
   2   1   5  594.74   43.30
   2   1   5  558.64   43.30
   2   1   5  659.43   43.30
   2  -1   3  462.75   32.40
  -2  -1  -3  444.26   32.40
   2  -1   3  484.55   32.40
  -2  -1  -3  473.35   32.40
  -2   1  -3  443.46   32.40
   2   1   3  426.66   32.40
  -2   1  -3  466.05   32.40
   2   1   3  440.76   32.40
  -2   1  -3  447.36   32.40
   2   1   3  448.96   32.40
  -2   1  -3  456.05   32.30
   2   1   3  490.05   32.40
  -2  -1  -1  360.06   25.60
   2  -1   1  388.06   25.60
  -2  -1  -1  348.27   25.60
   2  -1   1  395.16   25.60
  -2   1  -1  352.46   25.60
   2   1   1  349.27   25.60
   2   1   1  334.97   25.60
  -2   1  -1  365.86   25.60
   2   1   1  364.46   25.60
  -2   1  -1  339.67   25.60
  -2   1  -1  374.16   25.60
  -2  -1   1 3177.98  239.38
  -2  -1   1 3493.15  239.48
   2  -1  -1 3667.63  239.38
  -2  -1   1 3276.57  239.38
   2  -1  -1 3666.83  239.38
  -2   1   1 3038.40  239.38
   2   1  -1 3390.16  239.38
  -2   1   1 2902.31  239.38
   2   1  -1 3760.32  239.38
  -2   1   1 3470.85  239.38
   2  -1  -3 3351.86  208.38
  -2  -1   3 2801.82  208.38
  -2  -1   3 2723.93  208.28
  -2  -1   3 3109.29  208.38
  -2  -1   3 3000.10  208.38
  -2  -1   3 3279.57  208.38
  -2  -1   3 2679.33  208.38
   2   1  -3 2862.11  208.28
  -2   1   3 3338.17  208.38
  -2   1   3 3093.69  208.28
  -2   1   3 2779.02  208.28
  -2   1   3 2928.21  208.28
   2   1  -3 2920.61  208.28
   2   1  -3 2546.15  208.28
  -2   1   3 2760.12  208.28
   2  -1  -5   51.99    3.50
   2  -1  -5   49.50    3.50
   2  -1  -5   51.89    3.40
   2  -1  -5   45.90    3.40
   2  -1  -5   40.40    3.40
   2  -1  -5   48.60    3.30
   2  -1  -5   48.70    3.40
  -2  -1   5   41.50    3.40
  -2  -1   5   45.10    3.30
  -2  -1   5   45.50    3.40
  -2  -1   5   40.00    3.30
  -2   1   5   44.50    3.30
   2   1  -5   45.50    3.40
   2   1  -5   47.10    3.30
  -2   1   5   42.30    3.40
  -2   1   5   44.00    3.30
   2   1  -5   49.60    3.40
   2   1  -5   51.19    3.50
   2   1  -5   42.60    3.40
  -2   1   5   49.80    3.30
   2  -1  -7  348.57   26.20
  -2  -1   7  339.07   26.10
   2  -1  -7  403.66   26.20
  -2  -1   7  333.97   26.20
   2  -1  -7  397.86   26.20
  -2  -1   7  361.36   26.20
   2  -1  -7  359.96   26.10
   2  -1  -7  407.86   26.20
   2  -1  -7  397.56   26.10
   2  -1  -7  327.97   26.20
   2  -1  -7  409.66   26.10
   2  -1  -7  398.86   26.20
  -2  -1   7  349.47   26.10
   2   1  -7  424.66   26.20
  -2   1   7  326.37   26.20
   2   1  -7  353.16   26.20
   2   1  -7  429.06   26.20
  -2   1   7  321.37   26.20
   2   1  -7  336.77   26.20
  -2   1   7  318.27   26.10
  -2   1   7  387.46   26.10
   2  -1  -9  340.37   22.80
   2  -1  -9  343.27   22.80
   2  -1  -9  332.97   22.80
  -2  -1   9  330.77   22.80
   2  -1  -9  338.47   22.90
   2  -1  -9  307.77   22.80
  -2  -1   9  312.67   22.80
   2  -1  -9  311.77   22.80
  -2  -1   9  280.37   22.70
   2   1  -9  315.77   22.80
  -2   1   9  306.87   22.90
   2   1  -9  318.07   22.70
  -2   1   9  298.57   22.70
   2   1  -9  333.47   22.80
   2   1  -9  354.36   22.80
  -2   1   9  289.17   22.70
   2  -1 -11    8.80    1.20
  -2  -1  11   10.10    1.20
   2  -1 -11    9.30    1.00
  -2  -1  11    9.10    1.00
   2  -1 -11    9.70    1.20
   2  -1 -11    6.60    1.10
   2  -1 -11    8.10    1.10
   2  -1 -11    8.30    1.20
  -2  -1  11    7.10    1.50
  -2   1  11    7.80    1.20
   2   1 -11   12.00    1.30
   2   1 -11   10.40    2.10
   2   1 -11   10.30    1.10
   2   1 -11   11.40    1.10
  -2  -1  13   67.59    4.90
   2  -1 -13   61.59    4.70
  -2  -1  13   60.39    4.70
   2  -1 -13   61.09    4.80
   2  -1 -13   62.39    4.80
   2  -1 -13   63.79    4.70
   2  -1 -13   57.09    4.80
  -2   1  13   66.89    4.80
   2   1 -13   67.19    4.70
   2   1 -13   59.69    4.70
   2  -1 -15   28.80    2.60
   2  -1 -15   27.70    2.60
  -2  -1  15   35.00    2.80
   2  -1 -15   35.60    2.70
  -2  -1  15   30.40    2.60
  -2   1  15   34.90    2.90
  -2   1  15   34.30    2.60
   2   1 -15   31.50    2.60
   2   1 -15   28.10    2.60
  -2  -1  17   69.29    5.10
   2  -1 -17   59.59    4.90
  -2  -1  17   65.49    4.90
  -2   1  17   62.39    4.80
   2   1 -17   61.69    4.90
  -2   1  17   71.09    4.90
   2   1 -17   73.49    4.90
   2  -2  16    1.60    0.50
   2  -2  16    1.60    1.00
   2  -2  16    2.80    0.90
  -2  -2 -16    1.10    0.40
   2   2  16    1.50    0.70
  -2   2 -16    2.70    0.70
   2  -2  14   10.70    1.30
  -2  -2 -14    8.30    1.50
  -2  -2 -14   10.00    1.20
  -2  -2 -14   11.20    1.30
   2  -2  14   10.50    1.20
   2   2  14   10.60    1.10
   2   2  14   12.40    1.30
  -2   2 -14   10.80    1.20
   2  -2  12   10.40    1.50
  -2  -2 -12    9.80    1.80
   2  -2  12    8.50    1.40
  -2  -2 -12    9.30    1.20
   2   2  12   11.00    1.20
   2   2  12    8.60    1.00
  -2   2 -12    8.60    1.00
  -2  -2 -10    2.10    0.60
  -2  -2 -10    1.60    0.60
   2  -2  10    0.90    0.90
   2  -2  10    0.40    0.70
   2   2  10    0.60    0.70
   2   2  10    0.80    0.50
   2  -2   8   28.90    2.40
   2  -2   8   29.80    2.50
  -2  -2  -8   33.20    2.30
   2  -2   8   26.60    2.40
   2  -2   8   31.10    2.50
  -2  -2  -8   26.90    2.30
  -2  -2  -8   29.80    2.30
   2   2   8   24.10    2.20
   2   2   8   32.60    2.20
   2   2   8   26.40    2.20
   2   2   8   28.80    2.30
   2  -2   6  175.78   13.10
  -2  -2  -6  189.48   13.10
   2  -2   6  195.78   13.20
   2  -2   6  192.28   13.10
  -2  -2  -6  173.28   13.00
  -2  -2  -6  208.58   13.10
   2  -2   6  172.08   13.10
  -2  -2  -6  189.18   13.10
  -2  -2  -6  185.38   13.00
  -2  -2  -6  168.48   13.00
   2  -2   6  188.18   13.20
  -2   2  -6  189.98   13.10
   2   2   6  171.28   13.10
   2   2   6  184.68   13.00
   2   2   6  158.98   13.00
  -2  -2  -4  145.39   11.40
   2  -2   4  157.18   11.50
   2  -2   4  169.58   11.40
   2  -2   4  155.48   11.60
   2  -2   4  167.18   11.40
  -2  -2  -4  162.48   11.40
   2  -2   4  150.98   11.50
  -2  -2  -4  177.88   11.40
  -2  -2  -4  165.98   11.40
   2  -2   4  150.08   11.50
   2   2   4  155.28   11.40
  -2   2  -4  168.28   11.50
   2   2   4  152.98   11.40
   2   2   4  163.78   11.40
  -2   2  -4  157.78   11.40
   2  -2   2  357.36   27.00
  -2  -2  -2  420.76   27.00
  -2  -2  -2  387.46   27.00
  -2  -2  -2  376.26   27.00
  -2  -2  -2  399.56   27.10
  -2  -2  -2  376.86   27.00
   2  -2   2  358.16   27.00
  -2   2  -2  399.26   27.00
   2   2   2  337.17   27.00
  -2   2  -2  402.06   27.10
   2   2   2  367.06   27.00
  -2   2  -2  388.66   27.00
   2  -2   0  256.57   17.30
   2  -2   0  259.67   17.40
  -2  -2   0  251.37   17.40
  -2  -2   0  253.57   17.30
   2  -2   0  270.37   17.30
   2   2   0  211.78   17.30
   2   2   0  218.48   17.30
   2   2   0  236.58   17.30
  -2   2   0  254.37   17.40
  -2   2   0  206.68   17.30
  -2   2   0  266.77   17.30
  -2   2   0  242.88   17.30
  -2  -2   2  563.74   41.10
  -2  -2   2  528.25   41.20
  -2  -2   2  620.94   41.10
  -2   2   2  599.04   41.10
   2   2  -2  553.54   41.10
   2   2  -2  563.84   41.20
   2   2  -2  540.85   41.10
  -2   2   2  615.94   41.10
  -2   2   2  573.94   41.10
   2   2  -2  517.95   41.10
  -2   2   2  645.44   41.10
  -2   2   2  612.34   41.10
   2   2  -2  571.04   41.10
  -2   2   2  659.73   41.10
   2   2  -2  540.95   41.10
  -2  -2   4   35.90    2.70
  -2  -2   4   32.80    2.80
   2  -2  -4   32.90    2.80
   2  -2  -4   36.90    2.80
   2  -2  -4   37.90    2.80
   2  -2  -4   40.60    2.80
   2  -2  -4   34.30    2.70
  -2  -2   4   38.00    2.70
   2  -2  -4   37.40    2.70
  -2  -2   4   34.50    2.70
  -2   2   4   38.70    2.70
  -2   2   4   42.80    2.70
   2   2  -4   34.80    2.70
   2   2  -4   36.50    2.80
  -2   2   4   38.40    2.70
   2  -2  -6   12.40    1.00
  -2  -2   6    9.00    1.10
  -2  -2   6   10.50    0.90
   2  -2  -6   10.60    1.10
   2  -2  -6    9.70    1.10
   2  -2  -6   10.90    1.00
  -2  -2   6   12.10    1.10
  -2  -2   6   10.10    0.90
   2  -2  -6   10.10    1.00
   2  -2  -6    9.20    1.10
   2  -2  -6    9.10    1.00
  -2  -2   6    9.60    1.10
  -2   2   6    9.80    1.10
   2   2  -6   10.50    0.90
  -2   2   6   12.10    0.90
  -2   2   6   10.50    1.40
   2  -2  -8  142.69    9.50
   2  -2  -8  136.19    9.60
  -2  -2   8  116.29    9.40
  -2  -2   8  127.99    9.60
   2  -2  -8  131.69    9.50
   2  -2  -8  132.59    9.50
   2  -2  -8  133.39    9.60
   2  -2  -8  144.39    9.40
   2  -2  -8  136.29    9.50
  -2  -2   8  119.09    9.50
   2   2  -8  124.29    9.60
   2   2  -8  127.39    9.40
  -2   2   8  146.19    9.40
  -2   2   8  126.49    9.40
  -2   2   8  125.39    9.40
   2   2  -8  144.59    9.50
  -2   2   8  120.99    9.50
  -2  -2  10   96.89    7.50
  -2  -2  10   91.29    7.40
   2  -2 -10  110.29    7.60
  -2  -2  10  105.29    7.60
   2  -2 -10  103.89    7.50
   2  -2 -10   95.79    7.60
   2  -2 -10  114.49    7.50
   2  -2 -10   96.59    7.50
   2  -2 -10  102.69    7.40
   2  -2 -10  110.09    7.40
   2   2 -10   99.69    7.40
  -2   2  10   96.59    7.50
   2   2 -10  103.49    7.50
   2  -2 -12   30.70    2.40
   2  -2 -12   26.70    2.40
   2  -2 -12   29.70    2.40
  -2  -2  12   27.90    2.50
  -2  -2  12   29.10    2.70
   2  -2 -12   26.70    2.50
   2  -2 -12   27.90    2.20
   2  -2 -12   26.30    2.40
   2   2 -12   30.30    2.40
  -2   2  12   30.30    2.30
   2   2 -12   28.90    2.40
   2  -2 -14    0.10    0.50
  -2  -2  14    0.60    0.80
   2  -2 -14    0.10    0.80
   2  -2 -14   -0.10    0.80
  -2  -2  14    1.40    1.40
  -2  -2  14    1.60    0.70
   2  -2 -14    0.20    0.90
   2  -2 -14   -0.90    0.80
  -2   2  14    0.20    0.60
   2   2 -14   -0.50    0.80
  -2  -2  16    9.10    1.30
  -2  -2  16    6.80    1.20
   2  -2 -16    7.10    1.10
  -2   2  16    7.10    1.00
   2   2 -16    8.40    1.20
   2   2 -16    8.00    1.00
  -2  -3 -15   36.50    3.00
   2  -3  15   41.80    3.20
   2  -3  15   36.90    3.00
   2   3  15   38.10    3.10
  -2   3 -15   39.00    3.00
   2   3  15   41.30    3.00
   2  -3  13   14.10    1.50
  -2  -3 -13   14.00    1.50
  -2  -3 -13   14.80    1.50
   2  -3  13   16.70    1.90
  -2  -3 -13   16.10    1.70
   2   3  13   14.70    1.40
   2   3  13   15.30    1.60
  -2   3 -13   16.30    1.40
   2  -3  11   52.39    4.90
   2  -3  11   57.69    4.30
  -2  -3 -11   54.89    4.40
  -2  -3 -11   60.19    4.40
  -2  -3 -11   56.79    4.60
   2  -3  11   62.19    4.60
   2   3  11   56.59    4.20
  -2   3 -11   57.89    4.20
   2   3  11   50.19    4.80
   2  -3   9   35.10    3.10
   2  -3   9   35.50    2.90
  -2  -3  -9   38.50    2.90
  -2  -3  -9   33.50    2.90
   2  -3   9   37.60    3.00
  -2  -3  -9   34.50    2.80
   2  -3   9   34.30    3.10
  -2  -3  -9   39.80    2.90
   2   3   9   37.00    2.80
   2   3   9   34.10    2.90
  -2  -3  -7   21.70    1.90
   2  -3   7   22.40    2.00
  -2  -3  -7   21.10    1.80
   2  -3   7   21.80    1.90
   2  -3   7   16.90    2.10
   2  -3   7   19.00    2.10
   2  -3   7   25.80    2.10
   2  -3   7   21.70    2.10
  -2  -3  -7   21.30    1.80
  -2  -3  -7   22.60    1.90
   2   3   7   19.50    1.80
   2   3   7   23.80    1.80
  -2   3  -7   25.60    2.00
   2   3   7   21.30    1.90
   2  -3   5   53.49    4.00
  -2  -3  -5   53.29    4.00
  -2  -3  -5   59.59    4.00
   2  -3   5   50.69    4.20
  -2  -3  -5   52.59    4.00
   2  -3   5   62.19    4.20
  -2  -3  -5   53.99    4.00
  -2  -3  -5   59.09    4.00
  -2  -3  -5   50.69    4.00
   2  -3   5   47.40    4.10
   2  -3   5   50.59    4.00
   2  -3   5   56.59    4.20
   2   3   5   47.20    3.90
   2   3   5   54.79    4.00
   2   3   5   48.00    3.90
  -2   3  -5   59.89    4.10
  -2  -3  -3  438.26   32.30
   2  -3   3  449.36   32.40
  -2  -3  -3  477.75   32.30
  -2  -3  -3  501.05   32.40
   2  -3   3  442.26   32.40
  -2  -3  -3  438.16   32.30
  -2  -3  -3  423.06   32.30
   2  -3   3  440.16   32.30
   2  -3   3  444.86   32.40
   2  -3   3  450.65   32.40
   2  -3   3  463.75   32.50
  -2  -3  -3  484.95   32.40
   2   3   3  450.55   32.30
  -2   3  -3  501.65   32.30
   2   3   3  426.06   32.30
  -2  -3  -1  812.52   57.89
  -2  -3  -1  800.52   57.79
  -2  -3  -1  786.42   57.79
  -2  -3  -1  718.03   57.79
  -2  -3  -1  841.92   57.79
   2  -3   1  817.62   57.79
  -2  -3  -1  818.52   57.89
  -2  -3  -1  702.83   57.89
  -2  -3  -1  862.81   57.79
   2  -3   1  809.82   57.89
   2  -3   1  934.91   57.89
   2  -3   1  855.31   57.89
   2  -3   1  750.32   57.79
   2  -3   1  919.81   57.99
   2  -3   1  747.63   57.79
   2  -3   1  798.52   57.79
   2  -3   1  842.72   57.89
   2   3   1  831.92   57.79
  -2   3  -1  883.21   57.79
   2   3   1  826.22   57.79
  -2   3  -1  829.12   57.79
   2   3   1  761.72   57.79
  -2  -3   1    1.10    0.20
   2  -3  -1    1.20    0.30
   2  -3  -1    1.60    0.40
   2  -3  -1    1.50    0.30
   2  -3  -1    1.00    0.30
  -2  -3   1    0.70    0.40
  -2  -3   1    2.00    0.50
  -2  -3   1    0.80    0.40
  -2  -3   1    1.10    0.50
  -2  -3   1    0.90    0.40
  -2  -3   1    0.80    0.50
   2  -3  -1    2.00    0.50
   2  -3  -1    1.30    0.30
   2  -3  -1    1.40    0.40
  -2   3   1    1.40    0.30
  -2   3   1    1.00    0.20
   2   3  -1    0.90    0.20
   2   3  -1    1.30    0.50
  -2   3   1    1.60    0.30
   2  -3  -3  175.38   13.10
  -2  -3   3  159.48   13.10
   2  -3  -3  176.58   13.10
  -2  -3   3  172.88   13.20
  -2  -3   3  188.58   13.20
   2  -3  -3  195.48   13.10
   2  -3  -3  180.58   13.10
  -2  -3   3  182.88   13.10
   2  -3  -3  180.28   13.10
  -2  -3   3  186.88   13.00
  -2  -3   3  170.18   13.20
  -2  -3   3  163.18   13.10
  -2  -3   3  179.78   13.10
   2  -3  -3  191.88   13.10
  -2   3   3  174.88   13.00
   2   3  -3  180.48   13.10
   2   3  -3  184.78   13.20
  -2   3   3  208.98   13.10
  -2   3   3  189.38   13.10
  -2   3   3  205.78   13.10
  -2   3   3  200.78   13.00
   2   3  -3  190.18   13.10
   2  -3  -5  245.28   16.70
  -2  -3   5  233.38   16.80
   2  -3  -5  264.57   16.70
  -2  -3   5  242.78   16.70
   2  -3  -5  232.88   16.70
   2  -3  -5  245.58   16.70
   2  -3  -5  229.58   16.70
  -2  -3   5  222.28   16.60
  -2  -3   5  223.38   16.70
  -2  -3   5  202.88   16.80
  -2  -3   5  217.48   16.70
  -2  -3   5  206.58   16.70
   2  -3  -5  239.08   16.70
  -2  -3   5  229.28   16.70
   2   3  -5  204.58   16.70
   2   3  -5  255.97   16.70
  -2   3   5  248.48   16.60
  -2   3   5  249.78   16.60
   2   3  -5  222.98   16.60
  -2   3   5  257.67   16.60
  -2  -3   7  341.47   24.60
  -2  -3   7  297.97   24.60
  -2  -3   7  290.07   24.50
   2  -3  -7  395.66   24.60
  -2  -3   7  332.87   24.70
   2  -3  -7  333.87   24.60
   2  -3  -7  357.96   24.60
   2  -3  -7  375.26   24.60
   2  -3  -7  383.56   24.60
  -2  -3   7  338.77   24.60
   2  -3  -7  341.47   24.70
  -2   3   7  357.76   24.50
  -2   3   7  346.77   24.50
   2   3  -7  317.77   24.50
   2   3  -7  360.36   24.70
  -2   3   7  359.96   24.50
   2   3  -7  337.87   24.70
  -2  -3   9    3.30    0.90
   2  -3  -9    3.80    0.70
   2  -3  -9    4.40    1.00
   2  -3  -9    4.90    0.90
   2  -3  -9    3.80    0.80
   2  -3  -9    5.10    0.70
  -2  -3   9    3.90    0.90
  -2   3   9    4.50    0.80
   2   3  -9    5.30    0.80
   2   3  -9    2.00    1.00
   2  -3 -11  193.88   13.00
   2  -3 -11  186.58   13.00
   2  -3 -11  163.48   13.10
  -2  -3  11  192.88   13.30
   2  -3 -11  188.78   13.10
  -2  -3  11  156.68   13.10
   2  -3 -11  186.78   13.10
  -2   3  11  183.78   13.00
   2   3 -11  175.48   13.00
   2  -3 -13    5.20    1.00
   2  -3 -13    5.00    1.00
   2  -3 -13    5.80    0.80
  -2  -3  13    6.30    1.30
  -2  -3  13    4.50    1.20
   2  -3 -13    5.30    1.10
   2  -3 -13    5.70    1.30
   2   3 -13    6.60    1.30
  -2   3  13    6.00    1.00
   2   3 -13    5.90    1.00
  -2  -3  15    1.10    1.30
  -2  -3  15   -0.90    0.90
   2  -3 -15    0.00    0.50
   2  -3 -15   -0.10    1.00
   2   3 -15    0.90    0.80
  -2   3  15    0.90    0.70
   2  -4  14    1.80    1.00
  -2  -4 -14    0.10    0.40
   2  -4  14    0.70    0.70
   2   4  14    1.40    0.50
   2   4  14    0.30    0.50
  -2   4 -14    0.10    0.60
  -2  -4 -12    0.80    0.70
  -2  -4 -12   -0.30    0.50
  -2  -4 -12   -0.20    0.80
   2  -4  12    2.30    0.80
   2  -4  12    0.50    1.10
   2   4  12    1.10    0.60
  -2   4 -12    1.70    0.50
  -2  -4 -10  212.68   14.90
   2  -4  10  218.38   15.20
  -2  -4 -10  192.08   14.90
  -2  -4 -10  200.68   14.90
   2  -4  10  200.28   14.90
   2   4  10  216.58   14.80
   2  -4   8  864.11   62.49
  -2  -4  -8  811.22   62.49
   2  -4   8  900.41   62.69
  -2  -4  -8  910.31   62.39
  -2  -4  -8  875.71   62.49
   2  -4   8  806.32   62.49
  -2  -4  -8  953.50   62.49
   2  -4   8  960.00   62.69
   2   4   8  836.32   62.39
  -2  -4  -6  158.08   11.30
  -2  -4  -6  156.38   11.40
  -2  -4  -6  173.38   11.40
  -2  -4  -6  152.38   11.40
   2  -4   6  150.28   11.50
   2  -4   6  136.59   11.30
  -2  -4  -6  166.28   11.30
   2  -4   6  170.48   11.60
  -2  -4  -6  151.78   11.30
   2   4   6  158.88   11.30
   2  -4   4   14.00    1.60
  -2  -4  -4   12.00    1.20
  -2  -4  -4   12.10    1.20
   2  -4   4   12.40    1.40
  -2  -4  -4   13.40    1.20
  -2  -4  -4   12.30    1.20
  -2  -4  -4   14.10    1.30
   2  -4   4   11.30    1.20
   2  -4   4   13.80    1.40
   2  -4   4    9.00    1.70
   2  -4   4   12.20    1.50
  -2  -4  -4   12.80    1.30
   2   4   4   12.50    1.20
  -2   4  -4   13.30    1.40
   2   4   4   12.50    1.20
   2   4   4   12.90    1.20
   2  -4   2   26.00    2.10
  -2  -4  -2   25.90    2.00
   2  -4   2   21.30    1.90
   2  -4   2   20.30    1.90
  -2  -4  -2   21.30    1.90
   2  -4   2   21.80    2.40
  -2  -4  -2   23.40    1.90
   2  -4   2   24.90    2.00
   2  -4   2   27.50    2.10
   2  -4   2   26.30    2.00
  -2  -4  -2   27.80    1.90
   2   4   2   22.00    2.00
   2   4   2   23.20    1.90
  -2   4  -2   26.10    2.00
   2  -4   0   61.69    4.90
   2  -4   0   60.89    4.80
  -2  -4   0   60.69    4.90
  -2  -4   0   65.79    4.90
  -2  -4   0   59.89    5.10
   2  -4   0   67.69    4.90
  -2  -4   0   68.59    4.90
   2  -4   0   71.69    4.90
  -2  -4   0   64.69    4.90
   2  -4   0   70.69    5.00
   2  -4   0   70.69    4.90
  -2  -4   0   64.99    5.00
   2  -4   0   73.99    5.00
   2   4   0   67.29    4.90
   2   4   0   65.79    5.00
  -2   4   0   65.59    4.90
  -2   4   0   74.89    4.90
  -2   4   0   71.19    4.80
   2   4   0   61.69    4.90
  -2  -4   2   66.79    5.40
   2  -4  -2   76.09    5.30
   2  -4  -2   74.39    5.20
  -2  -4   2   66.49    5.30
  -2  -4   2   69.19    5.30
   2  -4  -2   79.89    5.30
   2  -4  -2   75.89    5.30
   2  -4  -2   67.59    5.20
   2  -4  -2   64.29    5.20
  -2  -4   2   68.39    5.30
  -2  -4   2   69.19    5.30
   2  -4  -2   78.19    5.30
  -2  -4   2   61.69    5.30
   2  -4  -2   69.49    5.20
  -2   4   2   75.59    5.30
  -2   4   2   76.99    5.20
   2   4  -2   71.29    5.30
  -2   4   2   75.29    5.20
  -2   4   2   79.39    5.20
   2   4  -2   74.59    5.30
   2   4  -2   65.69    5.20
  -2  -4   4 1762.22  137.79
  -2  -4   4 1805.42  137.79
   2  -4  -4 1873.51  137.59
  -2  -4   4 1900.31  137.69
  -2  -4   4 2056.79  137.69
   2  -4  -4 1827.12  137.69
  -2  -4   4 1976.10  137.79
   2  -4  -4 2048.40  137.69
  -2  -4   4 1794.42  137.69
   2  -4  -4 2100.19  137.69
   2  -4  -4 2202.58  137.69
   2  -4  -4 1907.01  137.69
   2   4  -4 1724.83  137.59
   2   4  -4 1909.51  137.69
  -2   4   4 1972.30  137.59
  -2   4   4 2094.39  137.69
  -2   4   4 2049.99  137.59
   2   4  -4 2037.80  137.69
   2   4  -4 1808.22  137.59
  -2   4   4 2030.50  137.59
  -2  -4   6 1063.39   77.99
   2  -4  -6 1177.48   77.79
  -2  -4   6  957.50   77.89
   2  -4  -6 1175.18   77.89
  -2  -4   6 1114.69   77.79
   2  -4  -6 1045.50   77.89
   2  -4  -6 1078.79   77.79
  -2  -4   6  971.00   77.89
   2  -4  -6 1214.18   77.89
   2  -4  -6 1248.78   77.89
   2   4  -6 1114.09   77.79
  -2   4   6 1062.69   77.69
   2   4  -6  982.20   77.79
   2   4  -6 1207.78   77.89
  -2   4   6 1049.20   77.79
  -2   4   6 1102.69   77.79
   2  -4  -8    4.50    0.90
   2  -4  -8    5.50    1.10
   2  -4  -8    5.60    1.10
   2  -4  -8    6.30    1.00
  -2  -4   8    5.60    1.10
   2  -4  -8    6.00    0.90
   2  -4  -8    6.00    0.80
  -2  -4   8    5.60    1.40
   2   4  -8    6.90    1.30
   2   4  -8    5.60    0.90
  -2   4   8    7.80    1.30
  -2  -4  10    0.70    1.50
   2  -4 -10    1.60    1.10
   2  -4 -10    0.20    0.60
   2  -4 -10    0.80    0.60
  -2  -4  10    0.00    1.20
   2  -4 -10   -0.80    0.70
  -2   4  10   -0.70    0.80
   2  -4 -12   14.40    1.70
   2  -4 -12   16.90    1.60
  -2  -4  12   12.40    1.80
   2  -4 -12   16.40    1.40
   2  -4 -12   14.20    1.60
  -2  -4  12   16.10    1.90
   2  -4 -12   14.70    1.40
   2   4 -12   13.90    1.60
   2   4 -12   16.40    1.50
  -2   4  12   14.20    1.60
   2  -4 -14    6.60    1.10
   2  -4 -14    6.80    1.20
   2  -4 -14    6.40    0.90
  -2  -4  14    4.50    1.30
  -2  -4  14    5.60    1.30
   2  -4 -14    6.30    1.10
  -2   4  14    4.60    0.80
   2   4 -14    6.20    1.00
   2  -5  11   13.50    2.00
  -2  -5 -11   10.50    2.10
  -2  -5 -11   12.80    1.40
  -2  -5 -11   16.50    1.40
   2   5  11   12.20    1.30
  -2  -5  -9  162.28   12.40
  -2  -5  -9  171.88   12.30
   2  -5   9  173.98   12.60
  -2  -5  -9  165.68   12.30
  -2  -5  -9  169.18   12.30
   2  -5   9  169.08   12.40
   2   5   9  179.08   12.20
  -2  -5  -7  122.09    9.20
  -2  -5  -7  133.69    9.20
  -2  -5  -7  117.69    9.30
   2   5   7  130.59    9.20
  -2  -5  -5   30.60    2.50
  -2  -5  -5   31.00    2.70
   2  -5   5   31.70    2.80
  -2  -5  -5   30.50    2.60
  -2  -5  -5   29.80    2.50
  -2  -5  -5   32.70    2.70
   2   5   5   31.80    2.50
  -2  -5  -3   22.00    2.00
  -2  -5  -3   25.60    2.20
   2  -5   3   24.70    2.10
   2  -5   3   21.20    2.00
  -2  -5  -3   23.70    2.10
  -2  -5  -3   22.90    2.00
   2  -5   3   24.60    2.30
  -2  -5  -3   24.60    2.00
   2   5   3   24.10    2.10
   2   5   3   25.60    2.00
  -2  -5  -1   45.60    3.50
  -2  -5  -1   43.60    3.60
   2  -5   1   48.60    3.70
   2  -5   1   46.40    3.60
   2  -5   1   48.80    3.60
  -2  -5  -1   48.70    3.60
   2  -5   1   49.99    3.70
   2  -5   1   43.80    3.50
  -2  -5  -1   44.70    3.50
  -2  -5  -1   45.50    3.70
   2   5   1   44.40    3.50
  -2  -5   1   10.70    1.40
   2  -5  -1    9.20    1.20
   2  -5  -1    8.10    1.00
  -2  -5   1   12.50    2.00
   2  -5  -1   11.30    1.10
  -2  -5   1    9.40    1.20
   2  -5  -1   11.10    1.20
   2  -5  -1    8.50    1.00
  -2  -5   1    9.10    1.10
  -2  -5   1    9.70    1.30
  -2  -5   1    8.20    1.10
   2   5  -1    8.60    1.20
   2  -5  -3  186.38   13.20
  -2  -5   3  204.98   13.30
  -2  -5   3  171.18   13.30
   2  -5  -3  210.18   13.30
  -2  -5   3  173.58   13.50
  -2  -5   3  159.48   13.20
  -2  -5   3  180.38   13.40
   2  -5  -3  208.88   13.30
   2  -5  -3  183.78   13.20
  -2  -5   3  171.78   13.40
   2  -5  -3  181.08   13.20
   2   5  -3  180.88   13.20
   2   5  -3  178.18   13.10
  -2  -5   5  496.15   38.60
  -2  -5   5  502.35   38.60
   2  -5  -5  583.04   38.50
  -2  -5   5  531.75   38.70
  -2  -5   5  483.15   38.50
   2  -5  -5  556.64   38.50
   2  -5  -5  537.65   38.40
   2  -5  -5  552.94   38.50
  -2  -5   5  620.74   38.80
  -2  -5   5  572.14   38.50
   2  -5  -5  511.85   38.50
   2   5  -5  546.45   38.50
   2   5  -5  537.35   38.40
   2  -5  -7   88.29    6.50
   2  -5  -7   77.09    6.60
   2  -5  -7   94.19    6.50
  -2  -5   7   79.99    6.50
   2  -5  -7   95.59    6.40
  -2  -5   7   86.69    6.90
   2  -5  -7   86.39    6.50
   2   5  -7   95.89    6.40
   2  -5  -9    4.00    0.80
   2  -5  -9    4.20    0.90
   2  -5  -9    4.20    0.80
   2  -5  -9    5.00    1.00
   2  -5  -9    3.00    0.80
  -2  -5   9    4.50    1.20
   2   5  -9    5.80    0.90
  -2  -5  11   39.70    3.50
   2  -5 -11   44.40    3.10
   2  -5 -11   40.40    3.20
   2  -5 -11   42.40    3.10
   2  -5 -11   33.90    3.30
   2   5 -11   38.70    3.10
  -2   5  11   39.40    3.00
  -2  -5  13    6.70    1.40
  -2  -5  13    7.80    1.60
   2  -5 -13    6.50    0.90
   2  -5 -13    5.70    0.80
   2  -5 -13    7.30    1.20
   2   5 -13    5.20    1.00
  -2   5  13    5.90    0.80
  -2  -6 -10    1.40    0.80
  -2  -6 -10    0.20    0.50
   2   6  10    1.70    0.80
   2   6  10    1.30    0.50
   2  -6   8   15.00    2.00
  -2  -6  -8   15.80    1.70
  -2  -6  -8   21.10    1.80
  -2  -6  -8   16.00    1.90
  -2  -6  -8   16.80    1.70
   2   6   8   16.60    1.70
   2   6   8   20.60    1.60
  -2  -6  -6   28.50    2.60
  -2  -6  -6   28.70    2.40
  -2  -6  -6   26.00    2.40
  -2  -6  -6   27.70    2.40
   2   6   6   28.50    2.60
   2   6   6   31.60    2.30
  -2  -6  -4   -0.10    0.70
  -2  -6  -4    0.40    0.70
   2  -6   4    3.00    1.00
  -2  -6  -4    1.30    1.00
  -2  -6  -4    0.30    0.50
   2   6   4    0.30    0.60
   2  -6   2    6.60    1.20
  -2  -6  -2    4.90    1.10
  -2  -6  -2    6.10    1.10
  -2  -6  -2    7.30    1.20
   2  -6   2    4.80    1.10
   2  -6   2    6.40    1.30
   2   6   2    4.70    0.90
   2  -6   0    9.80    1.40
  -2  -6   0    5.90    1.10
   2  -6   0    9.60    1.50
  -2  -6   0    7.30    1.30
  -2  -6   0    7.20    1.40
   2  -6   0    6.90    1.30
   2  -6   0   10.40    1.60
  -2  -6   0    8.10    1.60
   2   6   0    9.40    1.60
  -2  -6   2   62.99    5.30
  -2  -6   2   62.59    5.20
   2  -6  -2   75.79    5.20
  -2  -6   2   62.59    5.30
   2  -6  -2   73.29    5.10
  -2  -6   2   66.99    5.20
   2   6  -2   69.99    5.00
   2  -6  -4   45.50    3.40
   2  -6  -4   48.90    3.60
  -2  -6   4   40.10    3.70
   2  -6  -4   46.60    3.50
  -2  -6   4   39.40    4.00
   2  -6  -4   51.69    3.60
  -2  -6   4   43.90    3.60
  -2  -6   4   37.70    3.80
   2   6  -4   43.00    3.40
   2   6  -4   48.50    3.80
   2  -6  -6   -1.10    0.90
   2  -6  -6    0.60    0.60
   2  -6  -6    0.50    0.70
  -2  -6   6   -0.90    0.70
   2  -6  -6    0.30    1.00
   2  -6  -6    0.40    0.60
  -2  -6   6    0.60    1.20
   2  -6  -6   -0.10    0.50
   2   6  -6    0.10    0.60
   2  -6  -8   58.79    4.40
  -2  -6   8   47.10    4.60
   2  -6  -8   62.39    4.30
   2   6  -8   57.29    4.20
  -2  -6  10   14.70    2.00
   2  -6 -10   17.00    2.00
   2  -6 -10   19.80    1.50
   2  -6 -10   19.10    1.60
   2  -6 -10   16.30    1.90
   2   6 -10   17.00    1.60
  -2  -7  -7   15.40    1.70
   2   7   7   17.90    1.50
  -2  -7  -3   16.30    1.70
  -2  -7  -3   14.10    1.90
   2   7   3   17.70    1.60
  -2  -7  -1   22.70    2.70
  -2  -7  -1   24.60    2.50
  -2  -7  -1   25.20    2.50
  -2  -7  -1   23.20    2.30
  -2  -7  -1   25.00    2.30
   2  -7   1   28.30    2.30
   2   7   1   24.50    2.20
   2  -7  -1    0.30    1.20
  -2  -7   1   -0.30    1.10
  -2  -7   1    0.90    0.70
   2  -7  -1    0.60    0.60
   2  -7  -1    0.70    1.20
   2  -7  -1    0.80    0.70
  -2  -7   1   -0.90    0.90
  -2  -7   1   -0.20    0.90
  -2  -7   1   -1.10    1.20
   2  -7  -1    0.50    0.80
   2   7  -1    0.20    0.50
   2   7  -1   -1.70    1.20
   2  -7  -3    4.50    0.90
   2  -7  -3    3.90    0.80
  -2  -7   3    4.10    1.00
   2   7  -3    5.40    0.80
   2  -7  -5  286.97   21.20
   2  -7  -5  295.17   21.00
   2  -7  -5  308.67   21.10
   2  -7  -5  312.77   21.20
   2   7  -5  269.47   21.00
   2  -7  -7    0.70    1.00
  -2  -7   7   -0.50    1.30
   2  -7  -7    0.50    0.70
   2  -7  -7    0.00    0.60
   2  -7  -7    1.10    0.90
   2   7  -7    0.20    0.70
  -3   0 -15    1.10    0.60
   3   0  15   -0.70    0.70
   3   0  15    0.60    1.20
   3   0  15    0.10    0.60
   3   0  13    0.60    0.60
   3   0  13   -0.90    0.70
   3   0  13   -1.40    1.00
  -3   0 -13   -0.20    0.60
  -3   0 -11    0.10    0.60
   3   0  11   -0.60    1.00
   3   0  11   -0.30    0.60
  -3   0 -11   -0.70    0.50
   3   0  11   -1.20    0.70
   3   0   9   -0.40    0.90
  -3   0  -9   -0.20    1.00
  -3   0  -9   -0.40    0.50
   3   0   9    0.10    0.60
   3   0   9    0.30    0.60
   3   0   7    0.30    0.40
   3   0   7    0.80    0.40
  -3   0  -7   -0.30    0.50
   3   0   7    0.10    0.50
  -3   0  -7   -0.20    0.40
   3   0   7   -0.60    0.50
   3   0   5    0.60    0.50
  -3   0  -5    1.10    0.40
   3   0   5    1.30    0.40
   3   0   5    1.80    0.80
  -3   0  -5    1.20    0.40
  -3   0  -5    0.60    0.30
   3   0   5    1.00    0.50
   3   0   5    0.80    0.30
  -3   0  -3    0.10    0.30
   3   0   3   -0.40    0.40
   3   0   3    0.70    0.50
   3   0   3    0.90    0.50
   3   0   3   -0.30    0.30
   3   0   3    0.10    0.70
  -3   0  -3   -0.40    0.30
   3   0   3    0.10    0.30
  -3   0  -3   -0.30    0.20
   3   0   1    0.30    0.20
  -3   0  -1    0.50    0.20
   3   0   1    0.20    0.30
   3   0   1    0.10    0.30
   3   0   1    0.00    0.10
  -3   0  -1    0.30    0.20
  -3   0  -1    0.20    0.20
  -3   0   1    0.10    0.20
   3   0  -1   -0.20    0.20
   3   0  -1    0.20    0.20
   3   0  -1    0.10    0.30
   3   0  -1   -0.40    0.30
  -3   0   1    0.00    0.20
   3   0  -3   -0.20    0.50
   3   0  -3   -0.40    0.30
   3   0  -3    0.00    0.30
  -3   0   3    0.30    0.20
  -3   0   3    0.40    0.40
  -3   0   3   -0.10    0.20
   3   0  -5    0.70    0.50
   3   0  -5    1.10    0.60
   3   0  -5   -1.00    0.50
   3   0  -5   -0.10    0.40
   3   0  -5    0.70    0.70
  -3   0   5    0.30    0.30
  -3   0   5    0.30    0.20
   3   0  -5    0.20    0.50
  -3   0   5   -0.30    0.50
  -3   0   5    0.10    0.20
   3   0  -5    0.40    0.50
   3   0  -7    1.60    0.50
   3   0  -7    0.50    0.70
  -3   0   7    1.70    0.30
   3   0  -7    2.80    0.60
   3   0  -9    0.20    0.80
  -3   0   9    0.50    0.60
  -3   0   9    0.50    0.50
   3   0  -9   -0.40    0.70
  -3   0   9    0.40    0.90
   3   0  -9   -0.90    0.60
   3   0  -9    1.00    0.90
   3   0  -9    0.90    0.60
  -3   0   9    0.70    0.40
   3   0  -9    0.80    0.50
  -3   0   9    0.90    0.50
   3   0 -11    2.50    0.90
  -3   0  11    0.60    0.70
   3   0 -11    1.90    0.70
   3   0 -11    1.40    0.70
   3   0 -13   -0.80    1.10
   3   0 -13    1.40    0.90
   3   0 -13    0.80    0.80
  -3   0  13   -0.90    0.60
   3   0 -13    0.20    0.50
  -3   0  13    0.90    0.90
   3   0 -15    0.30    0.90
   3   0 -15   -0.10    0.60
  -3   0  15    1.30    0.90
   3   0 -15    0.00    0.80
  -3   0  15    0.20    0.70
  -3   0  17   -1.00    1.10
   3   0 -17   -0.20    0.80
  -3   0  17    1.20    0.60
   3   0 -17   -0.50    0.50
   3  -1  14    7.30    1.20
  -3  -1 -14    7.70    1.00
   3  -1  14    7.10    1.40
   3  -1  14    7.60    1.00
   3   1  14    8.70    1.00
   3   1  14    8.80    1.20
  -3   1 -14    8.80    1.00
  -3  -1 -12    9.50    1.20
   3  -1  12   10.40    1.50
   3  -1  12   11.00    1.10
   3  -1  12   10.40    1.30
   3   1  12    9.00    1.10
   3   1  12   10.80    1.30
   3   1  12    8.60    1.70
  -3   1 -12    9.30    1.10
  -3  -1 -10   31.30    2.50
   3  -1  10   32.20    2.80
  -3  -1 -10   30.90    2.50
   3  -1  10   33.10    2.70
   3   1  10   25.90    2.80
   3   1  10   34.80    2.60
  -3   1 -10   31.80    2.50
   3   1  10   31.40    2.50
  -3  -1  -8   10.90    1.10
   3  -1   8   12.90    1.50
   3  -1   8   10.20    1.80
   3  -1   8   12.60    1.30
   3  -1   8   11.00    1.30
  -3  -1  -8   12.40    1.10
   3   1   8   10.70    1.00
  -3   1  -8   12.90    1.40
   3   1   8    8.40    1.50
  -3   1  -8   12.60    1.10
   3   1   8    8.80    1.20
   3   1   8    9.50    1.10
   3   1   8   13.20    1.10
   3   1   8   11.60    1.20
   3  -1   6  191.08   13.80
  -3  -1  -6  217.58   13.80
   3  -1   6  203.68   13.80
  -3  -1  -6  176.08   13.70
   3  -1   6  188.58   13.80
   3  -1   6  190.08   13.90
  -3  -1  -6  198.98   13.70
   3  -1   6  180.88   13.80
  -3  -1  -6  208.18   13.70
   3   1   6  164.48   13.80
   3   1   6  190.78   13.70
   3   1   6  191.18   13.80
  -3   1  -6  219.88   13.80
   3   1   6  190.78   13.70
   3   1   6  187.68   13.70
  -3   1  -6  178.28   13.70
  -3  -1  -4  525.15   35.80
   3  -1   4  519.15   35.90
   3  -1   4  496.65   35.80
   3  -1   4  532.35   35.90
  -3  -1  -4  530.55   35.80
  -3  -1  -4  497.05   35.80
   3  -1   4  456.85   35.90
   3  -1   4  486.85   35.90
   3   1   4  545.15   35.80
  -3   1  -4  576.24   35.80
   3   1   4  461.25   35.80
   3   1   4  524.05   35.80
   3   1   4  451.55   35.90
   3   1   4  465.15   35.90
   3   1   4  486.45   35.80
  -3   1  -4  527.95   35.90
  -3  -1  -2 1709.63  114.09
   3  -1   2 1683.03  114.09
   3  -1   2 1600.54  114.09
   3  -1   2 1557.04  114.09
  -3  -1  -2 1717.93  114.09
   3  -1   2 1500.25  114.19
   3  -1   2 1508.25  114.19
  -3  -1  -2 1599.14  114.09
   3  -1   2 1514.15  114.09
  -3  -1  -2 1696.13  114.09
   3   1   2 1429.16  114.09
  -3   1  -2 1726.83  114.09
   3   1   2 1699.83  114.09
   3   1   2 1562.54  114.09
  -3   1  -2 1812.62  114.09
   3   1   2 1461.45  114.19
   3   1   2 1628.74  114.09
  -3  -1   0  286.47   21.00
  -3  -1   0  286.47   21.00
   3  -1   0  281.47   21.00
  -3  -1   0  287.17   21.10
   3  -1   0  313.57   21.00
  -3  -1   0  274.27   21.00
   3  -1   0  321.27   21.00
   3   1   0  276.07   21.00
  -3   1   0  318.87   21.00
  -3   1   0  310.77   21.00
   3   1   0  307.47   21.00
  -3   1   0  293.47   21.00
   3   1   0  323.67   21.00
   3   1   0  267.57   21.00
  -3  -1   2   35.40    2.70
   3  -1  -2   42.40    2.80
   3  -1  -2   32.30    2.70
  -3  -1   2   33.40    2.70
  -3  -1   2   39.90    2.70
  -3  -1   2   37.20    2.90
   3  -1  -2   40.30    2.70
   3  -1  -2   40.60    2.70
  -3  -1   2   35.90    2.70
   3   1  -2   40.50    2.70
   3   1  -2   35.70    2.70
   3   1  -2   38.10    2.80
  -3   1   2   36.50    2.70
  -3   1   2   39.40    2.70
  -3   1   2   39.20    2.70
   3   1  -2   33.00    2.70
   3   1  -2   32.20    2.70
   3  -1  -4  386.86   25.20
  -3  -1   4  354.86   25.30
   3  -1  -4  376.86   25.20
   3  -1  -4  382.36   25.30
   3  -1  -4  318.97   25.20
  -3  -1   4  314.97   25.20
  -3  -1   4  317.17   25.20
   3  -1  -4  402.76   25.30
   3   1  -4  337.77   25.30
   3   1  -4  328.77   25.20
  -3   1   4  366.36   25.20
  -3   1   4  349.27   25.20
   3   1  -4  355.46   25.20
  -3   1   4  346.57   25.20
  -3   1   4  363.66   25.20
   3   1  -4  380.76   25.20
  -3  -1   6  232.98   15.60
   3  -1  -6  229.58   15.50
  -3  -1   6  205.78   15.40
   3  -1  -6  237.78   15.50
   3  -1  -6  208.28   15.50
   3  -1  -6  239.18   15.60
   3  -1  -6  225.08   15.50
  -3  -1   6  190.08   15.40
   3  -1  -6  188.88   15.50
  -3   1   6  229.88   15.50
   3   1  -6  216.18   15.50
   3   1  -6  235.88   15.60
   3   1  -6  212.08   15.40
   3   1  -6  197.18   15.60
   3   1  -6  211.58   15.60
   3   1  -6  216.08   15.40
  -3   1   6  208.58   15.50
  -3   1   6  225.78   15.40
  -3  -1   8   10.20    1.00
  -3  -1   8    9.00    1.10
   3  -1  -8   10.60    1.20
  -3  -1   8   10.00    1.00
   3  -1  -8    9.40    1.20
   3  -1  -8    9.50    0.90
   3  -1  -8    9.90    1.00
   3  -1  -8   10.70    1.10
  -3  -1   8    9.50    0.90
   3  -1  -8    9.30    1.10
   3  -1  -8   10.90    1.20
  -3  -1   8    9.70    1.00
  -3   1   8    9.50    0.90
  -3   1   8    8.40    0.90
   3   1  -8    7.00    1.50
   3   1  -8    7.90    1.00
   3   1  -8   11.00    1.00
   3   1  -8    8.10    1.40
  -3  -1  10  432.56   32.60
   3  -1 -10  452.25   32.70
   3  -1 -10  448.86   32.60
   3  -1 -10  494.25   32.50
  -3  -1  10  466.25   32.70
   3  -1 -10  438.76   32.70
   3  -1 -10  461.15   32.60
   3  -1 -10  422.66   32.60
  -3   1  10  506.25   32.60
   3   1 -10  423.56   32.60
   3   1 -10  483.35   32.70
   3   1 -10  466.55   32.60
   3  -1 -12   24.20    2.40
  -3  -1  12   27.70    2.20
   3  -1 -12   26.40    2.30
  -3  -1  12   29.40    2.40
   3  -1 -12   25.90    2.40
  -3  -1  12   22.50    2.70
   3  -1 -12   29.20    2.30
   3  -1 -12   27.30    2.20
  -3   1  12   29.20    2.30
   3   1 -12   29.70    2.40
  -3   1  12   29.70    2.20
   3   1 -12   26.30    2.20
   3   1 -12   24.00    2.20
   3  -1 -14   32.40    2.40
   3  -1 -14   23.40    2.50
  -3  -1  14   31.50    2.50
   3  -1 -14   26.50    2.50
  -3  -1  14   27.90    2.30
   3  -1 -14   27.60    2.30
  -3   1  14   29.40    2.40
   3   1 -14   30.70    2.40
   3   1 -14   24.10    2.40
  -3   1  14   28.30    2.50
   3   1 -14   28.90    2.30
   3  -1 -16    1.00    0.90
  -3  -1  16    0.20    0.90
   3  -1 -16    0.60    0.50
   3  -1 -16    0.60    0.80
  -3  -1  16   -0.40    0.70
  -3   1  16   -0.30    0.60
   3   1 -16   -0.30    0.90
   3   1 -16    0.20    0.50
  -3  -2 -15   13.30    1.30
   3  -2  15   14.10    1.30
   3  -2  15   14.60    1.60
  -3  -2 -15   13.60    1.40
   3  -2  15   13.70    1.60
  -3   2 -15   13.60    1.30
   3   2  15   11.60    1.30
   3   2  15   14.10    1.40
  -3  -2 -13    2.50    0.50
   3  -2  13    2.50    0.70
   3  -2  13    1.10    0.90
  -3  -2 -13    3.20    0.80
   3  -2  13    2.70    1.00
   3   2  13    2.50    0.60
  -3   2 -13    2.90    0.70
   3   2  13    4.20    1.20
   3   2  13    2.30    0.80
   3  -2  11   46.90    4.20
   3  -2  11   46.50    4.20
   3  -2  11   54.79    3.90
  -3  -2 -11   53.19    4.10
   3   2  11   46.30    3.70
   3   2  11   47.10    3.80
  -3   2 -11   43.50    3.70
  -3  -2  -9  284.17   21.50
   3  -2   9  316.97   21.60
   3  -2   9  335.57   21.80
   3  -2   9  291.27   21.60
  -3  -2  -9  280.57   21.50
   3   2   9  302.87   21.50
  -3   2  -9  286.47   21.50
   3   2   9  315.67   21.60
   3  -2   7  182.68   12.70
  -3  -2  -7  164.98   12.60
   3  -2   7  165.68   12.60
   3  -2   7  168.18   12.60
  -3  -2  -7  187.08   12.50
   3  -2   7  174.58   12.60
  -3   2  -7  198.58   12.70
   3   2   7  167.18   12.50
   3   2   7  186.28   12.60
   3   2   7  153.88   12.50
   3  -2   5   10.00    1.80
   3  -2   5   12.70    1.20
  -3  -2  -5   13.90    1.10
   3  -2   5   13.40    1.40
   3  -2   5   12.20    1.20
  -3  -2  -5   12.30    1.20
   3   2   5   12.70    1.10
  -3   2  -5   15.50    1.30
   3   2   5   12.30    1.30
   3   2   5   10.10    1.40
   3  -2   3 2011.40  146.19
   3  -2   3 2237.08  146.19
   3  -2   3 2026.00  146.29
  -3  -2  -3 1973.50  146.19
   3  -2   3 2021.40  146.19
  -3  -2  -3 2085.09  146.19
   3  -2   3 2029.30  146.29
   3  -2   3 1998.20  146.29
  -3  -2  -3 2089.39  146.19
  -3  -2  -3 2100.19  146.19
  -3  -2  -3 2301.87  146.39
   3  -2   3 2133.79  146.19
   3   2   3 2015.70  146.19
  -3   2  -3 2183.08  146.29
   3   2   3 1991.50  146.19
   3   2   3 1907.91  146.19
   3   2   3 2011.90  146.29
  -3  -2  -1    6.30    0.90
  -3  -2  -1    7.70    0.70
   3  -2   1    6.30    0.70
   3  -2   1    6.40    0.80
   3  -2   1    7.20    0.90
   3  -2   1    6.00    1.10
  -3  -2  -1    7.20    0.80
  -3  -2  -1    7.50    0.80
   3  -2   1    8.70    0.80
   3   2   1    5.90    0.80
   3   2   1    8.00    0.90
   3   2   1    7.30    0.70
  -3   2  -1    8.20    0.70
  -3   2  -1    7.60    0.80
  -3  -2   1  239.68   17.10
  -3  -2   1  207.48   17.10
   3  -2  -1  209.58   17.10
  -3  -2   1  230.68   17.20
   3  -2  -1  267.47   17.10
  -3  -2   1  229.18   17.10
   3  -2  -1  265.47   17.10
   3  -2  -1  239.28   17.10
   3  -2  -1  224.28   17.10
  -3  -2   1  209.18   17.10
   3  -2  -1  261.77   17.10
   3   2  -1  243.38   17.10
   3   2  -1  244.98   17.10
  -3   2   1  256.67   17.10
  -3   2   1  264.07   17.10
   3   2  -1  225.48   17.10
  -3   2   1  275.37   17.10
  -3   2   1  238.18   17.00
  -3  -2   3 1398.16  116.19
   3  -2  -3 1709.63  116.19
  -3  -2   3 1616.44  116.29
   3  -2  -3 1455.75  116.19
  -3  -2   3 1767.82  116.19
   3  -2  -3 1587.44  116.29
  -3  -2   3 1435.56  116.19
   3  -2  -3 1581.64  116.29
   3  -2  -3 1607.14  116.19
   3  -2  -3 1599.04  116.19
  -3  -2   3 1713.53  116.19
  -3  -2   3 1697.23  116.19
   3  -2  -3 1843.62  116.29
  -3   2   3 1729.93  116.19
   3   2  -3 1676.33  116.19
  -3   2   3 1821.42  116.19
   3   2  -3 1618.24  116.19
   3   2  -3 1630.24  116.19
   3   2  -3 1503.45  116.19
  -3   2   3 1657.93  116.19
  -3   2   3 1793.22  116.19
   3   2  -3 1675.73  116.29
  -3  -2   5  652.93   54.29
  -3  -2   5  809.22   54.29
  -3  -2   5  643.14   54.29
   3  -2  -5  849.41   54.39
  -3  -2   5  710.53   54.39
   3  -2  -5  719.33   54.29
  -3  -2   5  786.12   54.39
   3  -2  -5  821.02   54.39
   3  -2  -5  813.32   54.29
   3  -2  -5  747.63   54.29
   3  -2  -5  724.33   54.39
  -3   2   5  648.44   54.39
  -3   2   5  798.22   54.29
  -3   2   5  837.32   54.29
   3   2  -5  766.82   54.29
  -3   2   5  857.11   54.29
   3   2  -5  696.73   54.39
  -3   2   5  848.92   54.39
   3   2  -5  757.42   54.29
  -3   2   5  793.02   54.29
   3   2  -5  819.82   54.39
   3   2  -5  764.42   54.39
  -3  -2   7   90.39    7.30
   3  -2  -7  101.09    7.40
   3  -2  -7   96.79    7.20
  -3  -2   7   89.59    7.30
  -3  -2   7  107.89    7.40
   3  -2  -7   99.89    7.30
   3  -2  -7  106.79    7.20
   3  -2  -7  105.19    7.30
   3  -2  -7  101.79    7.30
   3  -2  -7  108.09    7.40
   3   2  -7  107.99    7.40
  -3   2   7  101.69    7.20
   3   2  -7   97.69    7.20
   3   2  -7   94.49    7.40
  -3   2   7  100.39    7.20
   3   2  -7   96.59    7.20
   3  -2  -9   25.30    2.20
   3  -2  -9   29.40    2.40
   3  -2  -9   28.40    2.10
   3  -2  -9   25.70    2.30
   3  -2  -9   27.40    2.20
   3  -2  -9   24.30    2.30
  -3  -2   9   27.80    2.30
  -3  -2   9   25.20    2.20
   3   2  -9   26.30    2.10
   3   2  -9   31.50    2.40
   3   2  -9   23.80    3.10
  -3   2   9   27.60    2.20
  -3   2   9   24.30    2.10
  -3  -2  11  280.47   18.90
   3  -2 -11  268.57   18.80
   3  -2 -11  276.97   18.90
  -3  -2  11  252.87   18.80
   3  -2 -11  275.17   18.60
   3  -2 -11  247.18   18.80
   3  -2 -11  274.07   18.80
  -3  -2  11  238.68   18.70
   3  -2 -11  253.27   18.70
  -3   2  11  270.37   18.70
   3   2 -11  247.78   18.70
   3   2 -11  268.07   18.80
   3   2 -11  243.48   18.70
   3  -2 -13   15.50    1.60
   3  -2 -13   14.30    1.70
  -3  -2  13   15.00    2.10
   3  -2 -13   13.80    1.40
  -3  -2  13   13.30    1.50
  -3  -2  13   16.60    1.80
   3  -2 -13   14.60    1.50
   3  -2 -13   14.40    1.50
   3   2 -13   12.20    1.40
   3   2 -13   16.90    1.50
  -3   2  13   16.00    1.50
  -3  -2  15   64.69    5.40
   3  -2 -15   69.09    5.40
   3  -2 -15   68.59    5.30
   3   2 -15   66.69    5.30
  -3   2  15   84.09    5.40
   3   2 -15   79.39    5.40
  -3  -3 -14   25.10    2.10
   3  -3  14   24.40    2.20
   3  -3  14   27.80    2.40
  -3  -3 -14   25.40    2.10
   3   3  14   24.30    2.30
   3   3  14   26.60    2.30
   3  -3  12    0.90    1.00
   3  -3  12    1.70    0.70
  -3  -3 -12    2.10    0.70
   3  -3  12    2.20    1.20
  -3  -3 -12    1.40    0.50
  -3   3 -12    0.90    0.60
   3   3  12    0.80    0.60
   3   3  12    0.10    0.90
   3  -3  10    1.90    0.80
  -3  -3 -10    0.00    0.50
   3  -3  10   -1.70    1.10
  -3  -3 -10    0.10    0.70
   3  -3  10    1.00    1.20
  -3   3 -10    0.50    0.50
   3   3  10    1.00    1.00
   3   3  10    0.50    0.50
   3  -3   8   74.29    5.80
  -3  -3  -8   71.99    5.70
   3  -3   8   68.19    5.70
  -3  -3  -8   73.09    5.70
  -3  -3  -8   79.29    5.70
   3  -3   8   77.99    5.70
   3  -3   8   82.29    6.00
   3   3   8   82.19    5.70
   3   3   8   80.99    5.70
   3  -3   6  106.79    7.60
  -3  -3  -6  100.59    7.50
   3  -3   6  112.99    7.70
  -3  -3  -6   94.39    7.50
  -3  -3  -6  111.19    7.50
  -3  -3  -6  106.69    7.50
   3  -3   6   95.09    7.60
   3  -3   6   98.59    7.60
  -3   3  -6   97.59    7.70
   3   3   6  104.69    7.60
   3   3   6  106.99    7.50
  -3  -3  -4  161.48   11.20
   3  -3   4  158.48   11.30
   3  -3   4  148.79   11.30
  -3  -3  -4  158.38   11.30
   3  -3   4  138.79   11.30
   3  -3   4  153.68   11.20
   3  -3   4  157.88   11.30
   3  -3   4  154.98   11.40
  -3  -3  -4  172.98   11.40
   3  -3   4  171.48   11.40
  -3  -3  -4  172.68   11.30
   3   3   4  164.08   11.20
   3   3   4  156.48   11.30
   3   3   4  136.89   11.20
   3   3   4  143.09   11.20
   3  -3   2  136.99   10.20
   3  -3   2  140.19   10.20
   3  -3   2  143.09   10.20
  -3  -3  -2  152.08   10.20
   3  -3   2  151.08   10.30
  -3  -3  -2  143.49   10.30
  -3  -3  -2  144.19   10.20
  -3  -3  -2  146.79   10.20
  -3  -3  -2  161.88   10.20
   3  -3   2  133.19   10.20
   3  -3   2  127.69   10.20
   3  -3   2  140.09   10.20
   3   3   2  122.79   10.30
   3   3   2  130.29   10.10
   3   3   2  146.69   10.20
  -3   3  -2  148.39   10.20
  -3  -3   0  716.63   49.30
   3  -3   0  748.93   49.30
  -3  -3   0  669.03   49.30
   3  -3   0  689.23   49.20
   3  -3   0  763.92   49.30
   3  -3   0  685.63   49.20
  -3  -3   0  734.43   49.20
  -3  -3   0  617.14   49.20
   3  -3   0  620.44   49.20
  -3  -3   0  628.74   49.20
   3  -3   0  667.13   49.20
  -3  -3   0  713.53   49.20
   3  -3   0  717.53   49.20
   3  -3   0  753.22   49.20
   3   3   0  725.33   49.20
  -3   3   0  698.23   49.30
  -3   3   0  780.72   49.20
   3   3   0  636.34   49.20
  -3   3   0  653.53   49.10
   3   3   0  665.23   49.20
   3  -3  -2  340.87   22.70
  -3  -3   2  284.17   22.70
  -3  -3   2  324.67   22.80
  -3  -3   2  296.17   22.70
   3  -3  -2  300.07   22.70
  -3  -3   2  307.57   22.80
   3  -3  -2  337.07   22.80
   3  -3  -2  333.97   22.70
  -3  -3   2  279.57   22.80
   3  -3  -2  302.97   22.80
   3  -3  -2  340.37   22.80
   3  -3  -2  329.97   22.70
   3  -3  -2  337.07   22.70
  -3  -3   2  318.87   22.70
  -3   3   2  293.57   22.70
   3   3  -2  320.17   22.80
   3   3  -2  320.37   22.80
  -3   3   2  360.16   22.70
  -3   3   2  339.87   22.70
  -3   3   2  361.86   22.70
   3   3  -2  284.27   22.70
  -3  -3   4   42.90    3.50
  -3  -3   4   45.50    3.60
   3  -3  -4   48.30    3.50
   3  -3  -4   51.09    3.50
  -3  -3   4   48.10    3.70
   3  -3  -4   44.40    3.60
   3  -3  -4   51.49    3.60
  -3  -3   4   44.40    3.60
  -3  -3   4   41.60    3.60
  -3   3   4   54.99    3.50
   3   3  -4   49.40    3.70
  -3   3   4   52.39    3.50
  -3   3   4   43.70    3.50
   3   3  -4   45.60    3.80
   3   3  -4   46.90    3.50
  -3   3   4   51.79    3.50
  -3  -3   6   59.49    4.50
   3  -3  -6   60.99    4.40
  -3  -3   6   49.99    4.40
   3  -3  -6   60.69    4.40
  -3  -3   6   64.09    4.40
   3  -3  -6   59.59    4.30
   3  -3  -6   58.29    4.40
   3  -3  -6   60.29    4.40
   3  -3  -6   65.29    4.40
   3   3  -6   53.49    4.30
   3   3  -6   63.49    4.50
  -3   3   6   61.79    4.30
   3   3  -6   56.49    4.30
  -3   3   6   62.99    4.40
   3   3  -6   54.59    4.50
   3   3  -6   52.09    4.30
  -3   3   6   58.99    4.30
   3  -3  -8  201.78   15.20
   3  -3  -8  206.18   15.10
   3  -3  -8  220.28   15.10
   3  -3  -8  213.38   15.20
  -3  -3   8  186.88   15.10
  -3  -3   8  214.28   15.10
   3  -3  -8  195.78   15.10
  -3  -3   8  215.88   15.20
   3  -3  -8  239.58   15.10
   3   3  -8  215.28   15.20
   3   3  -8  206.68   15.00
   3  -3 -10   13.70    1.50
   3  -3 -10   14.80    1.60
   3  -3 -10   16.30    1.40
   3  -3 -10   17.30    1.50
   3  -3 -10   13.50    1.50
  -3  -3  10   14.30    1.80
   3  -3 -10   13.00    1.70
  -3  -3  10   12.90    1.60
   3   3 -10   14.30    1.40
   3   3 -10   14.30    1.70
  -3  -3  12   34.40    3.10
   3  -3 -12   34.50    2.60
   3  -3 -12   31.50    2.90
   3  -3 -12   34.20    2.70
  -3  -3  12   31.10    2.90
   3  -3 -12   32.70    2.80
  -3   3  12   34.80    2.70
   3   3 -12   35.10    2.70
   3   3 -12   34.90    3.00
   3   3 -12   32.70    2.70
  -3  -3  14   18.90    2.30
   3  -3 -14   20.30    1.90
   3  -3 -14   20.40    1.70
   3  -3 -14   19.40    1.80
   3  -3 -14   17.70    1.90
  -3  -3  14   20.00    2.00
   3   3 -14   20.60    1.80
  -3   3  14   23.60    1.80
   3   3 -14   18.10    1.90
  -3  -4 -13    8.90    1.10
   3  -4  13    8.90    1.10
   3  -4  13    9.30    1.50
  -3  -4 -13    6.70    1.00
   3   4  13    9.30    0.90
  -3   4 -13    8.50    1.00
   3   4  13    7.70    1.10
  -3  -4 -11    0.50    0.70
   3  -4  11    0.50    0.70
  -3  -4 -11    0.50    0.50
   3  -4  11    0.40    1.20
   3   4  11    0.70    0.50
  -3   4 -11    0.70    0.50
   3   4  11    1.90    0.60
  -3  -4  -9   35.30    3.00
   3  -4   9   37.80    3.00
   3  -4   9   36.10    3.30
  -3  -4  -9   37.00    2.90
   3   4   9   36.00    2.90
  -3  -4  -7   50.29    3.90
  -3  -4  -7   52.39    3.90
   3  -4   7   51.79    4.30
  -3  -4  -7   49.70    3.90
  -3  -4  -7   48.00    4.00
   3  -4   7   46.90    3.90
   3  -4   7   59.89    4.10
   3   4   7   50.69    3.90
  -3  -4  -5   20.20    2.00
  -3  -4  -5   21.00    1.80
  -3  -4  -5   21.70    1.80
  -3  -4  -5   19.50    1.80
  -3  -4  -5   19.30    1.80
   3  -4   5   18.00    1.70
   3  -4   5   16.10    2.10
   3   4   5   20.60    1.70
  -3  -4  -3   40.40    3.50
  -3  -4  -3   48.90    3.30
   3  -4   3   44.40    3.40
  -3  -4  -3   45.50    3.40
   3  -4   3   45.70    3.40
  -3  -4  -3   45.80    3.30
   3  -4   3   43.00    3.50
   3  -4   3   41.00    3.30
  -3  -4  -3   42.60    3.30
   3   4   3   45.20    3.30
   3   4   3   36.40    3.30
   3   4   3   44.30    3.30
  -3   4  -3   45.00    3.50
   3   4   3   39.20    3.30
  -3  -4  -1   52.49    3.70
   3  -4   1   51.19    3.80
   3  -4   1   47.70    3.90
  -3  -4  -1   52.19    3.80
   3  -4   1   52.39    3.80
   3  -4   1   49.60    3.70
  -3  -4  -1   40.40    4.40
  -3  -4  -1   52.89    3.80
  -3  -4  -1   50.59    3.70
   3   4   1   50.59    3.70
  -3   4  -1   47.90    3.80
   3   4   1   44.60    3.70
  -3   4  -1   51.49    3.80
   3   4   1   51.09    3.80
  -3  -4   1  153.78   11.60
   3  -4  -1  172.68   11.60
  -3  -4   1  160.28   11.70
  -3  -4   1  164.78   11.60
   3  -4  -1  157.28   11.60
   3  -4  -1  161.68   11.60
   3  -4  -1  174.78   11.60
   3  -4  -1  157.28   11.50
  -3  -4   1  162.48   11.60
   3  -4  -1  176.38   11.60
  -3  -4   1  154.38   11.70
  -3   4   1  177.98   11.60
   3   4  -1  164.78   11.60
  -3   4   1  175.78   11.60
   3   4  -1  150.48   11.60
  -3   4   1  143.39   11.60
   3   4  -1  136.89   11.50
  -3  -4   3   71.49    6.00
  -3  -4   3   74.19    6.10
   3  -4  -3   82.89    6.00
   3  -4  -3   95.39    6.10
  -3  -4   3   80.99    6.20
  -3  -4   3   89.19    6.00
   3  -4  -3   83.19    6.00
   3  -4  -3   80.29    6.00
  -3  -4   3   77.39    6.20
   3  -4  -3   92.89    6.00
   3  -4  -3   80.29    6.00
   3   4  -3   74.49    6.00
  -3   4   3   88.39    5.90
  -3   4   3   79.89    5.90
   3   4  -3   82.89    6.00
   3   4  -3   79.29    5.90
   3  -4  -5   18.70    1.70
   3  -4  -5   20.00    1.70
   3  -4  -5   19.50    1.80
   3  -4  -5   20.70    1.80
  -3  -4   5   20.40    2.00
   3  -4  -5   21.20    1.80
   3  -4  -5   22.00    1.70
  -3  -4   5   19.60    1.80
   3  -4  -5   19.70    1.70
   3   4  -5   20.80    1.90
   3   4  -5   19.50    1.60
   3   4  -5   15.20    1.90
  -3   4   5   16.00    1.80
  -3   4   5   20.60    1.70
   3  -4  -7  179.68   12.30
   3  -4  -7  151.18   12.30
  -3  -4   7  170.58   12.40
   3  -4  -7  165.08   12.30
   3  -4  -7  180.68   12.20
   3  -4  -7  170.48   12.20
   3  -4  -7  169.38   12.30
  -3  -4   7  174.88   12.30
   3   4  -7  168.68   12.20
   3   4  -7  169.88   12.30
  -3  -4   9   59.49    4.90
   3  -4  -9   63.99    4.90
   3  -4  -9   73.29    4.90
   3  -4  -9   58.19    5.00
   3  -4  -9   68.29    4.90
   3  -4  -9   70.09    5.00
  -3  -4   9   66.59    5.10
  -3  -4   9   55.49    5.00
  -3   4   9   66.29    4.90
   3   4  -9   66.89    4.80
   3   4  -9   64.59    5.00
  -3  -4  11   21.90    2.30
   3  -4 -11   27.80    2.00
   3  -4 -11   24.20    2.20
  -3  -4  11   23.90    2.50
   3  -4 -11   27.40    2.10
   3  -4 -11   23.50    2.10
   3  -4 -11   23.50    2.30
  -3   4  11   20.90    2.10
   3   4 -11   25.90    2.10
  -3  -4  13    2.00    1.00
   3  -4 -13    1.80    0.70
  -3  -4  13    1.70    1.10
   3  -4 -13    0.60    0.60
   3  -4 -13    1.40    0.60
   3  -4 -13    0.60    0.70
  -3   4  13    0.40    0.90
   3   4 -13    0.50    0.80
   3   4 -13    0.80    0.90
  -3  -5 -10  188.28   14.20
  -3  -5 -10  189.98   14.20
   3  -5  10  175.18   14.20
   3  -5  10  199.58   14.40
  -3   5 -10  217.98   14.10
   3   5  10  202.78   14.10
   3   5  10  205.28   14.10
  -3  -5  -8   60.59    4.80
   3  -5   8   65.09    4.90
   3  -5   8   57.89    4.80
  -3  -5  -8   64.99    4.90
  -3  -5  -8   61.59    4.80
   3  -5   8   62.19    5.10
   3   5   8   64.49    4.70
   3   5   8   66.39    4.70
  -3  -5  -6   -1.60    0.90
   3  -5   6   -0.10    0.90
  -3  -5  -6    0.40    0.90
  -3  -5  -6   -0.10    0.70
   3  -5   6   -2.30    1.40
  -3  -5  -6   -0.30    0.50
   3   5   6    0.60    0.50
   3   5   6   -0.80    0.70
  -3  -5  -4    0.40    0.80
  -3  -5  -4   -1.00    0.80
   3  -5   4    1.40    0.90
  -3  -5  -4    1.10    0.90
  -3  -5  -4    0.30    0.70
   3  -5   4   -0.20    0.80
   3   5   4   -0.10    0.80
   3   5   4    0.80    0.50
  -3  -5  -2    3.40    0.90
  -3  -5  -2    2.70    0.90
   3  -5   2    5.30    1.00
  -3  -5  -2    4.70    0.80
  -3  -5  -2    2.90    0.80
   3  -5   2    2.50    0.70
   3  -5   2    3.30    0.60
  -3  -5  -2    4.50    1.00
   3   5   2    3.90    1.00
   3   5   2    3.40    0.70
   3  -5   0    0.90    0.60
   3  -5   0    0.90    0.50
  -3  -5   0    0.30    0.80
   3  -5   0    2.30    0.70
  -3  -5   0    0.20    0.60
  -3  -5   0    0.70    0.60
  -3  -5   0    0.80    1.20
   3  -5   0    0.20    0.80
  -3  -5   0    0.10    0.70
   3   5   0    0.80    0.70
   3  -5  -2    4.60    1.00
   3  -5  -2    4.30    0.80
   3  -5  -2    3.20    0.70
  -3  -5   2    4.80    1.20
  -3  -5   2    3.20    0.90
  -3  -5   2    2.20    0.80
  -3  -5   2    3.90    1.00
   3  -5  -2    3.30    0.60
  -3  -5   2    2.10    0.70
   3  -5  -2    3.30    0.70
   3   5  -2    4.20    0.80
   3   5  -2    4.70    0.60
  -3  -5   4 1212.08   80.09
   3  -5  -4 1282.27   80.09
  -3  -5   4  985.50   80.19
  -3  -5   4 1052.09   80.29
   3  -5  -4 1057.19   79.99
   3  -5  -4 1274.67   80.09
   3  -5  -4 1222.68   80.09
  -3  -5   4  989.90   80.09
   3  -5  -4 1097.69   79.99
  -3  -5   4 1083.39   80.19
   3  -5  -4 1296.07   80.19
   3  -5  -4 1149.08   80.09
   3   5  -4 1062.19   80.09
   3   5  -4 1036.30   79.99
   3  -5  -6    5.60    1.10
   3  -5  -6    5.20    0.90
   3  -5  -6    3.30    0.60
  -3  -5   6    3.70    0.90
  -3  -5   6    6.20    1.40
   3   5  -6    4.50    0.70
   3   5  -6    3.70    1.20
  -3  -5   8    0.60    0.80
   3  -5  -8    0.00    0.60
   3  -5  -8    0.30    0.50
   3  -5  -8    0.70    0.80
   3  -5  -8    2.00    0.60
   3  -5  -8    0.50    0.70
  -3  -5   8   -0.60    1.00
   3   5  -8    0.90    0.70
   3   5  -8   -1.20    1.30
   3  -5 -10    1.00    0.70
  -3  -5  10   -1.20    1.50
   3  -5 -10   -0.30    0.50
   3  -5 -10    0.00    0.60
   3  -5 -10    0.20    0.70
   3  -5 -10    1.40    0.80
  -3  -5  10   -0.50    1.00
   3   5 -10   -0.30    0.70
   3  -5 -12   23.60    2.00
   3  -5 -12   26.70    1.80
  -3  -5  12   22.80    2.30
  -3  -5  12   18.30    2.30
   3  -5 -12   22.70    1.90
   3  -5 -12   19.50    2.10
   3   5 -12   23.90    2.00
   3   5 -12   22.20    1.90
  -3   5  12   20.00    1.80
  -3  -6  -9    5.50    1.00
  -3  -6  -9    7.20    1.00
   3   6   9    8.40    1.20
   3   6   9    6.10    0.80
   3  -6   7    3.20    0.90
  -3  -6  -7    4.40    0.90
  -3  -6  -7    3.00    0.60
   3   6   7    4.40    0.80
   3   6   7    4.10    1.00
  -3  -6  -5   62.99    4.70
  -3  -6  -5   61.79    4.70
  -3  -6  -5   52.89    4.80
   3   6   5   69.89    4.70
   3  -6   3   93.89    6.70
  -3  -6  -3   85.69    6.60
  -3  -6  -3   84.69    6.50
  -3  -6  -3   85.09    6.70
   3   6   3   88.29    6.50
   3  -6   1  195.98   12.90
  -3  -6  -1  172.38   12.90
  -3  -6  -1  165.28   12.90
  -3  -6  -1  168.68   12.80
  -3  -6  -1  180.28   12.90
   3   6   1  178.58   12.80
   3  -6  -1    0.10    0.90
   3  -6  -1    1.60    0.60
   3  -6  -1    0.00    0.80
  -3  -6   1    1.40    0.90
  -3  -6   1   -0.80    1.10
  -3  -6   1    0.70    0.90
   3  -6  -1    1.60    0.70
  -3  -6   1    1.00    0.90
  -3  -6   1    1.30    0.90
   3  -6  -1    2.70    0.70
   3   6  -1    1.60    0.80
   3   6  -1    1.70    0.60
  -3  -6   3    7.80    1.40
   3  -6  -3   10.30    1.20
  -3  -6   3    6.30    2.10
   3  -6  -3    8.00    1.10
   3  -6  -3    9.00    1.90
   3  -6  -3   11.00    1.40
  -3  -6   3    6.00    1.60
   3  -6  -3    7.80    1.60
   3  -6  -3    7.70    1.00
   3   6  -3    7.80    1.00
   3   6  -3    8.90    1.40
   3  -6  -5   11.90    1.40
   3  -6  -5    9.50    1.40
   3  -6  -5    9.70    1.10
  -3  -6   5    8.60    1.40
  -3  -6   5    9.90    1.90
   3  -6  -5   10.60    1.10
   3   6  -5    8.40    1.80
   3   6  -5    9.40    1.10
   3  -6  -7    7.90    1.30
   3  -6  -7    5.60    0.90
   3  -6  -7    8.10    1.30
   3  -6  -7    6.60    1.20
   3  -6  -7    7.60    1.10
  -3  -6   7    5.50    1.40
   3   6  -7    9.10    1.00
   3  -6  -9  176.98   12.30
   3  -6  -9  190.48   12.20
   3  -6  -9  159.78   12.60
   3  -6  -9  149.49   12.30
   3  -6  -9  165.28   12.50
  -3  -6   9  167.78   12.50
   3   6  -9  177.68   12.20
  -3  -7  -6    0.70    0.60
   3   7   6    1.40    0.60
   3   7   4    4.80    1.00
  -3  -7  -2   12.00    1.80
   3   7   2   15.50    1.50
   3   7   2   15.30    1.30
   3  -7   0    0.40    0.80
   3  -7   0   -0.40    0.60
  -3  -7   0    0.30    1.00
   3   7   0    1.60    0.90
   3   7   0    0.60    0.50
  -3  -7   2   74.39    6.20
   3  -7  -2   98.79    6.10
   3   7  -2   73.89    6.00
   3  -7  -4   46.60    3.50
   3  -7  -4   47.90    3.70
   3   7  -4   41.80    3.40
   3  -7  -6   28.20    2.70
   3  -7  -6   33.60    2.60
   3  -7  -6   32.70    2.50
   3  -7  -6   28.70    2.40
   3   7  -6   26.10    2.30
  -4   0 -14   19.40    1.70
   4   0  14   20.30    1.70
   4   0  14   20.60    1.90
   4   0  12    1.20    0.90
  -4   0 -12    1.20    0.60
   4   0  12    0.40    0.90
   4   0  12    1.60    1.10
  -4   0 -12    2.00    0.70
   4   0  12    1.40    0.60
  -4   0 -10    7.80    1.00
   4   0  10    7.30    1.20
  -4   0 -10    7.30    0.90
   4   0  10    7.40    1.00
   4   0  10    7.00    1.40
   4   0  10    6.50    1.20
  -4   0  -8    1.60    0.60
   4   0   8    1.50    0.90
   4   0   8    2.40    0.60
   4   0   8    1.50    0.70
   4   0   8    1.40    0.60
  -4   0  -8   -0.10    1.00
   4   0   6   12.00    1.20
   4   0   6   11.80    1.20
  -4   0  -6   10.90    1.20
   4   0   6   13.50    1.30
  -4   0  -6   12.20    1.30
   4   0   6   11.50    1.10
   4   0   6   11.10    1.40
  -4   0  -4 5507.15  389.86
  -4   0  -4 5919.81  389.86
   4   0   4 5256.47  389.96
   4   0   4 5381.16  389.86
   4   0   4 5285.67  389.86
   4   0   4 5311.77  389.96
  -4   0  -4 6100.99  389.96
   4   0   4 5322.17  389.86
   4   0   2 1143.19   86.49
  -4   0  -2 1162.98   86.39
   4   0   2 1327.37   86.39
   4   0   2 1190.18   86.39
  -4   0  -2 1196.48   86.39
  -4   0  -2 1242.88   86.39
   4   0   2 1277.67   86.39
  -4   0   0  183.88   13.00
   4   0   0  181.48   13.10
   4   0   0  158.48   13.00
   4   0   0  156.68   13.10
   4   0   0  205.08   13.00
  -4   0   0  186.98   13.00
  -4   0   0  200.08   13.00
  -4   0   0  181.98   13.00
   4   0   0  187.98   13.00
   4   0  -2    1.90    0.60
  -4   0   2    2.60    0.50
   4   0  -2    2.60    0.60
   4   0  -2    3.10    0.40
   4   0  -2    2.10    0.60
   4   0  -2    2.70    0.70
  -4   0   2    2.60    0.50
  -4   0   2    2.90    0.40
   4   0  -2    3.10    0.50
   4   0  -2    3.00    0.50
   4   0  -4  118.69    8.70
   4   0  -4  126.49    8.80
   4   0  -4  122.99    8.70
   4   0  -4  121.49    8.80
   4   0  -4  130.69    8.70
   4   0  -4  103.79    8.80
  -4   0   4  127.39    8.70
  -4   0   4  121.89    8.70
   4   0  -6   63.99    4.80
   4   0  -6   59.99    4.90
  -4   0   6   64.79    4.80
   4   0  -6   74.09    4.90
   4   0  -6   68.49    4.80
   4   0  -6   73.79    4.90
  -4   0   6   59.19    4.80
  -4   0   6   64.59    4.80
  -4   0   8  394.26   28.30
  -4   0   8  352.56   28.30
   4   0  -8  370.26   28.40
   4   0  -8  392.46   28.50
   4   0  -8  412.86   28.30
   4   0  -8  419.26   28.40
   4   0  -8  375.16   28.40
  -4   0   8  406.16   28.40
   4   0  -8  406.66   28.40
   4   0  -8  456.05   28.40
   4   0 -10 2008.10  143.79
   4   0 -10 2135.19  143.89
   4   0 -10 1791.22  143.79
  -4   0  10 2374.16  143.89
   4   0 -10 2020.10  143.99
   4   0 -10 2041.60  143.89
   4   0 -10 2014.90  143.79
   4   0 -10 1860.81  143.79
   4   0 -12    5.60    1.10
   4   0 -12    5.10    1.20
   4   0 -12    7.50    1.30
   4   0 -12    5.90    1.10
  -4   0  12    7.60    1.10
   4   0 -12    6.20    1.10
  -4   0  14   29.00    2.30
   4   0 -14   22.90    2.20
  -4   0  14   26.30    2.20
   4   0 -14   27.00    2.20
   4   0 -14   21.00    2.10
   4   0 -16    2.10    0.60
  -4   0  16    2.90    1.10
   4   0 -16    4.40    1.20
  -4   0  16    2.20    1.00
   4  -1  13    1.70    0.60
   4  -1  13   -0.20    1.00
   4  -1  13    0.50    0.80
  -4  -1 -13    1.20    0.60
   4  -1  13    0.40    0.70
   4   1  13   -0.40    0.70
  -4   1 -13    1.50    0.60
   4   1  13    1.20    0.80
   4   1  13    0.40    0.70
  -4   1 -13    0.00    0.60
   4  -1  11    9.00    1.10
   4  -1  11    7.70    1.50
   4  -1  11   11.60    1.40
  -4  -1 -11    9.20    1.10
  -4  -1 -11    9.00    1.10
   4   1  11    9.30    1.20
   4   1  11    9.20    1.20
   4   1  11    8.00    1.10
  -4   1 -11    8.10    1.00
   4  -1   9  165.68   11.40
  -4  -1  -9  151.48   11.20
  -4  -1  -9  145.19   11.10
   4  -1   9  159.38   11.30
   4  -1   9  164.08   11.20
   4   1   9  133.99   11.20
   4   1   9  165.98   11.30
  -4   1  -9  142.69   11.10
   4   1   9  152.28   11.10
   4   1   9  165.98   11.10
  -4  -1  -7   51.69    4.20
  -4  -1  -7   52.89    4.20
   4  -1   7   59.69    4.40
   4  -1   7   51.89    4.30
   4  -1   7   55.69    4.30
   4  -1   7   62.59    4.20
  -4  -1  -7   51.39    4.40
   4   1   7   57.69    4.30
  -4   1  -7   53.49    4.10
  -4   1  -7   63.39    4.40
   4   1   7   61.09    4.20
   4   1   7   54.39    4.20
   4   1   7   51.09    4.30
   4  -1   5   99.69    7.60
   4  -1   5  104.89    7.60
   4  -1   5  108.79    7.60
  -4  -1  -5   97.99    7.60
  -4  -1  -5   98.59    7.60
   4  -1   5  108.09    7.70
  -4  -1  -5  116.89    7.60
  -4  -1  -5  105.89    7.60
   4  -1   5  108.79    7.80
  -4   1  -5  121.49    7.70
   4   1   5   92.29    7.50
   4   1   5   99.59    7.60
  -4   1  -5  102.29    7.50
  -4   1  -5  121.59    7.60
   4   1   5  104.79    7.60
   4   1   5   87.99    7.50
   4   1   5  104.99    7.70
   4  -1   3   56.49    4.30
   4  -1   3   56.89    4.20
   4  -1   3   55.19    4.20
  -4  -1  -3   52.99    4.20
   4  -1   3   57.29    4.20
   4  -1   3   55.09    4.30
   4  -1   3   62.09    4.20
   4  -1   3   57.69    4.30
  -4  -1  -3   54.99    4.20
  -4  -1  -3   55.99    4.20
   4   1   3   55.09    4.20
  -4   1  -3   63.39    4.20
  -4   1  -3   61.99    4.20
  -4   1  -3   65.79    4.30
   4   1   3   57.09    4.30
   4   1   3   48.70    4.20
   4   1   3   49.60    4.20
   4   1   3   57.99    4.10
  -4  -1  -1 1152.78   82.59
   4  -1   1 1052.79   82.59
   4  -1   1 1102.69   82.69
   4  -1   1 1190.48   82.59
   4  -1   1 1198.78   82.69
  -4  -1  -1 1204.38   82.59
  -4  -1  -1 1130.19   82.59
  -4  -1  -1 1173.98   82.59
   4  -1   1 1256.27   82.59
   4  -1   1 1200.78   82.59
   4  -1   1 1090.69   82.59
  -4   1  -1 1299.17   82.59
   4   1   1 1028.10   82.59
   4   1   1 1073.19   82.69
  -4   1  -1 1262.37   82.59
  -4   1  -1 1048.20   82.59
   4   1   1 1300.37   82.59
   4   1   1 1070.99   82.59
  -4   1  -1 1276.27   82.59
   4   1   1 1179.98   82.69
   4   1   1 1207.68   82.59
   4  -1  -1  681.33   49.70
   4  -1  -1  602.84   49.80
   4  -1  -1  712.53   49.80
  -4  -1   1  651.83   49.80
   4  -1  -1  610.44   49.80
   4  -1  -1  690.23   49.80
   4  -1  -1  721.33   49.80
  -4  -1   1  690.13   49.80
  -4  -1   1  760.92   49.80
   4  -1  -1  769.92   49.80
  -4   1   1  783.02   49.80
   4   1  -1  666.23   49.80
   4   1  -1  805.82   49.70
   4   1  -1  690.63   49.80
   4   1  -1  651.13   49.90
   4   1  -1  768.32   49.70
   4   1  -1  636.54   49.80
  -4   1   1  752.92   49.70
  -4  -1   3   58.49    3.80
   4  -1  -3   48.10    3.80
  -4  -1   3   53.99    3.90
   4  -1  -3   54.39    3.70
   4  -1  -3   48.50    3.90
  -4  -1   3   46.40    3.70
   4  -1  -3   55.29    3.90
   4  -1  -3   51.19    3.80
  -4  -1   3   49.80    3.70
   4  -1  -3   54.59    3.80
   4   1  -3   52.19    3.70
   4   1  -3   52.99    3.80
  -4   1   3   55.09    3.70
  -4   1   3   48.60    3.70
   4   1  -3   53.89    3.80
   4   1  -3   52.09    3.90
   4   1  -3   50.39    3.70
   4   1  -3   46.50    3.80
   4   1  -3   43.80    3.90
  -4   1   3   53.29    3.80
   4  -1  -5  272.97   20.40
   4  -1  -5  302.67   20.40
   4  -1  -5  266.67   20.30
  -4  -1   5  241.08   20.30
   4  -1  -5  288.57   20.30
   4  -1  -5  300.87   20.30
  -4  -1   5  311.87   20.40
   4  -1  -5  265.77   20.40
  -4  -1   5  240.48   20.30
   4  -1  -5  293.97   20.30
  -4   1   5  306.67   20.30
  -4   1   5  311.47   20.30
  -4   1   5  325.57   20.40
  -4   1   5  275.87   20.30
   4   1  -5  250.67   20.40
   4   1  -5  279.17   20.40
   4   1  -5  275.57   20.30
   4   1  -5  298.37   20.30
   4   1  -5  306.67   20.40
   4   1  -5  294.07   20.30
   4  -1  -7  205.68   15.50
   4  -1  -7  211.58   15.50
   4  -1  -7  226.18   15.40
   4  -1  -7  207.98   15.40
   4  -1  -7  208.28   15.40
   4  -1  -7  221.88   15.50
   4   1  -7  233.88   15.50
  -4   1   7  230.08   15.40
  -4   1   7  232.68   15.40
   4   1  -7  217.48   15.30
   4   1  -7  193.38   15.50
   4   1  -7  218.48   15.40
  -4   1   7  213.48   15.30
  -4   1   7  188.78   15.30
   4  -1  -9   18.60    1.70
   4  -1  -9   19.40    1.50
  -4  -1   9   15.30    1.60
  -4  -1   9   15.60    1.50
   4  -1  -9   15.00    1.60
  -4   1   9   15.90    1.50
   4   1  -9   16.90    1.80
   4   1  -9   15.90    1.50
   4   1  -9   16.30    1.50
  -4  -1  11   72.99    5.30
   4  -1 -11   65.89    5.20
   4  -1 -11   71.09    5.20
   4  -1 -11   71.49    5.30
   4  -1 -11   64.09    5.20
   4  -1 -11   68.19    5.10
  -4  -1  11   72.29    5.20
   4  -1 -11   69.99    5.40
   4   1 -11   71.09    5.30
   4   1 -11   61.99    5.10
  -4   1  11   79.69    5.20
   4   1 -11   69.69    5.10
   4   1 -11   59.59    5.10
   4  -1 -13   71.09    5.90
   4  -1 -13   74.69    5.80
   4  -1 -13   70.79    5.70
  -4  -1  13   86.39    5.90
   4  -1 -13   86.59    5.90
  -4  -1  13   83.89    5.80
   4  -1 -13   77.19    5.90
  -4   1  13   89.09    5.90
   4   1 -13   69.59    5.80
   4   1 -13   76.09    5.80
  -4   1  13   84.59    5.80
   4   1 -13   67.19    5.80
   4  -1 -15  108.09    7.10
   4  -1 -15   83.49    7.00
  -4  -1  15   97.19    7.00
   4  -1 -15   85.09    7.00
  -4  -1  15  107.39    7.20
   4   1 -15   81.49    7.00
   4   1 -15  102.69    7.00
  -4   1  15  109.39    7.10
   4   1 -15   81.99    7.00
  -4   1  15  101.19    7.10
  -4  -2 -14    0.60    0.40
   4  -2  14    0.60    0.90
  -4  -2 -14    0.60    0.70
   4  -2  14    1.70    0.90
   4  -2  14    2.60    0.80
   4   2  14    1.30    0.70
   4   2  14    0.00    0.60
  -4   2 -14    1.90    0.60
   4  -2  12    1.50    0.90
   4  -2  12    0.60    0.60
  -4  -2 -12    0.10    0.40
  -4  -2 -12   -0.20    0.70
   4  -2  12    1.20    1.00
   4   2  12    0.40    0.80
   4   2  12    0.70    0.60
  -4   2 -12   -0.30    0.60
   4  -2  10    6.60    1.40
   4  -2  10    9.60    1.10
   4  -2  10    6.80    1.40
  -4  -2 -10    8.60    1.10
   4  -2  10    4.30    1.50
  -4   2 -10    7.20    0.90
   4   2  10    7.00    1.10
   4   2  10    9.80    1.30
   4  -2   8   30.80    2.70
  -4  -2  -8   25.60    2.30
   4  -2   8   31.60    2.40
   4  -2   8   27.90    2.40
  -4  -2  -8   28.30    2.30
   4  -2   8   28.80    2.50
   4   2   8   25.90    2.20
  -4   2  -8   26.70    2.20
   4   2   8   28.70    2.30
   4   2   8   31.00    2.50
   4  -2   6   26.20    2.30
   4  -2   6   23.60    2.10
  -4  -2  -6   21.40    2.00
   4  -2   6   27.50    2.00
  -4  -2  -6   22.70    2.00
   4  -2   6   25.60    2.00
   4   2   6   25.50    2.00
   4   2   6   20.90    1.90
  -4   2  -6   20.80    2.80
   4   2   6   23.50    2.10
  -4   2  -6   23.20    1.90
   4  -2   4   34.40    2.90
  -4  -2  -4   34.50    2.80
   4  -2   4   38.60    2.80
   4  -2   4   35.40    2.90
  -4  -2  -4   36.10    2.80
  -4  -2  -4   36.00    2.80
   4  -2   4   38.60    3.00
   4  -2   4   33.20    2.80
   4  -2   4   39.40    2.80
   4   2   4   32.30    2.70
   4   2   4   39.10    2.80
   4   2   4   36.10    2.90
   4   2   4   35.20    2.60
   4  -2   2   28.60    2.50
   4  -2   2   30.80    2.30
  -4  -2  -2   27.60    2.30
  -4  -2  -2   32.00    2.30
  -4  -2  -2   35.00    2.50
   4  -2   2   28.60    2.30
   4  -2   2   30.50    2.40
  -4   2  -2   32.50    2.40
   4   2   2   33.60    2.50
   4   2   2   26.80    2.30
   4   2   2   27.30    2.20
   4   2   2   30.60    2.40
   4   2   2   26.90    2.20
  -4  -2   0  156.48   11.50
   4  -2   0  145.99   11.40
  -4  -2   0  158.78   11.40
   4  -2   0  176.68   11.40
   4  -2   0  160.88   11.40
   4  -2   0  154.58   11.40
  -4  -2   0  171.78   11.40
   4  -2   0  171.58   11.40
   4  -2   0  165.98   11.40
  -4  -2   0  139.59   11.30
   4  -2   0  149.29   11.40
   4   2   0  151.08   11.40
   4   2   0  151.68   11.30
   4   2   0  162.68   11.40
  -4   2   0  157.88   11.40
  -4   2   0  171.98   11.30
   4   2   0  159.28   11.40
   4   2   0  156.48   11.40
  -4  -2   2    3.00    0.50
  -4  -2   2    3.60    0.70
  -4  -2   2    4.40    0.60
  -4  -2   2    3.10    0.80
   4  -2  -2    2.50    0.50
   4  -2  -2    1.00    1.00
   4  -2  -2    2.30    0.60
   4  -2  -2    2.70    0.60
   4  -2  -2    3.80    0.60
  -4  -2   2    2.80    0.70
   4  -2  -2    2.90    0.70
   4   2  -2    2.40    0.60
   4   2  -2    3.00    0.50
   4   2  -2    3.60    0.80
  -4   2   2    3.90    0.50
   4   2  -2    3.10    0.70
   4   2  -2    3.10    0.50
   4  -2  -4   22.70    1.80
   4  -2  -4   19.80    1.80
  -4  -2   4   26.00    1.80
  -4  -2   4   18.50    1.70
   4  -2  -4   23.20    1.80
  -4  -2   4   21.80    1.90
   4  -2  -4   21.70    1.80
   4  -2  -4   25.50    1.90
   4  -2  -4   20.60    2.00
  -4   2   4   21.90    1.70
  -4   2   4   22.30    1.70
   4   2  -4   23.80    1.70
   4   2  -4   24.30    1.90
  -4   2   4   25.20    1.80
   4   2  -4   21.90    1.90
   4   2  -4   18.50    1.70
  -4  -2   6  119.79    8.10
   4  -2  -6  108.29    8.10
  -4  -2   6  117.39    8.00
   4  -2  -6  112.39    8.10
   4  -2  -6  111.39    8.00
  -4  -2   6  103.09    8.00
   4  -2  -6  107.09    8.00
   4  -2  -6  103.29    8.00
   4   2  -6  105.99    8.00
   4   2  -6  113.89    8.00
  -4   2   6  111.19    7.90
  -4   2   6  107.69    7.90
  -4   2   6  122.79    8.00
   4   2  -6  111.09    8.00
   4   2  -6  107.99    8.10
   4  -2  -8  100.19    7.80
   4  -2  -8  110.39    7.80
   4  -2  -8  104.79    7.80
   4  -2  -8  107.19    7.70
   4  -2  -8   99.89    7.70
  -4  -2   8  106.59    7.80
   4  -2  -8  114.49    7.80
   4   2  -8  102.99    7.80
   4   2  -8  104.39    7.70
  -4   2   8  118.69    7.70
  -4   2   8  101.79    7.70
   4   2  -8  101.89    7.60
   4  -2 -10   40.70    3.00
   4  -2 -10   37.30    3.00
  -4  -2  10   32.30    2.90
   4  -2 -10   33.30    3.00
   4  -2 -10   33.50    2.80
   4  -2 -10   33.00    2.90
  -4  -2  10   41.40    3.10
  -4   2  10   31.70    2.90
   4   2 -10   41.40    2.90
   4  -2 -12    1.30    0.70
   4  -2 -12    1.30    0.80
  -4  -2  12   -0.70    1.10
   4  -2 -12    0.30    0.60
   4  -2 -12   -0.20    0.60
   4  -2 -12    0.60    1.00
  -4  -2  12    0.10    0.70
  -4  -2  12   -0.80    0.70
   4   2 -12    0.10    0.70
  -4   2  12    0.70    1.00
   4   2 -12   -0.20    0.60
   4   2 -12    1.00    1.00
   4  -2 -14   14.30    1.30
   4  -2 -14   12.30    1.60
   4  -2 -14   13.60    1.30
  -4  -2  14   15.60    1.60
   4  -2 -14   10.70    1.50
   4  -2 -14   11.00    1.50
   4   2 -14   12.20    1.30
  -4   2  14   12.80    1.40
   4   2 -14   12.60    1.40
   4   2 -14   12.70    1.40
   4  -2 -16   -0.10    0.70
   4   2 -16    3.20    1.60
   4   2 -16    1.50    0.80
   4  -3  13    8.30    1.40
  -4  -3 -13   10.70    1.80
   4  -3  13   11.60    1.10
  -4   3 -13   11.40    1.10
   4   3  13    9.60    1.30
   4   3  13   10.20    1.30
  -4  -3 -11    7.30    1.10
   4  -3  11    6.20    0.90
   4  -3  11    5.40    1.30
   4  -3  11    5.70    1.30
  -4  -3 -11    5.10    1.00
  -4   3 -11    4.50    0.80
   4   3  11    4.70    0.90
   4   3  11    6.50    1.20
   4   3  11    4.90    0.90
  -4  -3  -9    2.80    0.80
   4  -3   9    1.70    1.20
  -4  -3  -9    1.30    0.70
   4  -3   9    1.80    0.70
  -4  -3  -9    1.80    0.60
   4  -3   9    2.00    1.10
   4   3   9    1.50    0.70
  -4   3  -9    1.80    0.50
   4   3   9    1.50    0.60
   4   3   9    1.00    0.90
   4  -3   7   17.10    2.20
   4  -3   7   22.80    1.90
  -4  -3  -7   22.20    2.00
  -4  -3  -7   21.40    2.00
   4  -3   7   22.00    2.20
  -4  -3  -7   24.00    2.00
   4   3   7   22.10    2.10
   4   3   7   20.60    1.80
   4   3   7   24.10    1.90
   4  -3   5   99.79    7.60
   4  -3   5  101.69    7.50
  -4  -3  -5  100.09    7.50
   4  -3   5   95.39    7.60
  -4  -3  -5  113.69    7.50
   4  -3   5  107.99    7.60
  -4  -3  -5  103.09    7.50
   4  -3   5  108.29    7.70
   4   3   5   96.09    7.50
   4   3   5  102.19    7.60
   4   3   5  109.79    7.60
   4  -3   3  276.57   18.90
  -4  -3  -3  275.07   18.80
   4  -3   3  247.38   18.80
  -4  -3  -3  235.38   18.70
  -4  -3  -3  276.47   18.70
   4  -3   3  265.97   18.70
   4  -3   3  289.47   18.90
   4  -3   3  257.27   18.80
   4  -3   3  261.97   18.70
  -4  -3  -3  251.67   18.90
  -4  -3  -3  266.37   18.70
   4   3   3  270.47   18.70
   4   3   3  253.57   18.70
  -4   3  -3  281.57   18.80
   4   3   3  235.38   18.60
   4   3   3  252.07   18.80
  -4  -3  -1    7.00    0.80
   4  -3   1    6.40    0.90
  -4  -3  -1    5.50    0.80
  -4  -3  -1    5.80    1.10
   4  -3   1    6.30    0.80
  -4  -3  -1    5.10    0.90
   4  -3   1    7.10    1.00
   4  -3   1    6.60    1.00
   4   3   1    5.20    0.90
   4   3   1    6.20    0.90
   4   3   1    4.50    1.60
   4   3   1    4.20    0.80
  -4   3  -1    6.00    1.20
   4  -3  -1   72.09    5.40
   4  -3  -1   62.39    5.30
  -4  -3   1   73.39    5.50
  -4  -3   1   74.69    5.40
   4  -3  -1   74.19    5.40
   4  -3  -1   74.29    5.30
   4  -3  -1   75.69    5.40
   4  -3  -1   79.69    5.40
  -4   3   1   83.89    5.40
   4   3  -1   74.59    5.40
   4   3  -1   63.39    5.30
  -4   3   1   63.89    5.40
   4   3  -1   80.59    5.40
  -4  -3   3  119.19    8.80
   4  -3  -3  140.39    8.90
  -4  -3   3  126.89    8.80
  -4  -3   3  111.99    8.90
  -4  -3   3  136.79    8.80
   4  -3  -3  120.99    8.90
   4  -3  -3  124.09    8.90
   4  -3  -3  125.09    8.90
  -4  -3   3  119.99    9.00
   4  -3  -3  128.29    8.80
   4  -3  -3  127.99    8.80
  -4  -3   3  116.69    8.90
   4   3  -3  105.09    8.80
   4   3  -3  126.39    8.90
   4   3  -3  122.69    8.80
  -4   3   3  127.79    8.70
  -4   3   3  102.59    8.90
   4   3  -3  124.69    8.90
  -4  -3   5  241.28   15.50
  -4  -3   5  216.88   15.60
   4  -3  -5  217.68   15.50
   4  -3  -5  226.48   15.50
   4  -3  -5  224.78   15.50
  -4  -3   5  182.08   15.50
   4  -3  -5  209.08   15.50
   4  -3  -5  219.18   15.50
   4   3  -5  204.38   15.40
  -4   3   5  229.18   15.50
  -4   3   5  214.18   15.40
   4   3  -5  208.78   15.50
   4   3  -5  220.28   15.60
  -4  -3   7    1.90    0.70
  -4  -3   7    2.50    0.80
   4  -3  -7    2.30    0.90
  -4  -3   7    1.00    0.70
   4  -3  -7    1.80    0.60
   4  -3  -7    0.60    0.70
   4  -3  -7    1.60    0.60
   4  -3  -7    1.60    0.70
   4   3  -7    2.00    0.90
   4   3  -7    0.70    0.70
   4   3  -7    1.40    0.60
  -4  -3   9  164.38   13.10
  -4  -3   9  174.68   13.20
   4  -3  -9  175.18   13.20
   4  -3  -9  192.28   13.20
   4  -3  -9  192.48   13.30
   4  -3  -9  195.98   13.10
   4  -3  -9  170.48   13.20
  -4  -3   9  190.38   13.30
   4   3  -9  182.48   13.10
   4   3  -9  186.58   13.20
   4  -3 -11    9.00    1.10
  -4  -3  11    8.50    1.30
  -4  -3  11   10.50    1.60
   4  -3 -11    9.70    1.40
   4  -3 -11    9.60    1.20
   4  -3 -11    8.10    1.30
   4  -3 -11    9.10    1.40
   4   3 -11   10.30    1.20
   4   3 -11   11.90    1.50
   4  -3 -13    1.10    0.80
   4  -3 -13    1.50    0.60
  -4  -3  13   -0.50    1.20
   4  -3 -13    0.10    0.70
  -4  -3  13    0.30    0.80
   4  -3 -13    0.00    0.60
   4   3 -13   -0.90    1.20
  -4   3  13   -0.10    0.60
   4   3 -13    0.30    0.70
   4   3 -13   -0.10    0.80
   4  -3 -15    1.10    0.60
  -4  -3  15   -0.30    0.90
   4  -3 -15    0.40    0.70
   4  -3 -15    0.30    0.60
   4   3 -15    0.80    0.50
   4   3 -15    1.90    0.90
  -4   3  15   -0.20    0.70
   4   3 -15   -0.20    0.80
  -4  -4 -12   48.60    3.70
  -4  -4 -12   47.10    3.70
   4  -4  12   47.20    3.70
   4  -4  12   47.90    3.90
   4   4  12   49.20    3.70
   4   4  12   45.30    3.60
  -4   4 -12   53.49    3.70
   4  -4  10  342.37   22.70
  -4  -4 -10  297.07   22.40
   4  -4  10  309.57   22.40
  -4  -4 -10  286.17   22.40
   4   4  10  320.57   22.40
  -4   4 -10  316.57   22.40
   4   4  10  323.87   22.40
  -4  -4  -8   91.39    6.90
   4  -4   8   95.79    6.90
   4  -4   8   98.79    7.10
  -4  -4  -8   89.29    6.80
   4   4   8   88.69    6.80
   4   4   8   91.89    6.80
  -4  -4  -6    0.40    0.50
   4  -4   6   -0.40    0.70
  -4  -4  -6   -0.60    0.70
  -4  -4  -6    1.10    0.70
   4  -4   6    0.00    1.00
   4  -4   6    0.30    0.80
   4   4   6    1.10    0.70
   4   4   6    0.70    0.60
   4  -4   2   37.10    2.90
  -4  -4  -2   29.70    3.00
   4  -4   2   39.60    3.00
   4  -4   2   36.40    2.80
  -4  -4  -2   40.80    2.90
  -4  -4  -2   36.50    2.80
   4  -4   2   32.00    3.00
  -4  -4  -2   35.60    2.90
   4   4   2   36.20    2.90
   4   4   2   36.00    2.80
   4  -4   0   12.30    1.30
  -4  -4   0   10.50    1.50
   4  -4   0   10.10    1.30
  -4  -4   0   11.60    1.20
  -4  -4   0   13.00    1.30
   4  -4   0   11.50    1.20
   4   4   0   11.10    1.70
   4   4   0   14.20    1.20
  -4  -4   2  954.30   66.89
   4  -4  -2 1017.10   66.89
   4  -4  -2  977.60   66.89
   4  -4  -2  940.31   66.89
  -4  -4   2  889.71   66.79
   4  -4  -2  999.80   66.89
  -4  -4   2  895.71   66.99
   4  -4  -2  974.50   66.89
   4  -4  -2  905.71   66.89
  -4  -4   2  961.70   66.89
  -4  -4   2  950.30   67.09
   4   4  -2  889.31   66.79
   4   4  -2  940.61   66.89
   4   4  -2  905.61   66.89
  -4  -4   4  936.21   70.09
   4  -4  -4 1065.69   69.99
   4  -4  -4 1007.90   70.09
  -4  -4   4 1083.59   70.09
  -4  -4   4 1011.70   70.19
   4  -4  -4 1037.70   70.09
  -4  -4   4  896.61   70.09
   4  -4  -4 1006.00   69.99
   4  -4  -4  943.51   70.09
   4  -4  -4  961.70   69.99
   4   4  -4  971.90   69.99
   4   4  -4  927.91   70.09
   4  -4  -6   19.90    1.70
   4  -4  -6   17.50    1.70
  -4  -4   6   18.70    2.00
   4  -4  -6   16.10    1.70
   4  -4  -6   18.20    1.70
   4  -4  -6   17.20    1.60
  -4  -4   6   18.20    1.70
  -4  -4   6   16.30    1.90
   4  -4  -6   18.50    1.70
   4   4  -6   17.50    1.80
   4   4  -6   17.60    1.50
   4   4  -6   17.70    1.70
  -4  -4   8    2.00    1.00
   4  -4  -8    0.80    0.60
  -4  -4   8    1.90    0.90
   4  -4  -8    1.30    1.00
   4   4  -8    2.80    1.00
   4  -4 -10   15.50    1.70
  -4  -4  10   15.40    1.80
   4  -4 -10   14.80    1.40
   4  -4 -10   15.30    1.60
  -4  -4  10   14.70    1.80
   4  -4 -10   15.10    1.60
   4  -4 -10   15.60    1.70
   4   4 -10   15.10    1.80
   4   4 -10   16.30    1.50
  -4   4  10   12.40    1.60
   4  -4 -12   16.00    1.60
   4  -4 -12   16.50    1.80
   4  -4 -12   17.00    1.50
  -4  -4  12   19.60    2.00
   4  -4 -12   17.20    1.70
  -4  -4  12   15.70    1.90
   4   4 -12   18.10    1.60
   4   4 -12   15.10    2.20
   4   4 -12   16.50    1.60
  -4   4  12   16.20    1.70
   4  -4 -14   47.20    3.70
   4  -4 -14   53.79    3.70
   4   4 -14   55.89    3.80
   4   4 -14   43.10    3.80
  -4  -5  -9   53.19    4.20
   4  -5   9   55.29    4.30
  -4  -5  -9   53.39    4.20
   4   5   9   55.59    4.20
   4   5   9   58.69    4.20
  -4   5  -9   59.69    4.20
  -4  -5  -7   18.10    1.80
   4  -5   7   18.70    2.10
  -4  -5  -7   16.60    1.70
   4  -5   7   17.10    1.80
   4   5   7   19.80    1.60
   4   5   7   18.00    1.70
  -4  -5  -5    8.00    1.10
  -4  -5  -5    7.70    1.20
  -4  -5  -5    7.30    1.30
   4  -5   5    6.90    1.30
   4   5   5    8.30    1.00
   4   5   5    9.60    1.20
  -4  -5  -3   33.60    2.50
  -4  -5  -3   29.80    2.40
  -4  -5  -3   29.30    2.60
   4   5   3   26.00    2.80
   4   5   3   28.60    2.40
   4  -5   1   -0.30    0.60
   4  -5   1   -0.40    0.80
  -4  -5  -1   -1.00    0.60
  -4  -5  -1   -0.60    0.80
   4   5   1   -0.20    0.70
   4   5   1   -1.00    1.00
  -4  -5   1   81.49    5.80
   4  -5  -1   76.49    5.80
   4  -5  -1   73.79    5.70
  -4  -5   1   76.39    6.00
  -4  -5   1   76.19    5.80
   4  -5  -1   88.39    5.80
   4  -5  -1   87.89    5.80
  -4  -5   1   71.59    6.00
   4  -5  -1   66.79    5.60
   4   5  -1   73.89    5.60
   4   5  -1   77.69    5.80
  -4  -5   3  368.06   24.60
   4  -5  -3  342.27   24.50
   4  -5  -3  337.87   24.50
   4  -5  -3  383.16   24.60
  -4  -5   3  320.67   24.60
   4  -5  -3  344.57   24.60
   4  -5  -3  389.06   24.60
  -4  -5   3  319.07   24.70
   4  -5  -3  358.76   24.60
  -4  -5   3  308.57   24.70
   4   5  -3  326.37   24.50
   4   5  -3  326.77   24.60
  -4  -5   5   89.79    6.80
   4  -5  -5   95.59    6.80
   4  -5  -5   95.49    6.70
   4  -5  -5   97.99    6.80
   4  -5  -5   95.59    6.80
  -4  -5   5   88.09    7.00
   4  -5  -5   90.29    6.70
   4   5  -5   85.49    6.80
   4   5  -5   85.09    6.60
  -4  -5   7   14.10    1.90
   4  -5  -7   14.90    1.40
   4  -5  -7   13.50    1.60
   4  -5  -7   14.10    1.50
  -4  -5   7   15.50    1.60
   4  -5  -7   13.00    1.50
   4  -5  -7   12.90    1.60
   4  -5  -7   13.30    1.80
   4   5  -7   14.80    1.30
   4   5  -7   11.60    1.70
   4  -5  -9   39.20    3.00
   4  -5  -9   37.20    3.00
  -4  -5   9   40.00    3.40
   4  -5  -9   34.10    3.10
   4  -5  -9   42.20    3.10
   4  -5  -9   36.10    3.70
   4   5  -9   35.10    3.30
   4   5  -9   39.60    3.00
   4  -5 -11   13.00    1.30
   4  -5 -11   10.30    1.20
   4  -5 -11   11.00    1.10
  -4  -5  11   11.60    1.70
   4  -5 -11    8.00    1.50
   4   5 -11   12.30    1.30
  -4  -6  -8    5.70    1.20
  -4  -6  -8    5.50    1.00
   4   6   8    8.90    0.90
  -4   6  -8    8.40    0.90
   4   6   8    6.10    1.10
  -4  -6  -6    1.20    0.70
  -4  -6  -6   -1.30    1.10
   4  -6   6   -1.30    0.80
   4   6   6    0.70    0.60
   4   6   6    2.20    1.50
  -4  -6  -4    1.70    0.80
  -4  -6  -4    3.90    1.00
  -4  -6  -4    2.50    0.80
   4   6   4    3.90    0.80
  -4  -6   0   27.00    3.20
   4  -6   0   38.00    2.80
  -4  -6   0   26.70    2.90
  -4  -6   0   33.30    2.70
   4   6   0   29.60    2.60
   4   6   0   32.00    2.40
   4  -6  -2   22.80    2.00
  -4  -6   2   24.40    2.20
   4   6  -2   23.20    1.90
   4   6  -2   22.40    2.20
   4  -6  -4    0.50    0.70
  -4  -6   4   -1.30    0.80
   4  -6  -4    0.30    0.70
   4  -6  -4    0.90    0.60
  -4  -6   4    0.70    1.30
   4  -6  -4    0.00    0.70
   4   6  -4    0.70    0.60
   4   6  -4    0.00    1.00
   4  -6  -6   55.69    4.00
   4  -6  -6   57.09    4.20
   4  -6  -6   62.69    4.20
   4  -6  -6   52.89    4.20
   4  -6  -6   54.69    4.10
  -4  -6   6   49.80    4.10
  -4  -6   6   51.19    4.50
   4   6  -6   50.89    4.00
   4   6  -6   45.00    4.20
   4  -6  -8   12.70    1.60
   4  -6  -8   14.30    1.70
   4  -6  -8   13.30    1.30
   4  -6  -8   15.30    1.50
   4   6  -8   15.40    1.40
  -4  -7  -3    9.40    1.70
   4   7   3   13.50    1.10
   4   7   3   13.10    1.30
   4  -7  -1    0.30    0.80
   4  -7  -1   -1.30    0.90
  -4  -7   1    0.80    1.00
   4   7  -1   -0.70    0.80
   4   7  -1   -0.10    0.50
  -4  -7   3  133.69   10.50
   4   7  -3  137.29   10.40
   4   7  -3  156.28   10.30
   4  -7  -5    0.30    0.80
   4  -7  -5    0.80    0.80
   4  -7  -5   -0.70    0.80
   4   7  -5    0.30    0.60
  -5   0 -13   -0.60    0.50
   5   0  13    1.60    1.20
   5   0  13   -0.10    0.60
   5   0  13   -0.80    0.70
   5   0  11   -1.10    1.00
   5   0  11   -0.80    0.70
   5   0  11    0.20    0.80
  -5   0 -11    0.60    0.60
  -5   0 -11   -0.40    0.60
   5   0   9   -1.40    0.90
   5   0   9   -0.10    0.70
  -5   0  -9    0.40    0.80
  -5   0  -9    0.60    0.60
  -5   0  -7    0.80    0.50
   5   0   7    1.00    0.60
   5   0   7    0.60    0.80
  -5   0  -7    0.90    0.60
   5   0   7    0.60    0.80
   5   0   5   -0.40    0.70
  -5   0  -5   -0.40    0.80
   5   0   5   -0.70    0.70
   5   0   5    0.60    0.50
   5   0   5    0.40    0.70
  -5   0  -5   -0.40    0.60
  -5   0  -5   -0.30    0.50
   5   0   3    0.70    0.50
   5   0   3    0.20    0.70
  -5   0  -3    0.60    0.40
  -5   0  -3    0.70    0.80
   5   0   3    1.00    0.60
   5   0   3   -0.40    0.50
  -5   0  -1   -0.30    0.70
  -5   0  -1    0.70    0.40
   5   0   1   -1.00    0.60
   5   0   1   -0.20    0.50
   5   0   1   -0.40    0.60
   5   0   1   -1.20    1.00
   5   0   1   -0.50    0.40
  -5   0  -1    0.10    0.40
   5   0   1    0.20    0.60
   5   0  -1   -0.30    0.80
   5   0  -1   -0.70    0.70
   5   0  -1   -0.80    0.80
   5   0  -1   -0.20    0.40
  -5   0   1   -0.10    0.30
   5   0  -1    0.10    0.50
  -5   0   1   -0.20    0.50
   5   0  -1    0.40    0.60
  -5   0   1    0.20    0.50
  -5   0   3   -0.60    0.60
   5   0  -3    1.20    0.40
   5   0  -3    0.10    0.60
  -5   0   3   -0.40    0.30
  -5   0   3    0.40    0.40
   5   0  -3    0.10    0.70
   5   0  -3   -0.50    0.60
   5   0  -3   -0.10    0.60
   5   0  -3    0.50    0.50
   5   0  -5    0.30    0.40
   5   0  -5   -0.10    0.70
  -5   0   5    0.20    0.60
  -5   0   5    1.10    0.50
  -5   0   5    0.40    0.40
   5   0  -5   -0.20    0.50
   5   0  -5   -0.20    1.00
   5   0  -5    1.50    0.70
   5   0  -5   -0.70    0.80
   5   0  -5    0.10    0.60
   5   0  -7    0.60    0.90
   5   0  -7    1.30    0.70
  -5   0   7    0.00    0.60
   5   0  -7    0.10    0.80
   5   0  -7    1.10    0.90
   5   0  -7    0.30    0.50
   5   0  -7   -0.60    0.70
   5   0  -9    0.30    0.80
   5   0  -9    1.70    0.90
   5   0  -9    1.10    0.70
   5   0  -9    2.50    0.90
  -5   0   9    0.30    0.70
   5   0  -9    0.30    0.60
  -5   0   9   -0.10    0.90
   5   0  -9    2.20    0.70
   5   0  -9    1.30    1.10
  -5   0  11   -0.60    0.80
   5   0 -11   -1.00    0.60
   5   0 -11   -0.10    1.00
   5   0 -11   -1.00    1.50
   5   0 -11    0.70    1.70
   5   0 -11   -0.40    0.80
   5   0 -11   -0.70    0.90
   5   0 -11    0.70    1.00
  -5   0  13   -0.10    0.80
   5   0 -13   -0.10    0.60
   5   0 -13   -0.20    0.90
   5   0 -13    1.20    1.00
   5   0 -13    0.90    0.70
   5   0 -15   -0.10    0.70
  -5   0  15    0.00    1.10
  -5   0  15    0.30    0.60
   5   0 -15    1.50    1.00
   5   0 -15   -0.60    0.60
  -5  -1 -12    7.50    0.90
   5  -1  12    5.30    1.10
   5  -1  12    5.20    0.80
  -5  -1 -12    4.70    0.90
   5  -1  12    6.50    0.80
  -5   1 -12    6.90    0.90
   5   1  12    6.70    1.10
   5   1  12    4.60    1.00
  -5   1 -12    5.60    0.90
   5  -1  10    4.80    0.80
   5  -1  10    3.70    1.10
   5  -1  10    3.40    0.80
  -5  -1 -10    4.10    0.80
  -5  -1 -10    4.40    0.70
   5  -1  10    5.20    1.00
   5   1  10    4.10    0.80
  -5   1 -10    3.30    0.70
   5   1  10    5.00    1.00
   5   1  10    4.20    0.90
   5  -1   8   41.90    3.00
  -5  -1  -8   33.10    2.90
   5  -1   8   39.20    3.10
   5  -1   8   40.30    3.20
   5  -1   8   37.20    3.00
  -5  -1  -8   34.10    2.90
   5   1   8   36.20    2.90
  -5   1  -8   35.30    2.90
   5   1   8   38.90    3.10
   5   1   8   38.30    3.00
  -5  -1  -6   71.19    5.50
   5  -1   6   78.89    5.50
   5  -1   6   75.69    5.60
   5  -1   6   75.69    5.70
   5  -1   6   78.69    5.60
   5  -1   6   72.79    5.50
   5   1   6   72.49    5.50
   5   1   6   72.19    5.40
   5   1   6   73.89    5.60
  -5   1  -6   69.19    5.40
   5  -1   4  364.86   25.40
   5  -1   4  357.86   25.50
   5  -1   4  347.77   25.40
  -5  -1  -4  347.17   25.40
  -5  -1  -4  361.16   25.40
   5  -1   4  386.06   25.40
  -5  -1  -4  357.86   25.40
   5  -1   4  343.37   25.40
   5   1   4  344.57   25.30
   5   1   4  335.37   25.40
   5   1   4  313.47   25.30
   5   1   4  365.36   25.50
   5   1   4  338.37   25.60
   5   1   4  354.06   25.40
  -5   1  -4  412.36   25.40
  -5   1  -4  372.36   25.30
   5  -1   2   24.70    2.00
  -5  -1  -2   25.10    1.90
   5  -1   2   24.20    2.10
  -5  -1  -2   23.70    1.90
   5  -1   2   22.60    1.90
   5  -1   2   25.20    1.90
  -5  -1  -2   20.50    1.90
   5  -1   2   23.00    1.90
   5   1   2   22.90    1.90
   5   1   2   20.50    2.00
  -5   1  -2   26.70    1.90
   5   1   2   24.40    1.90
  -5   1  -2   25.50    1.90
   5   1   2   24.40    2.00
   5   1   2   23.30    1.90
   5   1   2   24.80    2.10
  -5  -1   0   16.40    1.50
   5  -1   0   18.10    1.60
   5  -1   0   17.10    1.60
   5  -1   0   18.40    1.70
  -5  -1   0   19.90    1.40
  -5  -1   0   15.30    1.60
   5  -1   0   17.90    1.50
  -5  -1   0   18.40    1.50
   5  -1   0   18.90    1.50
   5  -1   0   19.80    1.60
   5   1   0   18.20    1.60
   5   1   0   19.60    1.70
   5   1   0   16.20    1.70
  -5   1   0   19.20    1.40
   5   1   0   17.50    1.60
   5   1   0   19.30    1.50
   5  -1  -2   84.29    6.10
   5  -1  -2   78.89    6.20
   5  -1  -2   78.19    6.10
   5  -1  -2   84.89    6.10
   5  -1  -2   92.89    6.10
  -5  -1   2   72.69    6.10
   5  -1  -2   88.19    6.00
  -5  -1   2   82.39    6.00
   5  -1  -2   80.79    6.10
   5   1  -2   79.19    6.20
   5   1  -2   83.99    6.20
   5   1  -2   86.99    6.00
  -5   1   2   86.39    6.10
  -5   1   2   95.19    6.10
   5   1  -2   82.19    6.10
   5  -1  -4  105.19    7.50
   5  -1  -4   95.59    7.50
   5  -1  -4  101.19    7.60
  -5  -1   4   87.79    7.40
   5  -1  -4  107.19    7.50
   5  -1  -4  111.69    7.50
  -5  -1   4  115.09    7.50
  -5  -1   4  105.89    7.60
   5  -1  -4  101.19    7.50
  -5   1   4   99.49    7.40
   5   1  -4   98.59    7.50
   5   1  -4  105.09    7.50
  -5   1   4  104.99    7.50
   5   1  -4  110.99    7.60
   5   1  -4  102.39    7.40
   5   1  -4  102.39    7.50
   5  -1  -6   24.80    2.30
  -5  -1   6   26.40    2.10
   5  -1  -6   27.90    2.30
   5  -1  -6   28.70    2.10
   5  -1  -6   26.30    2.10
  -5   1   6   27.50    2.10
  -5   1   6   23.80    2.10
   5   1  -6   26.60    2.20
   5  -1  -8  303.47   21.20
   5  -1  -8  309.87   21.00
   5  -1  -8  285.97   21.10
  -5  -1   8  307.97   21.10
   5  -1  -8  286.57   21.10
   5  -1  -8  336.47   21.10
   5  -1  -8  285.87   21.20
   5  -1  -8  289.57   21.10
   5   1  -8  256.37   21.10
   5   1  -8  288.37   21.20
   5   1  -8  295.07   21.00
   5   1  -8  269.67   21.10
  -5   1   8  335.27   21.50
   5   1  -8  283.97   21.00
   5   1  -8  288.77   21.10
  -5  -1  10   47.90    3.40
   5  -1 -10   44.10    3.50
   5  -1 -10   43.10    3.50
   5  -1 -10   37.00    3.30
   5  -1 -10   40.70    3.30
   5  -1 -10   39.40    3.30
   5  -1 -10   41.20    3.30
   5  -1 -10   42.80    3.20
   5   1 -10   41.90    3.40
   5   1 -10   38.70    3.20
   5   1 -10   39.80    3.20
   5   1 -10   44.90    3.30
   5   1 -10   38.30    3.30
  -5  -1  12   31.10    2.40
  -5  -1  12   25.30    2.60
   5  -1 -12   24.40    2.20
   5  -1 -12   30.30    2.40
   5  -1 -12   24.00    2.10
   5  -1 -12   25.40    2.30
   5  -1 -12   21.70    2.40
   5   1 -12   28.10    2.40
   5   1 -12   22.90    2.30
   5   1 -12   24.40    2.20
   5   1 -12   27.90    2.30
  -5   1  12   29.60    2.30
   5  -1 -14    1.00    1.10
   5  -1 -14    2.70    1.10
   5  -1 -14    2.30    0.80
  -5  -1  14    1.20    0.70
   5  -1 -14    0.60    0.60
   5  -1 -14   -0.50    0.60
  -5   1  14   -0.60    0.60
   5   1 -14    1.80    0.90
  -5   1  14    0.80    0.90
   5   1 -14    0.60    0.60
  -5  -2 -13    9.20    1.10
   5  -2  13   11.10    1.30
   5  -2  13   10.30    1.00
  -5  -2 -13    9.90    1.10
   5   2  13   10.80    1.30
  -5   2 -13   10.00    1.00
  -5   2 -13    9.20    1.10
   5   2  13    8.20    1.10
   5  -2  11   74.59    5.30
   5  -2  11   71.09    5.40
   5  -2  11   71.09    5.40
  -5  -2 -11   70.99    5.30
  -5  -2 -11   63.59    5.20
   5   2  11   70.19    5.20
   5   2  11   75.09    5.40
  -5   2 -11   68.09    5.20
   5  -2   9   46.90    3.70
  -5  -2  -9   43.80    3.60
   5  -2   9   49.50    3.90
   5  -2   9   49.80    3.60
  -5  -2  -9   44.70    3.50
  -5  -2  -9   41.50    3.50
   5  -2   9   43.90    3.50
  -5   2  -9   43.80    3.50
   5   2   9   51.79    3.70
   5   2   9   44.10    3.60
   5  -2   7    1.50    1.00
   5  -2   7    2.00    0.70
   5  -2   7    1.40    0.60
   5  -2   7    2.90    0.90
  -5  -2  -7    2.10    0.60
   5   2   7    0.60    0.80
   5   2   7    1.70    0.70
  -5   2  -7    2.20    0.60
  -5  -2  -5  358.86   23.60
  -5  -2  -5  308.87   23.60
  -5  -2  -5  289.17   23.60
   5  -2   5  329.37   23.80
   5  -2   5  373.06   23.70
   5  -2   5  330.37   23.70
   5   2   5  347.97   23.70
  -5   2  -5  344.47   23.60
   5   2   5  296.87   23.60
   5   2   5  335.77   23.70
  -5  -2  -3   14.90    1.50
   5  -2   3   19.40    1.60
   5  -2   3   18.50    1.50
  -5  -2  -3   15.10    1.60
   5  -2   3   17.20    1.50
  -5  -2  -3   16.50    1.50
   5  -2   3   16.20    1.70
   5  -2   3   16.90    1.80
  -5   2  -3   16.70    2.20
  -5   2  -3   18.80    1.70
   5   2   3   19.40    1.60
  -5   2  -3   20.00    1.50
   5   2   3   15.00    1.70
   5   2   3   15.70    1.50
  -5  -2  -1   44.20    3.40
  -5  -2  -1   40.60    3.50
  -5  -2  -1   41.80    3.40
   5  -2   1   46.10    3.50
   5  -2   1   46.70    3.50
  -5  -2  -1   44.20    3.40
   5  -2   1   46.60    3.50
   5  -2   1   46.80    3.40
   5  -2   1   44.60    3.40
   5   2   1   43.00    3.40
   5   2   1   41.50    3.40
  -5   2  -1   50.89    3.40
   5   2   1   43.70    3.50
  -5   2  -1   42.70    3.60
   5   2   1   49.90    3.40
  -5   2  -1   45.00    3.50
   5  -2  -1  517.95   36.50
   5  -2  -1  482.55   36.40
  -5  -2   1  510.15   36.40
   5  -2  -1  496.15   36.40
  -5  -2   1  546.85   36.40
   5  -2  -1  505.55   36.50
   5  -2  -1  529.95   36.40
  -5  -2   1  456.85   36.50
   5   2  -1  525.35   36.60
   5   2  -1  502.05   36.50
   5   2  -1  475.95   36.30
   5   2  -1  534.25   36.50
  -5   2   1  582.34   36.40
   5  -2  -3  337.27   24.90
  -5  -2   3  327.07   25.00
   5  -2  -3  332.17   24.90
  -5  -2   3  385.46   24.90
   5  -2  -3  341.07   24.90
  -5   2   3  379.46   24.90
  -5   2   3  356.36   24.80
   5   2  -3  355.36   24.90
   5   2  -3  340.77   24.90
   5   2  -3  331.87   24.80
   5   2  -3  358.06   25.00
   5  -2  -5   61.99    4.60
  -5  -2   5   67.49    4.60
   5  -2  -5   60.89    4.60
   5  -2  -5   57.99    4.60
   5  -2  -5   61.79    4.60
  -5  -2   5   62.39    4.70
   5  -2  -5   51.99    4.70
   5   2  -5   60.09    4.50
  -5   2   5   62.69    4.50
   5   2  -5   66.19    4.70
   5   2  -5   62.09    4.50
  -5   2   5   63.49    4.60
   5   2  -5   63.99    4.70
  -5  -2   7   19.00    2.10
   5  -2  -7   28.10    2.10
  -5  -2   7   24.70    2.10
   5   2  -7   23.80    2.10
   5   2  -7   22.50    2.00
   5  -2  -9  226.08   16.00
   5  -2  -9  231.78   16.10
  -5  -2   9  225.48   16.10
   5  -2  -9  212.98   16.00
   5  -2  -9  212.28   16.00
   5  -2  -9  219.38   16.00
   5  -2  -9  229.98   16.00
   5   2  -9  233.38   16.10
   5   2  -9  204.58   15.90
  -5   2   9  251.77   16.00
   5   2  -9  203.18   15.90
   5  -2 -11   14.30    1.70
   5  -2 -11   14.10    1.30
   5  -2 -11   14.60    1.80
   5  -2 -11   14.00    1.70
   5  -2 -11   13.60    1.50
  -5  -2  11   14.90    1.50
  -5  -2  11   14.70    1.70
   5   2 -11   12.50    1.60
   5   2 -11   12.80    1.40
  -5   2  11   14.30    1.60
   5   2 -11   12.90    1.40
   5  -2 -13   62.39    4.90
   5  -2 -13   64.59    5.00
  -5  -2  13   72.99    5.20
  -5  -2  13   61.99    4.90
   5  -2 -13   60.99    5.00
   5  -2 -13   61.89    4.80
   5   2 -13   65.99    4.90
   5   2 -13   62.29    4.80
   5   2 -13   55.09    4.90
   5   2 -13   67.99    5.00
  -5   2  13   70.79    4.90
  -5   2  13   76.69    5.60
   5  -2 -15   57.49    4.50
   5  -2 -15   50.99    4.60
   5  -2 -15   60.89    4.60
  -5  -2  15   67.09    4.60
   5  -2 -15   57.39    4.50
   5   2 -15   59.79    4.50
   5   2 -15   67.19    4.50
   5   2 -15   52.59    4.50
  -5   2  15   68.89    4.50
  -5  -3 -12   -0.40    0.50
  -5  -3 -12    1.00    0.60
   5  -3  12   -0.90    0.60
   5   3  12   -0.90    0.90
   5   3  12    0.30    0.60
  -5   3 -12   -0.20    0.50
   5  -3  10   20.20    1.80
   5  -3  10   18.90    2.10
  -5  -3 -10   16.70    1.70
  -5  -3 -10   18.50    1.70
   5   3  10   20.00    1.70
  -5   3 -10   17.80    1.60
   5   3  10   18.60    1.90
  -5  -3  -8   11.30    1.40
   5  -3   8   12.50    1.80
   5  -3   8   13.30    1.70
   5  -3   8   13.10    1.40
  -5  -3  -8   11.30    1.40
  -5  -3  -8   10.60    1.30
  -5   3  -8   13.10    1.20
   5   3   8   12.10    1.30
   5   3   8   11.80    1.60
   5   3   8   13.60    1.30
  -5  -3  -6   44.80    3.20
   5  -3   6   39.10    3.20
  -5  -3  -6   35.00    3.20
  -5  -3  -6   39.60    3.20
   5  -3   6   46.00    3.20
   5  -3   6   43.50    3.40
  -5   3  -6   40.80    3.10
   5   3   6   38.20    3.10
   5   3   6   43.00    3.20
   5   3   6   38.90    3.30
   5  -3   4   35.20    2.70
  -5  -3  -4   30.00    2.90
  -5  -3  -4   33.00    2.60
   5  -3   4   38.20    2.80
   5  -3   4   33.40    2.90
  -5  -3  -4   31.10    2.70
  -5   3  -4   35.50    2.60
   5   3   4   32.70    2.60
   5   3   4   34.30    2.70
   5   3   4   32.20    2.80
  -5  -3  -2  169.38   13.00
  -5  -3  -2  166.08   13.10
   5  -3   2  194.48   13.10
  -5  -3  -2  189.48   13.00
   5  -3   2  182.58   13.20
   5  -3   2  182.48   13.10
   5   3   2  184.18   13.10
   5   3   2  168.88   13.10
   5   3   2  184.28   13.10
   5   3   2  193.48   13.00
   5  -3   0   62.89    4.30
   5  -3   0   57.79    4.30
  -5  -3   0   54.39    4.40
   5  -3   0   54.79    4.30
  -5  -3   0   58.89    4.30
   5  -3   0   60.29    4.40
  -5  -3   0   53.19    4.30
   5   3   0   58.49    4.40
   5   3   0   56.29    4.20
   5   3   0   60.99    4.40
   5   3   0   58.79    4.30
  -5  -3   2    3.50    0.90
  -5  -3   2    6.40    1.10
   5  -3  -2    4.70    0.90
   5  -3  -2    6.10    0.90
   5  -3  -2    4.70    0.90
  -5  -3   2    5.30    0.90
   5  -3  -2    7.30    0.90
   5   3  -2    5.50    0.70
   5   3  -2    7.10    1.00
   5   3  -2    5.70    1.00
  -5   3   2    7.40    1.70
   5  -3  -4   42.70    3.10
  -5  -3   4   36.30    3.20
  -5  -3   4   42.20    3.10
  -5  -3   4   38.50    3.30
   5  -3  -4   40.30    3.20
   5  -3  -4   41.80    3.10
   5  -3  -4   35.70    3.20
   5   3  -4   44.60    3.30
   5   3  -4   43.10    3.00
   5   3  -4   39.90    3.20
   5  -3  -6  117.69    8.50
  -5  -3   6  101.69    8.40
   5  -3  -6  113.89    8.40
  -5  -3   6  126.99    8.60
   5  -3  -6  116.09    8.40
   5  -3  -6  114.89    8.40
  -5  -3   6  125.49    8.40
   5  -3  -6  119.29    8.40
   5   3  -6  114.19    8.40
   5   3  -6  110.19    8.30
   5   3  -6  109.79    8.30
   5   3  -6  116.39    8.50
   5  -3  -8   19.10    1.70
   5  -3  -8   17.60    1.80
   5  -3  -8   17.50    1.60
  -5  -3   8   18.10    1.90
  -5  -3   8   16.90    1.70
   5  -3  -8   16.30    1.80
   5  -3  -8   17.90    1.80
  -5  -3   8   19.70    1.90
   5   3  -8   21.50    2.00
   5   3  -8   15.60    1.60
   5   3  -8   17.70    1.60
  -5   3   8   18.10    1.70
  -5  -3  10   29.10    2.40
   5  -3 -10   24.20    2.10
   5  -3 -10   23.50    2.20
  -5  -3  10   24.20    2.30
   5  -3 -10   26.10    2.40
   5  -3 -10   24.30    2.20
   5  -3 -10   25.30    2.30
   5   3 -10   22.90    2.10
   5   3 -10   25.60    2.30
   5  -3 -12   28.20    2.60
  -5  -3  12   33.90    2.70
   5  -3 -12   29.40    2.50
   5  -3 -12   31.00    2.40
   5  -3 -12   29.50    2.50
   5   3 -12   29.30    2.40
  -5   3  12   30.70    2.40
   5   3 -12   29.40    2.40
   5   3 -12   29.60    2.60
   5  -3 -14   21.80    2.00
   5  -3 -14   24.70    2.20
  -5  -3  14   27.50    2.70
  -5  -3  14   29.00    2.30
   5  -3 -14   23.80    2.10
   5  -3 -14   24.60    2.20
   5   3 -14   24.40    2.20
  -5   3  14   26.70    2.10
   5   3 -14   26.10    2.10
   5   3 -14   26.00    2.10
  -5  -4 -11   11.00    1.20
   5  -4  11   12.50    1.20
  -5  -4 -11   12.70    1.30
   5   4  11   10.70    1.20
  -5   4 -11   10.90    1.10
  -5  -4  -9    9.00    1.20
  -5  -4  -9    9.90    1.20
   5  -4   9    9.30    1.30
   5   4   9    7.90    1.20
  -5   4  -9   10.50    1.00
   5   4   9    9.10    1.10
  -5  -4  -7    1.40    0.60
  -5  -4  -7    2.30    0.70
   5  -4   7    2.60    0.80
  -5  -4  -7    0.50    0.70
   5   4   7    2.00    0.80
   5   4   7    2.30    0.70
  -5   4  -7    1.50    0.60
   5  -4   5    5.50    1.10
  -5  -4  -5    6.90    1.50
  -5  -4  -5    5.80    1.00
  -5  -4  -5    5.30    0.90
  -5   4  -5    7.70    0.90
   5   4   5    6.20    1.00
   5   4   5    7.30    1.10
  -5  -4  -3   10.70    1.20
   5  -4   3   11.00    1.30
  -5  -4  -3   10.70    1.30
   5   4   3   11.60    1.40
   5   4   3   12.00    1.30
   5   4   3   12.30    1.30
   5  -4   1   41.70    3.20
  -5  -4  -1   39.10    3.20
  -5  -4  -1   41.10    3.20
  -5  -4  -1   35.00    3.40
   5  -4   1   46.40    3.20
   5   4   1   38.60    3.30
   5   4   1   42.60    3.20
  -5  -4   1   21.00    1.80
   5  -4  -1   21.10    1.90
   5  -4  -1   19.50    1.80
   5  -4  -1   22.80    1.90
  -5  -4   1   19.00    1.80
   5  -4  -1   21.40    2.00
  -5  -4   1   19.50    2.10
   5   4  -1   19.90    2.00
   5   4  -1   23.00    1.90
   5   4  -1   21.70    1.70
   5  -4  -3   16.70    1.60
   5  -4  -3   17.20    1.60
   5  -4  -3   19.50    1.70
   5  -4  -3   18.60    1.70
  -5  -4   3   19.50    1.70
   5  -4  -3   15.60    1.80
   5  -4  -3   16.50    1.80
  -5  -4   3   17.00    1.90
   5   4  -3   19.60    1.50
   5   4  -3   15.40    1.90
   5   4  -3   20.00    1.80
   5  -4  -5  103.99    7.50
   5  -4  -5  102.19    7.40
   5  -4  -5   96.69    7.40
  -5  -4   5   98.09    7.60
   5  -4  -5  101.49    7.40
   5  -4  -5  108.69    7.50
  -5  -4   5  109.09    7.40
   5   4  -5  104.19    7.50
   5   4  -5   99.69    7.30
   5   4  -5   86.99    7.50
   5   4  -5   97.69    7.30
  -5  -4   7   44.60    3.20
   5  -4  -7   39.90    3.30
   5  -4  -7   37.20    3.10
  -5  -4   7   33.00    3.30
   5  -4  -7   43.80    3.20
   5  -4  -7   37.80    3.20
   5  -4  -7   40.60    3.20
  -5  -4   7   41.90    3.50
   5   4  -7   44.00    3.30
   5   4  -7   43.00    3.50
   5   4  -7   37.70    3.10
   5  -4  -9   14.90    1.80
   5  -4  -9   15.70    1.70
  -5  -4   9   15.60    1.80
  -5  -4   9   13.70    1.80
  -5  -4   9   18.40    1.90
   5  -4  -9   15.40    1.70
   5  -4  -9   15.70    1.50
   5  -4  -9   15.40    1.60
   5   4  -9   17.20    1.80
   5   4  -9   15.40    1.50
   5  -4 -11    0.90    0.80
   5  -4 -11    1.20    0.70
   5  -4 -11    0.50    0.70
  -5  -4  11    1.10    1.00
   5  -4 -11    0.50    1.00
   5  -4 -11    0.50    0.70
  -5  -4  11    0.90    1.10
   5   4 -11    2.00    0.70
   5   4 -11    1.20    0.80
  -5   4  11    0.00    0.80
   5   4 -11    0.70    1.10
  -5  -4  13    5.70    1.20
  -5  -4  13    3.60    1.10
   5  -4 -13    3.50    0.80
   5  -4 -13    5.00    0.70
   5  -4 -13    3.90    0.80
  -5  -5  -8    0.30    0.70
   5  -5   8   -0.40    0.90
   5   5   8    0.00    0.70
   5   5   8    0.30    0.80
  -5   5  -8    1.10    0.80
  -5  -5  -6    0.10    0.80
  -5  -5  -6    0.20    0.70
   5  -5   6    0.20    0.90
   5   5   6    0.10    0.80
   5   5   6    0.60    0.60
   5  -5   4    0.90    0.90
  -5  -5  -4    2.10    0.70
   5  -5   4    2.70    0.90
  -5  -5  -4    1.50    0.80
   5   5   4    1.90    0.90
   5   5   4    2.00    0.70
  -5  -5  -2    1.90    0.70
   5  -5   2    0.90    0.80
  -5  -5  -2    1.40    0.80
   5   5   2    0.50    0.60
   5   5   2    1.10    0.70
   5   5   2    0.70    1.00
   5  -5   0   15.00    2.30
  -5  -5   0   16.30    1.60
   5  -5   0   18.60    1.70
  -5  -5   0   13.30    2.20
   5   5   0   19.00    2.00
   5   5   0   20.50    1.80
   5   5   0   19.20    1.50
   5  -5  -2  548.85   37.60
   5  -5  -2  591.04   37.70
  -5  -5   2  527.95   37.60
  -5  -5   2  490.65   37.80
   5  -5  -2  517.55   37.60
   5  -5  -2  529.25   37.60
   5  -5  -2  523.25   37.60
   5   5  -2  521.85   37.70
   5   5  -2  504.25   37.50
  -5  -5   4    1.40    1.00
   5  -5  -4    0.90    0.80
  -5  -5   4    1.60    0.80
   5  -5  -4    0.00    0.90
   5  -5  -4    1.30    0.80
   5  -5  -4    2.80    0.80
   5  -5  -4    0.40    1.00
   5  -5  -4    2.90    0.80
   5   5  -4    0.30    0.90
   5   5  -4    2.90    0.70
   5  -5  -6   -1.10    0.70
   5  -5  -6   -0.80    0.80
   5  -5  -6    0.60    1.10
   5  -5  -6   -0.50    0.70
   5  -5  -6   -1.40    0.80
  -5  -5   6    1.00    1.00
   5   5  -6   -0.40    1.00
   5   5  -6    0.10    0.60
   5  -5  -8    1.50    0.80
   5  -5  -8    0.10    0.70
  -5  -5   8   -0.20    1.00
   5  -5  -8    0.10    0.80
  -5  -5   8    0.50    0.90
   5  -5  -8    0.30    1.20
   5  -5  -8    0.10    0.80
   5   5  -8    1.10    1.10
   5   5  -8    0.40    0.70
   5  -5 -10   20.50    2.10
   5  -5 -10   22.70    1.80
   5  -5 -10   22.20    2.20
   5  -5 -10   19.40    1.90
   5   5 -10   25.50    2.30
   5   5 -10   22.40    1.90
   5  -6   5   43.80    3.40
   5   6   5   40.00    3.10
   5   6   5   46.80    3.50
   5   6   5   36.60    3.70
  -5   6  -5   41.60    3.20
   5  -6   3   62.09    5.50
  -5  -6  -3   69.99    5.40
   5   6   3   72.69    5.20
   5   6   3   80.19    5.30
  -5  -6   1    0.60    0.80
   5  -6  -1   -0.60    1.10
   5   6  -1    1.50    0.60
   5   6  -1    2.30    0.90
  -5  -6   3    7.30    1.20
   5  -6  -3    8.80    1.80
   5  -6  -3    5.80    1.10
  -5  -6   3    4.90    1.50
   5   6  -3    7.30    1.30
   5   6  -3    6.90    0.90
   5  -6  -5    8.10    1.40
   5  -6  -5    9.50    1.80
  -5  -6   5    9.10    1.80
  -5  -6   5    7.20    1.20
   5   6  -5    9.60    1.00
   5   6  -5    6.80    1.40
  -5  -6   7  110.69    7.80
   5  -6  -7  101.49    7.60
   5  -6  -7   99.89    7.40
  -5  -6   7  101.79    7.50
   5  -6  -7  106.99    7.50
   5  -6  -7  109.89    7.60
   5   6  -7   98.69    7.40
   5   6  -7   92.59    7.60
  -6   0 -12    2.50    0.60
   6   0  12    2.60    0.80
   6   0  12    1.90    0.80
  -6   0 -12    2.40    0.60
   6   0  12    1.70    0.50
  -6   0 -10    0.80    0.60
  -6   0 -10   -0.20    0.60
   6   0  10    0.80    0.80
   6   0  10    0.80    0.50
   6   0  10   -2.20    1.60
   6   0  10   -0.60    0.70
   6   0   8    2.70    1.00
   6   0   8    2.40    0.90
   6   0   8    0.80    0.60
   6   0   8    2.10    0.80
  -6   0  -8    0.50    0.50
  -6   0  -8    1.10    0.60
   6   0   6  837.92   59.99
   6   0   6  919.01   60.09
   6   0   6  912.11   59.89
   6   0   6  822.22   59.99
  -6   0  -6  744.83   59.89
  -6   0  -6  829.02   59.89
   6   0   4  379.66   26.40
   6   0   4  377.96   26.20
   6   0   4  365.56   26.30
   6   0   4  388.16   26.30
   6   0   4  375.66   26.30
  -6   0  -4  371.26   26.20
  -6   0  -4  321.47   26.20
   6   0   2   43.50    3.30
   6   0   2   45.80    3.20
   6   0   2   44.00    3.30
  -6   0  -2   39.50    3.20
   6   0   2   42.90    3.40
   6   0   2   42.00    3.40
  -6   0  -2   40.30    3.30
   6   0   0    3.80    0.80
   6   0   0    2.10    0.80
  -6   0   0    2.00    0.60
   6   0   0    2.50    0.60
   6   0   0    2.00    1.10
   6   0   0    3.70    0.80
   6   0   0    3.70    0.70
   6   0  -2   54.29    4.00
   6   0  -2   53.79    4.10
   6   0  -2   47.00    4.10
  -6   0   2   54.39    4.00
   6   0  -2   55.39    4.30
  -6   0   2   62.79    4.10
   6   0  -2   55.99    4.10
   6   0  -2   51.89    4.10
   6   0  -4    4.30    0.80
   6   0  -4    6.50    1.00
   6   0  -4    4.70    1.00
   6   0  -4    5.50    1.10
  -6   0   4    5.80    1.00
   6   0  -4    3.90    0.80
  -6   0   4    2.20    1.10
   6   0  -6  160.48   11.10
   6   0  -6  149.69   11.00
   6   0  -6  140.09   11.10
  -6   0   6  175.18   11.10
   6   0  -6  150.98   11.00
   6   0  -6  137.09   11.10
   6   0  -8 1186.78   85.09
   6   0  -8 1178.08   85.09
   6   0  -8 1192.58   85.19
  -6   0   8 1370.66   85.19
   6   0  -8 1250.27   84.99
   6   0  -8 1055.29   84.99
   6   0  -8 1162.18   85.19
   6   0 -10   21.40    2.20
   6   0 -10   20.00    1.90
   6   0 -10   19.00    2.10
  -6   0  10   18.30    2.20
   6   0 -10   21.70    1.80
   6   0 -10   19.80    2.00
   6   0 -10   18.90    2.10
  -6   0  10   24.30    1.90
   6   0 -12   18.00    1.70
   6   0 -12   20.00    1.80
   6   0 -12   17.50    1.90
   6   0 -14    1.90    1.00
  -6   0  14    0.20    0.80
  -6   0  14    0.70    1.00
   6   0 -14    0.40    0.60
   6  -1  11   28.60    2.40
  -6  -1 -11   28.40    2.50
   6  -1  11   34.40    2.60
  -6  -1 -11   28.40    2.40
   6  -1  11   33.50    2.40
  -6   1 -11   27.00    2.30
   6   1  11   33.30    2.60
   6   1  11   28.70    2.40
   6   1  11   27.20    2.70
  -6   1 -11   31.20    2.40
   6  -1   9    2.90    0.90
  -6  -1  -9    2.40    0.60
  -6  -1  -9    3.40    0.60
   6  -1   9    2.00    0.70
   6  -1   9    2.40    0.70
  -6   1  -9    3.70    0.70
   6   1   9    2.40    0.90
   6   1   9    3.70    0.90
  -6   1  -9    2.80    0.60
   6   1   9    3.90    0.80
  -6  -1  -7   20.50    1.80
   6  -1   7   23.90    2.10
  -6  -1  -7   18.20    1.80
   6  -1   7   21.40    1.80
   6  -1   7   21.50    1.90
   6   1   7   20.40    2.00
   6   1   7   18.70    1.80
   6   1   7   22.20    2.10
  -6   1  -7   19.80    1.70
  -6   1  -7   20.00    1.70
   6  -1   5    9.60    1.10
   6  -1   5    7.30    1.40
   6  -1   5   10.40    1.30
   6  -1   5    9.40    1.10
  -6  -1  -5    7.20    1.10
   6   1   5   10.20    1.10
  -6   1  -5    8.60    1.10
   6   1   5   10.00    1.40
   6   1   5    8.80    1.30
   6   1   5    8.40    1.30
   6  -1   3  215.48   15.20
   6  -1   3  230.38   15.20
   6  -1   3  212.98   15.30
  -6  -1  -3  189.28   15.10
   6  -1   3  221.28   15.30
  -6  -1  -3  211.38   15.10
   6  -1   3  223.38   15.10
   6   1   3  190.18   15.30
   6   1   3  187.48   15.20
  -6   1  -3  218.48   15.10
   6   1   3  222.78   15.30
   6   1   3  213.68   15.30
   6   1   3  215.88   15.20
   6  -1   1   66.79    4.90
   6  -1   1   66.79    4.90
   6  -1   1   65.29    5.00
   6  -1   1   68.19    4.90
   6  -1   1   65.49    5.00
  -6  -1  -1   63.99    4.80
  -6  -1  -1   58.09    4.80
   6  -1   1   69.29    4.80
   6   1   1   58.79    4.90
   6   1   1   65.89    4.80
   6   1   1   64.69    4.90
   6   1   1   66.89    5.00
  -6   1  -1   68.29    4.80
  -6  -1   1   34.20    2.80
  -6  -1   1   38.70    2.80
   6  -1  -1   39.10    2.90
   6  -1  -1   37.40    2.90
   6  -1  -1   36.80    3.00
   6  -1  -1   36.80    3.00
   6   1  -1   37.50    3.00
   6   1  -1   34.80    3.00
   6   1  -1   38.50    2.90
  -6  -1   3  121.09    8.10
   6  -1  -3  117.69    8.20
   6  -1  -3   96.79    8.20
   6  -1  -3  109.59    8.20
   6  -1  -3  114.29    8.20
   6  -1  -3  111.29    8.20
   6  -1  -3  110.69    8.10
  -6  -1   3  106.89    8.30
   6   1  -3  120.29    8.20
  -6   1   3  121.49    8.30
   6   1  -3  113.89    8.10
   6   1  -3  113.99    8.30
  -6   1   3  106.29    8.10
   6   1  -3  110.19    8.10
   6  -1  -5   62.59    4.70
   6  -1  -5   65.79    4.80
   6  -1  -5   59.89    4.80
  -6  -1   5   62.19    4.80
   6  -1  -5   59.59    4.90
   6  -1  -5   61.99    4.70
  -6  -1   5   67.19    4.70
   6   1  -5   68.49    4.80
   6   1  -5   61.49    4.70
   6   1  -5   59.19    4.90
   6   1  -5   62.89    4.70
   6   1  -5   66.19    4.80
  -6   1   5   68.49    4.80
   6  -1  -7   12.40    1.40
  -6  -1   7   13.60    1.40
   6  -1  -7    9.60    1.50
   6  -1  -7    7.80    1.50
   6  -1  -7   11.20    1.30
   6  -1  -7   11.20    1.10
   6   1  -7    8.50    1.40
   6   1  -7   13.40    1.40
   6   1  -7   10.10    1.10
   6   1  -7    8.90    1.70
  -6   1   7   10.60    1.40
   6   1  -7    8.40    1.40
   6   1  -7   13.50    1.60
   6  -1  -9   38.30    2.90
   6  -1  -9   31.60    2.70
   6  -1  -9   35.70    3.10
  -6  -1   9   37.60    2.90
   6  -1  -9   35.10    3.00
   6  -1  -9   36.40    3.00
   6   1  -9   33.60    3.00
   6   1  -9   33.90    3.00
   6   1  -9   35.70    2.80
   6   1  -9   26.80    3.80
   6  -1 -11   74.19    5.70
  -6  -1  11   92.79    6.00
   6  -1 -11   85.59    6.00
   6  -1 -11   81.59    5.80
   6  -1 -11   71.39    5.80
   6  -1 -11   79.09    5.80
   6   1 -11   78.09    5.90
   6   1 -11   71.49    5.80
   6   1 -11   70.39    5.70
   6   1 -11   71.29    5.70
   6  -1 -13   61.69    4.70
   6  -1 -13   59.89    4.60
   6  -1 -13   53.99    4.70
   6  -1 -13   56.69    4.50
  -6  -1  13   70.99    4.60
   6   1 -13   63.39    4.60
   6   1 -13   62.29    4.60
   6  -2  10    4.20    0.90
   6  -2  10    3.80    1.00
   6  -2  10    5.70    1.00
  -6  -2 -10    2.50    0.70
  -6  -2 -10    4.00    0.70
  -6   2 -10    2.30    0.50
   6   2  10    2.70    0.90
  -6   2 -10    3.80    0.70
   6   2  10    3.70    0.70
   6   2  10    2.90    0.80
   6  -2   8    3.30    1.10
   6  -2   8    3.50    0.80
  -6  -2  -8    5.10    0.90
  -6  -2  -8    1.70    0.70
   6  -2   8    2.70    0.70
  -6  -2  -8    3.10    0.70
  -6   2  -8    2.30    0.70
   6   2   8    2.80    1.00
   6   2   8    3.40    0.90
   6  -2   6    2.10    1.00
   6  -2   6    2.30    0.80
  -6  -2  -6    0.60    0.60
  -6  -2  -6    0.70    0.70
   6  -2   6    0.30    0.70
  -6  -2  -6   -0.20    1.40
  -6   2  -6    1.30    0.70
   6   2   6    1.20    0.70
   6   2   6    1.40    0.90
   6  -2   4    3.20    0.80
   6  -2   4    2.90    0.70
   6  -2   4    1.40    0.90
  -6  -2  -4    1.10    0.80
   6   2   4    2.90    0.90
   6   2   4    4.10    0.80
  -6   2  -4    4.10    0.80
   6   2   4    2.70    0.80
   6   2   4    3.00    0.80
  -6  -2  -2   22.30    2.00
   6  -2   2   23.60    2.40
   6  -2   2   25.90    2.10
   6  -2   2   25.10    2.30
  -6  -2  -2   22.90    2.20
   6  -2   2   29.20    2.10
  -6  -2  -2   26.60    2.10
   6  -2   2   26.50    2.20
   6   2   2   25.20    2.20
   6   2   2   26.10    2.10
   6   2   2   24.20    2.20
   6   2   2   20.70    2.10
  -6  -2   0    1.80    1.00
  -6  -2   0    0.10    0.60
   6  -2   0   -0.10    0.60
   6  -2   0    0.80    0.70
   6  -2   0    0.90    0.60
   6  -2   0    1.10    1.00
  -6  -2   0    0.40    0.70
   6   2   0    0.20    0.60
   6   2   0   -0.80    0.70
   6   2   0    1.00    0.80
   6  -2  -2   14.10    1.30
  -6  -2   2   10.70    1.40
  -6  -2   2   14.10    1.30
   6  -2  -2   13.40    1.40
   6  -2  -2   12.10    1.20
   6   2  -2   14.70    1.40
  -6   2   2   15.00    1.50
   6   2  -2   12.10    1.40
   6   2  -2   11.10    1.40
   6  -2  -4   32.70    2.90
   6  -2  -4   36.10    2.90
  -6  -2   4   37.90    3.00
   6  -2  -4   34.00    2.80
  -6  -2   4   41.60    2.80
   6  -2  -4   38.50    2.90
   6   2  -4   35.10    2.80
   6   2  -4   29.40    2.90
   6   2  -4   34.00    2.90
   6   2  -4   40.50    3.00
   6   2  -4   36.20    3.00
  -6  -2   6   50.99    3.80
   6  -2  -6   49.70    3.70
   6  -2  -6   49.50    3.80
   6  -2  -6   46.40    3.80
   6  -2  -6   46.50    3.80
  -6  -2   6   50.19    3.90
  -6   2   6   52.99    3.90
   6   2  -6   52.29    3.80
   6   2  -6   46.60    3.90
   6   2  -6   44.90    3.70
   6   2  -6   49.00    3.70
   6  -2  -8   10.90    1.40
   6  -2  -8   13.00    1.40
  -6  -2   8   11.10    1.40
  -6  -2   8   11.00    1.60
   6  -2  -8   11.40    1.50
   6  -2  -8   12.30    1.30
   6   2  -8   10.60    1.50
  -6  -2  10   -0.90    0.90
   6  -2 -10    0.50    0.80
   6  -2 -10    0.90    0.70
   6  -2 -10   -0.70    1.00
   6  -2 -10    0.00    0.80
  -6  -2  10    0.00    0.80
   6   2 -10    0.60    0.80
   6   2 -10    0.20    0.90
  -6   2  10    1.00    0.80
   6   2 -10    0.90    0.80
   6   2 -10    0.30    0.70
   6  -2 -12   11.10    1.60
  -6  -2  12   12.40    1.40
   6  -2 -12   10.40    1.30
   6  -2 -12    9.80    1.20
  -6  -2  12   12.70    1.80
   6  -2 -12    9.10    1.40
   6   2 -12   11.00    1.30
   6   2 -12    9.30    1.50
  -6   2  12   10.60    1.50
   6   2 -12   10.40    1.20
  -6  -2  14    0.40    0.80
   6  -2 -14    0.30    0.70
   6  -2 -14   -0.20    0.90
   6  -2 -14    0.20    0.60
   6   2 -14   -0.70    0.80
   6   2 -14    0.30    0.60
  -6   2  14   -0.20    0.60
  -6  -3  -9    5.10    1.00
   6  -3   9    6.50    1.40
  -6  -3  -9    8.50    1.00
  -6   3  -9    6.70    1.00
   6   3   9    8.70    1.40
   6   3   9    8.10    1.10
  -6  -3  -7   16.70    1.50
   6  -3   7   17.00    2.00
  -6  -3  -7   13.80    1.60
   6  -3   7   16.20    1.80
   6   3   7   18.00    1.60
  -6   3  -7   18.40    1.60
   6   3   7   16.00    1.90
   6   3   7   20.70    1.80
   6  -3   5   79.79    5.80
  -6  -3  -5   63.39    5.50
  -6  -3  -5   70.29    5.50
   6  -3   5   85.49    5.70
   6  -3   5   77.59    5.60
   6   3   5   76.59    5.70
   6   3   5   70.99    5.70
   6   3   5   69.19    5.50
   6   3   5   75.59    5.50
  -6   3  -5   79.99    5.50
   6  -3   3    6.80    1.10
   6  -3   3    7.50    1.00
  -6  -3  -3    6.60    1.00
  -6  -3  -3    5.40    1.00
  -6  -3  -3    7.00    1.30
   6   3   3    6.60    1.10
  -6   3  -3    7.90    1.20
   6   3   3    5.00    1.00
   6   3   3    4.90    1.20
   6   3   3    8.70    1.30
   6  -3   1   12.50    1.30
  -6  -3  -1   11.80    1.30
   6  -3   1   14.30    1.40
  -6  -3  -1   12.30    1.30
   6   3   1   13.60    1.40
   6   3   1   14.20    1.50
   6   3   1   12.00    1.40
   6  -3  -1   37.50    2.80
   6  -3  -1   33.60    2.70
  -6  -3   1   30.60    2.60
  -6  -3   1   29.30    2.80
   6  -3  -1   37.10    2.70
   6   3  -1   34.60    2.80
   6   3  -1   30.50    2.70
  -6  -3   3   60.99    4.30
  -6  -3   3   52.29    4.50
   6  -3  -3   60.69    4.40
   6  -3  -3   55.29    4.30
   6  -3  -3   63.89    4.50
   6   3  -3   56.39    4.40
   6   3  -3   53.19    4.20
   6   3  -3   59.29    4.50
   6  -3  -5    7.70    1.30
  -6  -3   5    7.50    1.10
   6  -3  -5    7.60    1.00
   6  -3  -5    6.90    1.10
  -6  -3   5    7.30    1.20
  -6  -3   5    6.10    1.10
   6  -3  -5    6.20    1.10
   6   3  -5    6.60    1.30
   6   3  -5    6.10    1.30
   6   3  -5    6.30    0.90
   6   3  -5    6.50    1.00
   6  -3  -7  105.79    8.00
  -6  -3   7  101.09    8.10
   6  -3  -7  109.59    8.10
   6  -3  -7  112.69    8.10
  -6  -3   7  120.69    8.10
   6  -3  -7  118.99    8.20
  -6  -3   7  120.49    8.20
   6   3  -7  103.49    7.90
   6   3  -7   97.19    7.90
   6   3  -7  106.99    8.10
   6  -3  -9   12.00    1.60
   6  -3  -9   11.30    1.20
   6  -3  -9   11.20    1.40
   6  -3  -9   11.50    1.30
  -6  -3   9   12.80    1.50
  -6  -3   9   10.50    1.40
   6   3  -9   10.90    1.40
   6   3  -9    7.90    1.20
   6   3  -9   10.30    1.60
   6  -3 -11    2.50    1.00
   6  -3 -11    0.50    0.60
   6  -3 -11    2.00    0.80
   6  -3 -11    0.90    0.70
  -6  -3  11    1.50    0.90
  -6  -3  11    0.90    0.90
   6   3 -11    2.20    0.90
   6   3 -11    1.30    0.70
   6   3 -11    0.60    0.80
   6  -3 -13   -0.30    0.70
  -6  -3  13   -0.20    1.20
  -6  -3  13    0.80    0.90
   6  -3 -13   -0.40    0.60
   6  -3 -13    1.10    0.70
  -6   3  13    0.50    0.60
   6   3 -13   -0.50    0.90
   6   3 -13   -0.50    0.80
   6   3 -13    0.40    0.60
  -6  -4  -8   -0.20    0.70
  -6  -4  -8   -0.40    0.60
   6  -4   8    0.10    0.70
   6   4   8    0.10    0.80
  -6  -4  -6    2.80    0.70
   6  -4   6    4.40    0.90
  -6  -4  -6    3.00    0.70
   6   4   6    2.50    0.70
   6   4   6    1.10    0.80
  -6   4  -6    2.90    0.80
   6   4   6    3.50    0.90
  -6  -4  -4   13.00    1.40
   6  -4   4   13.70    1.60
  -6  -4  -4   10.80    1.40
   6   4   4   14.30    1.50
   6   4   4   11.40    1.50
   6   4   4   13.70    1.40
  -6   4  -4   16.70    1.50
  -6  -4  -2   -0.20    1.00
  -6  -4  -2    1.00    0.70
   6  -4   2    0.80    0.80
  -6  -4  -2    0.20    0.70
   6  -4   2   -0.60    0.70
   6   4   2    1.20    0.70
   6   4   2    2.80    0.90
  -6  -4   0  237.18   19.20
  -6  -4   0  261.07   19.10
  -6  -4   0  254.37   19.10
   6  -4   0  273.17   19.10
   6  -4   0  295.57   19.20
   6   4   0  274.37   19.20
   6   4   0  273.07   19.20
   6   4   0  267.97   19.00
   6  -4  -2  495.15   32.50
   6  -4  -2  497.35   32.50
  -6  -4   2  434.76   32.60
   6  -4  -2  455.45   32.40
  -6  -4   2  445.66   32.50
   6   4  -2  454.65   32.50
   6   4  -2  427.16   32.40
   6   4  -2  435.66   32.50
   6  -4  -4   19.40    1.90
  -6  -4   4   20.40    1.90
   6  -4  -4   23.10    1.90
   6  -4  -4   23.10    2.00
  -6  -4   4   21.20    2.20
   6  -4  -4   24.80    2.00
   6   4  -4   19.30    2.10
   6   4  -4   20.50    1.80
   6   4  -4   19.00    2.10
   6   4  -4   22.20    1.80
  -6  -4   6    1.00    0.90
   6  -4  -6    2.30    0.80
   6  -4  -6    2.10    0.80
   6  -4  -6    0.80    0.80
   6  -4  -6    0.80    0.90
  -6  -4   6   -0.20    0.80
   6   4  -6    1.30    0.70
   6   4  -6    1.50    0.70
   6   4  -6    0.20    0.90
   6  -4  -8    5.30    1.10
   6  -4  -8    7.30    1.30
  -6  -4   8    7.10    1.30
   6  -4  -8    8.70    1.20
   6  -4  -8    7.20    1.00
  -6  -4   8    6.70    1.30
   6   4  -8    6.70    1.00
   6   4  -8    6.20    1.20
   6  -4 -10   21.60    1.80
  -6  -4  10   23.10    2.10
   6  -4 -10   17.00    1.80
   6  -4 -10   19.10    1.70
   6  -4 -10   21.90    2.00
  -6  -4  10   17.30    2.10
  -6   4  10   15.40    1.80
   6   4 -10   19.00    1.70
   6   4 -10   22.60    2.00
   6   4 -10   18.60    1.70
  -6  -5  -7    2.10    0.60
   6  -5   7    2.00    0.90
  -6  -5  -7   -0.30    0.80
   6   5   7    0.30    0.80
   6   5   7    0.80    0.70
  -6   5  -7    0.70    0.80
   6  -5   5   13.20    1.50
  -6  -5  -5   12.10    1.30
  -6  -5  -5    8.30    1.40
   6   5   5   10.90    1.40
   6   5   5   12.50    1.30
  -6  -5  -3    1.90    0.70
   6  -5   3    2.80    0.90
   6   5   3    2.90    0.80
   6   5   3    1.10    0.90
   6  -5   1   24.10    2.10
  -6  -5  -1   22.20    2.00
  -6  -5  -1   21.20    1.90
   6   5   1   18.80    1.80
   6   5   1   21.80    2.20
   6   5   1   25.10    2.00
  -6  -5   1  108.59    9.10
   6  -5  -1  129.99    9.00
  -6  -5   1  121.09    9.00
   6   5  -1  135.89    9.10
   6   5  -1  113.39    9.00
   6   5  -1  127.99    8.80
  -6  -5   3   47.70    3.70
   6  -5  -3   45.40    3.90
   6  -5  -3   51.09    3.80
   6  -5  -3   56.59    3.80
  -6  -5   3   41.80    3.90
   6   5  -3   47.50    3.60
   6   5  -3   46.30    3.80
   6  -5  -5   16.60    1.60
   6  -5  -5   11.70    1.40
   6  -5  -5   17.20    1.70
  -6  -5   5   14.30    1.80
  -6  -5   5   13.60    1.60
   6  -5  -5   12.80    1.50
   6   5  -5   15.90    1.60
   6   5  -5   12.40    1.40
   6   5  -5   10.80    1.30
   6  -5  -7   20.30    1.80
  -6  -5   7   19.70    1.80
  -6  -5   7   21.00    2.10
   6  -5  -7   16.60    1.70
   6  -5  -7   19.60    2.00
   6  -5  -7   17.20    1.90
   6   5  -7   17.70    1.90
   6   5  -7   15.70    1.60
  -6  -5   9   12.70    1.50
   6  -5  -9   10.80    1.30
   6  -5  -9   10.60    1.10
   6  -5  -9    8.30    1.20
   6  -5  -9    9.40    1.60
   6   5  -9    7.90    1.20
   6   5  -9    9.30    1.50
  -6  -6  -2   11.00    1.30
   6   6   2   10.80    1.20
  -6  -6   0    6.90    1.50
   6   6   0    6.30    1.40
   6   6   0    7.10    0.90
   6   6  -2    0.80    0.70
   6   6  -2   -0.30    0.70
   6   6  -2   -0.30    1.00
  -6  -6   4   22.10    2.60
  -6  -6   4   26.60    2.10
   6   6  -4   22.00    1.90
   6   6  -4   22.40    2.10
   7   0   9    1.00    0.80
  -7   0  -9    0.50    0.50
  -7   0  -9    0.80    0.60
   7   0   9    0.00    0.50
   7   0   9   -0.60    1.00
   7   0   7    0.80    0.80
   7   0   7    0.60    0.80
  -7   0  -7    0.00    0.50
  -7   0  -7   -0.20    0.70
   7   0   7    2.80    1.00
   7   0   7    0.40    0.60
  -7   0  -5   -0.60    0.60
   7   0   5   -0.90    0.80
  -7   0  -5    0.20    0.80
   7   0   5    1.00    0.90
   7   0   5    0.50    0.60
   7   0   5    0.90    0.80
   7   0   3   -0.90    0.50
   7   0   3   -0.70    0.60
  -7   0  -3    0.30    0.60
  -7   0  -1   -0.10    0.50
   7   0   1    0.70    0.80
   7   0   1    0.80    0.60
   7   0   1   -0.80    0.60
   7   0  -1   -0.80    0.60
   7   0  -1   -0.20    0.60
   7   0  -1    1.00    0.80
  -7   0   1   -0.70    0.60
   7   0  -3   -0.50    0.50
  -7   0   3    0.60    0.70
  -7   0   3   -0.50    0.80
   7   0  -3    0.00    0.90
   7   0  -3   -0.50    0.60
   7   0  -3    0.50    0.80
   7   0  -3    0.70    1.10
   7   0  -5   -1.30    0.80
   7   0  -5   -0.20    0.70
  -7   0   5   -0.10    0.70
   7   0  -5   -1.70    1.00
   7   0  -5   -0.30    1.00
   7   0  -5   -1.00    0.60
   7   0  -5    0.80    0.80
   7   0  -7    0.60    0.80
   7   0  -7   -0.10    1.10
  -7   0   7    0.00    0.80
   7   0  -7    0.70    1.00
   7   0  -7    0.70    0.60
   7   0  -7    0.60    0.80
   7   0  -9    0.80    1.00
  -7   0   9    0.80    0.70
   7   0  -9   -1.00    0.60
   7   0  -9    0.40    0.80
   7   0  -9    0.10    1.00
   7   0  -9    0.20    1.20
  -7   0   9    1.30    1.10
   7   0 -11    0.90    0.80
  -7   0  11   -1.20    0.70
   7   0 -11    0.30    0.70
   7   0 -11    1.00    1.00
  -7   0  13   -0.60    0.70
   7   0 -13    0.50    0.60
   7   0 -13    1.20    0.90
   7  -1  10    7.60    1.00
  -7  -1 -10    6.00    1.00
   7  -1  10    8.10    1.10
   7  -1  10   10.00    1.30
  -7  -1 -10    7.70    1.00
   7   1  10    8.90    0.90
  -7   1 -10    7.30    0.90
   7   1  10    8.90    1.20
   7   1  10    6.10    1.10
  -7   1 -10    9.00    1.00
  -7  -1  -8    7.70    1.10
   7  -1   8   11.30    1.40
   7  -1   8    9.20    1.20
   7  -1   8    9.90    1.10
  -7  -1  -8    7.80    1.00
   7   1   8    8.40    1.40
   7   1   8    9.10    1.10
   7   1   8    9.80    1.40
  -7   1  -8    8.70    1.00
  -7   1  -8    9.30    1.10
  -7  -1  -6   77.59    5.80
  -7  -1  -6   68.79    5.80
   7  -1   6   85.09    5.90
   7  -1   6   87.99    6.10
   7  -1   6   86.49    5.90
   7   1   6   74.49    5.90
   7   1   6   81.09    6.00
  -7   1  -6   79.99    5.80
   7   1   6   69.59    5.70
   7   1   6   78.99    5.90
  -7   1  -6   79.99    5.80
  -7  -1  -4    2.40    0.90
   7  -1   4   -0.60    1.20
   7  -1   4    0.40    0.80
   7  -1   4    0.50    0.90
   7  -1   4    0.00    0.60
  -7  -1  -4   -0.50    0.50
   7   1   4    0.40    0.60
   7   1   4    0.50    0.80
   7   1   4    0.10    0.50
  -7   1  -4    0.00    0.50
  -7   1  -4    1.00    1.10
   7   1   4    0.30    0.80
  -7  -1  -2    5.00    0.90
   7  -1   2    4.10    1.20
   7  -1   2    4.20    0.90
   7  -1   2    4.60    1.00
   7  -1   2    5.60    1.00
   7  -1   2    5.90    0.90
   7   1   2    3.00    0.90
  -7   1  -2    5.80    0.90
   7   1   2    4.60    1.00
   7   1   2    4.20    0.80
   7   1   2    5.00    0.80
   7  -1   0   12.60    1.60
   7  -1   0   15.20    1.40
   7  -1   0   12.40    1.50
  -7  -1   0   15.20    1.40
   7  -1   0   15.70    1.50
  -7   1   0   15.60    1.40
   7   1   0   15.20    1.30
   7   1   0   14.00    1.60
   7   1   0   13.50    1.40
  -7  -1   2   29.60    2.60
   7  -1  -2   31.20    2.40
  -7  -1   2   30.90    2.40
   7  -1  -2   30.10    2.40
   7  -1  -2   31.30    2.60
   7  -1  -2   29.20    2.50
   7   1  -2   30.90    2.50
  -7   1   2   29.50    2.40
   7   1  -2   28.00    2.40
   7   1  -2   30.50    2.50
   7   1  -2   27.50    2.60
  -7  -1   4   11.50    1.40
  -7  -1   4    8.40    1.30
   7  -1  -4   11.20    1.20
   7  -1  -4   11.60    1.40
   7  -1  -4    9.80    1.20
   7   1  -4   11.00    1.30
   7   1  -4    9.50    1.30
   7   1  -4    8.90    1.30
   7   1  -4    9.30    1.10
  -7   1   4   12.60    1.40
   7   1  -4   11.70    1.60
   7  -1  -6  115.69    8.60
  -7  -1   6  122.69    8.80
   7  -1  -6  112.39    8.80
   7  -1  -6  127.29    8.80
   7  -1  -6  124.79    8.70
   7  -1  -6  117.49    8.70
   7   1  -6  115.59    8.60
   7   1  -6  119.49    8.70
  -7   1   6  115.49    8.90
   7   1  -6  120.79    8.70
   7   1  -6  112.19    8.80
  -7  -1   8   39.30    3.00
  -7  -1   8   40.20    2.90
   7  -1  -8   39.30    2.90
   7  -1  -8   36.10    3.00
   7  -1  -8   37.10    2.90
   7  -1  -8   35.20    3.10
   7  -1  -8   33.90    2.80
   7   1  -8   30.60    3.00
  -7   1   8   31.20    3.00
   7   1  -8   31.40    3.20
   7   1  -8   34.10    2.80
   7   1  -8   35.20    2.90
  -7  -1  10    9.10    1.60
   7  -1 -10   11.40    1.20
   7  -1 -10   10.70    1.40
  -7  -1  10   12.40    1.30
   7  -1 -10   13.30    1.60
   7  -1 -10   10.70    1.30
   7   1 -10   10.10    1.20
   7   1 -10   11.90    1.30
   7   1 -10   10.50    1.50
  -7   1  10   12.90    1.30
   7  -1 -12    0.10    1.00
   7  -1 -12   -0.60    0.80
   7  -1 -12    0.00    0.70
  -7  -1  12    1.20    0.80
   7   1 -12   -0.10    1.00
   7   1 -12    0.50    0.90
  -7   1  12   -0.70    1.00
   7   1 -12   -0.50    0.60
   7  -2   9   -1.20    0.80
  -7  -2  -9   -0.30    0.70
   7  -2   9   -1.00    0.80
   7  -2   9   -0.70    0.70
  -7  -2  -9   -0.40    0.60
  -7   2  -9   -0.20    0.50
   7   2   9    0.20    0.80
  -7   2  -9   -0.80    0.70
   7   2   9    0.40    0.50
   7   2   9    0.00    0.80
  -7  -2  -7   42.70    3.80
  -7  -2  -7   48.20    3.80
   7  -2   7   56.99    4.10
   7  -2   7   51.99    3.90
   7  -2   7   57.09    4.00
  -7   2  -7   46.90    3.80
   7   2   7   51.19    3.90
   7   2   7   51.89    4.00
  -7   2  -7   49.90    3.90
   7   2   7   52.99    4.00
   7  -2   5    7.30    1.40
  -7  -2  -5    6.40    1.00
  -7  -2  -5    5.90    1.10
   7  -2   5    8.70    1.10
   7  -2   5    9.50    1.20
  -7  -2  -5    5.20    1.20
  -7   2  -5    7.10    0.90
   7   2   5    8.10    1.10
   7   2   5    7.90    1.30
   7   2   5    9.40    1.30
  -7   2  -5    8.30    1.30
  -7  -2  -3    2.60    0.70
  -7  -2  -3    2.00    0.90
   7  -2   3    3.90    0.90
   7  -2   3    5.30    1.00
  -7  -2  -3    2.00    0.90
   7   2   3    3.00    0.70
  -7   2  -3    3.80    0.70
   7   2   3    4.00    0.90
   7   2   3    2.80    1.00
   7   2   3    3.60    1.00
  -7  -2  -1   92.79    7.50
   7  -2   1   94.19    7.20
   7  -2   1   89.39    7.30
  -7  -2  -1   96.39    7.30
   7  -2   1  111.19    7.40
   7   2   1   92.09    7.80
   7   2   1  101.79    7.30
  -7   2  -1  112.29    7.50
   7  -2  -1  111.29    7.90
  -7  -2   1   92.19    7.70
   7  -2  -1  104.59    7.70
   7  -2  -1  116.99    7.90
   7   2  -1  109.29    7.90
   7   2  -1  107.19    7.80
   7   2  -1   96.09    7.90
  -7   2   1  116.99    7.80
   7   2  -1  103.79    7.70
  -7  -2   3   20.20    1.70
   7  -2  -3   17.60    2.10
   7   2  -3   18.70    1.80
   7   2  -3   19.30    2.50
   7  -2  -5    7.60    1.20
   7  -2  -5    6.00    1.00
   7  -2  -5    5.10    1.10
  -7  -2   5    6.50    1.20
   7  -2  -5    6.30    1.00
  -7  -2   5    7.40    1.30
  -7   2   5    6.70    1.40
   7   2  -5    6.40    1.00
   7   2  -5    7.40    1.40
   7   2  -5    6.90    1.30
   7   2  -5    6.40    0.90
   7  -2  -7  124.09    8.10
   7  -2  -7  101.79    7.90
   7  -2  -7  105.09    8.00
  -7  -2   7  114.59    8.10
  -7  -2   7  107.09    8.00
   7  -2  -7  101.99    8.00
   7   2  -7  110.49    7.90
   7   2  -7   99.99    8.10
   7   2  -7  110.89    7.90
   7  -2  -9    2.60    1.00
  -7  -2   9    2.10    1.00
   7  -2  -9    3.90    0.80
   7  -2  -9    3.40    0.80
   7  -2  -9    4.70    1.30
  -7  -2   9    3.30    0.80
   7   2  -9    4.70    1.10
   7   2  -9    4.20    0.80
  -7   2   9    5.00    1.00
   7   2  -9    3.30    0.80
   7  -2 -11   28.80    2.50
   7  -2 -11   29.40    2.40
   7  -2 -11   34.40    2.70
  -7  -2  11   34.10    2.50
   7  -2 -11   28.90    2.30
   7   2 -11   26.50    2.60
  -7   2  11   26.90    2.50
   7   2 -11   27.30    2.40
  -7  -3  -8    8.70    1.10
  -7  -3  -8    8.50    1.10
   7  -3   8    8.00    1.40
  -7   3  -8    9.20    1.20
   7   3   8   11.80    1.70
   7   3   8   11.20    1.10
   7   3   8    9.10    1.40
  -7   3  -8    7.70    1.20
  -7  -3  -6    7.30    1.10
  -7  -3  -6    6.40    1.00
   7  -3   6   10.20    1.20
   7  -3   6    9.90    1.20
  -7   3  -6   10.50    1.80
   7   3   6    8.70    1.10
   7   3   6    9.00    1.30
   7   3   6    6.50    1.30
  -7  -3  -4   32.60    2.80
  -7  -3  -4   34.10    2.80
   7  -3   4   41.60    2.90
   7   3   4   37.40    3.00
   7   3   4   37.40    2.80
   7   3   4   33.80    2.90
  -7  -3  -2    4.50    1.00
  -7  -3  -2    4.40    0.80
  -7  -3  -2    5.80    1.20
   7  -3   2    4.90    1.10
   7  -3   2    5.40    1.10
   7   3   2    6.90    1.20
   7   3   2    4.70    0.90
   7   3   2    5.20    1.10
   7  -3   0    0.70    0.70
  -7  -3   0    0.60    0.60
   7  -3   0    0.50    0.70
  -7  -3   0    0.00    0.80
   7   3   0    1.40    0.90
  -7   3   0    0.40    0.80
   7   3   0    0.00    0.80
   7  -3  -2   14.40    1.40
  -7  -3   2   12.20    1.40
   7  -3  -2   14.60    1.40
  -7  -3   2   11.90    1.50
   7  -3  -2   15.00    1.50
   7   3  -2   12.90    1.60
   7   3  -2   13.50    1.60
   7   3  -2   13.20    1.30
  -7  -3   4   33.40    2.70
   7  -3  -4   35.30    2.70
   7  -3  -4   37.60    2.90
   7  -3  -4   36.50    2.80
  -7  -3   4   31.70    2.90
   7   3  -4   32.80    2.90
   7   3  -4   30.00    2.90
  -7   3   4   34.10    2.90
   7   3  -4   31.50    2.60
  -7  -3   6   18.20    1.70
  -7  -3   6   14.50    1.60
   7  -3  -6   14.30    1.50
   7  -3  -6   13.20    1.50
   7  -3  -6   16.70    1.70
  -7  -3   6   14.70    1.70
   7   3  -6   10.30    1.70
   7   3  -6   14.10    1.40
   7  -3  -8   12.10    1.30
  -7  -3   8   12.60    1.50
   7  -3  -8    9.80    1.40
   7  -3  -8   11.50    1.30
  -7  -3   8   10.30    1.40
   7  -3  -8   13.20    1.50
   7   3  -8   12.40    1.20
   7   3  -8   11.50    1.60
  -7   3   8   12.20    1.40
   7   3  -8    7.80    1.30
   7   3  -8    9.60    1.20
  -7  -3  10   27.30    2.30
  -7  -3  10   19.10    2.80
   7  -3 -10   26.00    2.10
   7  -3 -10   21.40    2.60
   7  -3 -10   28.20    2.30
   7  -3 -10   23.50    2.00
   7   3 -10   23.10    2.20
   7   3 -10   22.40    2.00
  -7  -4  -7    0.80    0.60
   7  -4   7    0.00    0.70
  -7  -4  -7    1.10    0.70
   7   4   7    0.70    0.70
  -7   4  -7   -0.40    0.50
   7   4   7    1.70    0.90
  -7  -4  -5    1.60    1.10
   7  -4   5    0.20    0.80
   7   4   5    3.00    0.80
   7   4   5    2.20    0.90
   7  -4   3    9.30    1.30
  -7  -4  -3   10.40    1.30
   7   4   3   10.10    1.30
   7   4   3    8.10    1.30
   7  -4   1    2.50    0.90
  -7  -4  -1    3.40    0.70
  -7  -4  -1    3.10    1.10
  -7   4  -1    1.90    0.90
   7   4   1    2.80    1.00
   7   4   1    4.20    1.00
   7  -4  -1    8.60    1.30
   7  -4  -1    9.90    1.40
  -7  -4   1    9.50    1.20
  -7  -4   1    8.30    1.50
   7   4  -1    9.30    1.40
   7   4  -1    8.20    1.50
   7  -4  -3   30.20    2.70
   7  -4  -3   38.50    2.80
   7  -4  -3   38.20    2.80
  -7  -4   3   30.10    2.90
  -7  -4   3   31.40    2.70
   7   4  -3   30.40    2.80
   7   4  -3   33.20    2.60
   7   4  -3   31.90    2.80
  -7  -4   5   10.20    1.40
   7  -4  -5   11.90    1.50
  -7  -4   5    8.80    1.50
   7  -4  -5   13.30    1.40
   7  -4  -5    9.20    1.30
   7   4  -5   10.70    1.10
   7   4  -5   11.70    1.50
   7  -4  -7    5.10    0.90
   7  -4  -7    5.40    1.10
  -7  -4   7    4.70    1.00
   7  -4  -7    3.30    1.10
   7  -4  -7    4.60    0.90
  -7  -4   7    6.40    1.70
   7   4  -7    3.30    1.20
   7   4  -7    4.40    1.10
  -7  -4   9   -0.20    0.80
   7  -4  -9   -0.10    0.60
   7  -4  -9    0.50    0.70
   7  -4  -9    0.10    0.90
   7  -4  -9    0.60    0.90
   7   4  -9    0.60    0.60
   7   4  -9   -0.30    0.80
  -7  -5  -2   -0.20    1.00
   7  -5   2    0.50    0.80
   7   5   2   -0.70    0.80
   7   5   2   -1.10    0.90
  -7  -5   0  132.19    9.90
   7   5   0  128.59   10.00
   7   5   0  151.28   10.00
  -7  -5   2    8.10    1.20
   7  -5  -2    7.40    1.60
  -7  -5   2    5.20    1.20
   7  -5  -2    8.90    1.40
   7   5  -2    6.50    1.30
   7   5  -2    7.70    0.90
   7  -5  -4   -1.40    0.90
  -7  -5   4    1.20    0.90
  -7  -5   4    0.70    0.80
   7  -5  -4    0.40    1.00
   7   5  -4   -0.30    0.90
   7   5  -4   -0.80    0.70
  -7  -5   6    1.40    0.90
   7  -5  -6    1.60    1.00
  -7  -5   6    0.80    1.00
   7  -5  -6    2.20    0.90
   7  -5  -6    1.90    0.90
   7   5  -6    0.30    1.00
   8   0   8  141.39    9.10
  -8   0  -8  117.99    9.00
   8   0   8  126.89    9.00
  -8   0  -8  112.39    9.00
  -8   0  -6   96.09    7.10
   8   0   6   88.29    7.20
   8   0   6   98.59    7.10
   8   0   6  108.69    7.30
   8   0   4   11.30    1.20
   8   0   4    9.20    1.40
   8   0   4   13.10    1.50
  -8   0  -4   11.70    1.20
   8   0   2    1.10    0.60
   8   0   2    0.70    1.00
  -8   0  -2    1.30    0.60
   8   0   2    0.10    1.00
   8   0   2    1.00    0.60
  -8   0   0   16.50    1.50
   8   0   0   12.50    1.70
   8   0   0   15.40    1.50
   8   0   0   13.80    1.40
   8   0   0   17.00    1.70
   8   0  -2    0.40    0.60
   8   0  -2    0.90    0.90
  -8   0   2    1.40    0.80
   8   0  -2    1.00    0.70
   8   0  -2    1.20    1.00
  -8   0   2    1.20    0.80
   8   0  -4   36.00    3.00
   8   0  -4   34.50    3.00
   8   0  -4   38.50    2.80
   8   0  -4   35.10    2.90
   8   0  -4   29.50    3.10
  -8   0   4   40.80    3.10
   8   0  -6  398.96   30.70
   8   0  -6  451.05   30.80
   8   0  -6  422.66   30.80
   8   0  -6  399.96   30.80
   8   0  -6  447.76   30.70
  -8   0   6  468.35   30.90
  -8   0   8   28.20    2.50
   8   0  -8   25.40    2.50
   8   0  -8   26.40    2.60
   8   0  -8   27.50    2.20
   8   0  -8   27.80    2.40
   8   0  -8   23.80    2.30
  -8   0   8   32.50    2.40
   8   0 -10    8.20    1.20
  -8   0  10   11.90    1.20
   8   0 -10   10.50    1.30
  -8  -1  -7    2.10    0.90
   8  -1   7    1.70    1.00
   8  -1   7    2.60    0.90
  -8  -1  -7    1.60    0.60
   8   1   7    2.40    0.60
   8   1   7    2.40    0.80
   8   1   7    2.20    1.50
  -8   1  -7    2.80    0.60
  -8  -1  -5   34.00    3.00
   8  -1   5   39.60    2.90
   8  -1   5   41.60    3.00
  -8  -1  -5   35.60    2.90
  -8   1  -5   40.80    2.90
   8   1   5   39.90    3.10
   8   1   5   37.90    2.90
   8   1   5   34.70    3.00
   8   1   5   31.20    2.80
   8  -1   3    2.50    0.70
   8  -1   3    1.80    0.90
  -8  -1  -3    3.00    0.80
  -8  -1  -3    2.70    0.60
   8  -1   3    3.40    1.10
   8   1   3    3.90    0.80
   8   1   3    2.50    0.60
  -8   1  -3    3.10    0.70
   8   1   3    3.60    0.90
   8  -1   1   13.80    1.50
  -8  -1  -1   13.10    1.60
   8  -1   1   13.90    1.40
   8  -1   1   12.90    1.40
  -8  -1  -1   13.30    1.40
   8  -1   1   11.10    1.70
   8   1   1   14.80    1.70
   8   1   1   13.70    1.40
  -8   1  -1   17.10    1.40
   8   1   1   14.10    1.30
   8  -1  -1   32.30    2.50
   8  -1  -1   29.20    2.60
   8  -1  -1   30.50    2.70
  -8  -1   1   27.60    2.60
   8  -1  -1   33.10    2.50
  -8  -1   1   29.50    2.50
  -8   1   1   33.40    2.50
   8   1  -1   30.40    2.50
   8   1  -1   29.80    2.40
   8   1  -1   29.40    2.60
   8  -1  -3    8.60    1.10
   8  -1  -3    8.20    1.30
   8  -1  -3    8.70    1.10
  -8  -1   3    9.00    1.30
  -8  -1   3    7.80    1.30
   8   1  -3    7.70    1.00
   8   1  -3    5.20    1.30
  -8   1   3    8.80    1.30
   8   1  -3    7.20    1.30
   8   1  -3    7.50    1.20
  -8  -1   5    6.00    1.20
   8  -1  -5    4.50    0.90
   8  -1  -5    5.90    1.00
   8  -1  -5    7.90    1.30
   8   1  -5    4.20    1.10
   8   1  -5    6.00    1.20
   8   1  -5    4.70    1.00
   8   1  -5    6.50    0.90
   8   1  -5    6.30    1.10
  -8   1   5    6.10    1.30
   8  -1  -7   12.60    1.30
   8  -1  -7   10.80    1.40
  -8  -1   7   12.20    1.50
   8  -1  -7   14.10    1.70
   8  -1  -7   12.30    1.40
  -8   1   7   12.00    1.70
   8   1  -7   12.90    1.60
   8   1  -7   13.20    1.30
   8   1  -7   11.90    1.30
  -8  -1   9   47.60    3.80
   8  -1  -9   42.40    3.60
   8  -1  -9   46.50    3.50
   8  -1  -9   50.89    3.80
   8  -1  -9   44.70    3.60
   8   1  -9   41.70    3.50
   8   1  -9   44.10    3.50
  -8   1   9   55.09    3.60
   8   1  -9   45.00    3.70
   8  -1 -11   23.10    1.90
  -8  -1  11   25.90    2.10
   8  -1 -11   22.70    2.20
   8  -1 -11   22.50    2.00
   8   1 -11   22.00    2.10
   8   1 -11   23.60    2.00
  -8   1  11   27.60    2.10
   8  -2   6    0.40    0.60
   8  -2   6    0.60    1.20
  -8  -2  -6   -0.70    0.50
  -8  -2  -6   -1.40    1.30
   8   2   6    1.10    0.60
  -8   2  -6    1.70    0.60
   8   2   6    1.00    0.80
  -8  -2  -4    1.80    0.80
  -8  -2  -4    2.90    0.70
   8  -2   4    3.00    0.80
   8  -2   4    3.30    0.70
   8   2   4    4.00    0.60
  -8  -2  -2    0.10    0.60
   8  -2   2   -0.20    0.70
   8  -2   2    0.40    0.60
  -8  -2  -2    0.10    0.70
   8   2   2    0.30    0.70
  -8   2  -2    0.60    0.70
   8   2   2    0.10    0.50
   8   2   2    1.50    0.80
   8  -2   0    4.50    0.80
   8  -2   0    4.20    0.90
   8  -2   0    2.20    0.90
  -8  -2   0    2.50    0.70
   8   2   0    2.50    0.80
  -8   2   0    2.70    0.90
   8   2   0    3.00    0.70
   8   2   0    2.50    0.90
  -8  -2   2    6.90    1.10
   8  -2  -2    8.60    1.20
  -8  -2   2    5.50    1.10
   8  -2  -2    6.50    1.00
   8  -2  -2    6.30    1.00
   8   2  -2    5.80    1.10
   8   2  -2    5.80    1.10
   8   2  -2    6.10    1.20
   8   2  -2    5.40    0.80
   8  -2  -4   15.40    1.60
  -8  -2   4   13.70    1.60
   8  -2  -4   16.20    1.50
  -8  -2   4   12.00    1.60
   8  -2  -4   15.60    1.50
   8   2  -4   14.40    1.30
  -8   2   4   15.20    1.70
   8   2  -4   12.20    1.60
   8   2  -4   12.40    1.70
   8  -2  -6    2.20    0.80
   8  -2  -6    2.60    0.80
  -8  -2   6    1.30    0.80
   8  -2  -6    1.60    1.00
  -8  -2   6    2.70    0.80
   8   2  -6   -0.40    0.90
   8   2  -6    1.10    0.70
   8   2  -6    1.20    0.60
  -8  -2   8   -0.50    0.80
   8  -2  -8    1.00    0.90
   8  -2  -8   -0.20    1.00
  -8  -2   8   -0.20    0.70
   8  -2  -8    0.90    0.70
   8  -2  -8    0.00    0.70
   8   2  -8    1.30    0.90
   8   2  -8   -0.40    0.60
  -8   2   8    0.60    0.70
   8   2  -8    0.80    0.60
   8  -2 -10    5.60    1.10
  -8  -2  10    6.10    1.00
   8  -2 -10    4.80    1.00
  -8  -2  10    7.50    1.40
   8  -2 -10    4.60    0.90
   8   2 -10    3.10    1.00
   8   2 -10    6.50    1.20
  -8   2  10    5.00    1.00
   8   2 -10    5.20    0.90
   8  -3   5    1.70    0.80
   8  -3   5    2.50    0.80
  -8  -3  -5    2.80    0.60
  -8   3  -5    2.20    0.70
   8   3   5    3.20    0.80
   8   3   5    4.60    0.90
   8   3   5    2.90    0.50
  -8  -3  -3    1.20    0.60
   8  -3   3    1.10    0.80
  -8  -3  -3   -0.30    0.90
   8  -3   3    1.30    0.70
  -8   3  -3    0.80    0.70
   8   3   3    1.90    0.80
   8   3   3    2.00    0.50
   8   3   3   -0.40    0.80
  -8  -3  -1    6.00    1.20
   8  -3   1    7.80    1.10
   8  -3   1    9.30    1.20
  -8  -3  -1    5.80    1.00
  -8   3  -1    6.70    1.20
   8   3   1    6.60    1.20
   8   3   1    7.00    0.90
   8   3   1    8.80    1.40
   8  -3  -1   10.50    1.40
  -8  -3   1    9.90    1.40
  -8  -3   1    9.70    1.20
   8   3  -1   10.50    1.10
   8   3  -1   10.60    1.40
   8   3  -1   11.40    1.40
   8  -3  -3    7.10    1.10
  -8  -3   3    6.90    1.20
   8  -3  -3    5.00    1.10
   8  -3  -3    5.10    1.00
  -8  -3   3    4.10    0.90
   8   3  -3    4.80    1.10
   8   3  -3    5.70    1.20
  -8   3   3    7.90    1.40
   8   3  -3    6.30    0.80
   8  -3  -5   37.10    2.80
  -8  -3   5   30.60    2.80
  -8  -3   5   31.90    3.40
  -8  -3   5   36.30    2.90
   8   3  -5   36.80    2.70
   8   3  -5   35.90    2.90
   8   3  -5   31.50    2.70
  -8  -3   7    7.60    1.30
  -8  -3   7    5.60    1.20
   8  -3  -7    8.80    1.30
   8   3  -7    6.60    1.30
  -8   3   7    8.90    1.20
   8   3  -7    7.20    0.90
   8   3  -7    5.50    0.90
  -8  -4  -2   50.79    4.10
   8  -4   2   56.79    4.10
   8   4   2   58.99    4.00
   8   4   2   50.79    4.20
   8   4   2   54.89    4.10
  -8  -4   0  124.79    9.90
   8   4   0  147.09    9.80
   8   4   0  133.59    9.80
   8   4   0  135.39    9.80
  -8  -4   2   14.90    1.60
  -8  -4   2   11.80    1.60
   8  -4  -2   17.20    1.70
   8   4  -2   11.30    1.60
   8   4  -2   16.80    1.40
   8  -4  -4    0.00    1.00
   8  -4  -4    0.50    0.80
  -8  -4   4    0.00    0.80
   8  -4  -4    0.00    0.90
  -8  -4   4    2.40    0.90
   8   4  -4    0.40    0.90
   8   4  -4    1.00    0.60
   8   4  -4    1.90    1.10
   8  -4  -6    1.70    0.70
   8  -4  -6    1.20    0.90
  -8  -4   6    2.00    0.80
   8  -4  -6    1.80    0.80
   8   4  -6    2.40    0.70
   8   4  -6    1.80    0.90
   8   4  -6    0.70    0.70
  -9   0  -3    1.00    0.70
   9   0   3    0.40    0.50
  -9   0  -3    0.60    1.10
   9   0   3   -1.00    0.90
  -9   0  -1    0.50    0.70
   9   0   1   -0.30    0.80
   9   0   1   -1.60    0.90
   9   0   1    0.60    0.60
  -9   0  -1    0.70    0.70
   9   0  -1    0.40    0.90
   9   0  -1   -0.60    0.60
   9   0  -1   -0.40    0.70
  -9   0   1    1.20    0.80
   9   0  -3    0.50    0.60
   9   0  -3    0.60    0.70
  -9   0   3   -0.40    0.70
   9   0  -3   -2.30    2.00
   9   0  -5    1.70    1.30
   9   0  -5    2.10    1.50
   9   0  -5    0.30    0.60
  -9   0   7    1.90    1.00
  -9   0   7   -0.30    0.70
   9   0  -7   -0.20    0.60
   9   0  -7   -1.70    1.00
   9  -1   4    0.70    0.60
   9  -1   4    1.30    1.00
  -9  -1  -4    1.10    0.50
  -9  -1  -4    1.30    0.70
  -9   1  -4    0.30    0.60
   9   1   4    0.90    0.50
   9   1   4    0.70    0.80
   9  -1   2    1.80    0.60
   9  -1   2    2.30    1.00
  -9  -1  -2    1.30    0.70
  -9  -1  -2    3.70    1.10
   9   1   2    2.50    0.60
   9   1   2    3.30    0.80
   9   1   2    2.80    1.10
  -9   1  -2    2.20    0.70
   9  -1   0    8.10    1.00
   9  -1   0    9.50    1.10
  -9  -1   0    7.10    1.10
   9  -1   0    6.10    1.30
  -9  -1   0    8.50    1.20
   9   1   0    9.10    1.00
   9   1   0    9.00    1.20
  -9   1   0    5.90    1.30
   9   1   0    6.60    0.90
  -9   1   0    8.80    1.20
   9  -1  -2    3.10    1.00
   9  -1  -2    4.50    0.90
  -9  -1   2    4.60    1.10
  -9  -1   2    2.90    1.10
   9  -1  -2    4.00    0.80
  -9   1   2    4.80    1.10
   9   1  -2    4.50    0.90
   9   1  -2    3.80    0.90
   9   1  -2    4.20    0.70
  -9  -1   4   32.80    2.70
   9  -1  -4   30.80    2.80
   9  -1  -4   31.60    2.60
   9  -1  -4   32.50    2.60
  -9   1   4   32.20    2.70
   9   1  -4   32.20    2.50
   9  -1  -6   15.60    2.10
  -9  -1   6   16.80    1.70
   9  -1  -6   18.60    1.60
  -9  -1   6   18.70    1.70
   9  -1  -6   15.70    1.90
  -9   1   6   14.10    1.90
   9   1  -6   18.70    1.90
  -9  -2  -3   17.50    1.50
   9  -2   3   19.90    1.70
   9  -2   3   18.90    1.60
  -9   2  -3   17.20    1.60
   9   2   3   19.20    1.60
   9   2   3   15.90    1.50
   9   2   3   18.80    1.70
   9  -2   1   26.90    2.20
  -9  -2  -1   24.30    2.10
   9   2   1   26.10    2.00
   9   2   1   25.30    2.10
   9   2   1   27.20    2.30
  -9  -2   1    3.70    0.80
   9  -2  -1    5.70    0.90
  -9  -2   1    4.20    1.00
   9  -2  -1    5.10    1.10
  -9   2   1    4.00    1.00
   9   2  -1    5.50    0.80
   9   2  -1    4.60    0.90
   9  -2  -3    2.50    0.80
  -9  -2   3    2.90    0.80
   9  -2  -3    1.60    0.70
   9  -2  -3    2.70    1.40
  -9  -2   3    1.40    0.70
   9   2  -3    0.30    1.10
   9   2  -3    2.50    0.80
   9   2  -3    1.10    0.50
  -9   2   3    0.40    0.90
   9  -2  -5   37.70    2.70
  -9  -2   5   33.00    2.70
  -9  -2   5   33.80    2.90
   9  -2  -5   33.60    2.70
   9  -2  -5   37.00    2.90
   9   2  -5   32.20    2.60
   9   2  -5   32.00    2.80
   0   0   0    0.00    0.00

_computing_structure_solution     'SHELXT 2014/5 (Sheldrick, 2014)'
;
_shelx_hkl_checksum              62020
_olex2_submission_special_instructions 'No special instructions were received'
loop_
_space_group_symop_operation_xyz
'x, y, z'
'-x+1/2, y, -z'
'x+1/2, y+1/2, z+1/2'
'-x+1, y+1/2, -z+1/2'
'-x, -y, -z'
'x-1/2, -y, z'
'-x+1/2, -y+1/2, -z+1/2'
'x, -y+1/2, z+1/2'
loop_
_atom_site_label
_atom_site_type_symbol
_atom_site_fract_x
_atom_site_fract_y
_atom_site_fract_z
_atom_site_U_iso_or_equiv
_atom_site_adp_type
_atom_site_occupancy
_atom_site_site_symmetry_order
_atom_site_calc_flag
_atom_site_refinement_flags_posn
_atom_site_refinement_flags_adp
_atom_site_refinement_flags_occupancy
_atom_site_disorder_assembly
_atom_site_disorder_group
N1 N 0.250000 0.60165(18) 0.500000 0.0420(4) Uani 1 2 d S T P . .
C1 C 0.31179(14) 0.49079(17) 0.42545(8) 0.0411(4) Uani 1 1 d . . . . .
C2 C 0.31660(13) 0.26440(18) 0.42355(7) 0.0409(4) Uani 1 1 d . . . . .
N2 N 0.45756(15) 0.05821(18) 0.28375(8) 0.0577(4) Uani 1 1 d . . . . .
C3 C 0.250000 0.1475(2) 0.500000 0.0413(5) Uani 1 2 d S T P . .
C4 C 0.39336(16) 0.15102(18) 0.34455(8) 0.0455(4) Uani 1 1 d . . . . .
H1 H 0.3551(17) 0.566(3) 0.3734(10) 0.049(4) Uiso 1 1 d . . . . .
H3 H 0.250000 -0.014(3) 0.500000 0.041(4) Uiso 1 2 d S T P . .
loop_
_atom_site_aniso_label
_atom_site_aniso_U_11
_atom_site_aniso_U_22
_atom_site_aniso_U_33
_atom_site_aniso_U_23
_atom_site_aniso_U_13
_atom_site_aniso_U_12
N1 0.0529(7) 0.0270(7) 0.0469(7) 0.000 0.0089(5) 0.000
C1 0.0514(6) 0.0293(6) 0.0437(6) 0.0019(4) 0.0094(4) -0.0013(4)
C2 0.0497(6) 0.0308(7) 0.0426(6) -0.0014(3) 0.0069(4) 0.0012(4)
N2 0.0762(8) 0.0442(7) 0.0555(7) -0.0047(4) 0.0199(5) 0.0083(5)
C3 0.0528(8) 0.0259(7) 0.0453(8) 0.000 0.0055(6) 0.000
C4 0.0594(7) 0.0321(6) 0.0463(7) 0.0003(4) 0.0108(5) 0.0022(4)
loop_
_atom_type_symbol
_atom_type_description
_atom_type_scat_dispersion_real
_atom_type_scat_dispersion_imag
_atom_type_scat_source
C C 0.0140 0.0070 'International Tables Vol C Tables 4.2.6.8 and 6.1.1.4'
H H 0.0000 0.0000 'International Tables Vol C Tables 4.2.6.8 and 6.1.1.4'
N N 0.0250 0.0140 'International Tables Vol C Tables 4.2.6.8 and 6.1.1.4'
loop_
_geom_angle_atom_site_label_1
_geom_angle_atom_site_label_2
_geom_angle_atom_site_label_3
_geom_angle
_geom_angle_site_symmetry_1
_geom_angle_site_symmetry_3
C1 N1 C1 118.24(12) 2_556 .
N1 C1 C2 122.55(10) . .
N1 C1 H1 118.9(9) . .
C2 C1 H1 118.5(9) . .
C1 C2 C4 120.86(9) . .
C3 C2 C1 119.64(10) . .
C3 C2 C4 119.49(11) . .
C2 C3 C2 117.33(14) 2_556 .
C2 C3 H3 121.34(7) 2_556 .
C2 C3 H3 121.34(7) . .
N2 C4 C2 178.11(12) . .
loop_
_geom_bond_atom_site_label_1
_geom_bond_atom_site_label_2
_geom_bond_distance
_geom_bond_site_symmetry_2
N1 C1 1.3358(12) 2_556
N1 C1 1.3358(12) .
C1 C2 1.4009(16) .
C1 H1 0.927(15) .
C2 C3 1.3905(13) .
C2 C4 1.4404(15) .
N2 C4 1.1439(16) .
C3 H3 1.00(2) .
loop_
_geom_hbond_atom_site_label_D
_geom_hbond_atom_site_label_H
_geom_hbond_atom_site_label_A
_geom_hbond_distance_DH
_geom_hbond_distance_HA
_geom_hbond_distance_DA
_geom_hbond_angle_DHA
_geom_hbond_site_symmetry_A
C1 H1 N2 0.927(15) 2.651(13) 3.4711(15) 147.8(12) 4

_cod_database_fobs_code 3500071
