#------------------------------------------------------------------------------
#$Date: 2016-03-03 16:49:32 +0200 (Thu, 03 Mar 2016) $
#$Revision: 177182 $
#$URL: svn://www.crystallography.net/cod/cif/3/50/00/3500031.cif $
#------------------------------------------------------------------------------
#
# This file is available in the Crystallography Open Database (COD),
# http://www.crystallography.net/
#
# All data on this site have been placed in the public domain by the
# contributors.
#
data_3500031
loop_
_publ_author_name
'Thierry Maris'
_publ_section_references
;
Dolomanov, O.V., Bourhis, L.J., Gildea, R.J, Howard, J.A.K. & Puschmann, H.
 (2009), J. Appl. Cryst. 42, 339-341.

Sheldrick, G.M. (2008). Acta Cryst. A64, 112-122.

Sheldrick, G.M. (2015). Acta Cryst. A71, 3-8.
;
_publ_section_title
;
 2,6-Dibromoaniline
;
_journal_name_full               'Personal communication to COD'
_journal_year                    2016
_chemical_absolute_configuration ad
_chemical_formula_moiety         'C6 H5 Br2 N'
_chemical_formula_sum            'C6 H5 Br2 N'
_chemical_formula_weight         250.93
_chemical_name_common            2,6-Dibromoaniline
_chemical_name_systematic        'benzenamine, 2,6-dibromo-'
_space_group_crystal_system      orthorhombic
_space_group_IT_number           19
_space_group_name_Hall           'P 2ac 2ab'
_space_group_name_H-M_alt        'P 21 21 21'
_symmetry_space_group_name_Hall  'P 2ac 2ab'
_symmetry_space_group_name_H-M   'P 21 21 21'
_atom_sites_solution_hydrogens   difmap
_audit_creation_date             2016-01-16
_audit_creation_method
;
Olex2 1.2
(compiled 2015.09.30 svn.r3233 for OlexSys, GUI svn.r5103)
;
_cell_angle_alpha                90
_cell_angle_beta                 90
_cell_angle_gamma                90
_cell_formula_units_Z            4
_cell_length_a                   4.3237(2)
_cell_length_b                   10.1666(4)
_cell_length_c                   16.3253(6)
_cell_measurement_reflns_used    9300
_cell_measurement_temperature    100
_cell_measurement_theta_max      60.615
_cell_measurement_theta_min      2.356
_cell_volume                     717.62(5)
_computing_cell_refinement
'SAINT (2013) V8.34A; Integration Software for Single Crystal Data. Bruker AXS Inc., Madison, WI 53719-1173.'
_computing_data_collection
;
APEX 2 (2013) Bruker AXS Inc., Madison, WI 53719-1173.
;
_computing_data_reduction
'SAINT (2013) V8.34A; Integration Software for Single Crystal Data. Bruker AXS Inc., Madison, WI 53719-1173.'
_computing_molecular_graphics    'Olex2 (Dolomanov et al., 2009)'
_computing_publication_material  'Olex2 (Dolomanov et al., 2009)'
_computing_structure_refinement  'XL (Sheldrick, 2008)'
_computing_structure_solution    'XT (Sheldrick, 2015)'
_diffrn_ambient_temperature      100
_diffrn_detector                 'CMOS Area detector'
_diffrn_detector_area_resol_mean 10.24
_diffrn_detector_type            'Bruker Photon 100 CMOS Detector'
_diffrn_measured_fraction_theta_full 0.956
_diffrn_measured_fraction_theta_max 0.964
_diffrn_measurement_device       'k-geometry diffractometer'
_diffrn_measurement_device_type  'Bruker Venture Metaljet'
_diffrn_measurement_method       '\w and \f scans'
_diffrn_radiation_collimation    'Focusing mirrors'
_diffrn_radiation_monochromator  'Helios MX Mirror Optics'
_diffrn_radiation_probe          x-ray
_diffrn_radiation_type           GaK\a
_diffrn_radiation_wavelength     1.34139
_diffrn_reflns_av_R_equivalents  0.0368
_diffrn_reflns_av_unetI/netI     0.0280
_diffrn_reflns_laue_measured_fraction_full 0.956
_diffrn_reflns_laue_measured_fraction_max 0.964
_diffrn_reflns_limit_h_max       5
_diffrn_reflns_limit_h_min       -5
_diffrn_reflns_limit_k_max       13
_diffrn_reflns_limit_k_min       -12
_diffrn_reflns_limit_l_max       21
_diffrn_reflns_limit_l_min       -21
_diffrn_reflns_number            9122
_diffrn_reflns_point_group_measured_fraction_full 0.962
_diffrn_reflns_point_group_measured_fraction_max 0.969
_diffrn_reflns_theta_full        53.594
_diffrn_reflns_theta_max         60.585
_diffrn_reflns_theta_min         4.457
_diffrn_source                   'Metal Jet'
_diffrn_source_target            Ga
_diffrn_source_type              'Gallium Liquid Metal Jet Source'
_exptl_absorpt_coefficient_mu    9.388
_exptl_absorpt_correction_T_max  0.3108
_exptl_absorpt_correction_T_min  0.1225
_exptl_absorpt_correction_type   multi-scan
_exptl_absorpt_process_details
;
SADABS-2014/5 (Bruker,2014/5) was used for absorption correction.
wR2(int) was 0.1243 before and 0.0565 after correction.
The Ratio of minimum to maximum transmission is 0.3941.
The \l/2 correction factor is 0.00150.
;
_exptl_crystal_colour            'clear light colourless'
_exptl_crystal_colour_lustre     clear
_exptl_crystal_colour_modifier   light
_exptl_crystal_colour_primary    colourless
_exptl_crystal_density_diffrn    2.323
_exptl_crystal_description       Blco
_exptl_crystal_F_000             472
_exptl_crystal_size_max          0.19
_exptl_crystal_size_mid          0.1
_exptl_crystal_size_min          0.08
_exptl_special_details
;
X-ray crystallographic data for I were collected from a single crystal
sample, which was mounted on a loop fiber. Data were collected using
a Bruker Venture diffractometer equipped with a Photon 100 CMOS Detector,
a Helios MX optics and a Kappa goniometer. The crystal-to-detector distance 
was 4.0 cm, and the data collection was carried out in 1024 x 1024 pixel mode.
;
_geom_special_details
;
 All esds (except the esd in the dihedral angle between two l.s. planes)
 are estimated using the full covariance matrix.  The cell esds are taken
 into account individually in the estimation of esds in distances, angles
 and torsion angles; correlations between esds in cell parameters are only
 used when they are defined by crystal symmetry.  An approximate (isotropic)
 treatment of cell esds is used for estimating esds involving l.s. planes.
;
_refine_diff_density_max         0.872
_refine_diff_density_min         -0.470
_refine_diff_density_rms         0.105
_refine_ls_abs_structure_details
;
 Flack x determined using 633 quotients [(I+)-(I-)]/[(I+)+(I-)]
 (Parsons, Flack and Wagner, Acta Cryst. B69 (2013) 249-259).
;
_refine_ls_abs_structure_Flack   0.02(2)
_refine_ls_extinction_coef       .
_refine_ls_extinction_method     none
_refine_ls_goodness_of_fit_ref   1.150
_refine_ls_hydrogen_treatment    refall
_refine_ls_matrix_type           full
_refine_ls_number_parameters     102
_refine_ls_number_reflns         1599
_refine_ls_number_restraints     0
_refine_ls_restrained_S_all      1.150
_refine_ls_R_factor_all          0.0228
_refine_ls_R_factor_gt           0.0227
_refine_ls_shift/su_max          0.001
_refine_ls_shift/su_mean         0.000
_refine_ls_structure_factor_coef Fsqd
_refine_ls_weighting_details
'w=1/[\s^2^(Fo^2^)+(0.0387P)^2^+0.2339P] where P=(Fo^2^+2Fc^2^)/3'
_refine_ls_weighting_scheme      calc
_refine_ls_wR_factor_gt          0.0587
_refine_ls_wR_factor_ref         0.0590
_reflns_Friedel_coverage         0.660
_reflns_friedel_fraction_full    0.972
_reflns_friedel_fraction_max     0.977
_reflns_number_gt                1595
_reflns_number_total             1599
_reflns_special_details
;
 Reflections were merged by SHELXL according to the crystal
 class for the calculation of statistics and refinement.
 
 _reflns_Friedel_fraction is defined as the number of unique
 Friedel pairs measured divided by the number that would be
 possible theoretically, ignoring centric projections and
 systematic absences.
;
_reflns_threshold_expression     'I > 2\s(I)'
_cod_data_source_file            NBR2PH.cif
_cod_data_source_block           nbr2ph
_cod_depositor_comments
;
The following automatic conversions were performed:

'_diffrn_radiation_probe' value 'X-ray' changed to 'x-ray' according
to the built-in table from CIF Core dictionary named 'cif_core.dic'
version 2.4.1 from 2010-06-29.

Automatic conversion script
Id: cif_fix_values 4287 2015-11-16 14:04:37Z antanas 
;
_cod_database_code               3500031
_shelx_space_group_comment
;
The symmetry employed for this shelxl refinement is uniquely defined
by the following loop, which should always be used as a source of
symmetry information in preference to the above space-group names.
They are only intended as comments.
;
_shelx_estimated_absorpt_t_max   0.520
_shelx_estimated_absorpt_t_min   0.269
_olex2_refinement_description
;
;
_shelx_res_file
;
    nbr2ph.res created by SHELXL-2014/7

TITL nbr2ph_a.res in P2(1)2(1)2(1)
REM Old TITL NBR2PH in P212121 #19
REM SHELXT solution in P2(1)2(1)2(1)
REM R1 0.082, Rweak 0.016, Alpha 0.005, Orientation as input
REM Flack x = 0.105 ( 0.019 ) from Parsons' quotients
REM Formula found by SHELXT: C6 N Br2
CELL 1.34139 4.3237 10.1666 16.3253 90 90 90
ZERR 4 0.0002 0.0004 0.0006 0 0 0
LATT -1
SYMM 0.5-X,-Y,0.5+Z
SYMM -X,0.5+Y,0.5-Z
SYMM 0.5+X,0.5-Y,-Z
SFAC C H Br N
DISP Br -0.934 1.041 8191.512
DISP C 0.014 0.007 57.748
DISP H -0 0 0.648
DISP N 0.025 0.014 110.512
UNIT 24 20 8 4
EQIV $1 0.5+X,0.5-Y,1-Z

L.S. 50
PLAN  5
SIZE 0.08 0.1 0.19
TEMP -273.15
HTAB N1 Br2
HTAB N1 N1_$1
HTAB N1 Br1
HTAB N1 Br2_$1
BOND $H
LIST 4
fmap 2
MORE -1
CONF
HTAB
ACTA
OMIT 0 6 4
REM <olex2.extras>
REM <HklSrc "%.\\NBR2PH.hkl">
REM </olex2.extras>

WGHT    0.038700    0.233900
FVAR       0.95876
BR1   3    0.482693    0.302563    0.737677    11.00000    0.02896    0.02829 =
         0.01638    0.00556   -0.00067    0.00118
BR2   3    0.611738    0.494551    0.412232    11.00000    0.02548    0.02544 =
         0.01470    0.00162    0.00136   -0.00301
N1    4    0.704710    0.305092    0.558256    11.00000    0.02148    0.02060 =
         0.01684   -0.00025    0.00034    0.00339
C1    1    0.519772    0.411541    0.577039    11.00000    0.01558    0.01924 =
         0.01702   -0.00195   -0.00355   -0.00297
C2    1    0.383286    0.426963    0.655071    11.00000    0.01991    0.02088 =
         0.01745    0.00203   -0.00119   -0.00302
C3    1    0.186713    0.530608    0.674113    11.00000    0.02069    0.02174 =
         0.02047   -0.00501    0.00034   -0.00210
C4    1    0.114628    0.623505    0.614162    11.00000    0.01984    0.01899 =
         0.02766   -0.00550    0.00068    0.00101
C5    1    0.240843    0.611565    0.536571    11.00000    0.02131    0.01737 =
         0.02196    0.00080   -0.00314   -0.00020
C6    1    0.438834    0.506930    0.519428    11.00000    0.01845    0.01998 =
         0.01724   -0.00007   -0.00030   -0.00155
H1A   2    0.808559    0.318181    0.521814    11.00000    0.04630
H1B   2    0.759164    0.260995    0.600332    11.00000    0.02481
H4    2   -0.007263    0.691517    0.624919    11.00000    0.04202
H3    2    0.104385    0.533091    0.734232    11.00000    0.01951
H5    2    0.193787    0.675777    0.490057    11.00000    0.02982
HKLF 4

REM  nbr2ph_a.res in P2(1)2(1)2(1)
REM R1 =  0.0227 for    1595 Fo > 4sig(Fo)  and  0.0228 for all    1599 data
REM    102 parameters refined using      0 restraints

END

WGHT      0.0388      0.2351

REM Instructions for potential hydrogen bonds
HTAB N1 Br2
HTAB N1 N1_$1
HTAB N1 Br1
HTAB N1 Br2_$1
EQIV $2 -x+1/2, -y+1, z+1/2
HTAB C3 Br2_$2

REM Highest difference peak  0.872,  deepest hole -0.470,  1-sigma level  0.105
Q1    1   0.2938  0.2993  0.7379  11.00000  0.05    0.87
Q2    1   0.6859  0.3096  0.7370  11.00000  0.05    0.84
Q3    1   0.4305  0.4937  0.4132  11.00000  0.05    0.64
Q4    1   0.8131  0.4899  0.4128  11.00000  0.05    0.63
Q5    1   0.5422  0.6213  0.3818  11.00000  0.05    0.30
;
_shelx_res_checksum              34053
_shelx_hkl_file
;
   1   0   0   18.10    1.10
   1   0   0   17.40    1.10
   3   0   0    1.40    8.10
   4   0   0    8.50    2.10
   4   0   0    9.00    1.70
   4   0   0    5.50    8.10
   4   0   0    6.40    2.10
   0   1   0    2.50    1.50
   0  -1   0    2.40    1.50
   1   1   0  407.06   19.50
   1  -1   0  390.76   19.20
   1   1   0  354.36   19.20
   1   1   0  403.86   19.30
   1  -1   0  437.36   19.50
   2   1   0  483.95   23.00
   2   1   0  451.95   23.20
   2   1   0  470.85   23.30
   2   1   0  445.06   23.10
   2   1   0  464.65   23.10
   2   1   0  482.75   23.60
   2  -1   0  504.35   23.60
   2  -1   0  446.26   23.20
   3   1   0 1565.14   72.89
   3  -1   0 1422.86   72.49
   3  -1   0 1547.65   72.89
   3   1   0 1543.35   73.49
   3  -1   0 1423.86   92.59
   3  -1   0 1673.93   73.49
   3   1   0 1545.35   72.99
   3  -1   0 1535.05   73.09
   3   1   0 1401.86   95.39
   4  -1   0  368.76   39.50
   4   1   0  358.16   18.50
   4   1   0  373.86   19.30
   4   1   0  356.56   41.80
   4   1   0  366.66   18.50
   4  -1   0  346.87   17.90
   4  -1   0  371.96   18.60
   4  -1   0  352.36   18.70
   5   1   0  213.08   12.40
   5   1   0  217.08   12.70
   5   1   0  232.58   43.20
   2   2   0 1102.19   52.89
   2   2   0 1130.29   52.49
   2  -2   0 1064.99   52.59
   2  -2   0 1087.49   52.39
   2   2   0 1115.89   52.39
   2   2   0  941.01   52.09
   2   2   0 1163.08   52.49
   2   2   0 1123.59   52.19
   3  -2   0  485.75   41.90
   3   2   0  540.75   25.40
   3   2   0  457.65   45.90
   3   2   0  564.34   26.30
   3  -2   0  513.35   25.40
   3   2   0  536.65   25.50
   3  -2   0  534.05   25.10
   3   2   0  509.85   25.40
   3  -2   0  502.05   25.70
   4  -2   0 5456.55  256.97
   4   2   0 5369.26  292.87
   4   2   0 5402.56  256.97
   4  -2   0 5215.88  256.37
   4  -2   0 5361.36  257.37
   4   2   0 5546.94  256.97
   5  -2   0  248.18   28.80
   5   2   0  209.28   12.40
   5  -2   0  227.88   13.30
   5   2   0  240.68   34.00
   5  -2   0  224.18   11.80
   0  -3   0    3.30    0.80
   0   3   0    2.20    0.70
  -1   3   0 2567.04  119.69
   1   3   0 2461.05  120.39
   2  -3   0   16.60    1.80
   2   3   0   18.50    1.80
   2   3   0   17.00    2.50
   2   3   0   20.30    1.80
   3  -3   0 3871.41  189.48
   3   3   0 4126.69  189.68
   3   3   0 3695.03  217.38
   3  -3   0 4097.49  210.78
   3  -3   0 4112.29  190.08
   3   3   0 3876.71  189.98
   3   3   0 4112.69  193.68
   4  -3   0  256.77   12.50
   4  -3   0  240.38   13.20
   4  -3   0  246.08   13.50
   4   3   0  242.58   35.60
   4   3   0  237.58   12.90
   4  -3   0  253.57   29.70
   4   3   0  251.37   13.00
   4   3   0  231.48   14.00
   5   3   0    5.00    2.60
   5  -3   0    7.10    3.20
   5  -3   0    5.40    7.00
   5   3   0    9.80   11.30
  -1   4   0 3516.95  163.98
   1   4   0 3375.16  165.28
   2   4   0  893.71   43.70
   2   4   0  952.40   44.10
  -2   4   0  862.21   43.80
   2   4   0  939.01   43.90
   2  -4   0  934.11   43.90
   2   4   0  893.01   43.80
   2   4   0  922.81   44.90
   2  -4   0  850.41   43.60
   3   4   0 2730.23  129.69
   3   4   0 2406.26  156.88
   3   4   0 2677.43  131.19
   3   4   0 2658.13  130.19
   3   4   0 2755.82  129.99
   3   4   0 2749.72  129.99
   3  -4   0 2793.42  130.69
   3  -4   0 2891.91  150.18
   3  -4   0 2805.12  130.19
   3   4   0 2719.43  130.09
   4  -4   0  874.41   42.70
   4   4   0  858.31   72.19
   4  -4   0  899.61   44.00
   4   4   0  841.62   44.50
   4   4   0  841.92   43.10
   4  -4   0  992.60   63.99
   4   4   0  877.21   43.10
   5  -4   0  679.63   33.10
   5  -4   0  722.53   49.20
   5   4   0  617.14   33.50
   5   4   0  729.23   57.99
   5  -4   0  664.23   34.30
   0   5   0   -5.20    1.30
   0   5   0   -5.40    1.70
   1   5   0 3489.65  168.28
   2   5   0   73.69    4.40
   2   5   0   72.79    4.40
   2   5   0   73.19    4.70
   2  -5   0   72.39    4.50
   2  -5   0   70.09    4.20
   2   5   0   68.09    6.10
   3  -5   0  405.86   35.10
   3   5   0  357.46   20.40
   3   5   0  372.66   18.70
   3   5   0  422.96   19.20
   3   5   0  371.46   19.20
   3   5   0  362.66   19.20
   3   5   0  341.07   43.10
   3   5   0  346.17   18.60
   3  -5   0  368.76   19.00
   3  -5   0  368.36   18.40
   4   5   0   32.90    4.40
   4   5   0   42.50   19.80
   4   5   0   35.30    3.40
   4  -5   0   36.90   13.80
   4  -5   0   30.60    4.50
   5  -5   0  581.24   41.40
   5   5   0  555.84   29.60
   5  -5   0  594.84   30.70
   5   5   0  673.03   50.59
   5  -5   0  597.84   29.10
   1  -6   0 5414.16  240.78
   1   6   0 4717.23  243.38
  -2   6   0  766.82   38.30
   2   6   0  807.02   38.50
   2  -6   0  809.12   38.20
   2   6   0  821.12   38.60
  -2  -6   0  769.72   38.30
   2   6   0  817.12   38.90
   2   6   0  710.33   40.50
   2  -6   0  835.32   38.70
   3  -6   0  657.13   46.90
   3  -6   0  619.54   31.40
   3  -6   0  620.54   30.00
   3   6   0  626.14   31.20
   3  -6   0  647.74   30.80
   3   6   0  589.64   32.50
   3   6   0  646.74   30.40
   3   6   0  539.95   53.39
   3   6   0  595.14   30.80
   3   6   0  614.84   30.50
   4   6   0  360.56   20.70
   4   6   0  462.95   26.50
   4   6   0  384.56   20.00
   4   6   0  383.16   41.80
   4  -6   0  384.06   19.60
   4  -6   0  400.96   21.30
   4  -6   0  410.16   34.60
   1   7   0 1088.09   58.69
   1  -7   0 1176.38   56.09
   1   7   0 1242.98   56.29
  -1   7   0 1142.59   55.99
   1   7   0 1162.38   56.09
  -1   7   0 1117.39   55.99
   1   7   0 1154.38   56.29
  -1  -7   0 1154.38   55.89
   1  -7   0 1236.88   55.89
   2   7   0   76.49    8.80
   2  -7   0   85.89    5.00
  -2  -7   0   79.19    5.10
   2   7   0   85.89    5.80
  -2   7   0   81.29    5.30
   2   7   0  100.49    5.40
   2  -7   0   87.39    5.50
   2   7   0   93.89    5.60
  -3  -7   0 1971.40   98.59
   3   7   0 1847.92  122.19
   3  -7   0 2098.99  100.09
   3   7   0 1989.50  101.49
   3   7   0 2105.89   99.99
   3   7   0 2106.29   99.19
   3   7   0 2148.19   99.49
   3   7   0 2076.19   98.89
   3  -7   0 2205.68   98.49
   4   7   0   41.40    3.60
   4  -7   0   46.80    5.30
   4   7   0   36.80   17.70
   4   7   0   54.09    5.60
   4   7   0   49.00    8.40
   4  -7   0   38.70    3.20
   0   8   0   77.99    7.70
   0   8   0   80.99    4.80
   0  -8   0   71.29    4.50
   0   8   0   68.09    4.90
   1  -8   0  512.55   25.30
  -1   8   0  483.55   25.20
  -1  -8   0  506.55   25.10
  -1   8   0  493.65   25.20
   1   8   0  501.15   25.60
   1   8   0  516.95   28.30
   1   8   0  526.65   25.40
   1  -8   0  514.15   25.30
   1   8   0  554.24   25.50
   2   8   0  769.32   38.40
   2  -8   0  775.52   38.10
   2   8   0  829.22   38.10
   2   8   0  697.13   40.80
   2  -8   0  798.12   37.60
  -2   8   0  766.02   37.90
   2   8   0  804.92   38.10
   3   8   0  787.72   38.40
   3   8   0  806.72   39.30
   3   8   0  783.32   41.00
   3   8   0  773.52   38.10
   3  -8   0  745.53   39.10
   3  -8   0  777.92   37.60
   3   8   0  765.72   38.50
   4  -8   0 2106.19  100.49
   4   8   0 2074.49  101.49
   4   8   0 2111.09  100.89
   4  -8   0 2132.19  101.99
   0   9   0   17.60    2.60
  -1   9   0  444.36   22.30
   1   9   0  457.45   25.30
   1  -9   0  432.86   22.20
  -1  -9   0  445.86   22.10
   1   9   0  438.96   22.60
   1  -9   0  468.75   22.00
   1   9   0  489.65   22.50
  -1   9   0  398.56   22.30
   2   9   0  252.77   13.80
   2   9   0  262.87   16.90
  -2  -9   0  248.28   13.10
   2  -9   0  263.87   13.50
   2   9   0  249.18   13.50
  -2   9   0  245.58   13.30
   2  -9   0  261.07   12.90
   2   9   0  253.37   13.30
   3  -9   0  631.14   32.70
   3  -9   0  704.13   32.10
   3   9   0  636.64   32.10
   3   9   0  631.14   32.00
   3   9   0  645.14   31.70
   3   9   0  625.64   34.40
   3   9   0  633.54   32.70
   4  -9   0  241.58   13.20
   4  -9   0  233.38   11.70
   4   9   0  232.68   12.20
   0  10   0 8556.04  408.96
   1 -10   0    2.90    1.90
  -1  10   0    3.80    4.90
  -1 -10   0    2.40    1.90
  -1  10   0    0.30    1.30
   2  10   0 1483.75   74.59
   2 -10   0 1527.75   73.79
   2  10   0 1532.05   74.39
   2 -10   0 1444.06   74.19
   2  10   0 1725.43   80.29
   3  10   0  264.37   14.00
   3  10   0  246.88   17.00
   3 -10   0  265.67   14.30
   3 -10   0  264.57   13.00
   3  10   0  258.87   13.40
   0  11   0    7.90    5.60
   1 -11   0  475.05   24.20
   1  11   0  506.25   24.40
  -1  11   0  482.55   24.30
  -1  11   0  450.15   26.80
   1  11   0  506.05   24.70
   1  11   0  509.55   27.00
   2 -11   0   35.30    3.50
  -2  11   0   27.10    7.00
   2  11   0   46.10    9.50
   3 -11   0  207.88   11.50
   3  11   0  207.68   11.30
   0  12   0   65.99    9.90
   1  12   0  676.63   35.90
  -1  12   0  691.83   33.40
   1  12   0  730.33   33.50
   1  12   0  717.23   33.80
  -1  12   0  617.24   35.90
   1 -12   0  666.03   33.30
   2 -12   0    2.60    2.10
   2  12   0    5.00    2.60
   2  12   0    4.00    1.90
   0  13   0    0.70    1.40
   0   0  -1    3.60    0.90
   3   0   1 5595.84  275.37
   3   0  -1 5868.71  301.67
   3   0  -1 5926.31  275.47
   4   0   1    4.60    2.10
   4   0  -1    1.80    1.40
   4   0   1    3.50    1.90
   4   0   1    1.20    2.00
   4   0  -1    3.80    1.80
   4   0  -1    1.30    7.60
   5   0  -1 1288.27   67.29
   5   0   1 1456.55   66.89
   0   1  -1  654.23   33.40
   0  -1   1  653.13   33.40
   0  -1  -1  653.93   33.10
   2   1  -1 1800.12   88.89
   2  -1   1 2060.89   89.39
   2  -1   1 1729.93   88.89
   2   1  -1 1866.71   89.39
   2   1   1 1746.43   85.59
   2  -1  -1 1843.52   85.69
   3  -1   1  725.33   32.40
   3   1  -1  665.13   32.50
   3   1  -1  708.73   32.10
   3  -1   1  647.94   31.80
   3  -1   1  673.93   32.10
   3   1  -1  613.24   53.69
   3  -1   1  594.34   31.50
   3   1  -1  706.03   31.90
   3   1  -1  567.24   31.50
   3  -1   1  623.64   49.70
   3   1   1  624.64   33.70
   3   1   1  620.14   52.99
   3   1   1  715.23   33.90
   3   1   1  708.43   34.00
   3  -1  -1  763.42   34.50
   3  -1  -1  728.13   34.20
   3   1   1  738.23   34.50
   3  -1  -1  665.43   33.60
   3  -1  -1  746.33   34.00
   3  -1  -1  657.03   52.69
   4   1  -1  324.87   40.60
   4   1  -1  353.86   17.10
   4  -1   1  326.87   17.10
   4  -1   1  315.47   17.10
   4   1  -1  336.47   17.70
   4   1  -1  281.57   17.20
   4   1  -1  335.67   17.00
   4  -1   1  330.97   16.40
   4  -1   1  345.47   37.40
   4   1   1  336.07   17.50
   4   1   1  332.47   39.40
   4  -1  -1  337.67   16.90
   4   1   1  315.07   16.70
   4   1   1  320.37   16.60
   4  -1  -1  330.07   17.00
   4  -1  -1  310.97   16.20
   4  -1  -1  313.27   37.10
   5  -1   1  679.93   35.40
   5  -1   1  606.84   67.59
   5   1  -1  735.23   35.50
   5   1  -1  716.53   34.40
   5  -1  -1  691.93   37.40
   5  -1  -1  856.51   83.09
   3   2  -1  431.76   21.70
   3  -2   1  453.85   22.10
   3   2  -1  474.95   21.90
   3  -2   1  442.76   21.60
   3  -2   1  413.36   37.80
   3   2  -1  461.65   22.60
   3   2  -1  410.06   43.80
   3   2  -1  447.36   21.80
   3  -2   1  405.76   21.30
   3  -2  -1  393.76   20.00
   3  -2  -1  381.16   19.40
   3  -2  -1  430.16   19.90
   3   2   1  413.36   20.40
   3   2   1  423.06   19.70
   3  -2  -1  380.46   36.30
   3   2   1  369.66   38.80
   3   2   1  407.26   19.70
   3   2   1  364.96   19.60
   4  -2   1  845.52   61.29
   4   2  -1  767.02   38.30
   4   2  -1  747.13   67.59
   4  -2   1  734.23   37.70
   4  -2   1  729.83   38.10
   4   2  -1  784.12   39.30
   4  -2   1  806.02   38.70
   4   2  -1  831.92   38.40
   4  -2  -1  764.92   38.30
   4  -2  -1  795.92   60.79
   4   2   1  760.32   37.80
   4   2   1  769.72   37.90
   4  -2  -1  759.92   37.40
   4  -2  -1  798.22   38.10
   4   2   1  753.82   38.70
   4   2   1  779.52   65.29
   5   2  -1   66.39    5.60
   5  -2   1   65.19    5.20
   5   2  -1   83.49    5.70
   5  -2   1   83.79   17.90
   5   2  -1   82.69   22.80
   5  -2   1   67.69    6.10
   5  -2  -1   85.49    8.50
   5  -2  -1   80.89    5.50
   5  -2  -1   92.49   18.80
   5   2   1   94.59   22.60
   0   3  -1  145.99    7.00
   0   3   1  153.98    7.30
   0   3  -1  148.99    7.10
   0   3   1  128.59    7.10
   0   3  -1  128.29    7.00
   0   3   1  136.89    7.00
   0  -3   1  147.09    7.10
   0  -3  -1  134.59    7.00
   1  -3   1 5173.18  266.37
  -1   3   1 5739.73  268.57
  -1   3  -1 5906.91  266.87
   1  -3  -1 4916.91  264.97
   2   3  -1 1278.37   60.29
   2  -3   1 1263.77   60.09
   2   3  -1 1222.48   60.19
   2   3  -1 1218.08   60.09
   2   3  -1 1305.87   60.29
   2   3  -1 1281.37   60.99
   2   3  -1 1145.19   59.89
   2   3  -1 1305.97   59.99
   2   3   1 1095.59   55.29
   2  -3  -1 1311.07   55.59
   2   3   1 1120.49   55.09
   2   3   1 1108.89   54.89
   2  -3  -1 1148.49   55.09
   2   3   1 1099.29   55.69
   3   3  -1  594.34   27.60
   3   3  -1  576.84   27.60
   3  -3   1  581.94   44.80
   3   3  -1  591.04   27.60
   3  -3   1  535.75   27.10
   3   3  -1  505.45   51.49
   3  -3   1  540.55   27.40
   3   3  -1  542.75   27.60
   3   3  -1  568.24   27.20
   3  -3   1  555.64   28.00
   3   3   1  563.84   26.70
   3  -3  -1  545.65   26.30
   3  -3  -1  547.75   44.30
   3   3   1  573.04   27.70
   3  -3  -1  572.94   27.20
   3   3   1  547.35   26.60
   3   3   1  529.55   26.80
   3   3   1  546.15   26.40
   3   3   1  494.35   26.60
   3   3   1  454.95   46.40
   3  -3  -1  579.34   26.90
   4   3  -1   50.59   21.50
   4   3  -1   57.09    5.80
   4  -3   1   67.49    5.10
   4  -3   1   59.89   16.50
   4   3  -1   52.19    4.30
   4  -3   1   62.99    4.00
   4   3  -1   55.59    4.40
   4   3   1   48.00    5.10
   4   3   1   45.70    3.90
   4  -3  -1   52.29    4.70
   4   3   1   52.19    4.00
   4  -3  -1   44.30    4.50
   4   3   1   60.59   20.40
   4  -3  -1   55.79   16.00
   5  -3   1 1066.89   53.89
   5   3  -1 1201.88   85.79
   5   3  -1 1042.90   54.39
   5  -3   1 1251.97   75.09
   5  -3   1 1051.99   54.89
   5   3   1  940.91   54.09
   5  -3  -1 1108.99   53.49
   5  -3  -1 1195.18   73.59
   5   3   1 1274.97   83.19
   5  -3  -1 1048.80   54.49
   0   4   1 9507.25  459.95
   1   4  -1  256.47   13.40
   1   4  -1  301.27   14.30
   1   4  -1  257.97   14.90
  -1  -4  -1  258.37   13.20
  -1   4   1  243.28   13.10
   1   4  -1  257.57   13.20
   1  -4   1  261.27   13.30
  -1   4   1  282.17   13.40
  -1   4  -1  230.08   11.80
   1   4   1  217.88   11.80
   1   4   1  251.97   12.00
   1   4   1  222.58   13.00
   1   4   1  252.47   12.10
   2  -4   1 5244.48  249.18
  -2   4  -1 5404.16  256.77
   3   4  -1  763.82   36.70
   3   4  -1  731.93   37.80
   3   4  -1  697.23   36.60
   3  -4   1  806.62   54.69
   3  -4   1  762.72   37.10
   3   4  -1  786.22   36.50
   3   4  -1  765.62   36.50
   3  -4   1  756.32   36.40
   3   4  -1  651.93   61.99
   3   4  -1  737.23   36.20
   3  -4  -1  771.52   35.20
   3  -4  -1  732.53   52.29
   3   4   1  730.63   35.00
   3   4   1  686.73   35.00
   3  -4  -1  755.82   35.60
   3  -4  -1  668.93   34.80
   3   4   1  702.63   35.90
   3   4   1  622.24   56.69
   3   4   1  705.83   34.50
   3   4   1  737.93   34.80
   3   4   1  715.83   34.70
   4   4  -1  976.10   49.00
   4  -4   1 1094.59   69.89
   4  -4   1 1031.40   48.60
   4   4  -1 1023.20   49.10
   4  -4   1 1018.90   49.80
   4   4  -1  945.71   50.49
   4   4  -1  966.30   80.69
   4  -4  -1 1179.48   72.49
   4  -4  -1 1077.09   51.49
   4   4   1 1018.70   78.89
   4   4   1 1022.50   52.49
   4   4   1 1031.40   51.19
   4  -4  -1 1079.09   50.79
   4   4   1  941.71   50.99
   4  -4  -1 1080.29   51.99
   5  -4   1  236.38   13.40
   5  -4   1  246.18   25.40
   5   4  -1  206.88   14.30
   5  -4   1  228.18   11.70
   5   4  -1  218.28   12.20
   5   4  -1  236.78   32.60
   5   4   1  246.38   30.60
   5  -4  -1  210.98   12.60
   5   4   1  198.98   11.80
   5  -4  -1  212.28   11.20
   5  -4  -1  229.18   24.00
   0   5   1  478.55   24.70
   0  -5   1  531.65   24.80
   0   5   1  489.85   24.80
   0  -5  -1  543.45   24.70
   0   5   1  507.35   24.90
  -1   5   1 3584.44  155.68
   1   5  -1 2945.01  157.58
   1   5   1 3211.98  161.38
  -1   5  -1 3495.55  159.68
   2  -5   1 2105.69   95.99
  -2   5   1 1939.01   95.69
   2   5  -1 2044.60   96.09
   2   5  -1 1966.70   95.69
   2   5  -1 1883.81   97.49
   2   5  -1 1998.90   95.89
  -2   5   1 2182.18   96.09
   2   5  -1 1958.40   95.89
   2  -5   1 1947.41   95.49
   2   5   1 1993.50   92.79
  -2   5  -1 1905.21   92.29
   2   5   1 1937.91   92.39
   2   5   1 1893.91   92.49
   2   5   1 1897.91   93.79
   2  -5  -1 1890.91   92.09
   2  -5  -1 2005.40   92.49
   3  -5   1  596.04   29.90
   3   5  -1  634.94   29.90
   3   5  -1  609.74   30.30
   3   5  -1  586.14   31.70
   3  -5   1  602.74   29.40
   3   5  -1  609.64   32.20
   3   5  -1  603.64   29.70
   3  -5  -1  644.34   30.90
   3  -5  -1  597.34   30.00
   3   5   1  625.64   30.90
   3   5   1  598.44   31.80
   3   5   1  588.84   30.60
   3   5   1  560.64   52.69
   3   5   1  630.04   30.80
   3   5   1  622.84   30.30
   3  -5  -1  693.73   48.00
   4   5  -1  693.83   34.80
   4   5  -1  649.83   36.70
   4  -5   1  708.63   35.90
   4  -5   1  783.62   53.49
   4  -5   1  698.73   34.30
   4   5  -1  707.93   64.19
   4  -5  -1  672.63   35.00
   4   5   1  668.53   34.00
   4  -5  -1  707.93   33.70
   4   5   1  634.74   34.50
   4   5   1  692.63   59.19
   4   5   1  670.83   35.70
   4  -5  -1  801.52   52.89
   5   5  -1  363.16   19.50
   5  -5   1  391.16   20.90
   5  -5   1  379.46   31.10
   5  -5   1  385.06   19.00
   5   5  -1  414.06   39.40
   5   5   1  427.06   37.00
   5  -5  -1  381.66   20.40
   5  -5  -1  374.16   30.10
   5  -5  -1  388.06   18.90
   5   5   1  346.97   19.50
  -1  -6  -1  146.09    7.40
  -1   6   1  143.59    7.50
   1   6  -1  121.79   10.80
   1   6  -1  149.88    7.70
   1  -6   1  144.79    7.50
  -1   6   1  138.29    7.70
   1   6  -1  144.79    7.80
   1  -6  -1  121.59    7.10
   1   6   1  139.89    7.20
   1   6   1  138.39    7.30
   1   6   1  124.69    7.40
  -1  -6   1  135.29    7.00
   1   6   1  147.29   10.10
  -1   6  -1  123.69    7.00
   1  -6  -1  129.99    7.10
  -2   6   1 5068.69  233.18
   2   6  -1 4609.94  237.58
   2  -6   1 5141.89  270.67
  -2  -6  -1 4780.72  233.08
  -2   6  -1 4916.21  230.98
   2   6   1 4794.82  233.08
   3  -6   1  848.82   40.90
   3   6  -1  828.32   40.60
   3   6  -1  821.82   40.90
   3   6  -1  793.62   43.00
   3   6  -1  727.33   66.19
   3  -6   1  855.81   40.20
  -3  -6  -1  803.72   40.30
   3   6  -1  845.12   40.60
   3   6  -1  845.32   41.30
   3  -6   1  921.11   58.89
   3  -6   1  845.92   41.80
   3   6   1  826.72   43.20
   3   6   1  757.42   63.49
   3   6   1  838.42   41.50
   3   6   1  878.61   41.40
   3   6   1  853.41   42.20
   3  -6  -1  867.01   40.90
   3   6   1  822.12   41.80
   3  -6  -1  932.61   60.09
   3  -6  -1  851.91   42.30
   4  -6   1  801.32   38.10
   4  -6   1  817.92   55.09
   4   6  -1  791.32   38.60
   4   6  -1  759.02   64.49
   4   6  -1  770.62   44.30
   4  -6   1  778.42   39.80
   4   6   1  767.02   39.60
   4   6   1  744.73   58.69
   4  -6  -1  734.83   37.40
   4  -6  -1  777.82   51.89
   4  -6  -1  752.92   35.90
   4   6   1  685.53   36.90
   4   6   1  722.03   36.30
   0  -7   1  531.65   24.30
   0  -7  -1  511.75   24.20
   0   7   1  490.35   24.50
   0  -7   1  473.85   24.20
   0   7   1  476.65   24.30
   0   7  -1  476.95   24.30
   0   7  -1  509.35   24.50
   1   7  -1  937.01   46.90
  -1   7   1  928.81   46.60
   1  -7   1  987.90   46.40
   1   7  -1 1003.70   46.80
  -1  -7  -1  946.51   46.40
   1   7  -1  925.81   49.50
   1  -7   1 1020.90   46.80
  -1   7   1  945.41   46.70
   1   7  -1  989.80   46.70
   1   7   1 1086.39   46.70
  -1   7  -1  960.90   46.40
  -1  -7   1  984.70   46.40
   1   7   1  893.71   48.80
   1  -7  -1  950.50   46.40
   1  -7  -1  998.40   46.30
   1   7   1  941.11   46.50
   1   7   1  928.91   46.80
  -1   7  -1  911.51   46.40
  -2   7   1  191.18   10.80
   2   7  -1  205.18   11.30
   2   7  -1  199.78   11.00
   2  -7   1  219.88   11.20
   2   7  -1  210.98   10.90
  -2  -7  -1  203.68   10.60
   2   7  -1  183.68   14.50
   2  -7   1  232.78   10.60
   2   7   1  239.88   12.60
  -2   7  -1  231.58   12.40
   2  -7  -1  233.28   12.60
   2   7   1  225.78   15.10
   2   7   1  263.87   12.60
   2   7   1  240.78   12.90
   2  -7  -1  242.08   12.10
  -2  -7   1  242.68   12.30
   3  -7   1  379.66   35.90
   3  -7   1  417.16   22.30
   3   7  -1  427.66   21.50
   3   7  -1  419.16   24.40
   3  -7   1  432.76   20.60
   3   7  -1  430.46   21.20
   3  -7   1  426.96   21.40
   3   7  -1  370.36   43.40
   3   7  -1  439.46   22.00
   3   7  -1  424.66   21.00
   3   7   1  427.56   22.90
   3   7   1  451.35   23.10
  -3  -7   1  447.16   22.30
   3  -7  -1  453.65   23.60
   3   7   1  437.46   23.70
   3  -7  -1  467.55   22.10
   3   7   1  450.25   24.90
   3   7   1  452.25   22.50
   4   7  -1   34.90    8.60
   4  -7   1   37.90    5.20
   4  -7   1   31.50    3.00
   4   7  -1   34.20   18.20
   4   7  -1   39.80    3.40
   4   7  -1   43.50    5.50
   4   7   1   38.90    3.50
   4  -7  -1   39.10    3.00
   4   7   1   39.10    7.00
   4  -7  -1   40.60    4.80
   0   8   1 1950.60   97.39
   0   8   1 2066.19   95.49
   0  -8   1 2055.39   95.09
   0   8  -1 1979.60   95.39
   0   8  -1 1858.61   97.19
   0  -8  -1 2030.00   95.09
   0   8   1 2006.50   95.29
   0   8  -1 1951.50   95.19
  -1   8   1 5195.68  257.47
   1   8  -1 5520.25  260.37
  -1  -8  -1 5340.97  257.17
   1   8  -1 5577.74  257.87
  -1   8  -1 5015.50  254.77
   1  -8  -1 5604.64  254.67
   1   8   1 5443.76  257.47
  -2   8   1 2058.19   98.09
   2  -8   1 2074.99   97.89
   2   8  -1 2147.69   98.39
  -2  -8  -1 2057.79   97.89
   2   8  -1 2044.90   98.29
   2  -8   1 2068.49   98.39
   2   8  -1 2044.80   98.59
   2   8  -1 1883.91  101.29
   2   8   1 2069.59   97.89
   2   8   1 2004.50   97.49
  -2   8  -1 2032.00   97.39
   2   8   1 2128.99   97.59
   2  -8  -1 2064.29   96.99
  -2  -8   1 2025.40   97.19
   2  -8  -1 2006.80   97.49
   2   8   1 1917.11   99.79
   3  -8   1  348.57   17.30
   3  -8   1  333.37   18.80
   3   8  -1  360.86   18.00
   3   8  -1  323.97   21.10
   3   8  -1  359.66   18.80
   3   8  -1  345.27   18.20
   3   8  -1  347.57   17.70
   3  -8  -1  367.46   19.50
   3  -8  -1  335.67   18.90
   3   8   1  390.66   19.10
   3   8   1  348.97   18.40
   3   8   1  364.06   21.20
   3  -8  -1  376.16   18.00
   3   8   1  362.46   19.90
   3   8   1  362.96   19.00
  -3  -8   1  351.16   18.40
   4   8  -1  109.39    6.30
   4  -8   1  110.69    7.90
   4   8  -1   87.99   12.20
   4  -8   1  104.59    5.80
   4  -8  -1  110.69    7.60
   4   8   1  102.09    7.70
   4   8   1  109.09    6.30
   4  -8  -1  105.79    5.90
   0  -9   1  103.09    6.20
   0   9  -1  104.59    6.30
   0  -9  -1  110.29    6.60
   0   9   1  108.49    6.30
   0   9   1   97.29    9.40
   0   9  -1  102.39    9.50
   0   9   1   99.99    7.20
   1   9  -1 1103.99   54.29
   1  -9   1 1111.59   53.99
   1  -9   1 1173.68   53.69
   1   9  -1 1111.89   54.09
   1   9  -1 1104.99   56.59
   1   9  -1 1153.48   54.09
  -1   9   1 1047.40   53.89
   1   9   1 1150.58   56.99
   1  -9  -1 1214.88   54.09
  -1  -9   1 1115.99   54.19
   1   9   1 1112.39   54.59
  -1   9  -1 1100.79   54.39
   1  -9  -1 1080.49   54.29
   1   9   1 1100.59   54.79
   2   9  -1  359.26   17.60
   2   9  -1  337.47   18.00
   2   9  -1  344.07   21.20
   2   9  -1  359.36   17.80
   2  -9   1  342.77   17.80
  -2   9   1  323.67   17.50
   2  -9   1  350.86   17.20
   2   9   1  342.17   17.60
   2   9   1  356.66   20.80
   2  -9  -1  358.86   17.20
  -2  -9   1  336.17   17.30
  -2   9  -1  329.97   17.50
   2   9   1  344.27   18.10
   2   9   1  356.16   17.80
   2  -9  -1  345.07   17.70
   3   9  -1  138.69   12.40
   3   9  -1  145.69    8.80
   3  -9   1  139.89    8.40
   3   9  -1  146.99    8.10
   3   9  -1  149.29    9.60
   3   9   1  130.29    8.50
   3  -9  -1  131.09    8.50
   3   9   1  130.99    7.50
   3   9   1  128.29    8.10
   3   9   1  139.49    9.60
   3   9   1  119.39   11.10
   4  -9   1  109.09    5.90
   4  -9   1  119.19    7.90
   4   9  -1  109.19    6.50
   4   9   1  108.69    6.40
   4   9   1  109.59    8.20
   4  -9  -1  113.49    5.90
   4  -9  -1  114.89    7.60
   0  10  -1  731.43   35.30
   0  10   1  677.33   37.50
   0  10   1  735.13   35.20
   0 -10   1  740.33   35.00
   0  10  -1  725.43   35.20
   0 -10  -1  705.03   34.90
   0  10  -1  702.03   37.70
   0  10   1  717.83   35.40
  -1  10   1  774.92   38.30
  -1  10   1  666.73   40.40
   1  10  -1  799.42   41.00
   1  10  -1  818.92   38.70
   1  10  -1  830.82   38.50
   1 -10   1  813.22   38.30
  -1 -10   1  725.23   36.90
   1  10   1  803.92   37.70
   1  10   1  777.92   39.70
  -1  10  -1  667.53   39.40
   1 -10  -1  819.12   36.80
   1 -10  -1  746.33   37.10
  -1  10  -1  752.22   37.20
   1  10   1  791.32   37.40
   2 -10   1  789.12   38.90
   2  10  -1  809.42   38.80
   2  10  -1  801.42   38.90
   2 -10   1  794.72   38.40
   2  10  -1  775.52   39.20
   2 -10  -1  793.82   37.70
  -2  10  -1  787.52   38.60
   2  10   1  812.02   38.30
   2 -10  -1  726.03   38.10
   2  10   1  780.12   38.50
   3  10  -1  981.60   51.79
   3 -10   1 1047.40   50.39
   3  10  -1 1030.80   49.99
   3 -10   1 1017.70   49.20
   3  10  -1 1040.90   49.60
   3  10   1  987.20   49.40
   3 -10  -1 1017.20   49.80
   3 -10  -1 1033.70   48.70
   0  11  -1   16.20    2.70
   0  11   1   12.50    2.60
   0 -11  -1   17.30    2.90
   0  11  -1   17.80    4.10
   0 -11   1   19.70    2.60
   0  11   1   15.30    3.70
   1  11  -1  925.91   43.80
   1  11  -1  921.11   43.60
   1  11  -1  899.91   45.80
  -1  11   1  809.52   45.60
  -1  11   1  909.21   43.50
   1 -11   1  892.21   43.40
  -1 -11   1  891.61   45.70
   1 -11  -1  917.51   45.90
  -1  11  -1  963.10   46.00
  -1  11  -1  905.11   48.30
   1  11   1  993.20   46.40
   1  11   1  989.20   48.30
   1  11   1  967.40   46.10
   2  11  -1  390.26   22.20
   2  11  -1  426.46   20.40
   2  11  -1  352.96   20.70
   2 -11   1  367.46   19.60
  -2  11  -1  297.47   21.20
   2 -11  -1  382.46   18.00
   2  11   1  373.86   23.40
   2  11   1  410.46   20.40
   3  11  -1  131.09    8.00
   3 -11   1  132.19    8.10
   3 -11  -1  127.69    7.90
   3 -11  -1  133.69    6.70
   3  11   1  125.39    7.80
   0 -12   1   90.59    5.80
   0  12   1   82.29   11.30
   0  12  -1  105.29   10.70
   1  12  -1  683.73   31.90
   1  12  -1  639.44   34.10
  -1  12   1  661.73   31.80
   1 -12   1  611.84   31.70
   1  12  -1  646.84   32.10
   1  12   1  774.12   35.00
  -1  12  -1  717.13   34.90
  -1  12  -1  636.64   37.10
   1  12   1  727.33   35.20
   2  12  -1  452.05   21.80
   2 -12   1  407.26   21.70
   2  12  -1  434.46   21.50
   2  12   1  411.46   20.20
   2 -12  -1  392.66   20.50
   2  12   1  410.66   20.50
   0  13  -1   43.00    3.50
   0  13   1   42.70    3.50
   0   0  -2  112.59    7.30
   0   0   2  101.89    7.10
   3   0  -2 3412.16  161.88
   3   0  -2 3290.17  187.58
   3   0   2 3485.55  162.08
   3   0   2 3413.36  184.28
   4   0  -2 2412.26  107.49
   4   0  -2 2267.97  108.09
   4   0   2 2181.88  107.29
   4   0  -2 2100.39  106.69
   4   0   2 2318.67  135.79
   4   0  -2 2306.37  107.59
   4   0  -2 2181.68  138.29
   4   0   2 2113.49  107.69
   5   0  -2  140.49   10.10
   5   0  -2  162.88   11.10
   0   1  -2  539.05   28.40
   0  -1  -2  549.25   28.20
   0   1   2  514.05   28.10
  -1   1  -2 3553.24  173.58
   2  -1   2  548.05   30.30
   2  -1   2  621.04   30.60
   2   1  -2  658.83   31.00
   2   1  -2  666.63   30.30
   2  -1   2  680.73   30.80
   2   1  -2  648.74   30.70
   2   1  -2  591.94   30.50
   2   1  -2  637.94   30.50
   2   1   2  623.64   30.20
   2  -1  -2  688.43   30.30
   2   1   2  600.34   29.80
   2  -1  -2  626.84   30.00
   2   1   2  628.54   29.60
   2  -1  -2  604.54   30.00
   2   1   2  607.24   29.80
   2   1   2  597.14   29.70
   2   1   2  587.14   29.80
   3  -1   2  712.33   37.30
   3   1  -2  762.72   37.50
   3  -1   2  757.92   37.50
   3   1  -2  827.12   37.80
   3   1  -2  845.12   38.50
   3   1  -2  832.22   37.90
   3  -1   2  766.92   37.80
   3   1  -2  726.43   61.29
   3  -1   2  748.23   55.69
   3   1   2  712.53   38.80
   3   1   2  825.42   39.10
   3  -1  -2  733.53   58.39
   3   1   2  831.92   39.60
   3  -1  -2  859.31   39.30
   3  -1  -2  783.72   38.80
   3  -1  -2  929.71   39.80
   3   1   2  799.22   39.00
   3   1   2  734.73   57.89
   3  -1  -2  841.62   39.40
   4   1  -2 1632.34   76.39
   4   1  -2 1484.15   75.59
   4  -1   2 1581.54   76.29
   4  -1   2 1611.24  128.89
   4  -1   2 1474.55   75.49
   4   1  -2 1496.85  107.89
   4   1  -2 1734.13   76.39
   4   1  -2 1621.24   77.09
   4  -1  -2 1581.64  105.09
   4   1   2 1543.45   77.59
   4   1   2 1604.04   78.39
   4  -1  -2 1636.54   78.09
   4   1   2 1670.73  106.39
   4  -1  -2 1719.93   77.99
   4   1   2 1580.04   77.69
   4  -1  -2 1571.34   77.29
   5  -1   2   82.49   21.00
   5   1  -2   69.79    7.30
   5  -1   2   58.39    6.10
   5  -1  -2   74.49   20.70
   5   1   2   69.19   22.10
   5  -1  -2   66.79    4.80
   5  -1  -2   59.89    6.10
   3  -2   2 2767.52  136.69
   3  -2   2 2810.42  136.99
   3   2  -2 2902.41  137.19
   3   2  -2 2707.43  136.89
   3  -2   2 2982.30  157.98
   3   2  -2 2629.94  165.98
   3   2  -2 3024.30  137.39
   3   2  -2 3151.88  138.29
   3   2   2 2771.52  133.79
   3   2   2 2889.41  134.59
   3  -2  -2 2655.33  154.58
   3   2   2 2562.44  133.69
   3  -2  -2 3033.60  134.19
   3  -2  -2 2832.32  133.59
   3   2   2 2857.31  133.89
   3  -2  -2 2892.21  134.29
   3   2   2 2736.33  157.28
   4   2  -2  163.78    9.60
   4   2  -2  186.68   10.70
   4  -2   2  164.08    9.80
   4   2   2  145.29    8.40
   4   2   2  149.79    9.30
   4  -2  -2  154.08    8.90
   4   2   2  151.58   26.80
   4  -2  -2  144.49    8.00
   4  -2  -2  146.19   24.80
   4  -2  -2  161.58    9.00
   4   2   2  141.29    8.30
   5   2  -2  255.67   14.80
   5   2  -2  273.87   14.90
   5  -2   2  270.17   15.30
   5  -2   2  323.67   32.60
   5   2  -2  289.27   38.90
   5  -2  -2  314.07   33.30
   5   2   2  331.57   37.30
   5  -2  -2  301.17   16.00
   5  -2  -2  324.97   18.70
   1   3  -2  529.05   27.00
   1   3  -2  566.54   26.90
   1   3  -2  552.64   27.90
   1   3  -2  574.44   27.20
   1   3  -2  596.24   27.20
   1  -3   2  563.84   27.10
  -1   3   2  535.05   26.90
   1   3   2  444.76   22.60
   1   3   2  458.15   22.70
  -1   3  -2  464.25   22.50
   1   3   2  485.35   22.90
   1  -3  -2  483.25   22.60
   2   3  -2  304.17   15.90
   2   3  -2  290.57   15.20
   2  -3   2  324.27   15.10
   2   3  -2  299.77   15.10
   2   3  -2  308.17   15.20
   2   3  -2  320.67   14.90
   2   3  -2  287.97   15.00
   2   3  -2  275.57   14.80
   2   3   2  294.27   14.50
   2  -3  -2  282.87   14.60
   2   3   2  284.07   14.20
   2   3   2  272.47   14.10
   2   3   2  285.37   14.30
   2   3   2  302.77   14.90
   3   3  -2   15.90    2.30
   3  -3   2   12.90    2.40
   3   3  -2   19.60    2.30
   3  -3   2   13.10   11.00
   3   3  -2   21.50    3.60
   3   3  -2   18.50    2.40
   3   3  -2   16.90    2.40
   3  -3   2   11.80    2.00
   3  -3   2   13.00    2.50
   3   3  -2   20.40    2.00
   3   3   2   20.50    3.80
   3   3   2   19.00    2.20
   3   3   2   19.30    2.40
   3   3   2   17.30    2.20
   3   3   2   18.20   15.30
   4  -3   2 1045.60   68.19
   4   3  -2  900.41   47.00
   4   3  -2  917.61   45.80
   4   3  -2  961.70   45.90
   4  -3   2  892.61   45.20
   4  -3   2  930.81   46.20
   4   3  -2  916.41   79.79
   4   3   2  884.71   44.20
   4  -3  -2  950.70   44.70
   4   3   2  886.01   70.19
   4  -3  -2  878.11   43.80
   4   3   2  886.91   45.20
   4  -3  -2  942.81   65.89
   4  -3  -2  923.71   44.90
   5   3  -2  370.66   20.90
   5   3  -2  377.86   19.50
   5  -3   2  380.66   20.10
   5  -3   2  363.56   18.80
   5   3  -2  353.96   19.40
   5  -3   2  424.06   36.20
   5   3  -2  394.66   45.30
   5  -3  -2  360.66   20.30
   5  -3  -2  371.76   19.30
   5  -3  -2  409.26   35.50
   5   3   2  421.76   41.20
   0   4   2  115.49    6.90
   0   4  -2  129.89    7.00
   0   4  -2  121.79    6.90
   0  -4  -2  132.09    6.80
   0  -4   2  129.79    7.00
   0   4   2  136.19    7.00
  -1   4   2 8223.18  378.26
   1  -4   2 7161.08  375.06
   1  -4  -2 7245.38  379.56
  -1   4  -2 8338.27  383.06
   2   4  -2  412.96   20.20
   2  -4   2  382.26   19.70
   2   4  -2  412.16   20.00
   2   4  -2  403.26   19.90
   2   4  -2  420.96   21.40
   2  -4   2  407.66   20.10
   2   4  -2  398.26   20.10
   2  -4  -2  493.65   21.40
   2  -4  -2  410.56   21.10
   2   4   2  428.56   21.30
   2   4   2  412.76   21.20
   2   4   2  431.46   21.60
  -2   4  -2  435.26   21.10
   2   4   2  434.56   22.10
   2   4   2  421.86   21.20
   3   4  -2 4892.01  226.08
   3   4  -2 4899.61  225.58
   3   4  -2 4227.48  259.07
   3   4  -2 4774.72  227.38
   3  -4   2 4949.00  225.88
   3  -4   2 4693.93  225.88
   3  -4  -2 4841.12  236.28
   3   4   2 4502.15  214.88
   3   4   2 4721.83  216.28
   3   4   2 4299.87  215.38
   3  -4  -2 4927.91  215.68
   3   4   2 4506.05  215.28
   3  -4  -2 4369.16  214.78
   3   4   2 4113.59  239.08
   3   4   2 4355.56  214.98
   4   4  -2  879.91   78.29
   4  -4   2  883.41   43.80
   4   4  -2  940.71   44.50
   4  -4   2  891.81   45.00
   4   4  -2  859.31   45.90
   4  -4   2 1022.80   65.59
   4   4  -2  876.61   44.30
   4  -4  -2  929.71   61.39
   4   4   2  840.42   42.20
   4  -4  -2  844.62   41.80
   4   4   2  824.52   41.00
   4  -4  -2  889.41   41.60
   4  -4  -2  813.12   40.60
   4   4   2  726.23   41.10
   4   4   2  846.02   66.59
   5  -4   2  404.66   34.00
   5   4  -2  373.96   19.50
   5   4  -2  404.96   44.20
   5  -4   2  374.26   19.00
   5  -4   2  391.96   20.60
   5   4  -2  359.76   21.70
   5  -4  -2  421.76   33.80
   5  -4  -2  390.86   20.00
   5   4   2  436.66   39.70
   5  -4  -2  371.76   21.10
  -1   5   2 2113.49  104.49
  -1  -5  -2 2154.18  104.39
  -1   5   2 2250.17  104.69
   1   5  -2 2242.58  104.79
  -1   5  -2 2036.20   96.59
  -1  -5   2 2073.49   96.79
   1   5   2 1976.40   96.79
   1   5   2 1943.91   98.09
   1   5   2 2129.19   97.09
   1  -5  -2 1997.20   96.69
   2  -5   2  249.18   12.50
   2   5  -2  239.48   12.80
  -2   5   2  248.68   12.80
   2   5  -2  256.97   12.80
   2  -5   2  247.88   12.90
   2  -5   2  272.27   29.50
   2   5  -2  243.98   14.80
   2   5  -2  252.07   12.70
   2   5  -2  254.27   13.00
  -2  -5  -2  234.78   12.50
  -2   5  -2  238.28   12.00
   2   5   2  231.28   12.10
   2  -5  -2  250.07   12.30
   2   5   2  238.88   12.20
   2  -5  -2  238.18   12.00
   2   5   2  240.88   12.60
   2   5   2  237.18   13.30
   3   5  -2  428.46   21.90
   3  -5   2  487.35   49.90
   3   5  -2  436.66   21.70
   3  -5   2  436.26   21.40
   3   5  -2  429.36   23.90
   3   5  -2  393.06   50.59
   3   5  -2  439.06   22.30
   3  -5   2  442.36   22.50
   3   5   2  425.16   21.10
   3   5   2  395.66   41.30
   3   5   2  420.36   21.60
   3  -5  -2  434.76   21.90
   3   5   2  438.86   21.50
   3   5   2  422.66   22.40
   3  -5  -2  395.46   22.90
   3  -5  -2  474.65   38.10
   3   5   2  393.36   21.70
   3  -5  -2  424.16   20.80
   4   5  -2 1382.86  103.49
   4   5  -2 1323.57   68.59
   4  -5   2 1591.94   89.59
   4  -5   2 1413.36   68.09
   4   5  -2 1432.76   68.69
   4   5  -2 1361.96   70.69
   4  -5   2 1438.56   69.79
   4   5   2 1386.16   67.49
   4  -5  -2 1446.46   68.09
   4  -5  -2 1577.44   86.99
   4   5   2 1211.08   67.79
   4  -5  -2 1381.96   68.39
   4   5   2 1390.76   92.69
   4  -5  -2 1414.06   67.09
   4   5   2 1377.66   68.89
   5  -5   2   74.39    4.50
   5  -5   2   81.59    8.10
   5   5  -2   68.79    5.20
   5   5  -2   86.69   20.80
   5  -5   2   70.89   13.40
   5   5   2   76.29   16.70
   5  -5  -2   63.29   13.00
   5  -5  -2   66.19    4.10
   5  -5  -2   61.99    6.10
   0   6  -2   94.39    5.10
   0  -6  -2   90.99    4.90
   0  -6   2   89.69    5.00
   0   6   2   80.99    5.30
   0   6   2   84.49    5.00
   0   6  -2   84.19    5.10
   1   6  -2 4373.26  235.58
   1  -6   2 5274.97  232.88
  -1   6   2 5040.80  233.18
   1   6   2 4708.03  226.98
   1  -6  -2 4909.41  224.88
  -1   6  -2 4694.53  224.98
   1   6   2 4608.14  225.18
   2  -6   2  337.37   31.70
   2   6  -2  325.47   23.60
   2   6  -2  350.96   17.30
   2   6  -2  376.56   17.60
   2  -6   2  370.36   17.50
   2  -6   2  354.06   16.90
  -2  -6  -2  329.27   16.90
   2   6  -2  326.37   17.20
  -2   6   2  336.37   17.00
  -2   6   2  314.87   17.20
   2  -6  -2  346.07   16.60
  -2   6  -2  326.97   16.30
   2   6   2  309.37   16.40
   2   6   2  322.57   18.10
   2  -6  -2  326.37   16.20
   2   6   2  326.87   16.90
  -2  -6   2  329.17   16.40
   2   6   2  328.17   16.50
   3  -6   2 2754.32  139.29
   3   6  -2 2689.33  140.69
   3  -6   2 2909.81  138.59
   3  -6   2 3072.39  158.38
   3   6  -2 2913.61  138.69
   3   6  -2 2880.81  138.09
   3  -6   2 2860.31  137.69
   3   6  -2 2996.40  138.19
   3   6  -2 2913.61  138.49
   3  -6  -2 2818.32  132.29
   3   6   2 2828.32  132.69
   3   6   2 2558.14  154.78
   3   6   2 2717.23  132.79
   3  -6  -2 2893.41  133.69
   3   6   2 2696.03  133.49
   3   6   2 2837.12  134.29
   3   6   2 2841.52  133.19
   4   6  -2  870.81   73.09
   4  -6   2  896.71   46.30
   4  -6   2  909.81   44.40
   4  -6   2  925.91   61.69
   4   6  -2  892.91   44.90
   4   6  -2 1037.20   52.09
   4   6   2  796.02   42.90
   4  -6  -2  911.21   57.89
   4   6   2  901.21   63.49
   4   6   2  846.92   42.20
  -4  -6   2  808.92   42.10
   4  -6  -2  911.61   41.80
   4  -6  -2  869.91   43.20
   4  -6  -2  896.71   44.00
   4   6   2  843.62   43.80
   0   7  -2 4632.84  220.18
   0   7   2 4526.65  219.88
   1   7  -2   92.69    5.30
  -1   7   2   74.79    5.00
   1  -7   2   91.19    5.30
   1   7  -2   85.19    5.10
  -1   7   2   78.89    5.40
   1   7  -2   82.09    5.40
   1   7  -2  104.49    9.50
   1  -7  -2  100.79    5.50
   1   7   2   93.69    5.90
  -1   7  -2   89.19    5.50
   1   7   2  101.99    5.70
  -1   7  -2   98.49    5.60
   1   7   2   90.49    8.40
   1  -7  -2   94.39    5.40
  -1  -7   2   94.99    5.50
   1   7   2   96.59    5.70
   2   7  -2  496.85   32.10
   2   7  -2  619.54   30.10
   2  -7   2  611.94   28.60
   2   7  -2  580.74   29.00
  -2   7   2  582.24   28.80
   2  -7   2  600.04   29.90
   2   7  -2  617.34   29.00
  -2   7  -2  564.24   28.70
   2   7   2  573.64   30.90
   2   7   2  577.04   28.90
  -2  -7   2  576.94   28.70
   2  -7  -2  596.74   28.90
   2   7   2  580.94   28.90
   2   7   2  616.84   29.70
   2  -7  -2  604.44   28.50
   3   7  -2   28.90    7.80
   3  -7   2   28.10    2.70
   3  -7   2   26.30    3.70
   3   7  -2   19.80   21.10
   3   7  -2   29.90    3.00
   3   7  -2   31.20    4.40
   3   7  -2   27.00    3.80
   3   7  -2   23.60    3.60
   3   7   2   29.20    6.00
   3  -7  -2   30.20    3.70
   3  -7  -2   20.00    2.40
  -3  -7   2   24.90    3.10
   3   7   2   23.60    4.60
   3   7   2   27.90    5.50
   3   7   2   22.00    3.70
   3   7   2   21.70    2.60
   4  -7   2  408.06   20.20
   4  -7   2  422.56   22.30
   4  -7   2  364.86   34.10
   4   7  -2  425.36   42.60
   4   7  -2  411.36   24.20
   4   7  -2  426.66   20.70
   4  -7  -2  429.66   21.60
   4   7   2  421.26   22.00
   4  -7  -2  434.06   23.00
   4   7   2  423.16   24.20
   4   7   2  491.15   24.90
   0   8  -2 5949.60  285.37
  -1   8   2 1759.72   87.69
   1   8  -2 1817.82   88.09
  -1  -8  -2 1700.03   87.39
   1   8  -2 1797.92   87.79
  -1   8   2 1773.62   87.89
   1  -8   2 1967.50   87.59
   1   8  -2 1798.22   90.59
   1   8  -2 1949.70   87.89
   1  -8   2 1905.61   87.89
   1  -8  -2 1760.22   89.69
   1   8   2 1916.51   89.99
   1   8   2 1817.52   90.19
   1   8   2 1826.72   91.99
   1  -8  -2 2024.60   89.49
  -1   8  -2 1791.42   89.69
  -1  -8   2 1903.01   89.69
   1   8   2 1941.01   89.99
   2   8  -2 2230.48  104.29
  -2   8   2 2083.49  104.09
   2  -8   2 2223.58  104.39
   2   8  -2 2219.18  104.29
   2   8  -2 2145.29  104.49
   2   8  -2 2116.09  107.69
   2  -8   2 2195.48  103.79
   2   8   2 2159.98  102.89
   2   8   2 2209.28  103.39
  -2  -8   2 2098.89  102.59
   2  -8  -2 2073.89  102.89
   2  -8  -2 2189.58  102.49
   2   8   2 2094.99  104.89
   2   8   2 2193.88  102.99
   3   8  -2  797.32   37.10
   3   8  -2  771.82   37.00
   3   8  -2  779.02   37.40
   3  -8   2  745.63   38.30
   3   8  -2  642.94   58.39
   3   8  -2  726.63   40.40
   3   8  -2  814.62   37.90
   3  -8   2  757.82   37.40
   3  -8   2  744.43   36.50
   3  -8  -2  789.02   36.50
   3   8   2  758.12   37.10
   3   8   2  771.12   37.50
   3  -8  -2  760.72   37.80
  -3  -8   2  731.63   36.60
   3   8   2  750.92   38.90
   3   8   2  739.13   38.30
   3   8   2  747.53   36.80
   3   8   2  719.03   37.30
   4   8  -2   78.09    4.90
   4  -8   2   70.29    4.40
   4   8  -2   65.99   10.50
   4  -8   2   77.59    6.80
   4   8  -2   80.89   30.90
   4   8   2   73.49    6.80
   4   8   2   78.69    5.00
   4  -8  -2   75.99    4.50
   4  -8  -2   79.29    6.10
   0   9  -2 1062.79   55.69
   0  -9  -2 1113.09   53.19
   0   9  -2 1158.98   53.49
   0  -9   2 1153.78   53.29
   0   9   2 1121.69   53.49
   0   9   2 1006.10   55.29
   0   9   2 1098.79   53.59
   0   9  -2 1110.59   55.19
  -1   9   2  449.76   22.40
   1  -9   2  484.35   22.10
   1   9  -2  438.06   22.60
   1   9  -2  448.46   25.30
   1   9  -2  423.46   22.40
  -1   9   2  412.66   22.40
   1   9  -2  469.35   22.40
   1  -9   2  452.65   22.40
   1   9   2  469.15   23.70
   1  -9  -2  465.05   23.40
   1   9   2  454.95   26.10
   1   9   2  464.05   23.90
  -1  -9   2  509.35   23.40
   1  -9  -2  496.15   23.20
  -1   9  -2  451.35   23.50
  -2   9   2   32.80    4.00
   2   9  -2   35.80    3.70
   2   9  -2   35.40    3.90
   2  -9   2   41.80    3.70
   2   9  -2   34.80    3.20
   2  -9   2   37.40    3.00
   2   9  -2   39.70    8.40
   2   9   2   33.20    3.50
  -2  -9   2   32.90    3.20
   2   9   2   36.10    3.20
  -2   9  -2   29.90    3.50
   2  -9  -2   39.60    3.50
   2   9   2   32.40    7.50
   2  -9  -2   37.00    2.90
   2   9   2   33.90    4.00
   3   9  -2  204.58   11.90
   3   9  -2  203.88   14.90
   3   9  -2  196.68   11.30
   3   9  -2  202.98   11.20
   3  -9   2  201.78   12.00
   3   9  -2  205.68   10.90
   3   9   2  206.78   11.30
   3   9   2  203.28   14.70
   3   9   2  216.18   12.10
   3   9   2  223.38   13.00
   3   9   2  227.38   13.50
   3  -9  -2  207.78   12.30
   3   9   2  223.28   12.40
   4  -9   2  525.45   26.30
   4   9  -2  511.35   25.30
   4  -9   2  504.15   24.90
   4  -9  -2  489.85   25.20
   4  -9  -2  503.45   24.10
   0 -10  -2   43.20    3.70
   0  10   2   46.20    8.20
   0  10   2   48.10    3.90
   0 -10   2   49.30    3.70
   0  10  -2   42.30    4.50
   0  10   2   58.19    4.50
   0  10  -2   49.00    3.90
   0  10  -2   46.80    7.90
   1 -10   2  406.06   19.90
   1  10  -2  411.56   20.00
   1  10  -2  413.96   20.30
  -1  10   2  337.17   22.40
   1  10  -2  406.36   22.90
  -1  10   2  404.16   20.00
  -1  10   2  381.86   20.10
   1  10   2  410.66   20.80
   1 -10  -2  402.36   20.60
   1  10   2  424.26   23.30
   1 -10  -2  428.76   20.30
   1  10   2  424.16   21.10
  -1  10  -2  374.96   23.30
  -1 -10   2  400.96   20.40
  -1  10  -2  420.46   20.70
   2  10  -2 1083.49   52.19
   2  10  -2 1083.89   52.39
   2 -10   2 1051.39   52.29
   2 -10   2 1098.99   51.79
   2  10  -2 1071.59   52.59
  -2  10  -2  991.60   50.89
   2  10   2 1085.89   51.09
   2  10   2 1076.09   51.39
   2 -10  -2  996.20   50.79
   2  10   2 1137.89   53.99
   2 -10  -2 1095.89   50.49
   2 -10  -2  992.90   51.39
  -2 -10   2 1019.80   50.59
   3  10  -2  493.75   27.80
   3  10  -2  514.65   25.20
   3 -10   2  504.65   24.80
   3 -10   2  507.55   26.00
   3  10  -2  523.25   25.60
   3 -10  -2  504.15   25.80
   3 -10  -2  506.95   24.60
   3  10   2  508.65   25.50
   0 -11   2  552.74   26.90
   0  11  -2  495.25   27.70
   0  11   2  574.34   27.40
   0  11   2  557.44   27.20
   0  11  -2  552.64   27.10
   1  11  -2  109.09    6.60
  -1  11   2   98.99   10.90
   1 -11   2  107.69    6.40
   1  11  -2  113.49    7.10
   1  11  -2  113.99   10.00
  -1  11   2  107.79    6.50
  -1  11  -2   98.79   10.10
  -1  11  -2  105.09    6.50
  -1 -11   2  122.09    6.50
   1  11   2  110.39   10.70
   1  11   2  110.49    7.00
   1 -11  -2  104.29    6.60
   1  11   2  111.59    6.60
   2  11  -2  138.69    8.40
   2  11  -2  148.79    8.40
   2  11  -2  148.39   11.90
   2 -11   2  136.19    8.10
   2  11   2  156.78    8.90
   2 -11  -2  145.19    7.50
   2 -11  -2  138.89    8.60
  -2  11  -2  124.49   11.90
   3 -11   2  109.09    7.10
   3  11  -2  111.69    7.10
   3 -11  -2  111.39    7.30
   3  11   2  115.19    7.20
   3 -11  -2  116.59    6.00
   0  12   2  982.90   46.50
   0 -12   2  933.71   46.00
   0  12  -2  943.51   48.40
   1  12  -2  337.37   20.20
   1  12  -2  353.96   17.60
  -1  12   2  350.36   17.50
   1  12  -2  353.36   18.00
   1 -12   2  338.67   17.40
   1  12   2  369.16   18.00
  -1  12  -2  355.96   17.90
   1  12   2  361.46   18.20
  -1  12  -2  331.27   20.80
   2  12  -2  501.35   23.50
   2  12  -2  495.25   23.80
   2 -12   2  448.06   23.70
   2 -12   2  449.56   23.30
   2  12   2  492.35   24.90
   2 -12  -2  483.25   25.00
   2  12   2  525.05   24.80
   0  13   2  569.74   27.90
   0  13  -2  570.34   27.90
   0   0  -3    9.60    0.80
   2   0   3   64.99    3.60
   2   0   3   64.39    3.70
   2   0  -3   63.89    3.50
   2   0   3   61.09    3.50
   2   0  -3   70.99    4.20
   3   0   3  309.77   17.40
   3   0  -3  311.47   37.00
   3   0   3  345.97   33.80
   3   0   3  325.67   16.90
   3   0  -3  357.16   17.80
   3   0  -3  363.66   17.50
   3   0   3  342.17   17.20
   3   0   3  360.96   17.60
   3   0  -3  339.67   17.00
   3   0  -3  366.76   17.40
   4   0  -3    1.50    1.80
   4   0  -3    1.40    9.00
   4   0  -3    3.80    1.80
   4   0  -3    0.00    1.40
   4   0   3    0.60    1.90
   4   0   3    1.20    8.20
   5   0  -3  158.18   27.50
   5   0   3  185.78   27.10
   5   0  -3  184.18   12.00
   5   0  -3  152.18    9.20
   0   1  -3  466.85   22.30
   1  -1   3 1478.05   70.49
   1   1  -3 1444.56   70.49
   1   1  -3 1517.35   70.69
   1  -1  -3 1405.06   65.19
   1   1   3 1269.87   64.99
   1   1   3 1408.56   65.09
  -1   1  -3 1322.87   64.89
   1   1   3 1410.96   65.09
   3   1  -3  155.98    8.10
   3   1  -3  133.09    7.80
   3  -1   3  133.29    7.60
   3  -1   3  145.19    7.90
   3  -1   3  157.88   21.90
   3   1  -3  150.38    8.60
   3   1  -3  156.58    8.00
   3  -1   3  129.99    7.50
   3   1  -3  133.49   26.70
   3   1   3  147.39    8.00
   3   1   3  152.48   22.70
   3   1   3  128.59    7.70
   3  -1  -3  143.39    7.90
   3   1   3  159.48    7.90
   3  -1  -3  155.38    8.30
   3  -1  -3  135.79   23.60
   3  -1  -3  162.68    8.70
   3  -1  -3  148.59    8.30
   3   1   3  155.08    8.40
   4   1  -3  186.08    9.80
   4  -1   3  161.78    9.60
   4   1  -3  173.68   10.40
   4  -1   3  157.28    9.10
   4   1  -3  166.28    9.30
   4  -1   3  178.38   26.20
   4   1  -3  173.88    9.70
   4   1  -3  175.88   32.10
   4  -1  -3  165.68   28.30
   4  -1  -3  190.08    9.90
   4   1   3  156.18    9.30
   4   1   3  190.98   28.40
   4   1   3  153.78    9.10
   4  -1  -3  171.08    9.70
   4  -1  -3  153.38    9.00
   5   1  -3  324.37   18.10
   5   1  -3  315.47   39.60
   5   1  -3  284.07   17.00
   5  -1   3  345.77   35.20
   5  -1  -3  284.17   16.20
   5  -1  -3  283.67   15.30
   5  -1  -3  306.47   34.70
   5   1   3  339.67   35.80
   1   2  -3  491.95   22.50
   1  -2   3  476.35   22.60
   1   2  -3  468.15   23.20
   1   2  -3  484.05   22.70
  -1   2   3  452.25   22.50
   1   2  -3  434.46   22.60
   1   2  -3  470.85   22.70
   1   2   3  460.15   21.60
   1   2   3  439.66   21.50
  -1   2  -3  445.06   21.20
   1  -2  -3  444.66   21.30
   1   2   3  448.66   21.40
   1  -2  -3  424.26   21.50
   1   2   3  431.96   21.30
   2   2  -3 1919.21   86.99
   2   2  -3 1960.80   86.79
   2   2  -3 1891.41   87.69
   2   2  -3 1847.32   87.09
   2  -2   3 1563.44   86.69
   2   2  -3 1685.13   86.69
   2  -2   3 1850.81   86.89
   2   2  -3 1832.72   86.69
   2   2   3 1841.12   86.79
   2   2   3 1819.02   86.79
   2   2   3 1847.12   87.19
   2   2   3 1846.52   86.59
   2   2   3 1738.83   86.69
   3  -2   3 5695.23  270.67
   3   2  -3 5862.11  270.67
   3   2  -3 5490.95  304.77
   3  -2   3 5719.83  270.47
   3  -2  -3 5354.46  279.67
   3   2   3 5618.14  281.27
   3   2   3 5190.08  256.27
   4   2  -3  208.18   11.10
   4  -2   3  186.98   10.30
   4   2  -3  190.58   11.80
   4   2  -3  178.58   10.50
   4   2  -3  193.98   35.00
   4  -2   3  208.68   11.20
   4   2  -3  197.98   10.90
   4  -2   3  225.18   28.10
   4  -2  -3  179.98   27.60
   4   2   3  218.48   30.10
   4  -2  -3  194.98   10.20
   4   2   3  183.98   10.30
   4  -2  -3  199.98   11.00
   4   2   3  190.38   11.20
   4  -2  -3  188.78   11.00
   5   2  -3 1999.40   94.69
   5   2  -3 1848.42   94.59
   5   2  -3 2055.79  131.19
   5  -2  -3 1934.01   94.89
   5  -2  -3 1909.31   94.59
   5  -2  -3 2053.69  117.09
   5  -2  -3 1951.10   93.79
   0   3  -3    0.70    1.10
   0   3  -3    0.00    1.20
   0   3   3   -2.90    1.10
   0   3  -3   -0.30    1.10
  -1   3   3  461.25   23.20
   1   3  -3  471.75   23.30
   1   3  -3  464.45   23.30
   1  -3   3  462.85   23.40
   1   3  -3  502.15   24.40
   1   3  -3  507.85   23.50
   1   3  -3  497.65   23.50
   1   3   3  491.15   23.80
   1  -3  -3  496.45   23.40
   1   3   3  477.75   23.50
   1   3   3  501.45   23.70
  -1   3  -3  470.75   23.30
   1   3   3  469.35   23.40
   2  -3  -3 9616.44  456.65
   3   3  -3  258.17   13.00
   3  -3   3  238.78   12.40
   3   3  -3  255.67   12.90
   3  -3   3  270.47   28.10
   3   3  -3  215.68   13.00
   3   3  -3  256.57   12.50
   3   3  -3  249.38   14.00
   3  -3   3  249.88   13.30
   3   3  -3  257.57   13.00
   3   3  -3  223.88   36.40
   3   3  -3  248.68   13.00
   3   3   3  222.58   12.30
   3  -3  -3  229.28   12.00
   3   3   3  245.48   13.00
   3   3   3  234.18   12.20
   3   3   3  230.98   12.10
   3   3   3  238.98   12.20
   3   3   3  230.48   28.80
   3  -3  -3  239.98   28.70
   3  -3  -3  259.87   12.80
   3   3   3  241.38   11.90
   3  -3  -3  248.88   12.80
   4  -3   3  594.24   32.40
   4  -3   3  740.83   53.59
   4  -3   3  616.24   31.50
   4   3  -3  597.24   64.59
   4   3  -3  642.34   33.50
   4  -3   3  631.14   32.50
   4   3  -3  723.43   32.40
   4   3  -3  650.43   32.20
   4  -3  -3  636.14   31.40
   4   3   3  589.54   31.60
   4  -3  -3  677.23   52.59
   4  -3  -3  647.94   32.40
   4   3   3  647.84   32.60
   4  -3  -3  669.53   32.40
   4   3   3  640.44   54.99
   5  -3   3   64.89    4.80
   5   3  -3   76.99   24.40
   5   3  -3   75.09    5.40
   5   3  -3   69.49    5.50
   5  -3   3   76.29   16.00
   5  -3  -3   77.69    5.00
   5  -3  -3   73.59    6.30
   5   3   3   91.39   19.60
   5  -3  -3   84.49   16.40
   0   4  -3 4826.22  243.38
   0  -4   3 5563.84  245.48
   0  -4  -3 4674.13  242.08
   0   4   3 4667.93  242.48
  -1   4   3 6393.46  306.37
   1  -4   3 5964.20  304.07
  -1   4  -3 6432.66  296.57
   1  -4  -3 5478.05  292.67
   3  -4   3   94.99    6.00
   3   4  -3   95.39    7.40
   3   4  -3   95.89    6.00
   3   4  -3   89.09    6.00
   3   4  -3   91.89    5.50
   3   4  -3   91.19    5.80
   3  -4   3  103.09   18.30
   3   4  -3   93.89    5.90
   3  -4   3   94.19    6.40
   3  -4   3  109.49    5.50
   3  -4  -3   71.69    5.10
   3   4   3   72.49    5.50
   3   4   3   66.09    4.40
   3   4   3   68.39    4.70
   3   4   3   69.39    4.30
   3   4   3   59.69   18.20
   3   4   3   64.59    4.90
   3  -4  -3   79.09    5.30
   3  -4  -3   63.69    4.20
   3   4   3   72.29    4.50
   4   4  -3 1324.87  106.19
   4  -4   3 1388.26   68.29
   4   4  -3 1379.76   69.39
   4   4  -3 1376.46   67.69
   4  -4   3 1336.17   66.99
   4  -4   3 1554.24   89.89
   4   4  -3 1430.76   67.69
   4   4   3 1135.69   64.59
   4   4   3 1310.87   65.39
   4   4   3 1281.87   64.29
   4  -4  -3 1360.16   64.09
   4   4   3 1389.86   90.49
   4  -4  -3 1324.97   65.19
   4  -4  -3 1412.86   65.19
   4  -4  -3 1458.25   85.59
   5   4  -3  277.67   17.90
   5  -4   3  291.97   15.10
   5   4  -3  320.27   40.00
   5  -4   3  306.47   17.10
   5  -4   3  318.67   29.40
   5   4  -3  306.47   15.70
   5  -4  -3  302.57   15.90
   5   4   3  363.46   33.90
   5  -4  -3  327.17   28.60
   5  -4  -3  287.57   17.00
   0   5   3   13.70    2.00
   0   5  -3    8.60    1.90
   0   5   3   13.20    2.50
   0  -5   3   17.00    2.00
   0   5  -3   13.30    1.80
  -1   5   3  379.56   18.80
   1   5  -3  363.36   18.50
   1   5  -3  378.36   18.70
   1  -5   3  398.66   18.70
  -1   5   3  359.46   18.40
  -1  -5  -3  375.26   18.30
   1   5  -3  402.86   18.50
   1   5  -3  337.87   20.90
   1   5   3  395.46   21.20
   1  -5  -3  422.76   20.10
  -1   5  -3  399.86   20.00
  -1  -5   3  420.66   20.20
   1   5   3  412.26   20.30
   1   5   3  432.06   20.60
   1   5   3  387.26   20.10
   2  -5   3 2795.02  136.69
   2  -5   3 2909.61  136.19
  -2   5   3 2462.05  136.79
   2   5  -3 3005.80  136.79
   2   5  -3 2936.71  136.49
   2  -5   3 3043.80  154.68
   2   5  -3 2761.42  138.49
  -2   5   3 2959.80  136.59
   2   5   3 2509.85  130.99
   2  -5  -3 2799.82  130.59
   2   5   3 2794.02  131.29
   2   5   3 2733.03  131.79
   2   5   3 2848.71  130.79
   2  -5  -3 2763.12  131.39
   3   5  -3  197.58   13.30
   3  -5   3  221.08   13.80
   3  -5   3  227.68   26.00
   3  -5   3  198.08   10.60
   3   5  -3  211.28   11.20
   3   5  -3  216.88   11.50
   3  -5   3  200.98   11.50
   3   5  -3  201.68   11.40
   3   5  -3  221.18   11.00
   3   5  -3  178.18   35.20
   3  -5  -3  214.18   25.60
   3   5   3  192.78   28.10
   3   5   3  192.08   11.60
   3   5   3  189.28   11.00
   3   5   3  193.68   10.50
   3   5   3  197.28   11.30
   3  -5  -3  199.88   11.20
   3  -5  -3  186.98   10.10
   4   5  -3   54.49    4.30
   4  -5   3   55.39    5.70
   4   5  -3   52.99    4.30
   4   5  -3   54.39    7.20
   4  -5   3   55.29    3.90
   4   5  -3   54.69   24.50
   4  -5   3   57.29   14.90
   4   5   3   53.29    6.20
   4  -5  -3   54.39    3.80
   4  -5  -3   62.09   15.80
   4   5   3   54.29   18.00
   4  -5  -3   62.69    5.90
   4   5   3   51.19    4.20
   4   5   3   57.79    6.00
   4  -5  -3   54.59    5.10
   5  -5   3   15.10    9.00
   5   5  -3   15.10    3.00
   5   5  -3   18.60   15.20
   5  -5   3   16.30    2.30
   5  -5  -3   13.90   10.10
   5  -5  -3   11.80    2.00
   5   5   3   17.20   12.10
   5  -5  -3   15.50    3.30
   0   6   3 3316.87  157.18
   0  -6  -3 3305.87  156.68
   0   6   3 3257.37  157.18
   1   6  -3 6676.73  333.27
   1  -6   3 7224.58  330.27
   1   6   3 6642.04  316.07
   1   6   3 6500.95  314.67
   1  -6  -3 6703.73  314.17
  -2   6   3 3729.83  176.68
   2  -6   3 3727.93  195.48
   2   6  -3 3798.02  176.98
   2  -6   3 3735.23  176.28
   2   6  -3 3884.51  176.68
   2   6  -3 3261.07  179.18
  -2   6   3 3782.02  176.38
   2   6   3 3699.23  177.28
   2   6   3 3713.53  178.48
   2   6   3 3488.15  177.48
   2   6   3 3810.62  177.78
   2  -6  -3 3687.93  176.88
  -2  -6   3 3725.53  177.28
  -2   6  -3 3903.51  177.18
   3  -6   3  111.09    7.30
   3  -6   3  108.79    6.10
   3   6  -3  104.39    6.90
   3   6  -3  112.19    6.60
   3   6  -3   93.39   28.10
   3  -6   3  113.09   19.10
   3   6  -3  106.89   10.00
   3  -6   3  101.49    7.80
   3   6  -3  113.09    6.60
   3   6  -3  117.79    7.30
   3   6   3   91.99    5.70
   3   6   3  100.69    6.60
   3   6   3   99.29    6.70
   3   6   3   94.79    7.40
   3   6   3   94.59    7.60
   3  -6  -3   88.79    5.50
   3  -6  -3   93.99    6.60
   4  -6   3  332.97   16.80
   4  -6   3  350.86   32.20
   4  -6   3  355.66   19.10
   4   6  -3  329.57   43.50
   4   6  -3  339.97   17.40
   4   6  -3  317.57   20.50
   4   6   3  342.27   17.70
   4  -6  -3  375.86   19.00
   4   6   3  390.56   48.00
   4   6   3  316.87   18.90
  -4  -6   3  347.77   17.90
   4  -6  -3  351.36   18.70
   4   6   3  328.67   19.40
   4  -6  -3  346.27   17.40
   0   7  -3    3.90    1.40
   0  -7  -3    3.10    1.30
   0   7   3    2.20    1.00
   0   7  -3    1.20    1.00
   0   7  -3    7.20    3.10
  -1   7   3  367.16   19.40
   1   7  -3  398.96   19.70
  -1  -7  -3  366.16   19.10
  -1   7   3  388.46   19.70
   1   7  -3  395.36   19.50
   1   7  -3  386.96   19.50
   1  -7   3  408.46   19.60
   1  -7   3  416.06   19.30
  -1  -7   3  390.96   19.40
  -1   7  -3  383.36   19.40
   1  -7  -3  392.06   19.20
   1   7   3  446.16   20.00
   1   7   3  409.66   19.70
   1   7   3  374.46   19.50
   1  -7  -3  397.46   19.40
   1   7   3  372.66   21.40
   1   7   3  362.76   19.70
  -2   7   3 3412.26  165.88
   2   7  -3 2984.30  168.98
   2  -7   3 3793.02  165.68
   2   7  -3 3732.43  166.08
  -2   7   3 3724.33  165.88
   2  -7   3 3213.68  184.48
   2   7   3 3629.54  181.68
  -2   7  -3 3891.41  240.28
   2  -7  -3 3676.03  180.28
   2   7   3 3844.32  180.38
  -2  -7   3 3804.82  180.28
   2  -7  -3 3859.61  179.88
   3   7  -3   46.50   23.10
   3  -7   3   53.09    6.10
   3  -7   3   54.69    3.60
   3   7  -3   50.09    4.30
   3   7  -3   47.30    8.90
   3  -7   3   49.70    4.90
   3   7  -3   53.29    4.00
   3   7  -3   47.70    4.40
   3   7  -3   57.69    5.10
   3   7   3   37.60    5.50
   3  -7  -3   44.70    4.40
   3   7   3   43.70    6.50
   3  -7  -3   44.60    3.20
   3   7   3   46.90    3.60
   3   7   3   41.00    6.20
   3   7   3   43.70    4.40
   3   7   3   46.80    4.60
  -3  -7   3   49.00    4.00
   4  -7   3  381.36   22.60
   4   7  -3  342.57   21.60
   4   7  -3  368.66   18.10
   4  -7   3  363.06   17.60
   4  -7   3  302.97   30.60
   4   7  -3  379.56   40.70
   4  -7  -3  348.87   18.20
   4  -7  -3  335.37   16.80
   4   7   3  338.57   18.60
  -4  -7   3  334.17   17.30
   0   8   3   26.10    3.10
   0  -8  -3   21.50    2.40
   0  -8   3   22.70    2.50
   0   8  -3   19.30    2.70
   0   8  -3   29.70    5.90
   0   8  -3   21.60    2.90
   1   8  -3  118.09   10.50
   1   8  -3  120.59    7.30
   1   8  -3  117.89    7.10
  -1   8   3  120.19    7.00
  -1   8   3  111.49    7.30
   1   8  -3  125.29    7.00
   1  -8   3  135.39    6.90
   1  -8   3  126.89    7.40
   1  -8  -3  132.19    7.20
   1   8   3  117.29   10.00
   1   8   3  153.88    7.60
  -1  -8   3  126.29    7.20
   1  -8  -3  129.69    7.10
  -1   8  -3  116.49    7.20
   2   8  -3  444.66   22.00
   2  -8   3  437.66   22.30
   2  -8   3  432.16   21.60
   2   8  -3  434.76   22.40
   2   8  -3  462.55   22.20
   2   8  -3  422.56   25.90
  -2  -8   3  384.86   19.20
   2  -8  -3  389.16   19.00
  -2   8  -3  391.86   19.40
   2   8   3  388.46   19.90
   2   8   3  391.36   19.40
   2   8   3  391.56   19.50
   2  -8  -3  355.96   19.30
   2   8   3  376.56   21.40
   3   8  -3 2691.23  122.59
   3   8  -3 2259.17  147.29
   3  -8   3 2231.88  137.89
   3  -8   3 2617.74  122.39
   3   8  -3 2610.54  122.29
   3   8  -3 2679.23  121.99
   3  -8   3 2596.64  121.39
   3   8  -3 2549.65  125.49
   3   8  -3 2611.64  121.89
   3  -8   3 2598.64  123.39
   3   8   3 2433.86  120.89
   3  -8  -3 2583.64  119.19
   3   8   3 2527.65  119.69
   3  -8  -3 2502.45  120.49
   3   8   3 2323.77  119.99
   3   8   3 2605.54  120.29
  -3  -8   3 2528.35  119.49
   3   8   3 2366.46  120.99
   3   8   3 2615.84  119.79
   4  -8   3  279.07   14.20
   4  -8   3  295.07   16.30
   4   8  -3  277.87   30.40
   4   8  -3  281.17   18.80
   4   8  -3  297.97   14.70
   4  -8  -3  267.27   13.10
   4   8   3  255.77   13.40
   4   8   3  258.37   14.80
   4  -8  -3  262.27   14.30
   0   9   3  167.38    9.70
   0  -9   3  194.88    9.30
   0   9  -3  176.28    9.40
   0   9   3  168.48    9.40
   0   9  -3  180.28   12.60
   0  -9  -3  164.48    9.10
   0   9   3  153.98   12.00
   1   9  -3  274.27   17.70
  -1   9   3  276.47   14.60
   1  -9   3  299.07   14.70
  -1   9   3  280.97   14.90
   1   9  -3  287.37   14.90
   1   9  -3  292.67   14.60
   1   9  -3  274.27   14.70
   1   9   3  326.37   15.90
   1   9   3  310.97   16.20
  -1   9  -3  287.37   15.60
   1  -9  -3  295.87   15.60
  -1  -9   3  315.67   15.60
   1   9   3  289.77   18.10
   1  -9  -3  320.47   15.40
   2   9  -3 1116.49   52.99
   2  -9   3 1101.69   53.09
  -2   9   3 1066.19   53.09
   2   9  -3 1094.09   52.89
   2   9  -3 1061.69   55.99
   2  -9   3 1095.59   52.49
   2   9  -3 1093.49   53.19
   2   9   3 1104.69   52.29
   2   9   3 1025.40   53.49
  -2   9  -3 1027.10   51.59
  -2  -9   3 1072.49   51.49
   2  -9  -3  989.90   52.19
   2   9   3 1120.09   51.89
   2  -9  -3 1123.39   51.29
   3   9  -3  164.78    9.20
   3  -9   3  169.18   10.50
   3   9  -3  178.68   13.40
   3   9  -3  166.98   10.20
   3   9  -3  168.18    9.50
   3   9  -3  174.48    9.90
   3  -9   3  166.68    9.70
   3  -9   3  160.78    9.70
   3   9   3  156.58    9.00
   3   9   3  160.68   10.60
   3   9   3  166.98   11.30
   3   9   3  170.98    9.90
   3  -9  -3  158.48    9.90
   3   9   3  167.78   11.80
   3  -9  -3  183.98    9.00
   4   9  -3   40.60    3.40
   4  -9   3   39.80    2.70
   4  -9   3   40.80    5.40
   4  -9  -3   47.30    3.00
   4  -9  -3   46.50    4.70
   0  10  -3  305.87   19.00
   0  10   3  302.67   18.90
   0  10  -3  305.27   16.10
   0  10   3  331.17   16.20
   0  10  -3  305.77   16.30
   0  10   3  323.07   16.50
   0 -10   3  323.17   16.00
   1 -10   3 3677.03  167.78
  -1  10   3 3630.24  167.78
  -1  10   3 3421.26  167.88
   1  10  -3 3637.04  167.88
  -1  10   3 3014.50  169.28
   1  10  -3 3620.74  168.08
   1  10  -3 3599.74  170.18
  -1  10  -3 3166.58  166.28
   1 -10  -3 3238.38  163.98
   1  10   3 3589.74  164.68
  -1 -10   3 3407.96  163.98
  -1  10  -3 3430.86  164.08
   1  10   3 3413.76  165.88
   1 -10  -3 3559.84  163.88
   1  10   3 3702.63  164.38
   2  10  -3   14.60    3.00
   2 -10   3   20.30    3.00
   2  10  -3   25.70    7.70
   2  10  -3   20.40    3.40
   2  10  -3   21.00    2.60
  -2 -10   3   22.70    3.00
   2  10   3   17.20    3.10
   2 -10  -3   20.10    3.20
   2 -10  -3   17.20    2.40
  -2  10  -3   15.60    3.40
   3 -10   3  108.49    6.00
   3 -10   3  106.69    7.40
   3  10  -3  116.49    6.50
   3  10  -3  118.49    7.20
   3  10  -3  101.79   10.50
   3 -10  -3   97.39    6.60
   3  10   3  100.99    6.70
   3 -10  -3  100.09    5.50
   0  11  -3   10.60    2.40
   0  11   3    7.70    1.70
   0  11   3   10.90    6.30
   0 -11   3   11.20    2.40
   1  11  -3   25.80    6.00
   1  11  -3   21.20    3.70
   1  11  -3   16.80    2.70
  -1  11   3   18.50    6.80
   1 -11   3   17.40    2.70
  -1  11   3   21.50    3.00
   1  11   3   10.40    2.60
  -1  11  -3   12.50    2.00
  -1  11  -3   16.70    5.40
   1  11   3   12.60    2.60
  -1 -11   3   15.70    2.50
   2  11  -3  692.13   33.00
   2 -11   3  652.03   32.90
   2  11  -3  665.33   35.20
   2  11  -3  680.23   33.30
   2  11   3  699.33   32.40
   2  11   3  669.13   32.60
  -2  11  -3  590.14   34.60
   2 -11  -3  683.13   31.80
   2 -11  -3  644.84   32.70
   3  11   3    9.10    2.70
   0  12   3  821.32   40.40
   0  12   3  825.92   40.60
   0  12  -3  930.21   40.70
   0  12  -3  803.42   42.50
   0 -12   3  764.12   40.10
  -1  12   3    8.90    1.90
   1 -12   3   13.40    2.70
   1  12  -3   11.20    2.50
   1  12  -3   10.70    5.00
   1  12  -3   10.50    3.20
  -1  12  -3   10.20    6.00
  -1 -12   3   16.90    3.40
   1 -12  -3   12.00    3.60
  -1  12  -3   12.00    2.10
   1  12   3    9.50    2.40
   1  12   3   10.10    2.50
   2  12  -3  264.17   13.70
   2 -12   3  232.18   12.80
   2  12  -3  243.68   12.60
   2 -12   3  229.08   12.40
   2  12   3  246.18   12.40
   2  12   3  228.48   12.50
   0  13   3    2.70    1.50
   0  13  -3    2.90    1.30
   0   0  -4 1083.09   47.10
   0   0   4  903.31   47.00
   0   0  -4  965.10   47.00
   1   0  -4  628.14   30.70
   1   0  -4  627.14   30.90
   1   0  -4  652.73   31.10
   1   0   4  637.64   30.80
   2   0  -4 3598.54  155.68
  -2   0  -4 3406.06  155.58
   2   0   4 2883.61  155.68
   2   0   4 3212.68  155.78
   3   0   4 1263.97   62.99
   3   0   4 1337.27   82.99
   3   0   4 1188.48   62.69
   3   0  -4 1423.16   63.39
   3   0  -4 1449.95   63.89
   3   0  -4 1175.78   87.29
   3   0  -4 1341.97   62.89
   3   0   4 1202.28   62.99
   3   0  -4 1406.36   63.29
   4   0  -4 5061.49  220.78
   4   0   4 4151.38  220.28
   4   0  -4 4549.54  255.57
   4   0  -4 4481.55  219.98
   4   0  -4 4867.01  221.38
   5   0  -4  102.59   22.60
   5   0  -4  101.09    6.20
   5   0  -4   96.29    6.80
   5   0  -4   94.69    6.90
   1  -1   4 1819.82   88.89
   1   1  -4 1784.72   88.99
  -1   1   4 1988.60   88.89
   1   1   4 1936.01   90.39
   1   1   4 1846.62   90.09
   2   1  -4  161.38    8.50
   2   1  -4  175.88    8.70
   2   1  -4  171.88    9.00
   2   1  -4  164.78    8.20
   2  -1   4  150.78    8.20
   2  -1   4  159.08    8.50
   2   1   4  157.18    8.20
   2  -1  -4  173.58    8.10
   2   1   4  155.18    8.20
   2   1   4  152.48    8.20
   2  -1  -4  170.08    8.60
   2   1   4  151.38    8.10
   2   1   4  168.48    8.50
   2  -1  -4  168.68    8.50
   3  -1   4 1317.37   63.89
   3   1  -4 1150.58   89.79
   3  -1   4 1212.08   63.19
   3   1  -4 1438.16   63.89
   3   1  -4 1260.37   63.49
   3  -1   4 1307.07   63.69
   3   1  -4 1436.56   65.49
   3   1  -4 1458.75   64.09
   3  -1  -4 1220.08   86.09
   3  -1  -4 1319.47   63.29
   3  -1  -4 1390.16   63.89
   3  -1  -4 1406.76   63.79
   3   1   4 1244.28   63.19
   3   1   4 1277.27   63.29
   3   1   4 1180.18   63.39
   3   1   4 1327.97   83.69
   3   1   4 1309.67   63.79
   3  -1  -4 1513.45   64.39
   4   1  -4 1659.63   85.49
   4   1  -4 1781.82   86.89
   4   1  -4 1816.12   86.19
   4  -1   4 1683.83   85.89
   4  -1   4 2005.20  112.69
   4   1  -4 1924.91   86.19
   4   1  -4 1626.44  119.49
   4  -1  -4 1593.54   83.89
   4  -1  -4 1840.72   84.69
   4   1   4 1869.71  111.29
   4  -1  -4 1672.63  112.29
   4  -1  -4 1786.82   84.79
   5   1  -4   44.00   19.40
   5   1  -4   33.40    3.80
   5   1  -4   29.60    4.20
   5  -1  -4   38.00    3.80
   5  -1  -4   44.40    5.10
   5  -1  -4   49.20   16.80
   5   1   4   50.89   16.20
   5  -1  -4   37.40    4.50
   1   2  -4 4180.38  202.58
   1  -2   4 4092.99  202.18
  -1   2   4 4065.69  203.58
  -1   2  -4 4576.54  211.28
   1  -2  -4 3942.51  209.68
   2   2  -4 3251.17  154.78
   2   2   4 2947.51  137.99
   2  -2  -4 3000.00  137.79
   2   2   4 2743.53  138.39
   2   2   4 2903.11  137.89
   3  -2   4 3290.07  166.58
   3   2  -4 3178.88  145.69
   3  -2   4 2917.81  144.19
   3  -2   4 3108.29  144.89
   3   2  -4 2645.14  176.28
   3   2   4 2450.45  132.09
   3  -2  -4 2868.41  132.09
   3   2   4 2709.73  132.19
   3   2   4 2850.31  154.78
   3  -2  -4 3059.69  132.79
   3  -2  -4 2637.34  154.48
   3   2   4 2683.93  132.09
   3   2   4 2912.31  132.89
   4   2  -4    8.60    2.00
   4  -2   4    6.20    1.70
   4   2  -4    6.10    2.60
   4  -2   4    6.20    2.60
   4   2  -4    8.50    2.40
   4   2  -4    6.80    2.10
   4   2  -4    9.30   11.80
   4  -2  -4    7.10    1.50
   4  -2  -4    7.70    2.30
   4   2   4    4.90    1.80
   4  -2  -4    5.40    8.30
   4   2   4    3.00    7.30
   4  -2  -4    5.50    2.20
   5  -2   4  384.16   35.30
   5   2  -4  318.17   17.80
   5   2  -4  343.47   43.80
   5   2  -4  338.27   17.90
   5  -2  -4  361.16   19.40
   5  -2  -4  375.36   35.80
   5   2   4  416.06   38.40
   5  -2  -4  354.76   18.30
   5  -2  -4  328.17   19.00
   1  -3   4  967.70   47.80
   1   3  -4  992.00   47.50
   1   3  -4  966.40   47.60
   1   3  -4 1045.00   48.70
  -1   3   4  990.40   47.50
   1   3   4  949.11   46.60
   1   3   4  980.80   47.10
   1  -3  -4  981.80   46.60
   1   3   4  959.40   46.80
   1   3   4  994.10   46.70
  -1   3  -4  965.00   46.40
   2  -3   4  980.70   46.90
   2   3  -4  968.60   47.00
   2   3  -4 1004.50   46.70
   2  -3   4  925.71   46.80
   2   3  -4  965.40   47.80
   2   3  -4  956.80   46.90
   2   3  -4  950.40   46.70
   2   3  -4 1007.80   47.10
   2   3  -4  989.90   47.00
   2  -3  -4  925.31   42.60
   2   3   4  880.21   42.50
   2   3   4  812.82   42.00
   2  -3  -4  863.31   41.90
  -2  -3   4  904.61   42.30
   2  -3  -4  861.31   42.10
   2   3   4  881.41   42.50
   2   3   4  889.11   42.20
   2   3   4  860.91   42.10
   3   3  -4 1012.70   88.99
   3  -3   4 1187.18   57.89
   3   3  -4 1193.28   58.69
   3   3  -4 1266.37   57.79
   3  -3   4 1111.69   56.99
   3   3  -4 1207.28   57.59
   3   3  -4 1214.88   57.19
   3  -3   4 1273.57   77.19
   3   3  -4 1247.68   57.69
   3  -3  -4 1171.18   54.09
   3   3   4 1067.79   53.39
   3   3   4 1063.79   53.39
   3   3   4 1126.89   74.49
   3   3   4 1077.79   53.09
  -3  -3   4 1174.58   53.49
   3  -3  -4 1184.78   53.99
   3   3   4 1037.20   53.59
   3   3   4 1092.09   53.99
   3  -3  -4 1095.39   73.29
   4   3  -4 1498.15   71.79
   4   3  -4 1429.96   72.89
   4   3  -4 1599.14   71.89
   4  -3   4 1646.64   95.29
   4  -3   4 1405.96   71.89
   4  -3   4 1414.96   70.99
   4   3  -4 1391.16  111.79
   4  -3   4 1474.65   71.99
   4  -3  -4 1493.85   93.29
   4  -3  -4 1481.05   71.19
   4   3   4 1549.45   96.49
   4  -3  -4 1566.24   71.29
   4   3   4 1386.56   71.19
   4  -3  -4 1485.85   70.29
   4   3   4 1286.07   70.29
   5   3  -4  279.07   15.00
   5   3  -4  299.47   18.50
   5   3  -4  284.47   40.60
   5  -3   4  313.77   30.20
   5   3  -4  257.27   14.90
   5  -3  -4  275.27   15.90
   5  -3  -4  289.07   28.40
   5   3   4  319.97   32.30
   5  -3  -4  260.17   15.20
   5  -3  -4  267.97   14.20
   0   4  -4  245.88   12.40
   0  -4  -4  225.18   12.20
   0   4  -4  236.78   12.30
   0   4   4  268.37   12.80
   0  -4   4  264.97   12.50
   1  -4   4 8106.89  396.56
  -1   4  -4 8494.05  417.06
   2  -4   4  420.56   23.00
   2  -4   4  506.75   38.80
   2   4  -4  460.25   23.40
   2   4  -4  484.55   23.50
   2   4  -4  486.85   24.80
   2  -4   4  439.36   23.40
   2   4  -4  491.55   23.50
   2   4  -4  471.55   23.10
   2   4  -4  490.45   23.30
   2   4  -4  484.45   23.20
   2  -4  -4  494.75   23.60
   2   4   4  434.16   23.40
   2   4   4  475.65   23.70
   2   4   4  491.85   23.60
   2   4   4  506.55   23.10
   2  -4  -4  448.96   23.00
   2   4   4  459.75   23.20
   3  -4   4 3547.34  169.28
   3   4  -4 3695.23  169.48
   3  -4   4 3463.15  168.68
   3  -4   4 3512.15  169.88
   3   4  -4 3582.94  170.88
   3   4  -4 3479.75  169.38
   3   4  -4 3522.05  168.88
   3   4   4 3083.79  174.48
   3   4   4 3222.18  152.88
   3  -4  -4 3572.24  153.68
   3   4   4 3110.89  152.58
   3   4   4 2990.50  153.18
   3   4   4 3308.57  153.68
   3  -4  -4 3236.08  152.58
   3   4   4 3106.59  152.88
   4  -4   4  467.85   24.10
   4  -4   4  530.75   43.30
   4   4  -4  466.75   58.99
   4  -4   4  494.65   25.40
   4   4  -4  494.95   24.80
   4   4  -4  463.75   26.30
   4   4  -4  521.35   24.80
   4  -4  -4  490.75   24.50
   4  -4  -4  533.25   25.90
   4  -4  -4  522.15   42.50
   4   4   4  482.65   25.80
   4   4   4  461.55   24.70
   4  -4  -4  485.15   25.60
   4   4   4  523.85   45.80
   5  -4   4  359.16   31.70
   5  -4   4  327.77   17.10
   5   4  -4  365.56   44.20
   5   4  -4  340.47   17.80
   5  -4  -4  362.56   29.90
   5  -4  -4  335.97   17.70
   5   4   4  410.96   34.60
   5  -4  -4  324.57   18.80
   0   5   4 8138.79  386.86
   1  -5   4 1614.04   81.69
   1   5  -4 1670.23   81.79
   1   5  -4 1800.62   81.99
  -1   5   4 1771.32   82.09
   1  -5   4 1826.82   82.09
   1   5  -4 1662.23   83.89
   1  -5   4 1750.62   81.69
  -1   5   4 1626.04   81.69
   1   5  -4 1653.03   81.69
   1   5   4 1553.24   76.59
   1   5   4 1558.14   77.29
   1  -5  -4 1573.54   76.49
  -1  -5   4 1636.64   76.69
   1   5   4 1695.63   76.79
  -1   5  -4 1618.14   76.39
   1   5   4 1691.13   76.99
   1   5   4 1468.75   76.69
   2   5  -4  923.51   44.20
   2  -5   4  918.81   60.59
   2   5  -4  877.31   44.10
  -2   5   4  870.31   43.70
   2   5  -4  880.41   46.00
   2  -5   4  893.01   43.70
   2  -5   4  916.81   44.30
   2   5  -4  938.31   44.20
   2   5  -4  901.81   43.90
   2   5  -4  904.51   44.00
   2   5  -4  957.60   43.80
   2   5   4  834.42   40.90
   2   5   4  842.62   40.70
   2   5   4  862.31   40.30
   2   5   4  783.32   40.30
   2  -5  -4  814.52   40.60
   2  -5  -4  855.31   40.00
   2   5   4  816.42   40.10
   3   5  -4 2929.71  141.29
   3   5  -4 3070.09  141.79
   3   5  -4 2986.20  141.89
   3   5  -4 2496.85  179.38
   3  -5   4 2945.21  141.09
   3   5  -4 3086.79  141.69
   3  -5   4 3223.88  163.78
   3   5  -4 3036.30  141.89
   3  -5   4 2913.01  142.59
   3   5  -4 2960.80  143.79
   3  -5   4 2909.41  141.89
   3   5   4 2670.13  156.08
   3  -5  -4 2901.91  135.19
   3   5   4 2793.22  134.19
   3  -5  -4 2881.91  133.99
   3   5   4 2833.12  135.19
   3   5   4 2786.92  134.69
   4  -5   4  164.48   10.30
   4   5  -4  160.98   11.70
   4   5  -4  153.28    8.90
   4  -5   4  170.18   22.60
   4   5  -4  162.88    9.00
   4  -5   4  141.89    8.30
   4   5  -4  145.29   34.50
   4   5   4  148.89    8.50
   4  -5  -4  172.78   10.10
   4   5   4  155.88   24.00
   4  -5  -4  152.78    8.20
   4  -5  -4  168.38   22.20
   4   5   4  131.39    9.90
   4  -5  -4  149.09    9.30
   4   5   4  137.39   10.30
   5   5  -4   41.50   17.90
   5   5  -4   39.30    3.70
   5  -5   4   40.50   11.50
   5  -5   4   39.70    3.10
   5   5   4   42.60   13.60
   5  -5  -4   44.80    3.00
   5  -5  -4   37.20    4.70
   0   6  -4    6.80    1.50
   0  -6   4    8.60    1.80
   0  -6  -4    7.40    1.60
   0   6   4   11.50    2.40
   1   6  -4 3579.74  180.98
  -1   6   4 3714.83  178.78
   1   6  -4 3787.52  178.78
   1  -6   4 3902.01  178.28
   1  -6  -4 3385.56  162.68
   1   6   4 3648.54  163.38
   1   6   4 3246.98  162.98
   1   6   4 3393.46  163.88
   1  -6  -4 3408.66  162.48
  -2   6   4  529.65   25.60
  -2   6   4  499.35   25.20
   2  -6   4  566.14   25.90
   2   6  -4  525.05   25.40
   2  -6   4  469.15   41.00
   2   6  -4  520.95   25.40
   2   6  -4  447.56   28.10
   2   6  -4  549.65   25.80
   2   6   4  480.65   25.90
   2  -6  -4  505.15   26.20
   2   6   4  519.55   25.80
  -2   6  -4  541.65   25.60
   2   6   4  506.85   26.70
   2   6   4  541.65   26.30
   2   6   4  524.65   25.80
   2  -6  -4  533.65   25.50
  -2  -6   4  552.44   25.80
   3   6  -4 3106.59  144.29
   3   6  -4 2973.60  147.49
   3  -6   4 3003.60  143.99
   3   6  -4 3096.49  144.89
   3   6  -4 3180.58  144.59
   3  -6   4 3064.69  146.09
   3  -6   4 3015.70  145.09
   3   6  -4 2553.34  180.58
   3  -6   4 3110.39  165.78
   3   6  -4 3101.89  144.89
   3  -6  -4 3135.09  141.59
   3   6   4 2955.80  141.89
   3   6   4 2815.72  141.99
   3   6   4 2927.51  142.79
   3   6   4 2790.72  142.59
   3   6   4 3090.19  142.69
   3  -6  -4 3068.39  142.69
   4  -6   4  772.32   38.30
   4   6  -4  728.23   39.80
   4   6  -4  697.33   67.49
   4  -6   4  750.92   53.79
   4   6  -4  786.82   36.80
   4  -6  -4  687.83   34.40
   4  -6  -4  735.13   33.50
   4  -6  -4  752.32   34.90
  -4  -6   4  685.93   33.60
   4   6   4  656.53   33.50
   4   6   4  584.14   34.50
   0   7  -4 1335.27   62.49
   0   7  -4 1233.98   64.49
   0   7   4 1315.67   62.89
   0   7   4 1191.48   63.99
   0   7   4 1324.67   62.59
   0   7  -4 1349.16   62.49
   0  -7  -4 1243.98   62.19
   0  -7   4 1400.86   62.59
   1  -7   4 1124.89   51.89
   1   7  -4 1085.69   51.69
   1   7  -4 1074.49   54.59
  -1   7   4 1009.10   51.69
   1  -7   4 1133.29   51.49
   1   7  -4 1061.49   51.89
   1   7  -4 1041.40   51.69
  -1   7   4 1035.60   51.89
   1  -7  -4 1013.50   48.30
   1   7   4  966.40   48.90
   1   7   4 1024.30   48.80
  -1  -7   4 1038.10   48.70
   1  -7  -4 1019.50   48.60
   1   7   4  963.10   49.99
   1   7   4 1023.60   49.10
   2  -7   4  253.57   30.30
  -2   7   4  290.77   15.20
  -2   7   4  295.77   15.60
   2   7  -4  316.27   15.70
   2   7  -4  255.47   19.00
   2  -7   4  316.07   15.00
   2   7  -4  324.37   15.50
   2  -7   4  335.57   15.90
   2  -7  -4  303.67   14.50
   2   7   4  307.77   15.40
   2   7   4  261.77   15.10
   2   7   4  293.87   14.90
   2   7   4  275.97   16.10
  -2   7  -4  288.77   14.70
   3   7  -4  166.98   14.50
   3  -7   4  197.08   10.00
   3   7  -4  177.88   34.10
   3  -7   4  187.28   12.20
   3   7  -4  203.68   11.20
   3  -7   4  198.48   11.30
   3  -7   4  163.28   23.80
   3   7  -4  204.88   10.60
   3   7  -4  208.78   11.40
   3   7  -4  211.08   10.50
  -3  -7   4  204.68   10.50
   3  -7  -4  195.08   10.00
   3  -7  -4  200.58   11.20
   3   7   4  180.28   12.40
   3   7   4  180.38   12.00
   3   7   4  198.08   10.30
   3   7   4  177.88   11.40
   3   7   4  196.58   11.30
   3   7   4  189.28   10.70
   4   7  -4  498.45   30.70
   4  -7   4  563.44   26.90
   4   7  -4  578.84   52.89
   4  -7   4  491.65   40.90
   4  -7   4  633.84   30.20
   4  -7  -4  589.94   29.40
   4  -7  -4  571.14   28.00
   4   7   4  559.34   28.30
   4   7   4  541.55   29.70
  -4  -7   4  616.14   28.90
   0  -8  -4 4850.61  234.08
   0   8   4 4702.93  237.78
   0   8  -4 5065.39  236.88
   0   8  -4 5069.69  234.48
  -1   8   4 2486.65  120.39
   1   8  -4 2403.76  121.39
   1   8  -4 2447.85  123.09
   1  -8   4 2670.03  121.29
   1   8  -4 2593.34  120.49
  -1   8   4 2403.46  120.59
   1   8  -4 2463.35  120.69
   1  -8   4 2670.53  120.19
   1  -8  -4 2289.47  110.29
   1   8   4 2208.18  111.89
  -1   8  -4 2276.37  110.39
   1  -8  -4 2562.24  110.99
   1   8   4 2205.88  111.29
  -2   8   4 1578.34   77.59
   2  -8   4 1650.73   77.79
   2   8  -4 1635.54   77.79
   2   8  -4 1619.64   77.49
   2  -8   4 1636.54   77.09
  -2   8   4 1456.15   77.39
   2   8  -4 1672.33   77.59
   2   8  -4 1625.84   81.09
  -2   8  -4 1567.04   75.59
   2  -8  -4 1470.75   76.19
   2   8   4 1491.65   76.89
   2  -8  -4 1636.34   75.29
  -2  -8   4 1599.64   75.59
   2   8   4 1623.84   75.89
   2   8   4 1627.54   76.29
   2   8   4 1570.04   75.79
   3   8  -4  763.32   36.40
   3  -8   4  655.03   51.49
   3  -8   4  763.82   37.00
   3   8  -4  744.13   40.30
   3   8  -4  770.12   37.00
   3   8  -4  773.92   36.40
   3  -8   4  750.62   36.00
   3   8  -4  657.73   60.99
   3   8  -4  759.32   36.80
   3  -8   4  781.42   38.10
   3  -8  -4  750.42   35.30
  -3  -8   4  730.73   35.60
   3   8   4  749.13   36.40
   3   8   4  712.73   35.70
   3  -8  -4  722.63   36.40
   3   8   4  760.22   36.00
   3   8   4  705.63   37.30
   3   8   4  694.43   36.30
   4   8  -4   37.30    3.20
   4  -8   4   39.40   12.40
   4  -8   4   36.30    5.60
   4  -8   4   30.50    2.60
   4   8  -4   32.60   16.40
   4   8   4   31.30    6.90
   4  -8  -4   38.40    2.70
   4  -8  -4   40.00    4.20
   0   9  -4  842.42   41.10
   0   9   4  883.61   41.30
   0   9   4  845.02   41.40
   0  -9   4  917.11   41.10
   0   9   4  733.23   42.70
   0   9  -4  840.42   43.80
   1   9  -4  463.35   25.70
   1  -9   4  476.45   22.80
   1   9  -4  468.75   22.70
   1   9  -4  446.66   22.90
  -1   9   4  446.56   22.70
   1   9  -4  435.06   22.70
  -1   9   4  447.56   23.00
  -1  -9   4  416.66   20.70
   1  -9  -4  424.36   20.40
   1   9   4  399.16   22.80
  -1   9  -4  412.96   20.80
   1   9   4  410.16   21.20
   1   9   4  448.46   21.00
   1  -9  -4  386.96   20.60
   2  -9   4  106.19    6.80
   2   9  -4  110.79    6.70
   2   9  -4  111.89   11.00
   2   9  -4  126.89    7.30
   2   9  -4  103.99    6.90
   2   9  -4  112.39    9.00
   2  -9   4  101.99    6.10
   2   9  -4  106.29    6.50
   2   9   4  120.29    6.90
   2   9   4  104.49    7.20
   2  -9  -4   95.79    7.00
  -2   9  -4  121.99    6.70
  -2  -9   4  107.39    6.50
   2  -9  -4  113.79    6.20
   3   9  -4  512.05   25.60
   3  -9   4  502.85   25.60
   3  -9   4  525.05   26.50
   3   9  -4  532.05   28.60
   3   9  -4  487.95   25.80
   3  -9   4  500.15   24.80
   3   9  -4  489.95   25.20
   3   9  -4  508.95   25.20
   3   9   4  593.84   29.50
   3  -9  -4  494.25   27.30
   3   9   4  587.24   28.10
   3   9   4  505.55   27.20
   3  -9  -4  528.55   26.30
   0  10  -4  336.87   16.90
   0  10   4  335.27   17.20
   0  10   4  336.07   16.90
   0  10  -4  331.37   19.80
   0 -10   4  330.37   16.70
   0  10  -4  335.07   17.00
   0  10   4  299.67   19.30
  -1  10   4  480.85   23.40
   1  10  -4  475.05   23.40
   1 -10   4  487.25   23.40
   1  10  -4  485.05   26.20
   1  10  -4  481.75   23.70
  -1  10   4  400.96   25.60
  -1  10   4  461.45   23.60
   1 -10  -4  427.76   23.00
   1  10   4  487.45   23.50
   1  10   4  481.45   23.70
  -1  10  -4  463.15   23.20
  -1 -10   4  478.75   23.10
  -1  10  -4  453.45   26.00
   2  10  -4  664.43   33.00
   2  10  -4  675.83   33.60
   2 -10   4  667.73   33.20
   2  10  -4  651.13   32.90
   2  10  -4  670.73   33.40
   2  10  -4  688.83   35.80
   2  10  -4  692.53   33.20
   2  10   4  671.63   31.80
   2  10   4  648.14   32.10
  -2  10  -4  610.24   31.50
   2 -10  -4  626.14   32.10
  -2 -10   4  656.13   31.50
   3  10  -4  227.68   17.20
   3 -10   4  265.37   14.30
   3  10  -4  272.67   13.90
   3  10  -4  273.07   13.50
   3  10   4  261.17   13.80
   3 -10  -4  262.37   12.80
   3 -10  -4  243.88   13.70
   0  11   4  407.06   20.70
   0  11  -4  415.26   23.50
   0  11  -4  403.76   20.40
   0  11   4  399.36   20.40
   0 -11   4  397.36   20.20
  -1  11   4  425.66   21.20
   1  11  -4  424.76   21.50
   1 -11   4  411.16   21.10
   1  11  -4  427.36   23.60
   1  11  -4  421.76   21.20
   1 -11  -4  389.36   21.60
  -1  11  -4  423.96   24.00
   1  11   4  445.56   21.70
   1  11   4  441.56   21.40
  -1 -11   4  420.96   21.10
  -1  11  -4  426.96   21.20
   2 -11   4  133.99    7.70
   2  11  -4  135.29   11.10
   2  11  -4  136.39    7.80
   2  11  -4  133.79    8.10
  -2 -11   4  130.29    7.50
   2  11   4  135.29    7.90
   2 -11  -4  134.49    7.00
  -2  11  -4  119.39   11.60
   2 -11  -4  127.89    8.00
   2  11   4  136.49    7.70
   0  12   4  849.72   41.50
   0  12  -4  880.61   41.20
   0  12   4  862.71   41.20
   0  12  -4  841.52   43.30
   0 -12   4  799.92   41.00
  -1  12   4  307.07   15.60
   1  12  -4  301.77   18.20
   1  12  -4  314.97   15.60
   1 -12   4  301.47   15.50
  -1  12  -4  310.87   15.90
  -1 -12   4  311.87   15.80
   1  12   4  324.97   16.30
  -1  12  -4  299.97   19.00
   1  12   4  324.27   16.00
   2 -12   4  196.68   10.40
   2  12   4  225.88   11.80
   2  12   4  217.88   11.90
  -1   0   5 7209.48  349.47
   3   0   5 3981.20  192.68
   3   0   5 3416.66  168.98
   3   0   5 3419.66  169.18
   3   0  -5 3623.24  168.98
   3   0  -5 3291.37  197.38
   4   0  -5  791.22   39.20
   4   0   5  889.61   62.79
   4   0  -5  801.92   39.20
   4   0  -5  726.03   38.50
   4   0  -5  754.32   67.29
   4   0  -5  795.52   39.70
   5   0  -5 1587.94   75.49
  -5   0   5 1587.74   75.69
   5   0  -5 1589.14   76.19
   5   0  -5 1602.34  103.99
   5   0  -5 1503.65   75.99
   0   1  -5  782.62   37.10
   0   1  -5  749.33   37.30
   0   1  -5  752.12   37.20
   0   1   5  696.13   37.30
   0   1  -5  839.22   37.70
   1   1   5 3165.88  142.39
   1   1   5 2805.62  141.99
   2   1  -5 2077.49   95.09
   2   1  -5 1958.80   94.59
   2  -1   5 1900.11   94.49
   2  -1  -5 1990.70   87.99
   2   1   5 1708.83   87.49
   2  -1  -5 1957.10   87.49
  -2   1  -5 1847.62   87.39
   2   1   5 1721.83   87.59
   2   1   5 1839.52   87.59
   2   1   5 1883.41   87.89
   2   1   5 1750.02   87.69
   3   1  -5 1754.32   78.79
   3   1  -5 1728.43   79.49
   3   1  -5 1743.03   78.89
   3  -1   5 1563.84   78.69
   3  -1   5 1489.65   78.09
   3   1  -5 1441.86  106.99
   3  -1   5 1798.62   99.99
   3  -1   5 1563.74   78.49
   3   1   5 1451.05   75.09
   3  -1  -5 1721.63   75.59
   3   1   5 1404.96   74.79
   3  -1  -5 1413.16   98.69
   3  -1  -5 1608.04   74.99
   3   1   5 1664.73   96.39
   3  -1  -5 1689.43   75.59
   4   1  -5  138.29    9.10
   4  -1   5  161.68   24.00
   4   1  -5  153.48    8.60
   4   1  -5  129.49   29.90
   4  -1   5  128.69    8.70
   4   1  -5  127.19    8.00
   4   1  -5  142.29    8.40
   4   1   5  168.38   25.30
   4  -1  -5  162.18    9.20
   4  -1  -5  148.99    8.40
   4  -1  -5  142.89   26.90
   4  -1  -5  143.89    9.10
   5   1  -5  463.35   25.00
   5   1  -5  491.05   50.39
   5  -1   5  574.84   45.00
   5   1  -5  497.75   25.10
   5   1  -5  458.75   24.90
   5  -1  -5  461.55   24.80
   5  -1  -5  520.75   45.50
   5  -1  -5  499.25   25.10
   5  -1  -5  488.65   24.30
   0   2  -5 4354.76  206.78
   0  -2  -5 4077.59  205.68
   0   2  -5 4433.76  206.88
   0   2   5 3883.11  204.88
  -1   2   5 8134.39  395.46
   2  -2  -5 5753.72  273.47
   3   2  -5  692.53   33.50
   3   2  -5  700.43   34.80
   3  -2   5  707.23   51.39
   3   2  -5  714.23   33.40
   3  -2   5  602.34   32.70
   3  -2   5  656.53   33.30
   3   2   5  571.14   46.00
   3   2   5  540.65   27.60
   3   2   5  485.35   27.60
   3  -2  -5  537.45   47.70
   3   2   5  529.25   27.90
   3  -2  -5  569.74   28.20
   3   2   5  583.24   28.20
   3  -2  -5  653.43   28.40
   3  -2  -5  633.54   28.40
   4  -2   5  743.83   38.20
   4  -2   5  876.51   60.79
   4   2  -5  748.43   37.80
   4  -2   5  729.93   37.50
   4   2  -5  848.12   38.40
   4   2  -5  800.22   38.30
   4  -2   5  728.43   38.20
   4   2  -5  791.52   39.20
   4   2  -5  714.23   72.59
   4  -2  -5  769.12   37.90
   4  -2  -5  745.93   60.29
  -4  -2   5  757.72   37.20
   4  -2  -5  788.32   37.90
   4  -2  -5  702.63   37.00
   4   2   5  806.12   60.19
   5  -2   5   33.90   12.60
   5   2  -5   34.10    3.70
   5   2  -5   31.10    4.00
   5   2  -5   36.00   19.90
   5   2   5   39.80   14.30
   5  -2  -5   35.80    5.40
   5  -2  -5   34.90   13.50
   5  -2  -5   36.00    3.30
   0   3  -5 1552.04   74.09
   0   3   5 1436.56   74.09
   0   3  -5 1474.25   73.99
   0   3  -5 1575.64   74.19
   0  -3   5 1726.73   74.29
  -1   3   5 7026.70  344.77
  -1   3  -5 7453.55  340.97
   1  -3  -5 6371.36  338.07
   2   3  -5  890.41   43.10
   2  -3   5  795.92   41.90
   2   3  -5  894.11   42.20
   2   3  -5  901.01   42.40
   2  -3   5  806.22   42.10
   2   3  -5  863.01   42.20
   2   3  -5  934.21   41.90
   2  -3   5  880.41   57.79
   2   3  -5  879.11   42.30
   2   3  -5  859.91   41.90
   2   3   5  795.62   37.00
   2   3   5  757.52   37.40
   2   3   5  775.52   37.00
   2  -3  -5  793.92   38.30
  -2  -3   5  732.93   37.00
   2  -3  -5  772.92   36.80
   2   3   5  732.23   37.30
   2   3   5  761.92   37.20
   2  -3  -5  769.92   37.00
   3   3  -5  344.07   19.30
   3   3  -5  330.07   65.59
   3   3  -5  371.56   18.40
   3  -3   5  343.37   17.70
   3   3  -5  374.26   18.30
   3  -3   5  386.06   37.70
   3  -3   5  355.26   18.50
   3  -3  -5  343.37   16.90
   3  -3  -5  303.47   33.70
   3   3   5  313.97   16.20
   3   3   5  300.97   16.70
   3   3   5  313.47   16.70
   3  -3  -5  349.17   16.20
  -3  -3   5  339.17   16.40
   3  -3  -5  356.36   17.00
   3   3   5  295.77   16.50
   3   3   5  326.87   33.30
   4  -3   5  254.87   14.80
   4  -3   5  251.97   13.50
   4  -3   5  256.07   14.40
   4   3  -5  284.37   14.30
   4   3  -5  259.97   45.20
   4  -3   5  304.57   31.60
   4   3  -5  269.77   14.20
   4   3  -5  261.47   15.50
   4   3  -5  264.87   14.00
   4  -3  -5  244.18   13.10
   4   3   5  261.67   31.20
   4  -3  -5  256.87   14.10
   4  -3  -5  270.97   14.20
   4  -3  -5  247.88   30.40
   5   3  -5  408.66   20.80
   5  -3   5  455.45   37.40
   5   3  -5  380.26   20.80
   5   3  -5  387.06   22.30
   5   3  -5  426.46   50.49
   5  -3  -5  404.96   22.60
   5   3   5  497.85   39.90
   5  -3  -5  427.16   23.10
   5  -3  -5  456.55   36.30
   5  -3  -5  422.36   21.70
   1   4  -5   19.20    1.90
   1   4  -5   26.00    4.20
  -1   4   5   23.50    1.90
   1   4   5   10.60    1.60
   1   4   5   14.80    1.70
   2   4  -5 5820.82  269.57
   2  -4   5 5441.36  267.57
  -2  -4   5 5170.68  239.68
   2   4   5 4913.81  239.98
   3   4  -5  250.47   12.80
   3   4  -5  256.57   13.30
   3  -4   5  248.08   13.40
   3   4  -5  256.67   14.90
   3  -4   5  253.47   13.80
   3  -4   5  243.68   12.70
   3   4   5  234.08   12.60
   3  -4  -5  242.18   12.30
   3  -4  -5  235.28   29.10
   3   4   5  228.48   13.10
   3   4   5  266.37   29.90
   3   4   5  227.78   13.10
   3   4   5  232.68   12.20
   3   4   5  248.28   12.50
   3  -4  -5  261.57   13.70
   4   4  -5  840.62   43.80
   4   4  -5  816.82   82.59
   4  -4   5  822.02   41.40
   4  -4   5  831.42   42.60
   4   4  -5  910.31   42.20
   4  -4   5  857.81   42.60
   4  -4   5  942.11   62.89
   4   4  -5  843.12   42.10
   4  -4  -5  921.41   43.70
   4  -4  -5  881.11   42.40
   4   4   5  764.02   42.50
   4  -4  -5  893.11   43.50
   4  -4  -5  923.31   61.39
   4   4   5  816.22   43.40
   4   4   5  940.01   64.39
   5  -4   5  250.07   25.70
   5   4  -5  247.58   37.60
   5   4  -5  239.38   12.90
   5  -4  -5  265.57   24.50
   5   4   5  284.17   27.20
   5  -4  -5  244.88   12.90
   5  -4  -5  239.58   14.00
   0   5   5  631.54   31.40
   0  -5   5  716.73   31.50
   0   5   5  615.24   31.70
   0   5  -5  654.33   31.20
   0   5  -5  667.43   31.40
   0   5   5  687.33   31.80
   0   5  -5  642.74   31.30
   0  -5  -5  618.44   31.10
   0  -5   5  591.94   31.20
  -1   5   5  341.07   18.00
   1   5  -5  347.57   17.40
   1   5  -5  360.96   17.70
   1  -5   5  338.27   17.50
   1   5  -5  364.06   19.80
   1  -5   5  365.06   17.40
  -1   5   5  336.67   17.40
  -1   5   5  358.86   17.90
   1   5  -5  363.06   17.50
   1   5   5  330.27   17.60
   1   5   5  370.16   17.30
  -1   5  -5  358.76   17.00
   1   5   5  327.27   17.40
   1  -5  -5  329.67   17.00
   1   5   5  347.37   17.20
  -1  -5   5  330.07   17.00
   1   5   5  362.26   17.60
  -1  -5   5  360.46   17.30
   2  -5   5 1503.75   73.89
   2   5  -5 1511.85   73.79
   2  -5   5 1477.75   73.19
  -2   5   5 1526.95   73.29
   2  -5   5 1539.85   91.89
   2   5  -5 1518.55   73.49
   2   5  -5 1581.94   73.79
   2   5  -5 1518.55   73.29
   2   5  -5 1551.94   73.79
   2   5  -5 1573.84   80.09
   2  -5  -5 1448.85   68.69
   2   5   5 1452.45   68.69
   2  -5  -5 1444.26   67.99
   2   5   5 1370.16   68.29
   2   5   5 1421.96   68.19
   2   5   5 1390.16   68.49
   2   5   5 1420.76   68.79
   3   5  -5 2561.54  120.89
   3   5  -5 2444.36  120.39
   3   5  -5 2569.84  123.09
   3   5  -5 2436.36  120.89
   3   5  -5 2553.34  121.09
   3  -5   5 2457.25  121.09
   3  -5   5 2375.86  120.19
   3   5  -5 2578.74  120.79
   3  -5   5 2662.13  142.79
   3  -5   5 2559.44  121.79
   3  -5  -5 2416.76  112.99
   3   5   5 2225.48  112.09
   3  -5  -5 2481.95  112.09
   3   5   5 2228.98  112.49
   3   5   5 2331.27  112.89
   3   5   5 2304.67  113.09
   3   5   5 2439.16  112.49
   4   5  -5  558.64   26.90
   4   5  -5  499.65   61.49
   4   5  -5  523.65   26.90
   4  -5   5  549.35   27.90
   4  -5   5  529.95   26.20
   4   5  -5  553.74   29.80
   4  -5   5  548.65   44.30
   4   5   5  473.65   26.30
   4  -5  -5  536.35   26.20
   4   5   5  581.54   44.80
   4  -5  -5  520.85   27.20
   4  -5  -5  562.44   27.80
   5  -5   5  834.62   55.19
   5   5  -5  824.12   41.80
   5   5  -5  925.91   69.19
   5  -5  -5  899.71   41.40
   5  -5  -5  822.52   42.30
   0   6   5 3730.43  189.58
   0  -6   5 3953.90  188.28
   0   6  -5 3933.31  190.48
   0   6   5 4096.79  188.98
   0  -6  -5 3910.91  188.18
   0   6   5 4118.29  188.78
   1   6  -5  168.48    9.60
   1  -6   5  185.78    9.70
   1   6  -5  178.08    9.70
   1  -6   5  186.88   25.10
   1   6  -5  212.58   10.10
  -1   6   5  161.98    9.60
   1   6  -5  200.88   12.90
   1  -6   5  203.78   10.10
  -1   6   5  182.98   10.20
   1  -6  -5  151.08    7.80
   1   6   5  142.59    8.00
   1   6   5  146.49    8.50
  -1  -6   5  162.68    8.10
   1   6   5  157.88    9.10
   1   6   5  141.89    8.40
   1  -6  -5  148.09    7.90
   2   6  -5 3574.14  184.18
   2   6  -5 3993.60  181.88
   2  -6   5 3450.75  200.58
   2   6  -5 3948.20  181.48
   2  -6   5 3889.31  181.08
  -2   6   5 3820.12  181.68
  -2   6   5 3769.02  181.18
   2   6  -5 3798.02  181.28
   2   6  -5 3862.91  181.78
   2  -6   5 3977.10  182.08
   2   6  -5 3764.82  181.48
   2   6   5 3601.14  163.78
  -2  -6   5 3491.65  163.78
   2   6   5 3143.49  163.78
   2   6   5 3286.47  164.28
   2   6   5 3637.94  164.38
   3  -6   5  307.07   15.80
   3   6  -5  324.17   16.70
   3   6  -5  327.97   16.40
   3  -6   5  305.97   17.90
   3  -6   5  339.97   33.10
   3  -6   5  307.07   17.10
   3   6  -5  314.37   16.10
   3   6  -5  323.27   16.80
   3   6  -5  296.77   19.30
   3  -6  -5  281.27   14.80
   3   6   5  264.17   14.30
   3   6   5  262.17   15.10
   3   6   5  237.88   15.30
   3   6   5  277.17   14.00
   3   6   5  257.67   14.40
   3   6   5  300.47   15.30
   3  -6  -5  295.67   13.80
   4   6  -5 1251.57   58.49
   4   6  -5 1162.18   61.29
   4  -6   5 1216.98   57.89
   4  -6   5 1245.18   84.69
   4   6  -5 1125.49  101.49
   4  -6   5 1235.98   59.89
   4  -6  -5 1227.08   58.59
  -4  -6   5 1187.68   57.39
   4  -6  -5 1164.18   57.99
   4   6   5 1083.69   57.19
   4  -6  -5 1265.77   57.39
   0  -7   5   37.40    3.40
   0   7   5   35.70    5.70
   0   7   5   32.40    3.00
   0   7   5   48.30    3.80
   0   7  -5   47.40    7.50
   0  -7   5   43.30    3.20
   1   7  -5 2428.76  117.59
   1   7  -5 2466.75  117.89
  -1   7   5 2404.36  117.59
   1  -7   5 2660.23  117.99
   1  -7   5 2555.24  117.89
  -1   7   5 2329.57  117.89
   1   7  -5 2380.46  120.29
   1   7   5 2254.97  113.39
   1   7   5 2306.27  112.89
   1   7   5 2436.06  113.09
   1  -7  -5 2263.67  112.29
   1  -7  -5 2422.66  112.19
  -1  -7   5 2410.26  112.49
   1   7   5 2375.56  112.59
   2   7  -5  582.74   33.70
   2  -7   5  553.14   47.20
   2   7  -5  590.64   30.60
  -2   7   5  615.14   30.10
  -2   7   5  608.64   30.50
   2   7  -5  634.14   30.60
   2   7  -5  633.54   31.10
   2  -7   5  662.73   30.00
   2   7  -5  576.54   30.00
   2  -7   5  661.53   30.80
   2   7  -5  640.64   30.30
   2   7   5  574.44   31.20
   2  -7  -5  642.04   31.00
  -2   7  -5  621.74   30.20
   2  -7  -5  622.94   30.00
   2   7   5  642.44   31.00
   2   7   5  591.74   30.50
  -2  -7   5  628.14   30.40
   2   7   5  617.54   30.40
   3   7  -5  115.69   11.70
   3  -7   5  132.49    8.50
   3  -7   5  106.99   20.10
   3   7  -5  135.59    7.90
   3   7  -5  107.79    8.40
   3   7  -5  133.99    7.40
   3  -7   5  130.09    6.90
   3  -7   5  131.19    9.40
   3   7  -5  111.79   29.70
   3   7   5  143.49    8.50
  -3  -7   5  143.09    8.10
   3   7   5  137.29   13.10
   3  -7  -5  134.69    8.50
   3  -7  -5  140.89    7.60
   3   7   5  148.59    9.30
   3   7   5  136.39    7.90
   4  -7   5  326.87   17.30
   4   7  -5  285.17   19.10
   4  -7   5  305.07   14.80
   4  -7   5  269.67   27.90
   4   7  -5  300.27   38.50
   4  -7  -5  332.57   17.50
   4  -7  -5  334.67   16.10
  -4  -7   5  328.57   16.60
   4   7   5  289.87   18.60
   4  -7  -5  332.07   17.70
   0   8   5  610.14   28.60
   0   8  -5  592.24   28.10
   0   8  -5  557.14   30.50
   0   8  -5  571.64   28.00
   0   8   5  494.05   29.70
   0   8   5  588.14   28.10
  -1   8   5 2461.55  123.29
  -1   8   5 2501.25  124.19
   1   8  -5 2514.45  123.29
   1   8  -5 2648.83  123.09
   1  -8   5 2706.93  123.29
   1   8  -5 2606.14  125.79
   1   8   5 2561.54  119.59
   1  -8  -5 2370.56  118.89
  -1  -8   5 2592.34  119.09
   1   8   5 2413.76  119.29
   1   8   5 2509.15  119.29
   2   8  -5 2440.26  112.09
   2   8  -5 2279.47  112.29
   2   8  -5 2376.96  111.99
  -2   8   5 2211.38  111.99
   2   8  -5 2194.78  111.69
   2  -8   5 2365.36  111.59
   2   8  -5 2387.16  112.29
   2  -8   5 2505.05  112.39
  -2   8   5 2240.48  111.79
   2   8  -5 2368.66  115.39
   2  -8  -5 2370.16  109.69
  -2   8  -5 2269.07  109.99
   2   8   5 2349.56  110.29
   2  -8  -5 2202.58  110.59
   2   8   5 2329.37  110.69
  -2  -8   5 2272.77  110.09
   3   8  -5  344.77   17.60
   3   8  -5  291.37   40.00
   3  -8   5  361.96   19.00
   3   8  -5  330.97   17.10
   3  -8   5  302.57   31.10
   3  -8   5  333.87   16.70
   3   8  -5  359.26   24.80
   3   8  -5  329.87   17.80
   3   8  -5  351.16   17.20
   3  -8   5  358.56   18.00
   3   8   5  363.56   18.80
   3  -8  -5  336.67   18.50
   3   8   5  342.47   19.30
   3   8   5  344.97   20.40
   3   8   5  364.36   18.30
   3  -8  -5  362.96   17.50
  -3  -8   5  350.76   17.90
   4  -8   5  156.38    8.10
   4   8  -5  163.28    8.60
   4  -8   5  164.48   10.50
   4   8  -5  157.48   24.10
   4  -8   5  145.69   18.40
  -4  -8   5  184.08   11.60
   4   8   5  158.48   13.40
   4  -8  -5  163.88    8.40
   4  -8  -5  152.68    9.40
   0   9   5  695.83   34.40
   0  -9   5  732.73   34.30
   0   9  -5  700.83   34.40
   0   9  -5  720.43   34.40
   0   9  -5  716.53   36.90
   0   9   5  621.84   35.90
   0   9   5  710.23   34.70
   1   9  -5  482.25   24.60
   1  -9   5  510.35   24.70
   1   9  -5  501.75   24.50
   1   9  -5  511.65   27.50
   1   9  -5  491.95   24.80
  -1   9   5  479.45   24.60
  -1   9   5  476.45   24.90
   1   9   5  533.25   26.60
  -1   9  -5  485.65   28.50
  -1   9  -5  533.65   26.10
   1   9   5  527.65   26.20
  -1  -9   5  547.75   26.00
   2   9  -5  479.95   23.90
   2   9  -5  473.15   24.30
   2   9  -5  466.75   23.80
   2   9  -5  478.55   24.40
   2  -9   5  494.55   24.20
   2   9  -5  477.35   24.10
   2   9  -5  492.95   27.40
   2  -9  -5  464.25   22.20
   2   9   5  457.65   23.30
   2   9   5  462.85   22.90
  -2  -9   5  461.55   22.60
  -2   9  -5  424.86   22.50
   2  -9  -5  448.76   23.20
   3   9  -5  238.58   13.90
   3  -9   5  267.17   13.50
   3   9  -5  256.17   14.50
   3   9  -5  284.17   17.50
   3   9  -5  231.48   32.80
   3  -9   5  283.17   14.60
   3  -9   5  301.57   15.60
   3   9  -5  286.87   14.00
   3  -9  -5  314.57   17.10
   3   9   5  283.67   15.60
   3  -9  -5  275.97   14.40
  -3  -9   5  280.77   15.00
   0  10   5   92.59    6.40
   0 -10   5  102.59    5.80
   0  10   5   87.49    5.90
   0  10  -5  101.99    9.60
   0  10  -5   90.39    5.90
   1 -10   5  786.42   38.20
   1  10  -5  788.72   40.70
  -1  10   5  741.63   38.30
   1  10  -5  784.72   38.20
   1  10  -5  799.62   38.40
  -1  10   5  783.12   38.20
  -1  10  -5  728.63   36.00
   1  10   5  767.22   36.20
  -1  10  -5  733.73   38.70
  -1 -10   5  757.22   35.90
   1 -10  -5  677.23   36.20
   1  10   5  750.42   36.50
   2  10  -5 1215.28   59.49
   2 -10   5 1253.97   59.69
   2  10  -5 1249.18   61.99
   2  10  -5 1262.77   59.89
   2  10  -5 1200.48   59.89
   2  10  -5 1250.57   59.59
   2  10  -5 1193.38   59.39
   2 -10  -5 1192.08   60.29
   2  10   5 1266.87   60.39
   2 -10  -5 1230.48   59.39
  -2  10  -5 1184.98   59.69
  -2 -10   5 1259.47   59.69
   2  10   5 1300.07   60.09
   3  10  -5  790.62   37.80
   3 -10   5  762.92   38.60
   3  10   5  780.62   37.30
   3 -10  -5  697.63   37.10
  -3 -10   5  767.52   37.00
   3 -10  -5  727.83   37.10
   3 -10  -5  800.32   36.40
   0 -11   5   19.80    2.60
   0  11  -5   21.30    5.90
   0  11  -5   16.50    2.70
   0  11   5   14.90    2.70
   0  11   5   16.10    3.40
   1  11  -5  376.96   19.50
  -1  11   5  374.86   19.50
  -1  11   5  432.46   21.60
   1  11  -5  390.56   22.00
   1 -11   5  364.76   19.40
   1  11   5  384.66   18.60
  -1 -11   5  352.76   18.20
   1  11   5  369.76   18.80
  -1  11  -5  361.96   18.40
  -1  11  -5  355.56   21.10
   2  11  -5  219.18   11.60
   2 -11   5  215.48   11.50
   2  11  -5  219.18   14.40
   2  11  -5  219.18   12.00
  -2 -11   5  193.48   10.50
   2 -11  -5  196.48   11.20
   2  11   5  211.58   10.90
   2  11   5  203.98   11.10
  -2  11  -5  194.08   14.40
   0  12   5  341.97   17.20
   0  12  -5  338.97   19.80
   0 -12   5  338.47   17.10
   0  12  -5  347.47   17.20
   0  12   5  335.47   17.70
   1 -12   5  462.55   23.90
  -1  12   5  493.65   24.10
   1  12  -5  500.75   24.00
   1  12   5  510.35   25.60
  -1 -12   5  476.55   25.20
   1  12   5  530.45   25.40
  -1  12  -5  499.85   25.30
  -1  12  -5  555.34   30.60
   1   0  -6  126.49    6.20
   1   0  -6  117.69    6.30
   1   0   6  118.49    6.70
  -1   0  -6  108.49    6.10
   2   0   6 6536.85  310.87
   3   0   6   49.10   14.70
   3   0  -6   40.70   20.00
   3   0  -6   45.50    4.00
   3   0   6   44.00    4.20
   3   0  -6   57.19    4.00
   3   0  -6   41.40    3.60
   4   0  -6   15.60    2.80
   4   0   6   12.60   11.80
  -5   0   6  169.18    9.90
   5   0  -6  175.98   27.50
   5   0  -6  173.18   10.20
   5   0   6  201.58   25.30
   5   0  -6  172.28   10.10
   5   0  -6  173.88    9.60
   0   1  -6 2898.61  124.99
   0   1   6 2335.27  124.59
   1   1  -6 8240.78  396.36
  -1   1   6 8052.29  395.76
  -1   1  -6 8823.32  385.46
  -1  -1   6 7459.75  381.56
   1  -1  -6 7343.77  383.06
   2   1  -6   70.99    3.80
   2   1  -6   61.19    4.00
   2   1  -6   53.89    3.80
   2  -1   6   68.59    3.80
   2   1  -6   57.39    4.30
   2  -1   6   53.49    3.80
  -2  -1  -6   58.19    3.60
   2   1   6   60.69    4.00
   2   1   6   52.89    3.50
  -2   1  -6   67.29    3.50
   2   1   6   53.99    4.30
   2  -1  -6   57.39    4.00
   2  -1  -6   68.99    4.30
   3  -1   6 2979.10  150.98
   3  -1   6 2497.95  128.09
   3   1  -6 2648.94  128.99
   3   1  -6 2269.97  158.48
   3   1  -6 2815.12  128.49
   3   1  -6 2877.91  128.69
   3   1   6 2439.56  123.59
   3   1   6 2694.03  145.09
   3  -1  -6 2711.13  124.29
   3  -1  -6 2302.07  148.49
   3  -1  -6 2663.93  123.99
   3  -1  -6 2707.13  124.09
   4   1  -6  318.77   16.30
   4  -1   6  281.57   16.30
   4   1  -6  290.87   42.70
   4   1  -6  317.97   17.00
   4   1  -6  283.57   15.80
   4  -1   6  355.06   35.20
   4   1  -6  313.37   16.30
   4  -1  -6  328.17   17.30
   4   1   6  361.06   36.30
   4  -1  -6  333.97   39.50
   4  -1  -6  355.66   18.10
   4  -1  -6  342.37   18.00
   5   1  -6  371.76   20.00
   5   1  -6  377.96   20.00
   5   1  -6  378.56   19.60
  -5   1   6  393.86   19.80
   5   1  -6  391.16   44.00
   5  -1   6  438.86   38.00
   5   1   6  422.56   37.20
   5  -1  -6  369.46   19.60
   5  -1  -6  363.76   18.70
   5  -1  -6  348.77   19.30
   5  -1  -6  370.36   37.00
   0   2  -6   -0.70    0.80
   0   2  -6   -1.10    0.70
   0   2   6   -2.70    1.10
   1  -2   6 3674.43  174.88
   2  -2   6  794.12   42.30
   2   2  -6  844.42   43.20
   2   2  -6  906.01   42.70
   2   2  -6  875.81   42.30
   2  -2   6  896.31   58.39
   2   2  -6  900.21   42.60
   2   2  -6  901.41   42.30
   2   2  -6  913.91   42.60
   2   2   6  828.42   40.80
   2   2   6  816.22   40.70
   2  -2  -6  939.11   41.50
   2   2   6  826.92   41.30
   2   2   6  860.21   41.00
  -2   2  -6  892.71   40.80
   2  -2  -6  881.31   40.90
   2   2   6  780.02   41.30
  -2  -2   6  868.31   41.10
   2  -2  -6  818.02   41.00
   2   2   6  853.11   41.10
   3   2  -6 1265.87   63.09
   3  -2   6 1154.58   61.59
   3  -2   6 1240.98   62.19
   3   2  -6 1361.56   62.49
   3   2  -6 1349.86   62.29
   3  -2   6 1358.96   91.59
   3  -2  -6 1266.47   58.09
   3   2   6 1248.68   77.69
   3   2   6 1132.99   57.59
   3  -2  -6 1316.07   58.09
   3  -2  -6 1091.79   79.09
   3  -2  -6 1234.88   57.39
   3   2   6 1062.49   57.19
   4  -2   6 3367.96  172.18
   4   2  -6 3856.71  172.48
   4  -2   6 4117.79  199.48
   4   2  -6 3349.96  171.98
   4   2  -6 3701.13  172.48
   4   2  -6 3565.54  173.28
   4   2  -6 3271.57  215.88
   4  -2  -6 3404.16  169.78
   4  -2  -6 3608.54  170.68
  -4  -2   6 3400.76  169.88
   4   2   6 3929.71  196.48
   4  -2  -6 3684.73  170.68
   4  -2  -6 3348.06  195.88
   5   2  -6  214.28   35.10
   5  -2   6  241.08   26.60
   5   2  -6  192.68   11.50
   5   2  -6  206.08   11.60
   5  -2  -6  197.28   11.70
   5  -2  -6  206.78   25.00
   5  -2  -6  202.58   10.90
   5   2   6  244.18   26.90
   5  -2  -6  207.28   12.20
   0   3  -6  215.58   10.80
   0  -3   6  238.18   11.20
   0   3   6  185.28   10.80
   0   3  -6  208.98   10.80
   0  -3   6  206.98   11.00
   0   3  -6  220.98   12.20
   1  -3   6 4990.90  237.38
  -1  -3   6 4657.43  221.38
   2   3  -6  561.04   27.10
   2   3  -6  580.24   27.60
   2  -3   6  514.85   27.10
   2   3  -6  542.65   27.20
   2   3  -6  540.55   27.40
   2  -3   6  534.35   27.40
   2   3  -6  583.34   27.50
   2  -3   6  601.64   43.80
   2   3  -6  580.74   28.40
   2  -3  -6  462.05   22.20
   2  -3  -6  451.95   21.80
   2   3   6  443.66   22.10
  -2  -3   6  448.76   21.80
   2   3   6  457.65   21.80
   2   3   6  435.56   22.30
   2   3   6  433.86   21.70
   2  -3  -6  442.26   21.60
  -2   3  -6  460.25   21.60
   2   3   6  416.16   21.80
   3  -3   6 4227.18  210.18
   3   3  -6 4584.74  210.18
   3   3  -6 4228.38  211.08
   3  -3   6 4571.54  232.58
   3   3   6 3886.31  191.68
   3  -3  -6 3762.52  212.78
   3  -3  -6 4204.78  191.28
   3   3   6 4266.57  213.68
   3  -3  -6 4232.48  192.08
   3  -3  -6 4114.19  192.08
   3   3   6 3639.04  191.58
  -3  -3   6 4204.68  191.38
   3   3   6 3844.42  191.28
   4   3  -6  548.25   67.69
   4   3  -6  628.94   31.80
   4   3  -6  570.94   30.20
   4   3  -6  619.24   30.50
   4  -3   6  580.04   29.70
   4  -3   6  588.64   30.80
   4  -3   6  705.73   51.69
   4  -3   6  590.84   30.60
   4   3  -6  666.93   30.60
   4  -3  -6  603.24   50.19
   4  -3  -6  619.54   31.70
   4  -3  -6  618.94   30.90
   4  -3  -6  638.24   31.90
   4   3   6  683.53   51.89
   5   3  -6    7.40   12.40
   5   3  -6    7.50    2.20
   5  -3   6    9.70   10.10
   5  -3  -6    7.80    2.60
   5  -3  -6    6.90    6.80
   5  -3  -6   10.80    2.10
   5   3   6    9.20   11.10
   0   4  -6 6496.05  299.27
   0   4   6 5897.11  298.07
   0   4   6 6405.56  298.07
   1   4  -6 3932.71  176.48
  -1   4   6 3444.16  175.08
   1  -4   6 3550.04  174.88
   1  -4   6 3763.32  174.78
   1   4   6 3746.73  158.18
   1   4   6 2911.51  157.38
  -1  -4   6 3265.47  157.38
   1   4   6 3308.87  157.68
   2   4  -6  323.47   16.50
   2   4  -6  337.87   16.70
   2   4  -6  353.06   17.00
   2  -4   6  330.47   17.00
   2   4  -6  325.57   16.40
   2  -4   6  333.67   31.70
   2   4  -6  329.67   16.80
  -2   4   6  330.97   16.50
   2   4  -6  332.37   16.90
   2   4  -6  339.07   18.20
   2  -4   6  319.07   16.40
   2   4   6  310.97   15.30
  -2  -4   6  296.57   15.20
   2  -4  -6  318.17   15.20
   2  -4  -6  284.07   15.00
   2   4   6  282.47   15.20
   2   4   6  344.47   16.00
   2  -4  -6  303.97   15.60
   2   4   6  294.37   15.50
  -2   4  -6  308.97   15.10
   3   4  -6 1080.69   50.99
   3  -4   6 1091.79   70.89
   3   4  -6 1050.69   50.89
   3   4  -6 1054.29   50.39
   3  -4   6  955.30   50.19
   3   4  -6 1102.29   50.89
   3   4  -6 1013.00   52.29
   3  -4   6 1010.90   51.29
   3   4   6 1000.20   49.10
   3  -4  -6 1125.79   50.09
   3   4   6  943.51   49.70
   3   4   6  926.11   49.80
   3  -4  -6 1097.29   49.00
   3  -4  -6  957.20   84.49
   3   4   6 1038.20   69.29
   3   4   6  939.91   49.20
   3  -4  -6 1115.59   49.90
   4  -4   6  875.51   45.20
   4  -4   6  941.51   46.40
   4  -4   6  933.11   46.30
   4   4  -6  854.51   88.49
   4   4  -6  919.91   45.90
   4   4  -6  954.70   47.70
   4   4  -6  991.40   46.00
   4  -4   6 1035.40   67.39
   4   4   6 1070.29   68.59
   4  -4  -6  999.40   49.20
   4  -4  -6  981.80   65.69
   4  -4  -6  948.81   48.80
   4  -4  -6  968.60   47.90
   5   4  -6  356.66   19.00
   5  -4   6  386.36   32.90
   5   4  -6  387.26   46.70
   5  -4  -6  328.47   36.70
   5  -4  -6  365.96   17.80
   5   4   6  407.86   31.70
   5  -4  -6  338.57   18.60
   0   5  -6 3512.55  165.38
   0  -5   6 3318.77  163.38
   0   5   6 3416.76  163.88
   0   5  -6 3478.05  163.48
   0   5   6 3104.19  164.08
   0   5   6 3760.12  164.18
   1   5  -6 2103.79  102.39
  -1   5   6 2098.39  102.79
   1   5  -6 2194.58  104.49
   1  -5   6 2206.78  102.29
   1   5  -6 2258.27  102.69
   1   5  -6 2128.19  102.29
  -1   5   6 2068.59  102.39
   1  -5   6 2061.99  102.39
   1  -5   6 2347.67  102.89
   1  -5   6 1971.50  121.99
   1   5   6 2116.79   94.99
  -1  -5   6 1957.00   94.29
   1   5   6 1998.50   94.49
  -1   5  -6 2052.19   94.29
   1   5   6 1961.40   94.69
  -1  -5   6 2112.19   94.59
   1  -5  -6 1928.21   94.59
   1  -5  -6 1910.41   94.89
   1   5   6 1745.83   94.49
   2  -5   6 1251.97   59.39
   2  -5   6 1210.58   78.59
   2   5  -6 1235.38   59.99
   2   5  -6 1243.08   59.79
  -2   5   6 1211.48   59.49
   2   5  -6 1251.87   59.99
   2   5  -6 1231.18   61.79
   2   5  -6 1307.37   59.59
   2  -5   6 1211.68   60.19
   2   5  -6 1216.28   59.59
   2   5  -6 1261.47   60.09
   2   5   6 1141.69   54.99
   2   5   6 1023.30   54.99
   2  -5  -6 1182.78   54.69
   2  -5  -6 1200.48   55.49
   2   5   6 1090.79   55.09
   2   5   6 1179.78   55.59
   2   5   6 1161.88   54.99
   3  -5   6  599.14   47.50
   3   5  -6  577.04   31.10
   3  -5   6  573.44   29.40
   3   5  -6  585.84   29.10
   3   5  -6  595.14   29.00
   3   5  -6  585.94   28.60
   3  -5   6  586.84   30.00
   3  -5   6  560.44   28.40
   3   5  -6  581.44   29.10
   3   5   6  518.05   25.70
   3  -5  -6  531.15   26.40
   3   5   6  504.95   27.40
   3  -5  -6  535.85   25.50
   3   5   6  517.35   26.80
   4   5  -6   15.20    2.80
   4  -5   6   11.00   10.50
   4   5  -6   11.50    2.70
   4   5  -6   10.60    4.70
   4   5  -6    5.60   14.70
   4  -5   6   10.80    3.70
   4  -5   6   10.60    1.80
   4  -5  -6   11.50    2.70
   4   5   6    5.70   11.80
   4  -5  -6   13.20    3.60
   4  -5  -6    8.10    1.50
   0   6  -6 7092.59  313.07
   0   6   6 5977.70  311.47
   1  -6   6 3325.87  148.49
   1  -6   6 2917.71  148.49
   1   6  -6 3042.00  148.49
  -1   6   6 3141.79  149.09
   1  -6   6 2883.91  169.38
   1   6  -6 3298.67  148.89
   1   6  -6 3193.78  151.08
   1  -6  -6 2904.11  136.79
  -1   6  -6 2973.80  136.99
   1   6   6 2608.24  137.39
   1   6   6 3148.89  137.79
   1   6   6 2907.11  137.39
  -1  -6   6 2701.63  136.79
   2   6  -6  412.46   24.30
   2   6  -6  431.76   21.50
   2  -6   6  461.65   22.30
   2   6  -6  433.46   21.80
  -2   6   6  437.66   21.90
  -2   6   6  406.66   21.30
   2  -6   6  450.05   21.20
   2   6  -6  434.16   21.30
   2  -6   6  381.36   39.30
   2   6  -6  428.76   21.50
   2   6  -6  457.35   21.90
   2   6   6  401.86   21.30
   2  -6  -6  429.56   21.50
   2   6   6  415.96   21.00
   2  -6  -6  447.46   20.80
   2   6   6  428.06   21.70
   2   6   6  409.06   21.10
  -2  -6   6  427.36   21.20
   3  -6   6  813.42   39.70
   3   6  -6  810.12   43.10
   3  -6   6  852.91   41.90
   3  -6   6  759.22   58.69
   3  -6   6  789.82   41.00
   3   6  -6  842.72   40.00
   3   6  -6  855.31   40.60
   3   6  -6  849.41   40.30
   3   6   6  763.92   37.00
   3  -6  -6  750.12   37.50
   3   6   6  761.02   38.00
   3  -6  -6  777.82   36.60
   3   6   6  723.13   36.80
   4   6  -6  646.24   30.00
   4   6  -6  623.44   88.29
   4  -6   6  602.74   29.40
   4  -6   6  555.54   50.19
   4  -6   6  628.84   30.90
   4   6  -6  576.74   32.60
   4  -6  -6  631.14   32.00
   4  -6  -6  625.74   30.20
   4  -6  -6  593.14   31.10
  -4  -6   6  634.04   30.80
   0   7   6  131.69    7.70
   0   7   6  117.39    8.90
   0   7   6  126.69    7.10
   0  -7   6  132.09    7.10
   0  -7   6  117.29    6.90
   0   7  -6  124.69    6.90
   0   7  -6  122.59    7.00
   0   7  -6  130.89    9.90
   1  -7   6 1703.93   77.29
  -1   7   6 1564.44   76.99
  -1   7   6 1523.85   77.39
   1   7  -6 1633.84   76.99
   1   7  -6 1646.94   77.29
   1   7  -6 1550.94   79.49
   1   7   6 1536.15   75.39
   1  -7  -6 1567.44   74.89
   1   7   6 1634.54   75.89
   1   7   6 1521.65   75.59
  -1  -7   6 1581.04   75.39
  -2   7   6  226.38   13.90
  -2   7   6  228.58   12.40
   2  -7   6  231.38   12.10
   2   7  -6  231.28   16.00
   2   7  -6  243.68   12.90
   2   7  -6  250.27   12.30
   2   7  -6  238.58   12.50
   2  -7   6  221.08   27.70
   2  -7   6  255.77   13.20
   2   7  -6  238.88   12.60
   2   7  -6  249.68   12.90
   2   7   6  221.48   11.40
   2  -7  -6  207.08   11.60
   2   7   6  218.18   11.90
   2   7   6  195.08   11.50
  -2  -7   6  221.08   11.30
   2  -7  -6  206.18   10.80
   3  -7   6 1549.34   74.59
   3  -7   6 1600.24   75.69
   3  -7   6 1412.06   92.99
   3  -7   6 1550.14   73.29
   3   7  -6 1567.04   73.59
   3   7  -6 1368.16  109.29
   3   7  -6 1588.94   74.19
   3   7  -6 1508.15   76.99
   3   7  -6 1620.74   73.89
  -3  -7   6 1532.75   72.09
   3   7   6 1411.06   71.89
   3   7   6 1527.45   72.09
   3  -7  -6 1508.55   71.59
   3  -7  -6 1428.06   72.49
   3   7   6 1560.64   72.99
   4   7  -6  291.57   18.60
   4   7  -6  288.07   37.90
   4   7  -6  299.97   15.10
   4  -7   6  258.77   27.30
   4  -7   6  300.57   14.60
   4  -7   6  327.97   17.00
  -4  -7   6  328.47   16.70
   4  -7  -6  327.47   16.20
   4  -7  -6  343.27   18.00
   4  -7  -6  311.57   17.10
   0   8  -6   72.89    7.80
   0   8   6   59.99    4.70
   0  -8   6   63.19    4.20
   0   8   6   58.69    4.90
   0   8  -6   55.29    4.30
  -1   8   6  193.98   10.50
   1   8  -6  185.88   13.40
   1   8  -6  222.28   10.80
   1  -8   6  188.38   10.50
  -1   8   6  178.68   10.80
   1   8  -6  195.28   10.50
   1   8   6  199.78   11.10
  -1  -8   6  201.08   10.60
   1   8   6  201.78   11.20
   1  -8  -6  178.68   11.00
   1  -8  -6  204.88   10.40
   1   8   6  212.78   10.80
   2   8  -6  642.44   31.80
  -2   8   6  581.34   31.60
   2   8  -6  638.24   31.20
  -2   8   6  595.54   31.70
   2  -8   6  696.93   31.90
   2   8  -6  661.63   31.80
   2   8  -6  656.63   31.50
   2   8  -6  619.64   34.70
   2   8  -6  644.74   31.40
   2  -8   6  641.24   31.10
   2   8   6  547.75   29.40
   2   8   6  605.84   29.50
  -2   8  -6  589.44   29.20
   2  -8  -6  621.34   28.90
  -2  -8   6  603.44   29.30
   2   8   6  597.94   29.90
   2  -8  -6  592.54   29.80
   3   8  -6  511.45   26.00
   3  -8   6  463.65   40.50
   3  -8   6  525.55   25.10
   3   8  -6  504.05   25.40
   3  -8   6  536.35   26.30
   3   8  -6  539.75   25.60
   3   8  -6  537.15   29.20
   3   8  -6  452.65   50.49
   3  -8   6  546.75   27.20
   3   8   6  516.65   26.10
  -3  -8   6  512.65   25.30
   3  -8  -6  472.45   25.70
   3  -8  -6  519.95   24.90
   3   8   6  521.25   25.60
   4  -8   6 2255.37  103.19
   4  -8   6 2113.29  103.69
   4   8  -6 2099.49  122.99
   4   8  -6 2110.69  102.59
   4  -8  -6 1989.80  101.69
   4  -8  -6 2246.58  100.99
   0   9   6  316.47   16.90
   0   9   6  332.57   16.60
   0   9  -6  337.07   19.50
   0   9  -6  317.67   16.50
   0   9  -6  312.67   18.00
   0  -9   6  315.77   16.30
  -1   9   6  900.81   46.00
   1  -9   6  950.50   45.80
   1   9  -6  958.00   45.90
   1   9  -6  944.71   48.30
   1   9  -6  938.01   45.70
  -1   9   6  920.61   45.70
   1   9  -6  961.40   45.60
   1  -9  -6  794.32   42.80
  -1  -9   6  917.41   42.60
   1   9   6  891.71   43.20
  -1   9  -6  898.71   42.60
  -1   9  -6  820.52   45.00
   1   9   6  929.41   42.80
   2   9  -6  198.98   14.00
   2   9  -6  189.48   10.20
  -2   9   6  171.68   11.00
   2  -9   6  192.88   10.60
   2   9  -6  190.98   10.80
   2   9  -6  193.08   10.20
   2   9  -6  197.08   10.80
   2   9  -6  189.08   10.40
   2  -9  -6  193.28    9.80
  -2   9  -6  180.18   10.20
   2   9   6  186.68   10.40
  -2  -9   6  197.28   10.20
   2   9   6  192.88   10.90
   2  -9  -6  181.98   10.70
   3   9  -6  793.02   37.60
   3  -9   6  757.62   38.70
   3   9  -6  698.73   39.70
   3  -9   6  785.62   38.40
   3   9   6  795.72   36.20
   3  -9  -6  709.63   33.50
  -3  -9   6  692.33   33.90
   3  -9  -6  602.94   34.30
   3   9   6  673.33   34.50
   0  10   6 5015.70  250.97
   0  10  -6 5529.25  253.07
   0 -10   6 5155.08  250.57
   0  10  -6 5367.36  250.67
   0  10   6 5243.08  250.67
   1 -10   6   15.50    2.50
  -1  10   6   16.20    2.90
   1  10  -6   23.80    5.90
  -1  10   6   14.40    3.70
   1  10  -6   18.70    3.70
  -1  10  -6   16.10    2.70
  -1 -10   6   18.20    2.50
  -1  10  -6   19.00    5.80
   1 -10  -6   18.50    4.00
   1  10   6   18.80    2.90
   1  10   6   15.60    3.30
   2  10  -6  955.60   47.60
   2 -10   6  957.40   45.30
   2  10  -6  878.81   45.00
   2  10  -6  935.71   45.40
   2  10  -6  927.21   45.00
   2  10  -6  884.81   45.40
   2  10  -6  961.00   45.20
   2  10   6  978.10   45.40
  -2  10  -6  806.52   47.30
   2  10   6  977.80   45.70
  -2 -10   6  952.80   45.10
   2 -10  -6  928.41   44.60
   3  10  -6  120.99    6.90
   3 -10   6  121.79    7.80
  -3 -10   6  128.59    7.60
   3 -10  -6  119.09    7.60
   3 -10  -6  127.09    6.50
   3 -10  -6  116.29    7.90
   3  10   6  123.89    7.80
   0  11   6  246.68   13.00
   0  11   6  238.38   13.30
   0 -11   6  251.17   12.80
   0  11  -6  253.57   13.00
   0  11  -6  246.58   15.90
   1  11  -6  571.64   30.00
  -1  11   6  536.75   27.90
   1  11  -6  575.74   27.70
   1 -11   6  556.64   27.60
   1  11   6  581.04   28.70
   1  11   6  577.34   28.10
  -1  11  -6  556.64   28.00
  -1  11  -6  553.74   30.50
   2  11  -6   37.40    3.70
   2 -11   6   37.30    3.40
   2  11  -6   33.90    7.70
  -2  11  -6   34.40    9.20
  -2 -11   6   35.10    3.30
   2  11   6   31.60    3.70
   2  11   6   30.80    3.50
   0  12   6   71.59    4.90
   0 -12   6   74.69    4.70
   0  12  -6   70.59    9.40
   0  12   6   73.39    5.90
   0  12  -6   72.79    4.80
   1  12  -6  721.93   33.60
   1 -12   6  666.73   33.50
  -1  12   6  676.43   33.60
  -1  12  -6  684.43   33.70
   1  12   6  710.63   33.80
  -1 -12   6  669.23   33.60
   1  12   6  705.33   34.10
   0   0  -7    0.70    0.80
   1   0  -7  168.58    8.90
   1   0  -7  181.98    8.90
   1   0  -7  164.78    8.60
  -1   0   7  175.58    8.90
  -1   0  -7  170.98    8.60
   2   0  -7 3833.82  172.88
   2   0   7 3519.05  173.18
  -2   0  -7 3705.23  172.78
   2   0   7 3475.75  173.08
   3   0  -7 3415.56  206.98
   3   0  -7 3847.22  176.08
   3   0   7 3815.52  176.28
   4   0   7   26.60   13.30
   4   0  -7   19.70    3.10
   4   0  -7   29.00   19.00
   4   0  -7   22.80    3.70
   5   0  -7 1914.01   93.79
   5   0  -7 1922.91   94.29
   5   0   7 2226.18  117.19
   5   0  -7 1829.82   94.19
  -5   0   7 1898.91   93.89
   5   0  -7 1969.90  120.59
   0  -1  -7 4990.70  240.78
   0   1   7 4535.05  238.78
   0   1  -7 5091.49  241.28
   1  -1   7 4333.87  206.28
  -1  -1   7 4024.00  202.88
   1   1   7 4508.05  203.28
   2  -1   7 2681.13  135.19
  -2  -1  -7 2890.51  135.09
   2  -1   7 2738.03  135.49
   2   1  -7 2967.90  135.19
   2  -1   7 3126.79  154.38
   2  -1   7 2767.22  135.09
   2  -1   7 2691.73  135.49
   2   1   7 2455.55  127.59
   2  -1  -7 2824.22  127.39
  -2   1  -7 2830.42  127.29
   2   1   7 2591.54  127.69
   3   1  -7  175.98    9.20
   3   1  -7  155.58    8.90
   3   1  -7  158.58    9.50
   3  -1   7  149.88    9.20
   3   1   7  133.09    7.90
   3  -1  -7  130.89    7.50
   3  -1  -7  117.29   25.40
   3  -1  -7  138.09    7.90
   3  -1  -7  145.49    8.10
   3  -1  -7  148.29    8.20
   4   1  -7  451.95   22.60
   4   1  -7  418.06   51.39
   4  -1   7  418.06   22.50
   4   1  -7  460.25   22.60
   4  -1   7  508.55   42.80
   4   1  -7  431.06   23.10
   4   1  -7  408.96   22.20
   4  -1  -7  396.96   20.30
   4  -1  -7  395.46   19.60
  -4  -1   7  407.86   19.90
   4   1   7  338.77   19.90
   4  -1  -7  360.16   41.60
   4  -1  -7  410.26   20.30
   4   1   7  430.16   39.20
  -5   1   7  257.67   13.80
   5   1  -7  260.27   13.70
   5   1  -7  256.37   14.10
   5   1  -7  251.17   14.00
   5   1  -7  267.37   35.70
   5  -1   7  296.67   29.80
   5  -1  -7  284.17   14.80
   5  -1  -7  294.97   31.60
   5   1   7  323.87   31.10
   5  -1  -7  284.97   15.60
   5  -1  -7  276.27   15.40
   0   2  -7 1949.41   84.99
   0   2   7 1558.24   84.19
   0  -2   7 1679.23   84.29
   0  -2   7 1939.81   84.39
   0   2  -7 1699.83   84.09
   2  -2   7 4565.24  228.28
   2  -2   7 5276.27  248.48
   2  -2   7 4541.45  227.88
   2   2   7 4489.55  213.38
  -2  -2   7 4517.95  213.18
   2  -2  -7 4537.35  212.98
   2   2   7 4474.85  213.08
  -2   2  -7 4754.42  212.88
   2   2   7 4107.59  213.48
   3  -2   7  419.46   22.30
   3  -2   7  420.16   22.80
   3  -2   7  509.15   41.30
   3   2  -7  485.75   23.50
   3   2  -7  460.25   23.80
   3   2  -7  463.55   23.00
   3  -2   7  446.96   23.20
   3  -2  -7  438.36   22.00
   3   2   7  487.05   40.20
   3   2   7  420.96   22.30
   3  -2  -7  456.65   22.60
   3  -2  -7  389.66   41.70
   3  -2  -7  457.75   22.60
  -3  -2   7  468.85   22.20
   4   2  -7 1282.27   66.49
   4  -2   7 1368.26   66.79
   4   2  -7 1476.55   66.89
   4   2  -7 1267.67  107.29
   4   2  -7 1417.16   67.69
   4   2  -7 1447.36   66.89
   4  -2  -7 1416.46   69.59
   4  -2  -7 1327.77   92.49
   4  -2  -7 1434.36   68.89
   4   2   7 1553.44   92.09
   4  -2  -7 1437.16   69.69
  -5   2   7   96.99    6.10
   5   2  -7   99.19   25.90
   5   2  -7   87.99    6.10
   5  -2   7  101.59   17.80
   5   2  -7   84.39    6.00
   5  -2  -7   80.69    6.10
   5   2   7   99.39   17.20
   5  -2  -7   95.99    5.40
   5  -2  -7   85.39    6.80
   5  -2  -7   89.69   16.80
   0   3  -7  479.75   23.40
   0  -3   7  462.65   23.50
   0  -3   7  530.85   23.70
   0   3  -7  447.96   23.30
   0   3  -7  518.75   23.20
   0   3   7  460.45   23.50
   0   3  -7  502.95   24.60
   0   3  -7  465.95   23.40
  -1   3   7   10.70    1.50
   1   3  -7   11.00    1.60
   1  -3   7   14.00    2.00
   1   3  -7   14.60    2.70
   1   3  -7   11.70    1.50
   1   3  -7   12.60    1.30
   1   3  -7   14.60    1.70
   1   3  -7   10.40    1.50
   1  -3   7   11.30    2.10
  -1  -3   7   12.90    1.90
   1   3   7    8.80    1.60
  -1   3  -7   10.00    1.30
   1   3   7   13.20    2.30
   2   3  -7 1316.67   63.29
   2   3  -7 1393.06   63.49
   2   3  -7 1332.17   62.99
   2  -3   7 1268.37   62.89
   2   3  -7 1278.57   64.19
   2  -3   7 1421.26   82.59
   2  -3   7 1259.67   63.19
   2  -3   7 1247.28   63.29
   2   3   7 1133.69   55.89
   2   3   7 1170.18   55.99
  -2  -3   7 1174.88   55.99
   2   3   7 1171.88   56.29
   2  -3  -7 1147.79   55.79
  -2   3  -7 1213.68   55.79
   2   3   7 1114.09   56.49
   2  -3  -7 1162.08   55.89
   2  -3  -7 1202.98   56.39
   3   3  -7 1791.32   84.79
   3   3  -7 1708.23   85.59
   3  -3   7 1837.72  106.39
   3  -3   7 1702.83   84.69
   3   3  -7 1936.51   84.79
   3  -3   7 1562.54   83.89
   3  -3  -7 1392.06   90.29
   3   3   7 1295.07   69.19
   3  -3  -7 1524.15   68.89
   3   3   7 1381.06   69.09
   3   3   7 1517.15  101.79
  -3  -3   7 1513.45   68.99
   3  -3  -7 1568.24   69.99
   3   3   7 1295.37   68.69
   4  -3   7   74.79    4.90
   4   3  -7   74.39   32.40
   4   3  -7   79.89    6.10
   4   3  -7   76.09    6.80
   4  -3   7   72.79    6.60
   4   3  -7   81.69    5.50
   4  -3   7   85.09   17.80
   4   3  -7   84.19    5.60
   4  -3  -7   91.89    6.50
   4  -3  -7   87.69    5.50
   4  -3  -7   85.49   19.30
   4   3   7   97.49   19.30
   4  -3  -7   90.69    6.20
   5   3  -7  705.43   35.40
   5   3  -7  748.63   68.79
   5  -3   7  770.12   52.29
   5   3  -7  669.13   35.40
   5  -3  -7  785.62   38.20
   5  -3  -7  717.73   38.90
   5  -3  -7  837.42   51.99
   5   3   7  855.81   54.19
   5  -3  -7  764.52   39.40
   0   4  -7 3335.67  166.88
   0   4   7 3387.46  167.38
   0   4  -7 3783.22  168.58
   0  -4   7 3392.16  166.98
   0   4   7 3650.03  167.68
   1   4  -7  592.34   28.30
  -1   4   7  566.44   28.40
   1   4  -7  637.84   28.30
  -1   4   7  575.64   28.90
   1  -4   7  566.24   28.40
   1  -4   7  629.24   28.90
   1   4  -7  617.14   29.90
   1  -4   7  510.65   46.20
   1   4  -7  595.14   28.60
   1   4  -7  601.74   28.50
   1   4  -7  531.75   28.30
   1   4   7  491.75   26.00
   1  -4  -7  534.85   25.90
   1   4   7  520.95   25.80
  -1   4  -7  533.45   25.60
  -1  -4   7  525.25   25.70
   1   4   7  562.94   26.40
   2  -4   7 5803.12  290.37
   2  -4   7 5562.34  268.07
  -2   4   7 5599.54  268.17
   2  -4   7 5591.74  268.67
   2   4   7 5116.29  251.47
   2  -4  -7 5355.96  250.57
   2   4   7 5234.58  250.97
  -2   4  -7 5459.55  250.47
  -2  -4   7 5205.28  250.57
   2  -4  -7 5252.07  250.67
   3   4  -7  621.34   33.10
   3  -4   7  600.84   31.00
   3   4  -7  662.83   31.70
   3  -4   7  615.24   31.70
   3  -4   7  659.73   50.99
   3   4  -7  681.93   31.90
  -3  -4   7  543.15   25.80
   3  -4  -7  553.44   26.50
   3   4   7  497.95   25.70
   3   4   7  446.16   27.10
   3  -4  -7  572.84   26.80
   3   4   7  552.54   57.09
   3  -4  -7  532.15   25.70
   3   4   7  499.05   26.00
   4   4  -7  353.86   17.40
   4   4  -7  359.46   20.40
   4   4  -7  351.06   17.50
   4   4  -7  298.57   53.29
   4   4  -7  321.97   17.80
   4  -4   7  318.87   16.60
   4  -4   7  340.37   34.20
   4  -4  -7  328.57   17.90
   4  -4  -7  336.87   16.70
   4   4   7  350.96   33.30
   4  -4  -7  319.17   17.50
   4  -4  -7  331.47   32.00
   5   4  -7  308.77   41.30
   5   4  -7  279.87   15.40
   5  -4   7  317.07   28.80
   5  -4  -7  270.17   15.10
   5  -4  -7  302.87   14.30
   0   5  -7   32.40    2.50
   0  -5   7   39.50    2.70
   0   5  -7   30.50    2.50
   0   5   7   33.00    3.40
   0  -5   7   32.30    2.80
   0   5   7   36.90    3.60
   0   5   7   30.80    2.60
   0   5  -7   33.30    4.90
  -1   5   7 4793.52  228.08
   1   5  -7 4941.71  229.68
   1  -5   7 4618.24  250.27
   1   5   7 4275.67  204.58
  -1  -5   7 4318.57  204.08
   1  -5  -7 4279.07  203.98
   2   5  -7 3081.19  149.09
   2  -5   7 3033.60  149.69
   2   5  -7 3145.29  148.99
   2   5  -7 3204.18  149.29
   2   5  -7 3163.98  151.08
   2   5  -7 3316.27  149.59
   2   5  -7 3197.18  148.89
   2  -5   7 2853.81  169.48
  -2   5   7 3109.69  148.89
   2   5   7 2875.31  140.59
   2   5   7 2969.20  139.99
   2   5   7 2997.20  140.99
   2  -5  -7 2975.60  140.09
   2  -5  -7 2842.22  140.29
   3  -5   7   84.39    6.30
   3   5  -7   88.49    5.90
   3   5  -7   84.39    7.90
   3   5  -7   68.09   32.30
   3  -5   7   85.79   18.00
   3  -5   7   88.79    5.10
   3   5  -7   86.69    5.70
   3   5  -7   85.59    5.30
   3  -5   7   87.29    6.90
   3   5   7   62.79    5.40
   3  -5  -7   67.89    5.10
   3  -5  -7   68.19    4.30
   3   5   7   71.79    5.20
   3   5   7   68.39    4.40
   3   5   7   64.09    6.40
   4   5  -7  210.98   13.90
   4   5  -7  227.38   11.70
   4  -5   7  199.58   11.00
   4  -5   7  233.58   13.60
   4   5  -7  217.58   11.70
   4   5  -7  190.18   43.00
   4  -5   7  220.88   26.50
   4  -5   7  220.48   12.70
   4  -5  -7  191.08   11.30
   4  -5  -7  210.38   12.10
   0  -6   7 1772.32   79.69
   0   6   7 1634.34   79.59
   0   6   7 1654.03   79.99
   0   6  -7 1600.24   79.39
   0   6  -7 1630.44   79.49
   0   6  -7 1565.34   79.19
   0   6  -7 1708.43   81.49
   0   6   7 1703.73   79.89
   1  -6   7  230.28   12.00
  -1   6   7  242.88   11.70
   1   6  -7  232.48   11.60
   1   6  -7  222.48   11.90
  -1   6   7  227.38   12.30
   1  -6   7  200.58   11.60
   1   6  -7  250.87   15.00
   1   6  -7  211.78   11.50
  -1   6   7  213.18   13.20
   1   6   7  219.58   11.60
   1  -6  -7  215.98   11.20
  -1   6  -7  208.18   10.80
  -1  -6   7  209.18   10.80
   1   6   7  206.48   11.10
   1  -6  -7  202.58   10.70
  -1  -6   7  219.98   11.10
   2  -6   7 2931.21  173.98
  -2   6   7 3233.58  152.88
   2   6  -7 3083.79  154.78
   2  -6   7 3192.08  152.08
   2   6  -7 3273.37  152.28
   2   6  -7 3329.47  153.08
   2   6  -7 3362.16  152.78
   2   6  -7 3133.29  152.68
  -2   6   7 3190.88  152.28
   2  -6  -7 2963.60  142.99
   2   6   7 2864.31  142.69
   2  -6  -7 2973.30  142.19
  -2  -6   7 3039.40  142.69
   2   6   7 3085.29  142.69
   3  -6   7  534.25   26.50
   3  -6   7  475.95   25.60
   3   6  -7  537.35   24.90
   3   6  -7  487.05   24.50
   3   6  -7  512.45   25.10
  -3   6   7  462.15   25.20
   3  -6   7  495.25   24.30
   3   6  -7  515.25   27.70
   3  -6   7  440.86   42.10
   3  -6  -7  509.75   23.90
   3   6   7  499.85   25.60
   3   6   7  431.46   24.30
   3   6   7  507.45   24.50
   3  -6  -7  489.95   24.80
   4  -6   7  361.16   19.00
   4   6  -7  391.06   18.60
   4   6  -7  331.07   47.60
   4  -6   7  299.77   31.50
   4   6  -7  326.07   20.10
   4  -6   7  345.37   18.40
   4  -6  -7  326.07   20.60
  -4  -6   7  346.77   17.50
   4  -6  -7  328.07   16.60
   0   7  -7  819.12   40.60
   0   7  -7  914.61   41.70
   0  -7   7  785.42   40.50
   0  -7   7  887.01   40.80
   0   7   7  824.22   41.10
   0   7  -7  854.41   43.00
   0   7   7  844.82   41.30
   0   7   7  778.42   40.70
   1   7  -7  276.17   13.50
  -1   7   7  248.28   13.20
   1   7  -7  253.97   13.20
   1  -7   7  243.78   14.70
   1   7  -7  262.47   16.00
  -1   7   7  250.17   13.80
   1   7  -7  257.87   13.10
   1   7   7  218.98   12.20
   1  -7  -7  238.68   11.50
   1  -7  -7  219.18   11.90
   1   7   7  222.78   11.80
   2   7  -7  452.85   22.10
   2   7  -7  459.85   22.40
   2   7  -7  440.36   22.00
   2  -7   7  432.56   21.60
  -2   7   7  441.26   22.50
   2  -7   7  479.85   22.70
   2   7  -7  429.56   21.70
   2   7  -7  433.06   22.20
   2  -7   7  385.26   38.50
   2   7  -7  436.26   25.10
   2  -7  -7  448.06   21.70
   2   7   7  448.06   22.80
   2   7   7  451.35   22.20
   2   7   7  421.16   22.30
   2  -7  -7  430.56   22.50
  -2  -7   7  453.85   22.20
   3   7  -7 1292.27   61.89
   3  -7   7 1260.97   62.39
   3   7  -7 1250.07   61.29
   3   7  -7 1353.56   61.59
   3   7  -7 1288.07   64.59
   3  -7   7 1176.28   80.79
   3   7  -7 1093.19   96.19
   3  -7   7 1327.47   61.09
   3  -7   7 1408.46   63.49
   3   7   7 1365.46   65.69
   3  -7  -7 1360.76   64.29
  -3  -7   7 1336.67   64.69
   3  -7  -7 1258.67   65.09
   3   7   7 1377.36   64.89
   4   7  -7   16.80    6.00
   4  -7   7    7.10    2.50
   4   7  -7   11.50   12.00
   4  -7   7    7.50    8.90
   4   7  -7   10.40    2.40
   4  -7  -7   10.60    3.10
  -4  -7   7   14.20    3.40
   4  -7  -7   13.60    3.70
   4  -7  -7   10.50    1.70
   0   8   7  574.24   30.10
   0   8   7  610.44   29.80
   0   8  -7  604.34   32.20
   0  -8   7  622.24   29.70
   1   8  -7 4308.77  204.68
  -1   8   7 4143.79  202.58
   1   8  -7 4252.87  202.08
  -1   8   7 4196.78  202.18
   1   8  -7 4204.18  202.18
   1   8  -7 4334.27  202.38
   1   8   7 3909.71  189.18
   1   8   7 4027.70  189.08
   1   8   7 3946.01  189.48
   2  -8   7 1148.79   53.39
   2   8  -7 1112.29   52.99
   2   8  -7 1055.99   52.69
   2   8  -7 1113.69   53.29
   2   8  -7 1127.39   55.99
  -2   8   7 1007.00   53.19
   2   8  -7 1070.69   53.19
   2   8  -7 1101.49   52.89
   2   8   7 1099.29   52.89
  -2   8  -7 1060.99   52.09
   2   8   7 1009.80   52.29
   2  -8  -7 1071.49   52.59
  -2  -8   7 1076.89   52.19
   2   8   7 1123.19   52.39
   2  -8  -7 1100.89   51.79
   3   8  -7  256.97   51.89
   3  -8   7  268.07   15.40
   3  -8   7  279.37   14.70
   3   8  -7  274.17   13.90
   3   8  -7  279.27   17.40
   3   8  -7  255.67   13.70
   3   8  -7  253.37   14.30
   3  -8  -7  240.18   14.10
  -3  -8   7  262.97   13.80
   3  -8  -7  284.07   13.70
   3   8   7  264.97   14.80
   3   8   7  278.37   14.40
   4  -8   7  199.38   11.00
   4   8  -7  199.68   26.30
   4   8  -7  189.28   10.30
   4  -8  -7  207.98   10.10
   4  -8  -7  188.98   11.00
   0   9  -7  208.08   14.30
   0   9   7  200.78   11.10
   0   9   7  210.28   11.60
   0  -9   7  214.48   11.00
   0   9  -7  200.98   11.10
   1   9  -7  929.71   44.90
  -1   9   7  892.51   45.00
   1   9  -7  900.71   44.50
   1  -9   7  919.11   44.70
   1   9  -7  907.41   44.70
  -1   9   7  922.31   44.70
   1   9  -7  950.40   47.30
   1   9   7  928.11   43.30
  -1  -9   7  913.31   43.00
  -1   9  -7  893.41   45.70
   1  -9  -7  764.52   43.60
  -1   9  -7  923.11   43.10
   1   9   7  887.01   43.60
   2   9  -7  722.13   36.30
   2   9  -7  664.73   33.00
   2   9  -7  674.13   33.60
   2  -9   7  676.53   33.50
   2   9  -7  684.83   33.20
   2   9  -7  675.93   33.30
  -2   9   7  638.44   33.50
   2  -9  -7  646.04   34.30
  -2  -9   7  700.63   34.00
   2   9   7  731.03   34.30
  -2   9  -7  686.93   34.00
   2   9   7  691.63   34.60
   2  -9  -7  707.93   33.60
   3   9  -7   57.19    8.50
   3  -9   7   72.69    5.30
   3   9  -7   58.99   20.70
   3  -9   7   70.19    6.00
   3   9  -7   72.29    4.60
   3   9   7   72.19    5.80
   3  -9  -7   67.49    5.30
   3  -9  -7   69.29    5.70
   3  -9  -7   71.59    4.20
  -3  -9   7   70.19    4.80
   0  10   7   78.79    5.70
   0  10  -7   90.99    5.70
   0 -10   7   88.39    5.40
   0  10   7   91.69    6.20
   1  10  -7   72.79    5.10
   1 -10   7   69.19    4.80
   1  10  -7   77.39    5.00
  -1  10   7   70.39    4.90
   1  10  -7   67.99    5.80
  -1  10   7   66.79    5.60
   1  10   7   86.39    5.50
  -1  10  -7   81.59    5.30
  -1 -10   7   84.59    5.20
   1  10   7   75.59    5.80
   2 -10   7  651.23   30.70
   2  10  -7  624.84   30.50
   2  10  -7  643.14   32.80
   2  10  -7  583.74   30.80
   2  10  -7  571.44   30.30
  -2  10  -7  564.54   33.30
   2  10   7  707.33   31.60
  -2  10  -7  618.64   30.90
   2  10   7  635.44   31.60
   2 -10  -7  642.64   30.20
   2 -10  -7  581.44   31.30
   3 -10   7  665.63   33.30
   3  10  -7  671.63   32.60
   3 -10  -7  728.73   33.60
   3 -10  -7  662.83   34.40
   3  10   7  703.33   34.50
   0  11  -7  886.51   42.90
   0  11  -7  881.71   45.20
   0 -11   7  853.71   42.80
   0  11   7  906.91   43.00
   1  11  -7  744.43   37.80
  -1  11   7  673.53   35.80
  -1  11   7  746.93   35.60
   1 -11   7  748.93   35.80
  -1 -11   7  642.24   32.70
  -1  11  -7  673.43   32.90
   1  11   7  690.43   33.30
  -1  11  -7  675.93   35.30
   2 -11   7  381.56   19.00
   2  11  -7  378.16   19.10
   2  11   7  395.66   20.00
   2  11   7  404.06   19.70
  -2 -11   7  375.66   19.40
   0 -12   7  190.68   10.30
   0  12  -7  206.28   10.50
   0  12   7  200.48   10.50
   0  12   7  193.78   11.00
   1  12  -7  586.04   27.70
   1 -12   7  544.55   27.60
  -1 -12   7  570.44   28.30
   1  12   7  577.34   28.80
   1  12   7  610.04   28.50
  -1  12  -7  566.44   28.40
   0   0  -8 1311.47   61.49
   0   0   8 1257.77   61.59
   1   0   8 1202.38   65.09
   1   0  -8 1414.86   64.89
  -1   0   8 1349.07   65.09
   1   0   8 1363.86   65.29
   1   0  -8 1372.86   65.19
  -1   0  -8 1455.75   64.89
   1   0  -8 1289.47   64.99
   1   0  -8 1414.96   65.09
   2   0  -8 4124.09  190.78
  -2   0  -8 4060.79  190.68
   2   0   8 3813.32  191.08
   2   0   8 3698.63  191.08
   2   0   8 4351.96  210.88
   3   0  -8 3043.20  139.29
   3   0   8 2607.64  137.59
   3   0  -8 2850.51  138.19
   3   0   8 3015.30  159.88
   4   0  -8  782.62   69.99
   4   0  -8  864.11   42.10
   4   0   8  817.62   41.80
  -4   0   8  896.11   42.20
   4   0  -8  850.61   42.50
   4   0  -8  803.52   41.60
   4   0   8  950.90   63.99
   4   0  -8  871.71   42.20
   5   0   8   54.09   14.50
   5   0  -8   53.39    4.20
   5   0  -8   51.29    4.50
   5   0  -8   52.69   16.60
   5   0  -8   52.89    4.70
   1  -1   8 2563.24  118.09
  -1  -1  -8 2663.13  117.89
   1  -1   8 2341.87  118.09
   1  -1   8 2321.27  117.69
   1   1   8 2448.66  114.09
   1   1   8 2371.76  114.49
   1   1   8 2317.77  114.29
  -1  -1   8 2437.06  114.19
   2  -1   8  509.75   26.60
   2   1  -8  517.25   26.40
   2  -1   8  510.25   26.60
   2   1  -8  571.64   26.70
   2  -1   8  594.14   43.60
   2   1  -8  559.54   26.90
   2  -1   8  509.05   26.00
   2   1  -8  544.05   26.20
  -2  -1  -8  531.05   26.10
   2   1   8  571.14   43.40
   2  -1  -8  596.24   27.60
  -2   1  -8  570.94   27.00
   2   1   8  498.65   27.30
   2   1   8  522.45   27.50
   2  -1  -8  573.04   27.60
   2  -1  -8  580.04   27.50
   2  -1  -8  555.54   27.10
   3  -1   8 1823.32  101.69
   3   1  -8 1384.46  110.69
   3  -1   8 1618.34   79.09
   3   1  -8 1731.13   79.69
   3  -1  -8 1675.83   83.39
  -3  -1   8 1689.53   83.39
   3  -1  -8 1820.22   84.09
   3   1   8 1899.61  109.09
   3   1   8 1609.54   83.59
   4   1  -8 1989.80   93.09
   4   1  -8 1814.92  130.59
   4   1  -8 1958.00   93.19
   4   1  -8 1923.01   93.69
   4  -1   8 2150.28  117.89
   4  -1   8 1861.31   92.89
   4   1  -8 1820.12   92.69
   4  -1  -8 1878.61   92.29
   4  -1  -8 1986.40   92.89
  -4  -1   8 1930.11   92.49
   4   1   8 1765.92   92.39
   4   1   8 2173.08  116.89
   4  -1  -8 1941.01   92.89
   4  -1  -8 1798.12  120.09
  -5   1   8  157.38    8.50
   5  -1   8  159.98   21.50
   5   1  -8  138.99    8.60
   5   1  -8  148.09    8.50
   5   1  -8  137.99    8.60
   5   1  -8  157.18   26.70
   5  -1  -8  160.78   22.30
   5  -1  -8  148.29    9.10
   5   1   8  170.38   21.80
   5  -1  -8  154.68    9.40
   5  -1  -8  164.78    8.60
   0   2   8 6378.56  303.37
   1  -2   8 2231.98  109.29
   1   2  -8 2332.37  109.69
   1   2  -8 2349.56  108.99
  -1   2   8 2365.26  109.09
   1  -2   8 2154.18  109.19
  -1   2  -8 2463.15  109.69
   1   2   8 2387.56  110.29
   1   2   8 2244.08  109.79
  -1  -2   8 2285.57  109.79
   1   2   8 2126.49  109.89
   2  -2   8 1860.31   92.19
   2   2  -8 1969.30   92.09
   2   2  -8 1871.51   92.69
   2  -2   8 1818.92   91.79
   2  -2   8 2025.20  111.89
   2   2  -8 1987.90   92.29
   2   2  -8 1915.01   91.79
   2   2   8 1858.21   88.09
   2   2   8 1632.14   88.49
   2  -2  -8 1947.21   88.59
   2   2   8 1831.22   88.39
  -2   2  -8 1926.91   87.89
   2  -2  -8 1862.21   87.99
   3  -2   8 1485.35   76.59
   3   2  -8 1518.75   77.19
   3  -2   8 1680.93   98.49
   3   2  -8 1644.74   76.69
   3   2  -8 1600.54   76.49
   3   2   8 1548.55   94.69
  -3  -2   8 1419.76   71.49
   3  -2  -8 1516.95   71.99
   3   2   8 1376.16   71.59
   3  -2  -8 1564.24   72.29
   3  -2  -8 1498.25   71.39
   4   2  -8  123.99    7.50
   4  -2   8  136.69   21.90
   4   2  -8  118.19    8.30
   4   2  -8  121.79    7.50
   4  -2   8  117.49    8.00
   4   2  -8  109.39    7.50
   4   2  -8  112.49   33.60
  -4  -2   8  123.69    7.10
   4  -2  -8  115.79    6.90
   4  -2  -8  118.69    7.60
   4  -2  -8  106.09   22.70
   4  -2  -8  127.79    7.70
   4   2   8  135.29   21.10
  -5   2   8  256.87   13.20
   5   2  -8  240.08   13.30
   5   2  -8  263.27   36.70
   5   2  -8  238.58   13.30
   5  -2   8  266.57   29.40
   5  -2  -8  303.87   28.00
   5  -2  -8  288.57   15.80
   5  -2  -8  300.17   14.80
   5  -2  -8  267.77   15.40
   5   2   8  312.67   28.80
   1  -3   8  809.82   39.70
   1   3  -8  763.22   39.60
   1   3  -8  889.41   40.70
   1   3  -8  881.81   39.40
   1   3  -8  842.72   39.60
   1   3  -8  864.51   39.70
   1  -3   8  849.41   40.00
   1   3  -8  846.82   40.00
   1  -3   8  727.43   58.19
  -1   3   8  749.73   40.00
  -1   3   8  815.82   39.60
   1   3   8  780.72   40.60
  -1  -3   8  818.82   40.40
   1   3   8  831.92   40.50
   1  -3  -8  820.72   40.50
   1   3   8  892.31   41.10
  -1   3  -8  890.31   40.30
   2  -3   8 2065.09  101.39
   2  -3   8 2025.10  101.19
   2   3  -8 2080.79  100.99
   2   3  -8 2105.19  101.49
   2   3  -8 2193.28  101.29
   2   3  -8 2098.99  101.19
   2  -3   8 2225.18  122.39
   2   3  -8 2105.59  102.19
   2  -3   8 2009.20  100.79
   2   3  -8 2235.28  100.99
  -2   3  -8 2050.79   94.09
   2  -3  -8 1948.80   94.19
   2  -3  -8 2020.40   94.69
   2   3   8 1961.30   94.29
   2   3   8 1960.70   94.59
  -2  -3   8 1976.10   94.29
   2   3   8 1887.01   94.99
   2  -3  -8 1977.20   94.19
   3  -3   8   67.19    4.50
   3   3  -8   65.99    6.00
   3  -3   8   77.19    5.80
   3   3  -8   73.49    5.10
   3  -3   8   75.89   17.20
   3   3  -8   76.49    5.20
   3  -3  -8   54.19    4.40
  -3  -3   8   58.79    4.00
   3   3   8   52.39   16.30
   3   3   8   56.29    4.60
   3  -3  -8   49.30    4.20
   3  -3  -8   40.20   30.20
   3  -3  -8   49.99    3.90
   4  -3   8  549.85   27.10
   4   3  -8  494.25   24.80
   4   3  -8  524.15   25.00
   4   3  -8  413.86   61.89
   4  -3   8  493.35   43.20
   4   3  -8  494.45   25.90
   4   3  -8  456.25   24.70
   4  -3  -8  464.15   22.90
   4  -3  -8  422.96   39.30
   4  -3  -8  451.55   21.90
  -4  -3   8  379.06   22.20
   4  -3  -8  453.15   22.80
   4   3   8  484.85   39.80
   5   3  -8   74.89   23.80
   5   3  -8   78.09    5.30
  -5   3   8   72.99    5.10
   5   3  -8   68.69    5.10
   5  -3  -8   82.79    4.60
   5  -3  -8   85.49    7.20
   5  -3  -8   67.99    5.70
   5   3   8   75.29   15.50
   0  -4   8  129.99    7.30
   0   4  -8  127.09    7.20
   0   4   8  142.89    8.00
   0  -4   8  153.28    7.60
   0   4  -8  153.38    9.00
   0   4   8  121.29    7.30
   0   4  -8  122.09    7.10
   0   4  -8  144.89    7.00
   0   4   8  135.19    7.90
  -1   4   8 5801.32  277.97
   1  -4   8 5874.11  301.57
   1  -4  -8 5292.77  254.67
   1   4   8 5425.26  255.17
   2  -4   8  284.87   14.20
   2   4  -8  259.87   13.50
   2  -4   8  251.27   29.70
   2   4  -8  279.87   13.80
   2   4  -8  265.47   13.90
   2  -4   8  253.77   13.40
   2   4  -8  273.47   15.30
   2  -4  -8  225.08   11.80
   2  -4  -8  242.78   12.30
   2   4   8  235.58   12.00
  -2  -4   8  225.18   11.90
   2   4   8  238.38   12.90
   2  -4  -8  229.18   11.90
  -2   4  -8  234.88   11.80
   3  -4   8 2634.04  132.49
   3  -4   8 2795.72  132.99
   3  -4   8 2819.62  156.28
   3   4  -8 2931.01  132.89
   3   4  -8 2767.92  133.99
   3   4  -8 2887.81  132.59
   3  -4   8 2537.95  131.89
   3  -4  -8 2503.25  117.49
   3   4   8 2154.68  117.49
   3   4   8 2361.86  117.09
   3  -4  -8 2567.04  116.79
   3  -4  -8 2595.34  117.79
  -3  -4   8 2487.45  116.79
   4  -4   8  432.76   21.70
   4   4  -8  415.16   22.60
   4   4  -8  377.16   21.70
   4   4  -8  435.86   21.30
   4   4  -8  432.86   21.10
   4  -4   8  439.06   39.30
   4   4  -8  368.66   59.59
   4  -4  -8  428.86   22.40
   4  -4  -8  439.26   22.80
   4  -4  -8  444.26   21.60
   0   5  -8 1063.49   51.09
   0   5   8 1082.09   51.79
   0   5   8 1028.10   51.19
   0   5   8 1035.70   51.59
   0  -5   8  985.10   51.59
   0   5  -8 1098.69   52.89
   0  -5   8 1143.89   51.39
  -1   5   8  680.83   33.70
   1   5  -8  662.53   33.20
   1  -5   8  664.63   33.10
   1   5  -8  699.93   32.90
   1  -5   8  658.33   53.19
   1  -5   8  772.62   33.60
  -1   5   8  670.43   33.10
   1   5  -8  652.03   33.00
   1   5  -8  687.33   34.80
   1   5  -8  654.83   33.00
  -1  -5   8  667.63   31.40
   1  -5  -8  613.84   31.00
   1   5   8  674.63   31.90
   1  -5  -8  626.94   31.30
   1   5   8  632.54   31.30
  -1   5  -8  651.33   31.10
   1   5   8  624.54   31.60
   2  -5   8  159.68    9.70
   2   5  -8  170.78   11.10
   2  -5   8  152.58    8.50
   2   5  -8  166.58    8.60
  -2   5   8  153.48    8.80
   2   5  -8  165.68    8.90
   2   5  -8  171.78    9.10
   2   5   8  195.38   10.30
   2  -5  -8  168.88    9.50
   2  -5  -8  173.58    9.10
   2   5   8  166.48    9.60
  -2   5  -8  174.58    9.10
   2   5   8  172.48    9.40
  -2  -5   8  167.48    9.10
   2  -5  -8  166.48    9.20
   3   5  -8  449.95   21.80
   3  -5   8  430.66   22.50
   3  -5   8  412.06   21.90
   3  -5   8  416.36   20.90
   3  -5   8  397.26   39.30
   3   5  -8  432.36   21.50
   3   5  -8  437.86   23.50
   3  -5  -8  387.86   19.30
   3   5   8  373.06   18.40
   3  -5  -8  357.06   18.80
   3   5   8  318.67   19.60
   3  -5  -8  388.36   18.10
   3   5   8  349.57   18.50
   4   5  -8 2073.19   95.79
   4   5  -8 1869.71   97.29
   4  -5   8 2036.10   96.29
   4  -5  -8 1951.90   93.89
   4  -5  -8 1882.91   93.29
   4  -5  -8 1971.40   92.49
   0   6   8   43.20    4.10
   0  -6   8   47.90    3.50
   0   6   8   44.60    4.30
   0  -6   8   44.50    3.40
   0   6  -8   46.80    3.30
   1  -6   8 2875.31  147.59
   1  -6   8 3333.27  148.09
   1   6  -8 3156.88  147.79
   1   6  -8 3120.29  149.69
  -1   6   8 3200.48  148.19
  -1   6   8 3046.50  148.29
   1   6  -8 3011.30  147.59
   1   6  -8 2946.71  147.49
   1   6  -8 3111.89  147.39
  -1   6   8 3133.09  147.69
   1   6   8 2857.91  133.39
   1   6   8 2897.01  133.99
  -1   6  -8 2767.62  133.09
  -1  -6   8 2877.21  133.39
   1  -6  -8 2827.42  133.49
   1   6   8 2821.42  133.69
  -1  -6   8 2623.04  132.99
   1  -6  -8 2659.73  132.89
   2   6  -8  791.12   37.40
   2  -6   8  715.03   57.39
   2   6  -8  799.12   37.20
   2   6  -8  767.02   39.70
   2   6  -8  769.92   37.30
  -2   6   8  754.12   37.90
   2   6  -8  782.62   37.60
  -2   6   8  737.13   37.20
   2  -6   8  770.02   38.10
   2   6   8  674.33   33.30
   2  -6  -8  678.73   32.80
   2   6   8  692.53   34.00
  -2  -6   8  698.43   33.30
   2   6   8  644.14   33.40
   3  -6   8 2154.18  133.39
  -3   6   8 2231.58  112.09
   3  -6   8 2297.57  112.49
   3   6  -8 2367.76  114.19
   3   6  -8 2461.65  111.89
   3  -6   8 2478.75  113.19
   3   6   8 2403.66  115.39
   3  -6  -8 2539.35  113.89
  -3  -6   8 2407.76  114.39
   3   6   8 2192.98  114.09
   3  -6  -8 2331.17  114.59
   3   6   8 2432.66  114.29
   4  -6   8  403.16   37.00
   4  -6   8  481.55   23.10
   4   6  -8  427.16   24.40
   4   6  -8  457.05   22.20
   4   6  -8  449.95   54.39
   4  -6  -8  454.85   21.60
  -4  -6   8  440.16   22.10
   4  -6  -8  426.96   22.40
   4  -6  -8  444.26   23.20
   0   7   8 6086.19  286.47
   0   7  -8 5928.31  285.87
   0   7  -8 6307.17  288.27
   0  -7   8 5715.13  285.77
  -1   7   8   46.60    4.50
   1   7  -8   49.20    3.90
  -1   7   8   44.80    3.90
   1   7  -8   42.00    3.60
   1  -7   8   54.39    4.00
   1   7  -8   47.20    3.60
   1   7  -8   48.00    6.80
   1   7  -8   49.10    3.50
  -1   7  -8   47.50    3.40
   1   7   8   42.50    4.20
  -1  -7   8   52.89    3.60
   1   7   8   42.60    4.20
  -1  -7   8   37.90    3.80
   1   7   8   42.30    3.60
   1  -7  -8   42.20    3.80
  -2   7   8  917.31   49.10
   2   7  -8  985.70   48.80
   2   7  -8 1017.30   48.90
   2   7  -8 1028.20   48.70
   2   7  -8 1012.30   49.20
   2  -7   8 1085.39   49.60
  -2   7   8 1034.00   49.40
   2   7  -8 1080.29   51.79
   2  -7   8  905.71   68.69
  -2  -7   8  949.80   46.00
   2   7   8  965.70   46.70
   2   7   8  918.71   46.20
   2  -7  -8  978.60   45.60
   2  -7  -8  880.71   46.20
   2   7   8  982.60   46.10
   3   7  -8  377.76   18.30
   3  -7   8  377.16   19.20
   3  -7   8  337.27   34.60
   3   7  -8  352.76   18.00
   3   7  -8  341.87   23.80
   3   7  -8  362.36   18.60
   3  -7   8  387.96   20.00
   3   7  -8  322.07   46.80
   3   7   8  383.36   19.80
   3   7   8  403.76   20.80
  -3  -7   8  388.56   19.60
   3  -7  -8  374.46   19.90
   3  -7  -8  383.46   19.10
   4  -7   8   46.70    5.00
   4   7  -8   61.39    4.10
   4   7  -8   56.59   20.40
   4  -7   8   47.70   12.30
   4  -7  -8   59.69    5.80
  -4  -7   8   55.59    4.40
   4  -7  -8   47.90    4.60
   4  -7  -8   54.39    3.40
   0   8  -8 1484.75   74.09
   0   8   8 1465.75   72.19
   0   8   8 1492.95   71.89
   0  -8   8 1537.15   71.79
   0   8   8 1471.65   72.29
   1   8  -8  804.12   39.50
   1   8  -8  823.22   39.80
  -1   8   8  825.92   39.70
   1   8  -8  828.12   42.20
   1  -8   8  820.62   39.80
  -1   8   8  778.62   40.10
   1   8  -8  803.82   39.30
  -1  -8   8  798.72   37.80
   1   8   8  778.22   38.40
  -1   8  -8  735.53   40.10
   1   8   8  787.12   38.20
   1   8   8  770.42   37.90
   2   8  -8  975.90   46.60
   2   8  -8  953.70   46.00
   2   8  -8  905.41   45.70
  -2   8   8  874.31   46.20
   2   8  -8  976.40   48.70
   2   8  -8  921.01   45.80
   2  -8   8 1003.70   46.40
   2  -8  -8  836.22   44.00
   2  -8  -8  938.11   43.30
   2   8   8  919.51   44.00
   2   8   8  911.11   44.40
   2   8   8  863.71   44.00
  -2  -8   8  915.01   43.80
  -2   8  -8  912.01   43.70
   3   8  -8  728.63   34.60
   3   8  -8  658.73   34.90
   3  -8   8  762.62   35.40
   3  -8   8  811.72   38.40
   3   8  -8  747.53   37.40
   3   8  -8  634.34   34.40
   3   8  -8  606.44   61.59
   3   8   8  779.12   37.80
   3  -8  -8  759.62   36.70
  -3  -8   8  739.63   37.10
   0   9  -8 1183.68   56.89
   0   9   8 1097.09   54.49
   0   9   8 1092.49   54.79
   0  -9   8 1115.79   54.29
   0   9  -8 1124.49   54.39
   1   9  -8  867.51   44.50
   1  -9   8  943.21   44.80
  -1   9   8  882.91   45.10
   1   9  -8  950.20   45.30
   1   9  -8  928.01   44.80
   1   9  -8  918.91   47.10
  -1   9   8  938.11   44.80
   1   9   8  886.31   43.80
  -1  -9   8  895.01   43.30
  -1   9  -8  859.31   45.70
  -1   9  -8  906.81   43.30
   1   9   8  900.91   43.50
  -2   9   8   64.89    6.00
   2   9  -8   63.09    4.80
   2   9  -8   61.89    4.50
   2   9  -8   62.29    4.80
   2  -9   8   70.99    5.00
   2   9  -8   61.09    5.40
   2   9  -8   74.99    8.30
  -2   9  -8   57.99    4.70
  -2  -9   8   61.49    4.30
  -2   9  -8   58.19    8.90
   2   9   8   63.59    4.80
   2   9   8   64.29    5.20
   2  -9  -8   64.39    5.10
   3   9  -8  265.67   16.80
   3   9  -8  268.77   33.20
   3  -9   8  284.47   14.80
   3   9  -8  287.07   14.30
   3  -9   8  292.47   15.50
   3  -9  -8  291.67   14.00
  -3  -9   8  291.67   14.40
   3   9   8  282.37   15.20
   3  -9  -8  280.17   15.10
   3  -9  -8  263.47   14.80
   0 -10   8  159.58    9.00
   0  10   8  164.28    9.70
   0  10   8  173.38    9.40
   0  10  -8  171.38    9.30
   1  10  -8  437.16   23.70
   1  10  -8  403.26   21.40
  -1  10   8  418.76   21.50
   1  10  -8  391.36   20.90
   1 -10   8  425.76   21.10
  -1  10   8  437.56   21.20
   1  10  -8  423.66   21.10
  -1 -10   8  410.36   21.30
   1  10   8  442.36   21.90
   1  10   8  442.36   21.60
  -1  10  -8  414.46   24.00
  -1  10  -8  426.36   21.40
   2 -10   8  740.03   36.30
   2  10  -8  749.42   36.20
   2  10  -8  752.12   38.40
   2  10  -8  724.53   36.10
  -2  10  -8  711.83   40.30
  -2 -10   8  807.72   37.80
   2  10   8  795.82   38.30
   2  10   8  787.72   38.00
   0 -11   8  561.64   27.20
   0  11   8  544.35   27.50
   0  11  -8  548.75   29.60
   1  11  -8  201.38   10.60
   1  11  -8  202.88   13.40
  -1  11   8  206.68   10.70
   1 -11   8  192.88   10.50
  -1  11   8  187.28   12.30
   1  11   8  214.98   10.90
   1  11   8  206.88   11.20
  -1 -11   8  191.58   10.60
  -1  11  -8  203.48   14.30
  -1  11  -8  199.38   10.70
   2 -11   8   47.50    3.80
   2  11  -8   43.60    4.40
   2  11   8   47.80    4.60
  -2 -11   8   51.09    3.80
   2  11   8   55.29    4.20
   0 -12   8  299.67   15.40
   0  12  -8  326.27   15.60
   0  12   8  295.37   16.20
   0  12   8  309.47   15.60
   1 -12   8  195.38   10.20
   1  12   8  231.58   13.20
   0   0   9   11.60    2.20
   0   0   9   16.50    2.30
   2   0   9   51.79    4.30
   2   0  -9   61.59    3.90
  -2   0  -9   67.49    3.70
   2   0  -9   56.19    4.30
   2   0   9   61.09   16.00
   2   0  -9   68.39    4.20
  -2   0   9   64.79    4.20
   2   0  -9   57.59    4.00
   3   0  -9   26.30    3.30
   3   0  -9   30.40   20.40
   3   0  -9   24.70    2.90
   3   0   9   24.60    3.50
   4   0   9    6.50    2.30
   4   0  -9    4.50   10.30
   4   0   9    3.20    6.90
  -4   0   9    6.50    2.40
   4   0  -9    5.80    1.60
  -5   0   9  163.78    8.70
   5   0  -9  140.19    8.90
   5   0  -9  162.18   23.50
   5   0  -9  161.88    8.60
   5   0   9  173.78   21.40
   5   0  -9  140.49    8.90
   0  -1   9 1176.28   57.39
   0  -1  -9 1182.68   57.29
   0   1  -9 1197.18   57.29
   0   1  -9 1186.28   57.39
   0   1   9 1143.19   57.39
   0  -1   9 1271.07   57.39
   1   1  -9  564.34   28.10
   1   1  -9  601.54   28.00
   1   1  -9  559.54   27.80
  -1   1   9  568.34   27.90
  -1  -1  -9  616.74   27.80
   1   1  -9  589.54   27.80
   1  -1   9  587.44   28.10
   1  -1   9  540.35   27.60
   1  -1   9  525.05   28.00
   1  -1  -9  623.94   28.20
   1  -1  -9  589.44   28.20
   1   1   9  609.44   28.90
   1   1   9  553.64   28.60
   1   1   9  522.45   28.40
  -1   1  -9  616.44   28.20
  -1  -1   9  554.54   28.20
   1  -1  -9  579.44   28.30
  -2  -1  -9 4002.30  185.28
   2   1  -9 3939.71  185.38
   2  -1   9 3674.53  185.78
   2  -1   9 3801.92  185.78
   2  -1   9 4049.40  206.78
  -2   1  -9 4090.59  185.18
   2  -1  -9 3776.72  185.68
   2   1   9 3591.34  185.48
   2   1   9 3844.82  185.58
   2   1   9 4093.89  205.48
  -2  -1   9 3868.51  185.48
   2  -1  -9 3980.30  185.28
   3   1  -9  214.48   11.20
   3   1  -9  197.88   11.00
   3  -1   9  216.58   26.60
   3   1  -9  212.78   11.60
   3   1  -9  171.68   35.00
   3  -1   9  198.98   11.20
   3  -1  -9  175.28   30.30
   3   1   9  192.78   11.10
   3  -1  -9  203.98   11.10
  -3  -1   9  203.68   10.90
   3  -1  -9  221.78   11.30
   3  -1  -9  216.38   11.40
   3  -1  -9  194.78   10.70
   3   1   9  213.98   26.10
   4  -1   9  477.55   42.00
   4   1  -9  443.16   53.19
   4   1  -9  446.06   23.00
   4   1  -9  460.45   23.20
  -4   1   9  468.65   23.00
   4  -1   9  453.25   23.30
   4   1  -9  472.05   23.40
   4   1  -9  428.16   23.70
   4  -1  -9  434.66   45.60
  -4  -1   9  479.15   24.00
   4  -1  -9  469.25   24.40
   4  -1  -9  472.85   23.90
   4   1   9  516.75   42.70
   4  -1  -9  473.25   24.40
   4   1   9  521.25   25.70
   5   1  -9   69.39    5.40
  -5   1   9   83.49    6.30
   5   1  -9   74.79    5.20
   5   1  -9   67.89    5.20
   5   1  -9   84.19   20.00
   5  -1  -9   80.99    6.30
   5  -1  -9   82.09    5.90
   5  -1  -9   90.29    5.30
   5  -1  -9   92.29   17.00
   5   1   9   96.99   16.80
   0   2   9  975.30   47.80
   0   2   9  863.91   47.90
   0  -2   9 1013.20   47.70
   0   2  -9 1058.29   48.20
   0   2  -9 1049.00   47.60
   0  -2   9 1042.90   47.80
   0   2   9  925.31   47.60
  -1   2   9  389.26   19.00
   1   2  -9  414.16   18.90
   1  -2   9  405.16   19.00
   1   2  -9  414.86   19.50
   1   2  -9  400.56   19.10
  -1   2   9  343.27   19.30
   1  -2   9  339.47   36.30
   1  -2   9  405.66   19.10
   1  -2   9  363.96   19.20
   1   2  -9  352.76   18.80
  -1   2  -9  414.56   18.90
   1   2   9  385.56   19.00
   1  -2  -9  377.46   19.00
  -1  -2   9  376.76   19.00
   1   2   9  375.06   19.30
   1  -2  -9  400.56   19.00
   1   2   9  372.26   19.60
  -2  -2  -9 1384.06   66.89
   2   2  -9 1446.26   67.39
   2   2  -9 1389.76   66.99
   2   2  -9 1447.76   67.89
   2  -2   9 1328.27   67.39
   2  -2   9 1472.15   88.09
   2  -2   9 1298.87   66.89
   2   2  -9 1405.46   67.19
   2   2   9 1122.29   63.69
   2  -2  -9 1331.07   63.19
   2   2   9 1299.27   63.49
  -2  -2   9 1307.47   63.29
  -2   2  -9 1386.36   63.09
   2  -2  -9 1412.66   63.69
   2   2   9 1362.46   81.49
   3  -2   9 3301.57  175.48
   3   2  -9 3134.79  151.28
   3  -2   9 3044.20  151.38
   3   2  -9 3311.77  151.58
   3   2  -9 3021.90  151.98
   3  -2  -9 3180.98  151.98
   3  -2  -9 3183.08  151.38
   3   2   9 3014.60  151.58
   3  -2  -9 3246.88  151.98
   3   2   9 3296.67  172.78
  -3  -2   9 3117.89  151.48
   4   2  -9   96.99    6.90
   4   2  -9  105.69    6.70
   4   2  -9  106.49    7.10
   4   2  -9   94.69   31.50
   4  -2   9  108.09   20.00
   4   2   9  114.99    9.10
   4   2   9  137.49   21.20
   4  -2  -9  120.89    6.90
   4  -2  -9  116.69    7.50
  -4  -2   9  115.49    7.00
   4  -2  -9  123.19    7.60
   4  -2  -9  109.09   22.40
   5   2  -9 1267.97   63.99
   5  -2   9 1506.55   82.79
   5   2  -9 1277.57   64.09
   5   2  -9 1499.75   96.29
  -5   2   9 1229.58   64.69
   5   2  -9 1183.58   63.69
   5  -2  -9 1412.36   78.89
   5   2   9 1390.36   80.29
   5  -2  -9 1261.47   65.59
   5  -2  -9 1298.37   65.89
   5  -2  -9 1434.56   65.19
   0  -3   9  903.11   44.60
   0   3  -9  966.40   45.60
   0   3  -9  928.61   44.60
   0  -3   9 1013.40   44.80
   0   3   9  871.51   44.90
   0   3   9  868.91   44.60
   0   3   9  929.01   44.80
   0  -3   9  918.21   45.20
  -1   3   9  262.07   13.60
   1   3  -9  284.27   14.00
   1  -3   9  249.58   31.00
   1   3  -9  271.97   13.60
   1  -3   9  288.77   14.10
  -1   3   9  252.17   14.20
   1   3  -9  284.77   13.40
   1   3  -9  281.57   13.60
   1   3  -9  295.47   14.70
   1   3  -9  245.78   13.50
   1  -3  -9  222.58   11.90
   1   3   9  218.08   11.90
   1   3   9  257.37   12.30
  -1   3  -9  235.88   11.80
  -1  -3   9  231.48   11.90
   1   3   9  249.18   12.70
   2  -3   9 4743.33  231.58
   2  -3   9 4982.20  231.88
   2  -3  -9 4410.56  211.68
  -2   3  -9 4758.12  211.68
   2  -3  -9 4531.05  211.78
   2   3   9 4163.78  212.68
  -2  -3   9 4398.16  211.78
   2   3   9 4433.56  212.18
   3   3  -9 1250.87   59.99
   3  -3   9 1222.78   60.39
   3   3  -9 1186.58   60.89
   3   3  -9 1295.57   60.29
   3  -3   9 1231.68   81.69
   3   3   9 1144.69   58.39
   3  -3  -9 1246.18   58.19
   3  -3  -9 1260.77   58.79
   3   3   9 1257.67   77.09
   3  -3  -9 1259.47   58.89
  -3  -3   9 1201.48   58.19
   3  -3  -9 1080.99   79.09
   4   3  -9  283.77   51.79
   4   3  -9  327.77   18.00
   4   3  -9  331.77   16.90
   4  -3   9  327.97   33.90
   4  -3   9  337.87   17.40
   4   3  -9  337.87   17.00
   4  -3  -9  293.57   36.40
   4  -3  -9  347.87   16.80
   4   3   9  342.57   35.20
  -4  -3   9  331.57   16.80
   4  -3  -9  342.37   17.70
   4  -3  -9  346.97   17.60
   0   4  -9 2129.69  104.29
   0   4   9 2098.29  104.79
   0   4  -9 2062.99  104.49
   0   4  -9 2339.27  106.09
   0   4   9 2132.49  105.09
   0   4  -9 2260.57  104.69
   0  -4   9 2380.96  104.99
   0   4   9 2136.59  104.79
   1  -4   9 5441.16  286.47
  -1   4   9 5451.95  261.47
   1   4  -9 5569.64  262.37
   1  -4  -9 4799.72  233.58
   1   4   9 5009.10  234.08
   1  -4  -9 4929.21  233.88
   2   4  -9 2083.39   97.49
   2   4  -9 2025.90   97.79
   2   4  -9 2113.69   97.59
   2   4  -9 2020.70   98.69
   2  -4   9 1938.81   97.59
   2   4  -9 2129.39   97.19
   2   4  -9 2007.00   97.29
   2  -4   9 1947.11   97.69
   2   4   9 2009.20   95.59
   2  -4  -9 1961.10   95.09
   2   4   9 1995.70   96.19
   2  -4  -9 1930.31   95.09
   2  -4  -9 1995.40   95.59
   2   4   9 2041.40   95.39
  -2   4  -9 2024.10   94.99
  -2  -4   9 1964.90   95.19
   3  -4   9  301.77   16.30
   3  -4   9  301.27   33.40
   3   4  -9  318.97   16.00
   3   4  -9  287.37   16.90
   3  -4   9  286.17   15.70
   3   4  -9  309.07   15.70
   3  -4  -9  283.77   15.60
   3  -4  -9  287.77   14.80
   3   4   9  273.67   15.20
  -3  -4   9  291.27   14.90
   3  -4  -9  325.67   15.60
   4   4  -9  795.12   90.89
   4   4  -9  897.11   45.10
   4  -4   9  914.41   65.99
   4   4  -9  961.10   45.10
   4   4  -9  905.81   46.30
   4  -4   9  994.10   45.60
   4   4  -9  980.60   45.30
   4  -4  -9  997.10   46.40
   4  -4  -9  945.31   47.00
   4  -4  -9  934.61   47.30
   0   5  -9   60.09    3.70
   0   5   9   63.09    4.20
   0   5  -9   63.39    4.10
   0   5  -9   65.39    6.30
   0  -5   9   76.89    4.50
   0  -5   9   68.29    4.10
   0   5   9   67.29    5.40
   0   5  -9   58.49    3.90
  -1   5   9 3631.74  176.08
   1   5  -9 3746.63  175.78
   1   5  -9 4186.88  179.48
   1   5  -9 3460.95  175.88
   1  -5   9 3679.73  202.58
   1  -5   9 3534.15  175.98
   1   5  -9 3616.14  176.28
  -1   5  -9 3437.26  161.38
  -1  -5   9 3377.46  161.38
   1   5   9 3629.94  162.38
   1   5   9 3294.67  161.88
   1  -5  -9 3202.58  161.28
   1  -5  -9 3255.87  161.58
  -1  -5   9 3523.25  161.78
   2   5  -9 1606.64   76.59
   2  -5   9 1640.54   78.09
   2   5  -9 1590.04   76.39
   2  -5   9 1467.35   98.59
   2   5  -9 1602.84   76.19
   2   5  -9 1606.34   76.69
   2   5  -9 1622.44   78.29
  -2   5  -9 1476.05   70.49
   2  -5  -9 1426.86   70.59
   2  -5  -9 1443.16   70.99
   2   5   9 1568.14   70.99
   2  -5  -9 1474.95   70.49
   2   5   9 1409.86   70.99
  -2  -5   9 1448.46   70.59
   2   5   9 1525.55   72.69
   3   5  -9  481.95   26.10
   3   5  -9  517.45   24.30
   3  -5   9  470.05   24.60
   3  -5   9  449.95   42.90
   3  -5   9  485.55   25.10
   3   5  -9  498.75   24.60
   3   5   9  434.46   23.60
   3  -5  -9  469.95   24.30
   3  -5  -9  504.75   24.00
   3  -5  -9  475.95   23.20
   4   5  -9   13.00    2.80
   4   5  -9   12.00   18.30
   4   5  -9    9.50    3.60
   4  -5  -9   13.70    2.10
   4  -5  -9   11.90    3.40
   0   6   9 3543.65  170.78
   0  -6   9 3355.56  169.88
   0   6  -9 3690.73  170.28
   0   6   9 3622.14  170.58
   0   6  -9 3848.52  172.08
   0   6   9 3485.25  170.18
   0   6  -9 3446.66  169.98
   0   6  -9 3546.55  169.68
   1   6  -9 4749.02  235.38
  -1   6   9 4919.01  236.28
   1   6  -9 5066.99  235.58
  -1   6   9 4950.20  235.98
   1   6  -9 5089.09  237.38
   1   6  -9 4717.83  235.28
   1   6  -9 5115.49  235.18
  -1   6  -9 4573.94  215.68
   1   6   9 4581.04  216.08
  -1  -6   9 4446.35  215.38
   1  -6  -9 4465.35  215.28
   1  -6  -9 4238.58  215.88
   1   6   9 4860.81  216.58
   2   6  -9  791.22   37.90
  -2   6   9  779.42   38.60
   2  -6   9  704.13   58.09
   2   6  -9  775.52   37.90
   2   6  -9  802.82   38.20
  -2   6   9  735.63   38.00
   2  -6   9  827.12   38.70
   2   6  -9  776.42   40.00
   2   6  -9  792.32   37.70
   2   6   9  699.13   34.50
   2  -6  -9  661.13   34.10
   2  -6  -9  694.33   33.80
   2  -6  -9  690.23   34.50
  -2  -6   9  706.63   34.30
  -2  -6   9  670.93   33.90
   2   6   9  734.93   34.40
   2   6   9  733.13   35.10
   3   6  -9   32.00   27.20
   3  -6   9   33.00    4.70
   3  -6   9   27.80    5.30
  -3   6   9   32.60    5.50
   3   6  -9   26.10    3.00
   3   6  -9   25.10    5.70
   3  -6  -9   20.40    2.50
   3   6   9   30.40    5.30
   3   6   9   22.30    4.00
   3   6   9   29.40    4.00
  -3  -6   9   25.20    3.20
   3  -6  -9   18.90    3.80
   3  -6  -9   27.10    3.30
   4   6  -9  148.79   33.00
   4   6  -9  148.89    8.00
   4  -6   9  155.58    9.00
   4  -6   9  127.39   20.20
   4   6  -9  130.69   10.50
   4  -6  -9  141.99    7.50
   4  -6  -9  136.59    8.40
   4  -6  -9  149.19    9.20
  -4  -6   9  144.49    8.20
   0   7   9  597.94   29.70
   0  -7   9  630.04   29.30
   0   7   9  577.14   29.30
   0   7   9  583.44   29.80
   0  -7   9  568.74   29.00
   0   7  -9  609.84   31.40
   0   7  -9  584.84   29.10
   1   7  -9   97.09    8.70
   1   7  -9   90.09    5.90
  -1   7   9   90.99    6.50
   1   7  -9   94.99    5.80
   1  -7   9  107.49    6.00
   1   7  -9   87.99    5.60
   1  -7   9   93.79    5.80
   1   7  -9   92.69    5.50
  -1   7   9   88.19    5.80
  -1   7  -9  102.09    6.00
   1   7   9  101.99    6.90
   1   7   9  107.19    6.90
   1   7   9   99.29    6.30
  -1  -7   9  104.09    6.20
  -1   7  -9   94.99    9.00
  -1  -7   9  110.69    6.20
   2   7  -9 2785.12  131.69
   2   7  -9 2842.92  133.69
   2   7  -9 2760.32  131.19
   2   7  -9 2633.54  131.29
  -2   7   9 2629.84  131.79
   2  -7   9 2866.01  131.99
   2   7  -9 2713.33  131.39
   2  -7  -9 2355.86  123.59
   2  -7  -9 2685.63  123.39
   2   7   9 2641.74  124.49
  -2  -7   9 2604.94  123.89
   2   7   9 2584.14  124.09
   2   7   9 2719.43  123.99
   2  -7  -9 2520.15  123.99
   3  -7   9  468.75   23.80
   3   7  -9  465.05   25.40
   3   7  -9  394.56   52.29
   3  -7   9  507.85   24.60
  -3   7   9  480.35   25.90
   3   7  -9  477.05   23.10
   3  -7   9  428.06   39.70
   3  -7  -9  417.86   22.50
   3  -7  -9  426.36   23.10
   3  -7  -9  491.55   22.60
  -3  -7   9  445.46   22.30
   3   7   9  472.65   23.60
   3   7   9  406.86   22.30
   3   7   9  456.05   22.50
   4   7  -9  182.58   28.60
   4   7  -9  167.38    9.20
   4  -7   9  157.08   19.30
   4  -7   9  181.28   10.00
   4  -7  -9  155.48    9.40
  -4  -7   9  161.38    8.90
   4  -7  -9  162.88    9.90
   4  -7  -9  169.88    8.30
   0   8  -9   30.60    6.80
   0   8   9   25.10    3.90
   0   8   9   33.30    4.00
   0   8   9   24.90    3.10
   0  -8   9   28.70    3.20
   0  -8   9   27.40    2.90
  -1   8   9   40.20    4.60
   1   8  -9   33.90    3.40
   1   8  -9   42.90    6.60
   1  -8   9   39.00    3.50
   1   8  -9   31.40    3.90
  -1   8   9   36.20    3.60
   1   8   9   43.50    4.40
  -1   8  -9   39.30    7.50
  -1  -8   9   47.50    3.60
   1   8   9   36.50    3.70
   2   8  -9  354.86   17.90
   2  -8   9  345.07   17.90
   2   8  -9  344.97   20.20
   2   8  -9  342.27   17.30
  -2   8   9  326.47   18.10
   2   8  -9  348.17   17.60
   2   8  -9  342.67   17.40
   2   8   9  335.07   17.30
   2   8   9  351.36   17.20
   2  -8  -9  303.87   17.20
   2   8   9  333.47   17.60
  -2   8  -9  328.17   16.90
  -2  -8   9  333.07   16.90
   2  -8  -9  341.47   16.50
   3   8  -9  932.31   47.30
   3  -8   9  939.21   45.70
   3   8  -9  981.70   45.30
   3  -8   9  988.00   46.40
   3   8  -9  815.82   71.59
   3   8   9  987.40   48.20
   3  -8  -9  928.91   47.80
  -3  -8   9  964.70   47.30
   3  -8  -9 1022.40   50.29
   3   8   9  968.70   47.70
   3  -8  -9  985.90   46.90
   0   9   9  119.59    7.40
   0   9  -9  142.89   10.80
   0   9   9  114.89    7.90
   0  -9   9  125.59    7.10
   1  -9   9  343.97   18.00
   1   9  -9  377.86   20.70
   1   9  -9  347.97   18.30
   1   9  -9  342.37   17.80
   1   9  -9  356.36   18.00
  -1   9   9  341.87   18.50
  -1   9   9  366.46   18.10
  -1   9  -9  354.26   20.80
   1   9   9  365.56   18.20
  -1   9  -9  354.66   18.00
   1   9   9  348.87   18.50
  -1  -9   9  348.87   17.90
   2   9  -9 1344.57   68.89
   2   9  -9 1520.95   70.99
  -2   9   9 1330.07   70.19
   2  -9   9 1494.55   68.99
   2   9  -9 1478.15   68.79
   2   9  -9 1325.77   68.49
   2   9  -9 1493.65   69.49
  -2   9  -9 1353.76   71.59
   2  -9  -9 1475.35   68.89
   2   9   9 1484.85   69.99
   2   9   9 1489.15   69.59
  -2  -9   9 1486.75   69.39
  -2   9  -9 1356.06   69.29
   3  -9   9  253.97   13.40
   3   9  -9  251.07   13.00
   3  -9   9  259.27   14.20
   3   9  -9  243.18   30.70
  -3  -9   9  253.37   13.30
   3   9   9  260.07   14.30
   3  -9  -9  276.97   12.90
   3  -9  -9  250.57   13.90
   0  10  -9    3.00    1.60
   0 -10   9    7.40    2.00
   0  10  -9    4.70    5.20
   0  10   9    6.60    2.40
   0  10   9    3.80    1.60
   1  10  -9 2163.88  101.89
  -1  10   9 2001.30  102.29
  -1  10   9 2149.69  101.89
   1  10  -9 2142.89  103.69
   1 -10   9 2164.38  101.79
  -1 -10   9 2079.89  100.39
   1  10   9 2058.19  100.89
  -1  10  -9 1997.30  102.39
  -1  10  -9 2134.99  100.49
   1  10   9 2212.78  100.69
   2  10  -9   11.10    2.10
   2  10  -9    9.80   11.20
   2  10  -9    7.20    4.50
  -2  10  -9   17.20    7.30
  -2 -10   9   10.90    2.40
   2  10   9   12.10    2.80
   0  11  -9  437.86   21.20
   0 -11   9  414.66   21.10
   0  11   9  434.36   21.30
   0  11  -9  420.16   23.70
   0  11   9  417.06   21.50
  -1  11   9  153.18   10.00
   1 -11   9  168.78    9.30
   1  11  -9  202.78   14.10
   1  11  -9  189.78    9.60
  -1  11   9  170.08    9.60
   1  11   9  181.48   10.30
  -1 -11   9  175.48    9.60
  -1  11  -9  190.68    9.80
   1  11   9  185.18    9.90
   0   0 -10  154.68    7.80
   0   0  10  152.58    7.90
   0   0  10  136.19    8.40
   0   0  10  156.58    8.10
   1   0  10  347.97   19.00
   1   0 -10  396.56   18.70
  -1   0  10  398.26   18.90
   1   0 -10  352.76   18.70
  -1   0 -10  409.56   18.70
   1   0  10  400.36   19.20
   1   0 -10  362.66   18.70
   1   0 -10  374.36   18.80
   2   0 -10  523.75   26.10
   2   0 -10  519.35   25.90
   2   0 -10  541.25   26.00
   2   0  10  474.95   26.20
   2   0 -10  526.75   25.60
  -2   0  10  521.55   25.80
  -2   0 -10  553.54   25.50
   2   0  10  515.55   26.00
   2   0  10  534.35   43.60
   3   0 -10  189.28   10.50
  -3   0  10  192.18   10.30
   3   0 -10  178.38   10.30
   3   0  10  197.48   25.60
   3   0 -10  182.78   10.70
   3   0  10  182.48   10.50
   4   0  10 2385.66  132.69
   4   0 -10 2330.57  110.29
   4   0 -10 2310.97  110.39
  -4   0  10 2350.16  110.09
   4   0  10 2243.08  110.09
   4   0 -10 2154.58  140.99
   4   0 -10 2291.67  109.99
   0   1  10 5078.89  249.78
   0   1  10 5526.85  249.78
   0  -1  10 5137.89  249.78
  -1   1  10 3672.23  169.48
  -1   1  10 3656.73  169.78
   1  -1  10 3470.15  169.38
   1  -1  10 3783.62  169.48
   1  -1  10 3313.37  189.88
   1  -1  10 3418.06  168.98
   1  -1 -10 3781.22  179.08
   1   1  10 3897.91  179.58
   1   1  10 3552.64  179.28
   1   1  10 3815.52  179.78
   2   1 -10  459.15   23.10
  -2   1  10  476.65   23.20
   2  -1  10  453.85   23.40
   2   1 -10  467.25   22.90
   2  -1  10  477.35   41.70
   2  -1  10  439.96   23.60
   2   1 -10  468.45   23.60
  -2  -1 -10  476.55   22.90
   2   1 -10  486.95   23.40
   2  -1 -10  484.95   23.90
  -2  -1  10  486.55   24.10
   2   1  10  472.35   24.30
   2  -1 -10  504.35   24.20
  -2   1 -10  487.95   23.80
   2  -1 -10  530.05   24.40
   2   1  10  478.05   40.90
   2  -1 -10  456.45   24.10
   3  -1  10 2008.40  117.29
   3   1 -10 2068.09   94.59
   3  -1  10 1899.71   94.39
   3   1 -10 1912.41   94.79
   3   1 -10 1914.81   94.29
   3  -1 -10 1591.34  114.59
   3  -1 -10 1951.40   89.29
   3   1  10 1981.30  111.09
  -3  -1  10 1867.31   88.89
   3   1  10 1840.42   89.09
   3  -1 -10 1876.81   88.79
   3  -1 -10 1847.82   89.19
   4   1 -10  507.75   26.20
   4   1 -10  515.95   26.90
   4   1 -10  501.35   56.29
   4   1 -10  529.45   26.40
   4  -1  10  511.85   26.30
   4  -1  10  549.15   45.30
  -4   1  10  534.05   26.20
   4   1 -10  533.15   26.30
   4   1  10  535.85   44.30
   4   1  10  529.65   26.50
   4  -1 -10  518.85   26.60
   4  -1 -10  526.55   26.10
   4  -1 -10  536.35   26.70
   4  -1 -10  490.25   47.90
  -4  -1  10  564.24   26.30
   0  -2  10 9999.00  475.15
  -1  -2 -10 2933.51  132.49
  -1   2  10 2567.04  132.69
   1  -2  10 2992.60  132.79
   1  -2  10 2671.73  154.78
   1   2 -10 2866.21  132.99
   1   2 -10 2650.33  132.39
   1  -2  10 2807.42  132.79
   1  -2  10 2726.43  132.49
   1  -2 -10 2826.32  132.39
   1   2  10 2676.73  132.59
   1   2  10 2865.61  133.19
  -1   2 -10 2866.61  132.29
  -1  -2  10 2646.14  132.49
   1  -2 -10 2747.63  132.39
   1   2  10 2804.52  132.79
   2   2 -10 1646.64   77.09
   2  -2  10 1491.35   76.49
   2   2 -10 1606.54   76.79
   2   2 -10 1627.74   77.49
   2  -2  10 1596.44   77.19
  -2  -2 -10 1658.33   76.59
   2   2 -10 1583.04   76.59
   2  -2  10 1589.44   98.69
   2  -2  10 1584.34   77.09
   2  -2 -10 1483.35   70.69
   2   2  10 1437.76   88.79
  -2   2 -10 1557.14   70.09
   2   2  10 1228.98   70.89
   2  -2 -10 1493.25   70.19
   2  -2 -10 1588.94   70.79
   2   2  10 1483.65   70.59
  -2  -2  10 1446.46   70.39
   3   2 -10 1145.29   56.09
   3  -2  10 1138.99   77.79
   3   2 -10 1182.28   56.89
   3  -2  10 1123.99   56.29
   3   2 -10 1188.28   56.39
   3  -2 -10  937.01   73.89
   3   2  10 1061.99   52.49
   3  -2 -10 1097.79   52.69
   3  -2 -10 1133.79   52.19
  -3  -2  10 1079.59   52.19
   3   2  10 1090.09   71.39
   3  -2 -10 1159.08   52.79
   4  -2  10   62.59    5.70
   4   2 -10   65.59    5.90
   4   2 -10   65.89    4.90
   4   2 -10   60.49   28.40
  -4   2  10   67.39    5.00
   4   2 -10   59.89    4.80
   4  -2 -10   64.69    5.10
   4   2  10   67.79   18.40
   4   2  10   65.19    5.60
   4  -2 -10   67.09    5.40
  -4  -2  10   66.99    4.70
   4  -2 -10   72.79    5.30
   0  -3  10   67.99    4.50
   0   3 -10   67.89    4.20
   0   3  10   59.59    4.20
   0  -3  10   71.49    5.40
   0   3  10   69.09    5.00
   0   3  10   77.99    4.80
   0  -3  10   78.79    4.50
   1   3 -10 2214.48  103.49
  -1   3  10 2309.77  103.69
   1  -3  10 2166.88  103.69
   1  -3  10 2175.48  127.89
  -1   3  10 2101.39  103.89
   1  -3  10 2253.17  103.89
   1   3 -10 2021.10  103.39
  -1   3  10 2059.69  103.59
   1  -3  10 2140.89  103.89
   1   3 -10 2227.28  104.39
   1  -3 -10 2153.98  101.39
   1   3  10 2113.69  101.39
   1  -3 -10 2018.00  101.29
   1   3  10 2253.87  102.19
  -1  -3  10 2083.29  101.29
   1   3  10 2009.50  101.59
  -1   3 -10 2214.28  101.29
   2  -3  10  348.67   18.50
   2  -3  10  342.67   18.00
   2   3 -10  357.36   18.10
   2   3 -10  358.26   17.90
  -2  -3 -10  359.96   17.90
   2   3 -10  357.76   19.00
   2   3 -10  374.66   18.40
   2  -3  10  371.56   18.50
   2  -3 -10  355.96   18.10
  -2   3 -10  390.46   18.00
   2   3  10  335.17   19.30
   2  -3 -10  384.86   18.50
   2   3  10  365.36   18.20
   2   3  10  362.76   18.50
  -2  -3  10  355.06   18.10
   2  -3 -10  357.06   18.10
   3  -3  10  909.21   45.50
   3   3 -10  974.50   45.40
   3   3 -10  897.11   45.00
   3   3 -10  932.71   46.10
   3  -3  10  902.41   66.59
   3   3  10  837.52   59.59
   3  -3 -10  893.61   42.60
   3  -3 -10  912.11   43.20
   3   3  10  846.52   42.90
   3  -3 -10  893.31   43.30
  -3  -3  10  890.91   42.70
   4   3 -10 1273.07  119.89
   4   3 -10 1376.06   68.19
   4  -3  10 1460.15   67.69
  -4   3  10 1502.25   67.39
   4   3 -10 1419.86   67.49
   4   3 -10 1254.27   67.39
   4  -3  10 1401.76   93.59
   4   3 -10 1447.16   67.39
  -4  -3  10 1317.47   64.19
   4  -3 -10 1352.96   64.89
   4   3  10 1321.17   81.49
   4  -3 -10 1352.76   86.99
   4  -3 -10 1378.76   65.09
   4   3  10 1250.27   64.49
   4  -3 -10 1388.06   64.29
   0   4 -10 1809.82   84.99
   0  -4  10 1917.31   85.19
   0   4  10 1693.83   85.39
   0   4  10 1762.22   85.09
   0  -4  10 1730.43   84.89
   0   4  10 1660.83   84.99
   0   4 -10 1897.71   86.29
   0  -4  10 1729.63   85.29
  -1   4  10 3466.85  173.88
   1   4 -10 3449.65  173.68
   1  -4  10 3738.33  201.38
   1   4 -10 3559.34  173.48
  -1   4  10 3630.54  173.98
   1  -4  10 3986.70  174.38
   1   4 -10 3522.25  173.78
   1  -4  10 3668.03  173.98
  -1   4  10 3691.13  174.38
   1   4 -10 3765.52  175.08
   1   4  10 3472.65  160.78
   1  -4 -10 3223.08  159.98
  -1  -4  10 3330.37  159.88
  -1  -4  10 3423.86  160.18
   1   4  10 3269.47  160.28
  -1   4 -10 3530.35  159.88
   1  -4 -10 3242.08  159.78
   2  -4  10  296.37   15.90
   2   4 -10  309.57   15.50
   2   4 -10  314.17   15.70
   2  -4  10  314.27   16.00
   2   4 -10  321.67   17.00
   2  -4  10  280.07   33.60
   2   4  10  279.77   15.50
  -2   4 -10  320.07   15.00
   2   4  10  299.97   16.40
  -2  -4  10  301.17   15.10
   2  -4 -10  298.07   15.00
   2  -4 -10  287.77   15.10
   2   4  10  304.37   15.20
   2  -4 -10  292.17   15.40
   3   4 -10  938.51   44.90
   3   4 -10  937.91   45.30
   3  -4  10  950.70   45.50
   3  -4  10  887.11   66.59
   3   4 -10  887.21   46.20
  -3  -4  10  886.01   43.00
   3  -4 -10  900.01   43.00
   3  -4 -10  898.21   43.60
   3   4  10  864.01   43.40
   3  -4 -10  894.91   43.90
   4   4 -10  434.56   24.40
   4   4 -10  454.35   24.40
   4   4 -10  437.86   23.40
   4  -4  10  486.45   41.90
   4  -4  10  497.55   23.80
   4  -4 -10  490.65   25.90
   4  -4 -10  508.95   27.90
   4  -4 -10  590.74   27.90
   0   5 -10 7957.20  379.76
  -1   5  10  389.76   21.10
   1  -5  10  409.06   21.10
   1   5 -10  489.75   22.30
   1   5 -10  395.96   20.90
   1  -5  10  437.96   21.40
   1   5 -10  408.66   21.00
   1   5 -10  410.26   20.70
   1   5 -10  415.76   22.60
  -1   5  10  464.05   21.90
  -1   5  10  419.56   21.10
  -1  -5  10  415.86   20.90
  -1  -5  10  422.86   20.70
  -1   5 -10  422.46   20.60
   1   5  10  443.46   21.60
   1   5  10  409.36   21.20
   1   5  10  418.06   20.90
   1  -5 -10  396.96   20.80
   2  -5  10 3079.59  182.78
   2   5 -10 3374.06  157.88
   2   5 -10 3405.06  159.58
   2   5 -10 3265.37  157.98
   2  -5  10 3419.96  158.58
   2  -5 -10 2946.71  149.88
   2   5  10 3335.67  151.08
   2   5  10 3065.09  150.38
  -2  -5  10 3142.19  149.88
   2  -5 -10 3227.08  149.79
   2   5  10 3222.68  150.18
  -2  -5  10 3063.19  150.18
   3   5 -10 1430.66   65.39
   3   5 -10 1366.26   66.89
   3  -5  10 1441.76   65.99
   3  -5  10 1291.77   65.49
   3  -5  10 1223.88   86.79
   3   5  10 1127.19   62.99
   3  -5 -10 1356.46   61.39
   3  -5 -10 1333.77   62.49
   3  -5 -10 1323.97   62.09
   3   5  10 1245.78   61.79
   4  -5  10    1.10    2.30
   4   5 -10    3.50    2.30
   4   5 -10    3.00    3.90
   4   5 -10    4.00   14.20
  -4  -5  10   10.40    2.60
   4  -5 -10    7.00    2.80
   0   6 -10  724.13   34.90
   0   6  10  681.13   35.20
   0  -6  10  683.43   34.80
   0   6  10  733.23   35.50
   0   6 -10  759.62   36.90
   1  -6  10 1825.22   84.19
  -1   6  10 1828.52   84.59
  -1   6  10 1891.71   85.19
   1   6 -10 1812.82   83.99
   1  -6  10 1672.63   83.89
  -1   6  10 1736.83   84.69
   1   6 -10 1758.72   83.59
   1   6 -10 1666.83   83.69
  -1   6  10 1591.44   83.79
   1   6 -10 1695.93   83.79
   1   6 -10 1748.23   85.59
  -1  -6  10 1557.74   77.39
   1   6  10 1624.34   78.29
  -1   6 -10 1568.54   79.39
  -1   6 -10 1638.34   77.49
   1   6  10 1636.14   78.09
  -1  -6  10 1673.83   77.79
   1   6  10 1614.64   77.79
   2  -6  10   92.99   19.90
   2   6 -10  101.89    6.10
   2   6 -10  105.89    8.60
   2   6 -10   95.79    6.00
  -2   6  10  107.39    7.30
   2   6 -10  100.69    6.40
   2   6 -10  101.79    5.90
   2  -6 -10   81.99    4.90
   2  -6 -10   76.99    5.40
   2   6  10   74.29    5.40
   2   6  10   85.19    5.90
  -2  -6  10   85.29    5.40
   2  -6 -10   83.79    5.50
  -2  -6  10   88.59    5.30
  -3   6  10  624.34   32.30
   3   6 -10  690.43   31.80
   3  -6  10  650.03   32.30
   3  -6  10  599.64   50.69
   3  -6  10  657.83   33.20
  -3  -6  10  673.03   31.40
   3   6  10  604.74   31.60
   3   6  10  622.14   32.60
   3  -6 -10  656.43   30.70
   3  -6 -10  625.34   31.40
   3  -6 -10  609.54   31.80
   4  -6  10  951.10   42.30
  -4   6  10  878.91   41.80
   4   6 -10  836.32   41.70
   4   6 -10  853.51   73.89
   4  -6  10  778.92   56.29
   4  -6 -10  869.41   40.40
   4  -6 -10  810.02   41.00
  -4  -6  10  836.02   40.80
   4  -6 -10  839.02   41.40
   0   7 -10  423.76   22.10
   0  -7  10  401.86   19.70
   0   7  10  383.46   20.40
   0  -7  10  366.36   19.50
   0   7  10  384.46   19.80
   0   7 -10  392.86   19.60
   0   7  10  387.06   20.30
   1   7 -10  759.92   38.20
   1   7 -10  810.62   40.20
   1   7 -10  812.22   38.10
  -1   7  10  765.32   38.70
  -1   7  10  779.12   38.20
   1  -7  10  735.63   38.00
   1  -7  10  816.42   38.30
   1   7 -10  759.72   37.70
  -1  -7  10  757.82   36.50
   1   7  10  746.73   36.90
  -1  -7  10  700.73   36.20
   1   7  10  775.82   37.20
   1   7  10  737.03   36.60
  -1   7 -10  752.52   36.30
  -1   7 -10  751.82   38.70
   2  -7  10  293.57   15.50
  -2   7  10  284.27   15.80
   2   7 -10  283.27   14.90
   2   7 -10  298.57   15.70
   2   7 -10  295.17   17.40
   2   7  10  298.47   15.00
   2  -7 -10  292.17   14.40
   2  -7 -10  266.57   14.80
  -2  -7  10  291.27   14.90
   2  -7 -10  277.17   15.10
   2   7  10  290.97   15.20
   2   7  10  298.27   15.80
   3  -7  10  347.47   20.60
   3  -7  10  369.76   18.80
   3   7 -10  369.06   18.20
   3   7 -10  363.16   20.30
  -3   7  10  333.27   19.40
   3   7  10  333.77   19.70
   3  -7 -10  320.07   17.30
   3   7  10  301.77   16.70
   3  -7 -10  338.57   16.10
  -3  -7  10  333.07   16.60
   0   8  10 5108.79  239.48
   0   8  10 4864.71  239.78
   0   8 -10 5353.16  241.38
   0   8  10 5063.29  239.68
   0  -8  10 4721.83  238.98
   1   8 -10  627.54   31.70
  -1   8  10  615.64   29.40
  -1   8  10  591.14   29.90
   1   8 -10  561.54   29.70
   1   8 -10  550.34   29.10
   1  -8  10  616.54   29.50
   1   8  10  639.84   31.60
  -1  -8  10  621.74   30.80
   1   8  10  636.14   31.30
   1   8  10  628.94   31.00
  -1   8 -10  611.94   33.20
  -1  -8  10  617.84   31.50
   2  -8  10  997.80   46.50
  -2   8  10  950.50   46.60
   2   8 -10  977.90   46.20
   2   8 -10  968.30   46.40
   2   8 -10  954.10   45.90
  -2   8  10  838.32   45.90
   2   8 -10  956.20   46.00
  -2  -8  10 1009.10   48.50
  -2   8 -10 1057.29   54.59
   2   8  10 1027.60   49.20
   2  -8 -10 1002.20   48.10
   2   8  10  873.21   50.19
   2   8  10 1029.80   48.70
   3   8 -10  271.07   36.70
  -3   8  10  269.37   15.20
   3   8 -10  303.17   17.70
   3  -8  10  301.57   15.90
   3  -8  10  308.67   15.90
   3   8 -10  314.27   15.40
   3  -8  10  345.67   17.80
   3  -8 -10  292.87   15.90
  -3  -8  10  288.77   15.30
   3  -8 -10  313.97   14.90
   3   8  10  307.37   16.80
   0  -9  10 1698.03   84.79
   0   9  10 1810.32   85.09
   0   9 -10 1823.02   86.99
   0   9  10 1736.23   85.39
   1   9 -10  471.55   23.00
   1   9 -10  407.56   26.30
   1  -9  10  471.95   23.00
  -1   9  10  457.25   23.50
  -1   9  10  486.65   23.10
  -1   9 -10  446.86   27.50
  -1   9 -10  448.66   22.70
   1   9  10  469.55   22.90
   1   9  10  464.55   23.30
  -1  -9  10  440.76   22.60
   2   9 -10   55.59    7.80
  -2   9  10   56.49    5.70
   2   9 -10   61.39    5.80
  -2   9 -10   63.79   10.80
  -2  -9  10   73.39    6.10
  -2   9 -10   66.59    5.00
   2   9  10   66.99    5.30
  -3   9  10  311.57   16.90
   3  -9  10  373.96   17.50
   3   9 -10  331.47   34.00
   3  -9 -10  372.86   19.10
  -3  -9  10  375.66   18.60
   0  10  10   10.00    2.70
   0 -10  10   10.50    2.10
   0  10 -10   16.70    6.10
   1  10 -10  225.38   13.20
  -1  10  10  236.88   12.60
  -1  10  10  242.28   13.10
   1  10 -10  249.88   15.30
   1 -10  10  237.08   12.90
  -1 -10  10  244.48   15.10
   1  10  10  302.27   15.60
  -1  10 -10  272.37   17.30
  -1  10 -10  284.07   15.60
   2  10 -10   81.79   20.50
   2 -10  10   99.49    6.00
   2  10 -10  103.69    6.10
   2  10  10   96.29    6.80
   2  10  10  103.49    6.30
  -2 -10  10   99.29    5.90
   0  11  10  525.75   25.70
   0  11  10  514.75   26.00
   0 -11  10  503.65   25.60
   0  11 -10  540.05   25.70
   1 -11  10  498.25   24.80
   1  11 -10  527.05   24.90
   1 -11  10  511.85   25.00
  -1  11  10  482.25   25.20
  -1  11  10  505.25   25.10
  -1 -11  10  489.95   25.30
  -1  11 -10  514.25   25.50
   1  11  10  530.65   25.90
   1  11  10  538.65   25.60
   0   0 -11    4.70    1.30
   0   0  11    6.20    1.70
   0   0  11    2.50    2.00
   0   0 -11    3.20    1.10
   1   0  11 1709.23  113.59
   1   0 -11 2028.90   94.59
   1   0 -11 2077.69   94.49
   1   0 -11 1882.61   94.49
  -1   0 -11 2176.28   94.49
   1   0  11 1973.20   94.79
   1   0  11 1958.30   95.69
  -1   0  11 2003.70   94.59
   2   0  11 4303.57  236.68
  -2   0 -11 4666.83  214.28
   2   0  11 4264.97  214.98
   2   0  11 4522.45  214.78
   2   0 -11 4668.43  214.78
   2   0 -11 4583.94  214.28
   3   0 -11  707.33   67.49
   3   0  11  838.02   41.30
   3   0  11  869.01   61.99
  -3   0  11  865.01   41.10
   3   0 -11  823.82   41.20
   3   0 -11  900.11   41.40
   3   0 -11  875.91   41.60
   4   0 -11  455.25   22.40
   4   0 -11  432.96   22.70
   4   0 -11  449.36   22.70
   4   0  11  452.25   22.70
  -4   0  11  448.66   22.40
   0   1  11 2583.94  130.79
   0  -1  11 2653.33  130.79
   0  -1 -11 2748.43  130.59
   0   1  11 2846.22  130.79
   0  -1  11 2776.42  130.89
   0  -1  11 2815.62  130.59
   1   1 -11 1423.36   69.99
   1   1 -11 1512.85   69.89
   1   1 -11 1374.26   69.79
  -1   1  11 1487.65   70.09
   1  -1  11 1335.47   90.49
  -1   1  11 1360.56   70.19
   1  -1  11 1415.76   70.19
   1  -1  11 1580.84   70.29
  -1  -1 -11 1591.24   69.99
   1   1 -11 1495.45   70.09
  -1   1 -11 1576.94   72.39
   1   1  11 1419.56   72.69
  -1  -1  11 1463.05   72.49
   1   1  11 1538.75   73.29
   1  -1 -11 1527.25   72.39
   1   1  11 1592.14   72.89
   1  -1 -11 1460.95   72.49
   2   1 -11 1559.84   74.89
   2  -1  11 1495.85   97.19
   2   1 -11 1569.64   75.09
   2   1 -11 1618.94   75.39
   2  -1  11 1535.85   75.69
   2   1 -11 1595.64   75.49
  -2   1  11 1563.74   75.19
   2  -1  11 1524.15   75.29
  -2  -1 -11 1598.04   74.89
  -2   1 -11 1580.14   73.89
   2   1  11 1532.85   74.39
   2  -1 -11 1510.65   74.29
   2   1  11 1440.76   93.79
   2  -1 -11 1607.44   74.39
   2   1  11 1544.25   74.39
   2  -1 -11 1575.84   73.99
  -2  -1  11 1551.84   74.09
  -3   1  11  881.51   42.50
   3  -1  11  862.01   63.39
   3  -1  11  872.61   42.70
   3   1 -11  841.32   42.90
   3   1 -11  889.41   42.70
   3   1 -11  864.31   42.50
   3  -1 -11  787.92   37.70
   3   1  11  783.82   38.10
   3  -1 -11  819.32   38.20
   3   1  11  783.22   57.69
  -3  -1  11  786.62   37.80
   3  -1 -11  655.33   60.99
   3  -1 -11  792.22   38.10
   4  -1  11  393.46   20.30
   4   1 -11  396.06   20.00
   4   1 -11  387.76   20.20
   4   1 -11  389.26   20.10
  -4   1  11  403.36   20.00
   4   1  11  403.96   42.40
   4  -1 -11  374.26   44.90
  -4  -1  11  392.46   19.40
   4   1  11  373.66   19.60
   4  -1 -11  384.16   19.70
   4  -1 -11  379.46   19.30
   4  -1 -11  380.76   19.70
   0   2  11 3273.97  151.78
   0  -2  11 3389.86  151.78
   0   2  11 2965.80  151.88
   0  -2  11 3223.38  151.68
   0  -2  11 3049.59  151.78
   0   2 -11 3183.18  151.88
   1  -2  11 2311.27  108.89
  -1   2  11 2272.37  108.89
   1   2 -11 2340.97  108.99
   1   2 -11 2111.29  108.59
  -1  -2 -11 2473.85  108.89
   1  -2  11 2265.77  109.09
   1   2 -11 2371.46  108.79
   1   2 -11 2275.67  109.19
   1  -2  11 2188.48  108.69
   1  -2  11 2182.18  132.19
  -1   2  11 2241.38  109.09
  -1  -2  11 2290.97  111.69
   1   2  11 2398.36  112.49
   1  -2 -11 2223.18  111.69
   1   2  11 2168.08  112.09
  -1   2 -11 2451.75  111.59
   1  -2 -11 2318.67  111.69
   1   2  11 2516.75  112.19
   2   2 -11 3454.75  164.58
  -2   2  11 3406.06  164.68
   2  -2  11 3258.87  188.68
   2   2 -11 3677.73  166.38
   2   2 -11 3230.18  164.48
   2  -2  11 3388.26  164.88
  -2  -2 -11 3540.55  164.38
   2  -2  11 3507.25  165.08
   2   2 -11 3575.74  164.88
   2   2  11 3281.47  155.88
   2  -2 -11 3235.38  155.88
   2  -2 -11 3407.56  155.88
  -2   2 -11 3499.15  155.38
   2  -2 -11 3314.37  155.48
   2   2  11 2833.82  173.78
  -2  -2  11 3254.27  155.58
  -3   2  11  342.87   18.20
   3   2 -11  337.47   18.10
   3   2 -11  338.17   18.80
   3  -2  11  379.36   37.90
   3   2 -11  375.16   18.50
   3  -2 -11  324.47   16.10
   3  -2 -11  273.27   35.50
   3   2  11  288.97   32.20
  -3  -2  11  305.27   15.60
   3   2  11  307.87   16.00
   3  -2 -11  317.07   16.10
   3  -2 -11  320.47   15.60
   4   2 -11  130.29    7.80
   4  -2  11  131.29    8.40
   4   2 -11  140.49    8.00
   4   2 -11  124.99    8.90
   4   2 -11  120.09   45.40
   4   2 -11  132.59    8.20
  -4   2  11  141.09    7.90
  -4  -2  11  140.59    8.00
   4  -2 -11  141.49    7.90
   4   2  11  153.78   23.30
   4  -2 -11  142.39   24.00
   4  -2 -11  141.19    8.50
   4  -2 -11  145.29    8.60
   4   2  11  145.29    8.60
   0   3 -11 1979.80   92.69
   0   3  11 1836.62   92.99
   0  -3  11 1987.50   92.69
   0   3  11 1799.62   92.69
   0   3 -11 1975.50   93.29
   0  -3  11 1867.41   92.89
   0   3  11 2003.30   92.89
   0  -3  11 2019.50   92.79
   0  -3 -11 1960.50   92.69
   1  -3  11 8142.59  376.76
   1  -3  11 7880.91  403.36
  -1   3  11 7655.83  375.56
  -1   3 -11 7906.01  366.96
   1   3  11 7495.55  366.36
   2  -3  11  446.36   26.00
   2   3 -11  480.15   24.20
   2   3 -11  458.05   23.00
   2  -3  11  457.15   23.10
   2  -3  11  442.56   43.60
   2   3 -11  493.75   23.30
  -2   3  11  464.85   23.30
   2  -3  11  498.15   23.70
  -2  -3 -11  454.95   23.20
   2  -3 -11  459.85   23.00
  -2   3 -11  493.05   23.00
   2   3  11  469.75   23.50
   2  -3 -11  455.05   23.70
   2   3  11  431.46   24.40
  -2  -3  11  470.25   23.10
   2  -3 -11  491.75   23.50
   3   3 -11   28.10    3.10
   3   3 -11   26.10    3.10
   3  -3  11   18.50    4.40
   3   3 -11   20.50   20.60
   3   3 -11   16.90    3.60
   3   3 -11   24.90    4.50
   3  -3 -11   29.40    3.40
  -3  -3  11   29.20    3.00
   3   3  11   30.60    3.70
   3  -3 -11   24.80    3.30
  -4   3  11  302.97   14.70
   4   3 -11  272.37   15.70
   4  -3  11  299.67   15.20
   4   3 -11  261.47   14.90
   4   3 -11  258.67   46.50
   4   3  11  237.78   29.00
   4  -3 -11  309.87   15.30
   4  -3 -11  292.27   14.20
  -4  -3  11  285.87   14.30
   4   3  11  280.87   14.80
   0   4  11 1340.97   67.69
   0   4  11 1369.16   68.09
   0   4 -11 1485.25   68.79
   0   4 -11 1409.46   67.59
   0  -4  11 1498.75   67.79
   0  -4  11 1355.56   67.89
   0   4  11 1447.86   68.49
   0  -4  11 1357.86   67.59
  -1   4  11  306.27   16.30
   1   4 -11  287.77   16.00
  -1   4  11  313.97   16.30
   1  -4  11  352.56   16.60
  -1   4  11  321.37   16.90
   1  -4  11  331.57   16.40
   1   4 -11  345.27   17.60
   1  -4  11  313.67   16.70
   1  -4 -11  309.17   15.70
  -1  -4  11  317.17   15.80
  -1   4 -11  326.27   15.70
   1   4  11  296.27   16.20
  -1   4 -11  320.47   17.40
   1  -4 -11  307.57   15.80
  -1  -4  11  312.47   15.90
   1   4  11  297.37   15.90
   1   4  11  337.47   16.80
   2   4 -11 3310.37  161.38
   2  -4  11 3523.65  161.58
   2  -4  11 3426.16  161.78
   2  -4  11 3283.17  187.58
   2   4 -11 3332.87  161.08
   2   4 -11 3385.26  162.38
   2   4  11 3313.27  159.28
   2  -4 -11 3227.28  158.78
   2  -4 -11 3357.66  158.68
   2   4  11 3481.75  160.58
  -2  -4  11 3258.57  158.78
   2   4  11 3343.27  158.98
   3   4 -11  110.09    6.90
   3  -4  11  114.89    7.90
   3   4 -11  110.79    7.20
   3   4 -11  119.49    7.20
   3  -4  11  117.89   23.10
   3   4 -11  113.79    8.40
   3   4  11  112.09    7.30
   3  -4 -11  110.59    7.20
   3  -4 -11  123.89    6.60
   3  -4 -11  116.59    7.30
   4   4 -11  391.56   20.60
   4  -4  11  435.76   20.90
  -4   4  11  416.76   20.40
   4   4 -11  372.96   21.50
   4   4 -11  347.67   53.79
   4   4 -11  411.06   20.40
   4  -4  11  448.66   38.90
   4  -4 -11  387.06   18.80
   4  -4 -11  378.66   19.60
   4  -4 -11  372.66   19.40
   0  -5  11   47.00    3.60
   0  -5  11   52.19    3.80
   0   5 -11   52.09    3.70
   0   5  11   43.60    4.50
   0   5 -11   55.69    6.50
   1  -5  11   10.40    2.20
   1   5 -11   15.40    4.40
  -1   5  11   11.70    2.50
   1   5 -11   15.10    2.40
   1  -5 -11   17.30    3.40
  -1   5 -11   11.50    4.20
  -1  -5  11   14.60    2.30
  -1   5 -11   16.20    2.30
   1   5  11   18.10    3.10
   2   5 -11   39.40    3.50
   2  -5  11   47.50    4.50
  -2   5  11   44.60    4.00
   2   5 -11   40.00    5.70
   2   5 -11   38.10    3.60
   2  -5  11   45.60    4.50
   2  -5  11   46.90   16.20
  -2   5 -11   62.49    4.30
   2  -5 -11   48.70    4.30
   2   5  11   53.49    4.00
  -2  -5  11   55.59    4.00
  -2  -5  11   54.99    4.20
   2   5  11   49.70    4.50
   2  -5 -11   53.49    4.10
   3   5 -11 1670.43   86.09
   3  -5  11 1691.43  107.79
   3   5 -11 1800.02   84.49
   3  -5  11 1863.21   85.09
  -3  -5  11 1663.13   82.09
   3  -5 -11 1685.93   82.59
   3   5  11 1806.32   82.79
   3  -5 -11 1678.23   82.29
  -3  -5  11 1647.94   81.59
   3  -5 -11 1754.12   81.69
  -4   5  11  105.09    6.10
   4   5 -11   95.29    5.90
   4   5 -11   92.39   29.50
   4   5 -11  103.79    6.30
   4  -5  11   98.49    6.70
   4  -5  11   81.19   16.90
   4  -5 -11  101.49    5.40
   4  -5 -11   96.29    6.60
  -4  -5  11  102.69    6.10
   4  -5 -11   89.09    6.40
   0   6  11  655.83   33.60
   0  -6  11  655.03   33.20
   0   6  11  640.24   32.90
   0   6 -11  696.43   32.80
   0  -6  11  631.44   32.60
   0   6  11  670.13   33.40
   0  -6  11  694.83   32.90
   0   6 -11  717.43   34.70
  -1   6  11  237.28   12.60
  -1   6  11  227.88   12.60
   1  -6  11  235.18   12.50
   1   6 -11  230.38   12.40
  -1   6  11  233.88   13.40
   1   6 -11  236.28   12.10
   1   6 -11  232.48   12.50
  -1   6  11  240.58   13.20
   1  -6  11  258.97   12.80
   1   6 -11  251.07   14.60
   1   6  11  259.37   14.20
   1   6  11  266.07   13.90
  -1   6 -11  264.17   13.20
  -1   6 -11  262.77   15.70
   1   6  11  250.07   13.40
  -1  -6  11  254.47   13.40
  -1  -6  11  249.58   13.10
   2   6 -11 2309.87  112.39
  -2   6  11 2311.17  113.19
   2   6 -11 2428.56  112.49
   2  -6  11 2446.06  112.99
   2   6 -11 2394.06  114.29
  -2   6  11 2211.28  112.49
  -2  -6  11 2262.27  110.79
   2   6  11 2311.97  110.99
   2  -6 -11 2340.57  112.49
   2   6  11 2393.56  111.59
   2   6  11 2397.56  110.89
   2  -6 -11 2357.46  110.29
  -2  -6  11 2338.67  110.49
   2  -6 -11 2093.29  110.49
  -3   6  11  253.47   13.90
   3   6 -11  257.37   13.00
   3   6 -11  255.77   14.90
   3  -6  11  261.37   13.70
   3  -6  11  247.98   13.60
   3   6 -11  208.48   42.20
  -3   6  11  247.08   13.00
   3  -6  11  238.68   29.00
  -3  -6  11  251.87   13.40
   3  -6 -11  269.57   13.90
   3  -6 -11  253.07   13.90
   3   6  11  250.17   13.50
   3  -6 -11  255.37   13.80
   4   6 -11  234.88   12.70
   4  -6  11  269.67   13.20
   4  -6  11  218.48   24.00
   4   6 -11  255.87   36.10
  -4   6  11  252.97   12.70
   4  -6 -11  258.87   13.00
   4  -6 -11  249.97   13.60
  -4  -6  11  245.48   13.00
   0   7  11  520.75   27.10
   0   7 -11  567.44   28.60
   0  -7  11  520.45   26.80
   0  -7  11  507.45   26.20
   0   7  11  548.05   27.00
   0   7 -11  549.65   26.30
   0   7  11  512.45   26.40
   0  -7  11  533.35   26.40
   1   7 -11 3954.80  183.58
   1  -7  11 3829.52  183.78
  -1   7  11 3922.41  183.68
   1  -7  11 3642.24  183.38
   1   7 -11 3959.10  185.38
  -1   7  11 3780.32  184.28
  -1  -7  11 3443.86  172.28
  -1   7 -11 3623.84  174.38
   1   7  11 3736.93  173.38
  -1   7 -11 3682.43  172.48
  -1  -7  11 3601.34  172.58
   1   7  11 3662.73  172.98
   1   7  11 3567.24  172.68
  -2   7  11  133.99    8.40
   2  -7  11  131.99    7.90
   2   7 -11  121.89    7.20
   2   7 -11  127.89    9.90
  -2   7  11  116.09    7.40
  -2   7 -11  126.59   12.00
   2   7  11  120.89    7.20
   2   7  11  122.39    8.20
   2   7  11  120.99    7.60
  -2  -7  11  120.49    7.10
   2  -7 -11  110.79    7.30
   2  -7 -11  126.89    6.60
   3  -7  11   66.09    5.70
   3   7 -11   87.49    7.70
   3  -7  11   74.79    6.10
   3   7 -11   72.89   24.80
   3   7 -11   78.99    5.10
  -3   7  11   68.39    7.30
  -3   7  11   69.79    5.00
   3   7  11   70.99   11.40
  -3  -7  11   91.09    5.60
   3  -7 -11   84.39    4.70
   3   7  11   76.49    5.80
   0   8  11  405.46   20.60
   0   8  11  404.26   21.00
   0   8  11  402.96   21.10
   0  -8  11  395.06   20.40
   0   8 -11  420.76   22.90
   0   8 -11  410.06   20.40
  -1   8  11 1354.26   68.69
   1  -8  11 1408.16   68.19
  -1   8  11 1453.75   68.29
   1   8 -11 1436.16   69.99
  -1   8 -11 1359.86   66.79
  -1  -8  11 1266.07   64.39
   1   8  11 1362.06   65.19
   1   8  11 1326.17   64.89
   1   8  11 1396.66   65.49
  -1  -8  11 1340.27   64.69
   2  -8  11  792.62   38.30
   2   8 -11  788.42   40.00
  -2   8  11  756.82   38.50
   2   8 -11  777.22   38.00
   2   8  11  807.32   39.30
   2   8  11  818.62   39.70
  -2   8 -11  739.63   41.60
   2   8  11  817.82   39.20
   2  -8 -11  806.62   38.50
  -2  -8  11  807.12   39.00
   3   8 -11  125.79   24.90
  -3   8  11  129.79    7.40
   3  -8  11  136.79    8.00
   3   8 -11  135.59    7.70
   3  -8 -11  151.18    9.00
   3   8  11  153.68   14.80
  -3  -8  11  154.38    8.40
   3  -8 -11  161.38    8.00
   0  -9  11 1105.39   56.09
   0   9 -11 1258.97   58.39
   0   9  11 1130.19   56.69
   0   9  11 1152.58   56.29
   1   9 -11  439.56   21.90
   1  -9  11  428.16   21.90
  -1   9  11  440.56   22.00
   1   9 -11  450.35   24.20
  -1   9  11  427.66   22.40
  -1   9 -11  460.05   25.00
  -1  -9  11  435.46   22.20
   1   9  11  438.56   22.40
   1   9  11  454.25   22.90
  -2   9  11  332.37   17.90
   2   9 -11  342.17   17.30
   2  -9  11  333.77   17.50
   2   9 -11  341.27   19.50
   2  -9  11  355.66   17.40
   2   9  11  365.66   18.20
  -2  -9  11  366.06   18.00
  -2   9 -11  359.36   18.10
  -2   9 -11  327.97   22.00
   2   9  11  367.26   18.70
   0  10 -11   79.99    9.50
   0 -10  11   76.79    4.90
   0  10  11   77.29    5.80
   0  10  11   91.29    5.60
   0  10 -11   70.29    6.40
   1  10 -11  235.58   15.00
   1  10 -11  235.38   12.00
   1 -10  11  219.48   12.30
   1 -10  11  228.38   12.00
  -1  10  11  232.08   12.60
  -1  10  11  229.68   12.20
  -1 -10  11  219.88   11.70
   1  10  11  235.68   12.00
   1 -10 -11  221.58   12.00
   1  10  11  224.78   12.40
  -1  10 -11  234.98   11.90
  -1  10 -11  225.18   16.10
   2 -10  11  626.54   29.80
   2 -10  11  652.63   29.90
   2  10 -11  541.55   45.80
   2  10  11  653.73   32.70
   2  10  11  678.83   32.20
  -2 -10  11  639.64   32.00
   0  11 -11   71.29    4.70
   0  11  11   74.19    4.90
   0  11  11   72.29    5.40
   0 -11  11   67.79    4.40
   1  11 -11  189.08    9.60
   1 -11  11  170.88    9.50
  -1  11 -11  225.08   11.30
   1  11  11  189.48   10.80
  -1 -11  11  169.58   10.00
   1  11  11  199.48   10.40
   1   0 -12  486.85   23.80
  -1   0  12  476.85   23.90
   1   0 -12  458.15   23.70
  -1   0 -12  510.05   23.80
   1   0  12  468.05   24.10
   1   0  12  471.95   24.80
   1   0  12  509.25   24.20
   1   0 -12  482.55   23.90
   2   0 -12 2115.29  104.39
   2   0  12 2180.98  104.89
  -2   0 -12 2236.78  104.19
  -2   0  12 2218.78  104.29
   2   0  12 2174.08  104.49
   2   0 -12 2244.28  104.19
   2   0 -12 2227.48  104.49
   2   0  12 2010.00  126.99
   3   0 -12    4.80    1.80
   3   0 -12    4.10    2.00
   3   0 -12    3.80   10.50
   3   0  12    4.30    1.80
   4   0 -12  189.98    9.90
   4   0  12  176.58   10.40
   4   0 -12  170.18   28.10
   4   0 -12  196.18   10.90
  -4   0  12  183.08    9.90
   0  -1  12 1337.47   65.69
   0   1  12 1286.17   65.99
   0  -1  12 1334.57   65.99
   0  -1  12 1414.86   65.89
   0   1  12 1407.06   65.99
   0   1 -12 1421.96   65.79
   0  -1 -12 1379.86   65.79
   1  -1  12 4209.28  198.28
   1  -1  12 4424.46  198.38
  -1  -1 -12 4443.46  198.08
  -1   1  12 4274.67  198.18
  -1   1  12 3929.11  198.18
   1   1 -12 3767.32  197.78
   1  -1  12 3984.00  222.18
   1   1 -12 4220.58  198.18
   1   1  12 4151.28  201.58
  -1  -1  12 4166.98  201.38
   1   1  12 4601.84  201.88
   1  -1 -12 4220.88  201.38
   1  -1 -12 3842.32  201.28
   1   1  12 4383.96  202.28
   2   1 -12  314.37   16.30
   2  -1  12  355.86   37.90
   2   1 -12  316.57   16.60
   2  -1  12  320.57   16.90
   2  -1  12  316.77   17.30
  -2   1  12  329.57   16.60
   2   1 -12  323.17   17.50
   2   1  12  326.77   16.90
   2  -1 -12  318.07   16.50
   2   1  12  316.67   17.00
   2  -1 -12  326.87   16.70
  -2   1 -12  343.07   16.50
  -2  -1  12  327.77   16.60
   3   1 -12 1855.61   86.69
   3  -1  12 1763.12  109.59
   3   1 -12 1773.12   86.89
   3   1 -12 1771.92   86.39
  -3   1  12 1817.02   86.39
   3  -1  12 1794.22   86.69
   3  -1 -12 1703.63   81.99
   3   1  12 1628.54  102.69
   3  -1 -12 1740.23   81.69
   3   1  12 1743.03   81.99
  -3  -1  12 1761.72   81.79
   3  -1 -12 1493.95  106.99
   3  -1 -12 1829.42   82.19
  -4   1  12   42.50    3.70
   4   1 -12   42.30    3.90
   4  -1  12   44.00    4.60
   4   1 -12   40.80    4.10
   4   1 -12   40.20   20.30
   4  -1 -12   42.20   17.00
  -4  -1  12   42.20    3.60
   4   1  12   38.80    4.50
   4  -1 -12   37.60    3.80
   4  -1 -12   42.40    3.40
   0  -2  12 2256.67  105.49
   0   2  12 2284.97  105.59
   0  -2 -12 2158.18  105.39
   0   2 -12 2258.47  105.29
   0  -2  12 2251.17  105.39
   0   2  12 2075.09  105.69
   0  -2  12 2136.19  105.59
   1  -2  12 1089.49   58.39
   1   2 -12 1263.27   58.09
  -1   2  12 1205.58   58.19
   1  -2  12 1284.77   58.39
   1   2 -12 1114.59   57.89
   1   2 -12 1206.78   58.49
  -1  -2 -12 1301.37   58.19
   1  -2  12 1190.18   58.39
  -1   2  12 1202.28   58.49
   1   2  12 1158.98   59.39
   1   2  12 1265.17   59.59
  -1   2 -12 1305.47   59.09
   1  -2 -12 1200.68   59.09
  -1  -2  12 1194.28   59.19
   1   2  12 1249.07   60.09
  -2  -2 -12  240.68   12.30
   2   2 -12  234.88   12.30
   2   2 -12  247.68   12.90
  -2   2  12  231.08   12.60
   2  -2  12  234.78   31.70
   2  -2  12  243.88   12.90
   2   2 -12  230.58   13.10
   2  -2  12  240.28   13.20
   2  -2 -12  228.28   12.30
   2  -2 -12  231.38   12.00
   2   2  12  241.48   12.50
   2   2  12  224.98   32.50
   2  -2 -12  233.58   12.30
  -2  -2  12  233.08   12.10
   3  -2  12  897.81   44.30
   3   2 -12  851.51   44.60
  -3   2  12  939.71   44.60
   3   2 -12  917.41   44.20
   3  -2  12  925.91   67.09
   3   2 -12  866.41   43.90
   3  -2 -12  855.71   39.60
   3  -2 -12  860.51   40.00
   3  -2 -12  704.73   60.19
   3   2  12  769.32   58.49
   3   2  12  842.42   40.00
   3  -2 -12  840.72   40.10
   4   2 -12 1770.12   84.79
   4   2 -12 1695.03  120.99
   4   2 -12 1702.53   84.49
  -4   2  12 1815.12   84.59
   4   2 -12 1758.62   84.59
   4  -2  12 1790.92   84.79
   4  -2  12 1776.22  105.59
   4  -2 -12 1635.14   98.39
   4  -2 -12 1798.22   80.59
  -4  -2  12 1729.93   80.59
   4   2  12 1700.03   80.89
   4  -2 -12 1668.83   80.99
   4   2  12 1576.54   97.09
   4  -2 -12 1663.13   81.19
   0  -3 -12  919.11   45.20
   0   3  12  882.71   45.20
   0   3  12  960.30   45.30
   0  -3  12  874.11   45.40
   0  -3  12  943.91   45.20
   0   3 -12 1044.90   46.40
   0  -3  12  972.70   45.20
   0   3  12  871.91   45.50
   0   3 -12  924.51   45.10
   1   3 -12 1515.65   76.79
  -1   3  12 1655.73   77.49
   1  -3  12 1605.24   77.39
   1  -3  12 1644.24   77.19
  -1   3  12 1587.34   77.09
   1   3 -12 1615.84   77.19
   1  -3  12 1600.14   77.09
   1   3 -12 1614.24   77.69
  -1  -3  12 1502.85   75.49
   1   3  12 1519.35   75.59
   1   3  12 1491.55   76.79
  -1   3 -12 1658.83   75.19
  -1  -3  12 1588.64   75.39
   1   3  12 1645.84   76.19
  -2  -3 -12  793.12   38.20
   2  -3  12  791.82   38.80
   2  -3  12  726.23   60.69
  -2   3  12  748.13   38.30
   2   3 -12  799.12   38.30
   2  -3  12  839.02   38.80
   2   3 -12  791.22   39.20
   2   3 -12  784.12   38.20
   2   3 -12  786.32   38.60
  -2  -3  12  753.62   36.40
  -2   3 -12  770.02   36.20
   2  -3 -12  730.43   36.70
   2   3  12  736.33   36.70
   2  -3 -12  741.13   36.30
   2  -3 -12  746.33   36.30
  -3   3  12 1782.42   86.79
   3  -3  12 1810.62   87.19
   3   3 -12 1888.71   88.09
   3  -3  12 1734.93  110.79
   3   3 -12 1858.11   87.09
   3   3 -12 1748.33   86.69
   3  -3 -12 1807.12   84.89
  -3  -3  12 1691.33   84.39
   3  -3 -12 1765.22   84.99
   3   3  12 1738.03   84.69
   3  -3 -12 1793.82   84.29
   4  -3  12  928.31   62.89
   4   3 -12  861.01   42.90
   4   3 -12  825.82   43.00
   4  -3  12  940.71   43.30
  -4   3  12  913.81   43.00
   4   3 -12  812.52   78.29
   4   3 -12  882.71   43.10
   4  -3 -12  815.52   41.30
   4  -3 -12  884.71   40.90
   4  -3 -12  856.61   41.50
   4   3  12  827.22   41.20
  -4  -3  12  843.12   40.90
   0   4  12 5346.86  254.67
   0   4  12 5388.26  253.87
   0   4  12 5143.09  254.17
   0   4 -12 5445.46  254.67
   1  -4  12  525.65   25.80
   1   4 -12  511.85   26.60
  -1   4  12  494.25   25.60
   1  -4  12  518.85   26.00
  -1   4  12  526.15   26.20
   1  -4  12  521.05   25.60
   1   4 -12  522.25   25.50
   1   4  12  461.75   24.00
   1  -4 -12  452.15   24.40
  -1  -4  12  484.85   23.60
  -1   4 -12  494.45   23.50
   1  -4 -12  471.55   23.70
  -1   4 -12  500.55   25.30
   2   4 -12   39.70    3.50
   2  -4  12   34.00    4.10
  -2   4  12   42.70    3.90
   2   4 -12   36.50    3.40
   2  -4  12   50.39    4.60
  -2  -4 -12   38.00    3.50
   2  -4  12   45.80   17.60
   2  -4 -12   32.40    3.70
   2  -4 -12   37.70    3.20
  -2  -4  12   43.20    3.30
  -2   4 -12   31.30    3.40
   2   4  12   39.70    3.80
   2  -4 -12   31.90    3.50
   3  -4  12  801.32   38.10
   3   4 -12  779.12   37.50
   3   4 -12  714.73   37.30
   3   4 -12  786.82   39.10
   3  -4  12  732.23   59.09
  -3   4  12  771.52   37.60
   3  -4 -12  741.03   35.70
   3  -4 -12  730.03   36.40
   3   4  12  732.73   36.30
  -3  -4  12  731.23   35.70
   3  -4 -12  735.03   36.20
   4   4 -12  622.64   66.19
   4  -4  12  710.43   32.90
   4   4 -12  665.13   32.60
  -4   4  12  689.83   32.60
   4  -4  12  654.03   49.40
   4   4 -12  636.14   32.50
   4  -4 -12  615.74   31.50
   4   4  12  615.64   31.70
   4  -4 -12  645.14   31.70
   4  -4 -12  701.73   31.00
  -4  -4  12  618.54   31.40
   0  -5  12 3861.01  178.48
   0  -5  12 3641.54  178.28
   0  -5  12 3535.95  177.98
   0   5 -12 3867.21  179.28
   0   5  12 3568.64  178.18
   0   5  12 3693.93  178.58
   0   5 -12 3903.31  178.08
   0   5  12 3804.22  178.98
   1  -5  12  430.66   20.20
   1   5 -12  387.76   21.20
  -1   5  12  371.96   19.80
  -1   5  12  389.66   19.90
   1  -5  12  390.36   19.90
  -1   5  12  413.66   20.60
   1   5 -12  383.46   19.70
   1  -5  12  391.36   20.30
   1  -5 -12  391.86   20.10
  -1   5 -12  412.16   20.30
  -1   5 -12  429.16   22.50
   1  -5 -12  407.56   20.50
   1   5  12  407.66   20.60
  -1  -5  12  398.96   20.50
   1   5  12  405.76   20.90
   1   5  12  432.16   21.50
  -1  -5  12  394.46   20.30
   2  -5  12  797.32   39.20
   2  -5  12  811.12   39.50
   2   5 -12  785.02   38.80
  -2   5  12  768.12   38.90
   2   5 -12  800.12   38.80
  -2  -5 -12  831.82   38.90
   2   5 -12  799.12   40.30
   2  -5  12  780.22   62.19
   2   5  12  761.22   37.00
   2   5  12  755.72   37.20
   2   5  12  805.32   38.10
  -2  -5  12  729.33   36.90
   2  -5 -12  700.83   36.70
   2  -5 -12  756.92   36.50
  -2  -5  12  766.22   36.70
   3   5 -12  595.44   31.10
   3  -5  12  637.24   30.40
  -3   5  12  607.84   29.90
   3  -5  12  573.24   49.40
   3   5 -12  603.24   29.80
   3  -5 -12  590.84   29.20
  -3  -5  12  587.64   29.00
   3  -5 -12  589.44   29.40
  -3  -5  12  571.14   28.60
   3   5  12  585.74   29.10
   4   5 -12  137.49   30.10
   4   5 -12  125.89    7.70
   4  -5  12  125.09   18.60
  -4   5  12  153.68    7.80
   4   5 -12  142.89    7.70
   4  -5  12  143.79    8.30
   4  -5 -12  149.29    7.20
  -4  -5  12  130.99    7.80
   4  -5 -12  134.89    8.20
   0  -6  12 3605.74  173.18
   0   6 -12 3715.33  172.88
   0   6 -12 3811.72  174.48
   0   6  12 3492.95  173.78
   0  -6  12 3725.33  173.08
   0   6  12 3619.94  173.48
   0  -6  12 3531.25  172.78
   0   6  12 3501.05  173.08
   1   6 -12 1323.47   63.99
  -1   6  12 1253.67   64.79
   1  -6  12 1326.37   64.09
   1  -6  12 1358.76   64.29
  -1   6  12 1405.86   64.79
  -1   6  12 1193.78   63.89
  -1   6  12 1372.46   64.19
   1   6 -12 1373.86   65.69
   1  -6  12 1349.47   64.49
  -1   6 -12 1325.37   63.99
  -1   6 -12 1408.36   66.09
   1   6  12 1346.97   64.59
   1   6  12 1335.27   64.29
  -1  -6  12 1235.08   63.89
  -1  -6  12 1317.57   64.19
   1  -6 -12 1299.27   64.19
   1   6  12 1378.06   64.99
   2  -6  12  177.98   10.10
   2   6 -12  169.38    9.60
   2   6 -12  177.48    9.60
  -2   6  12  176.88   10.20
   2   6 -12  180.88   11.80
  -2   6  12  181.18   10.70
   2  -6  12  168.48   10.30
   2  -6 -12  187.48    9.50
   2   6  12  184.98   10.40
  -2  -6  12  184.88    9.90
   2   6  12  180.28   10.00
   2   6  12  190.48   11.20
  -2  -6  12  177.18    9.80
   2  -6 -12  165.78    9.90
   3   6 -12  131.79   33.80
   3  -6  12  149.09    8.70
  -3   6  12  136.09    9.10
  -3   6  12  141.39    7.90
   3   6 -12  141.39    8.00
   3   6 -12  127.59    9.90
   3  -6 -12  163.08    9.60
   3  -6 -12  164.98    8.70
   3   6  12  162.88    9.40
  -3  -6  12  177.68    9.70
   0   7  12  873.11   42.50
   0  -7  12  852.61   41.90
   0   7 -12  859.91   41.80
   0   7  12  848.02   42.70
   0  -7  12  816.92   41.70
   0   7 -12  901.71   43.90
   0   7  12  872.21   42.10
  -1   7  12 1723.63   80.29
   1  -7  12 1617.44   80.49
  -1   7  12 1564.44   80.79
   1   7 -12 1702.43   81.89
   1  -7  12 1679.83   80.29
   1   7 -12 1718.73   80.19
   1   7  12 1684.53   78.39
  -1   7 -12 1601.34   79.29
  -1   7 -12 1579.14   77.29
   1   7  12 1620.84   77.99
   1   7  12 1650.93   77.69
  -1  -7  12 1548.15   78.39
   1  -7 -12 1589.94   77.49
  -1  -7  12 1619.74   77.49
   2  -7  12  432.06   22.00
   2   7 -12  414.06   22.70
   2  -7  12  414.76   21.10
  -2   7  12  419.36   21.60
  -2   7  12  392.36   20.70
   2   7  12  456.95   23.00
  -2   7 -12  439.96   26.30
   2   7  12  448.46   22.20
  -2  -7  12  417.76   22.00
  -3   7  12  824.22   41.80
  -3   7  12  840.92   41.20
   3   7 -12  885.11   41.30
   3  -7  12  919.41   41.80
   3   7 -12  775.82   69.79
   3  -7 -12  925.91   42.80
   3  -7 -12  880.41   43.60
   3   7  12  876.31   43.30
  -3  -7  12  877.61   43.20
   0   8  12   70.59    5.70
   0   8 -12   67.29    4.70
   0   8  12   69.49    5.00
   0  -8  12   66.09    4.50
   0   8  12   78.09    5.70
   0  -8  12   61.49    4.50
   0   8 -12   67.49    8.70
   1   8 -12  195.78   15.80
  -1   8  12  175.68    9.70
   1  -8  12  161.08    9.60
   1  -8  12  186.98   11.80
  -1   8  12  162.38   10.30
   1   8  12  176.48   10.20
  -1  -8  12  164.98    9.20
   1  -8 -12  164.08    9.40
  -1   8 -12  172.28   13.60
   1   8  12  176.88    9.40
  -1  -8  12  160.28    9.10
   2  -8  12  180.58   10.50
   2   8 -12  173.58   12.60
   2   8 -12  210.78   10.90
  -2   8  12  193.28   11.40
   2  -8  12  185.58   10.50
   2   8  12  184.08   11.00
   2   8  12  231.48   11.80
  -2  -8  12  193.38   11.00
   2   8  12  203.08   11.80
   3   8 -12  506.35   47.10
  -3   8  12  521.25   26.40
   3  -8  12  598.04   27.00
  -3  -8  12  558.94   28.50
   3  -8 -12  628.84   28.50
   3  -8 -12  562.44   28.90
   0   9  12   92.79    5.80
   0   9  12   86.69    6.30
   0   9 -12   95.09   10.10
   0  -9  12   81.29    5.30
   1   9 -12 1363.46   64.99
   1  -9  12 1274.27   64.89
   1   9 -12 1261.17   66.39
  -1   9  12 1485.15   65.59
  -1   9 -12 1278.57   65.39
   1   9  12 1374.76   63.49
   1  -9 -12 1288.07   63.29
   2  -9  12  201.18   10.70
   2   9 -12  195.58   10.60
   2  -9  12  199.38   10.70
  -2   9  12  192.58   11.30
   2   9  12  215.88   11.50
  -2  -9  12  215.98   11.30
   2   9  12  213.78   12.10
  -2   9 -12  223.38   12.70
   0  10 -12 1740.53   80.59
   0 -10  12 1575.04   80.39
   0  10  12 1654.43   80.89
   0  10  12 1742.43   80.59
  -1  10  12   71.29    5.40
   1 -10  12   73.89    4.80
   1 -10  12   63.69    5.60
   1  10 -12   76.29    4.80
  -1  10  12   73.49    5.70
   1  10  12   83.29    5.30
  -1  10 -12   78.09    5.00
   1  10  12   81.89    5.80
   1 -10 -12   70.99    5.80
  -1 -10  12   75.49    4.70
   1   0  13   17.40    3.10
   1   0 -13   13.50    2.20
   1   0 -13   13.40    2.80
   1   0 -13   17.40    2.70
  -1   0  13   18.00    2.60
   2   0  13  248.68   13.60
   2   0 -13  240.88   12.80
  -2   0  13  253.97   12.80
   2   0  13  236.48   13.00
  -2   0 -13  246.48   12.50
   2   0 -13  226.18   12.60
   2   0  13  235.68   32.30
   2   0 -13  251.77   12.60
   3   0  13 2075.29   95.69
   3   0 -13 2019.90   95.49
   3   0 -13 1675.13  123.09
  -3   0  13 2063.99   95.39
   3   0  13 1976.50  118.29
   3   0 -13 2103.49   95.69
   4   0 -13   16.10    2.60
   4   0 -13   14.80   14.90
   4   0 -13   13.40    3.00
   4   0 -13   13.70    3.20
   0   1  13 4937.91  223.58
   0   1  13 4442.86  223.58
  -1  -1 -13 3446.46  158.38
   1  -1  13 3248.67  158.08
   1  -1  13 3485.35  158.08
   1   1 -13 3424.96  157.78
  -1   1  13 3085.79  158.28
   1   1 -13 3069.49  157.58
  -1   1  13 3391.26  157.88
   1   1  13 3247.68  156.88
   1   1  13 3586.54  156.48
   1   1  13 3130.99  156.18
  -1  -1  13 3259.77  155.98
   1  -1 -13 2951.30  155.88
   1  -1 -13 3438.86  156.18
   2  -1  13 3602.34  173.58
   2  -1  13 3780.22  173.98
   2   1 -13 3590.24  173.18
  -2   1  13 3618.54  173.28
   2   1 -13 3691.23  173.48
   2   1 -13 3553.34  173.08
  -2  -1 -13 3696.33  173.08
   2  -1  13 3508.65  198.78
   2   1  13 3622.54  168.28
   2  -1 -13 3547.75  167.78
   2  -1 -13 3412.46  168.08
   2   1  13 3539.55  168.28
   2   1  13 3228.18  189.28
   2  -1 -13 3623.24  168.08
  -2  -1  13 3562.24  167.98
  -2   1 -13 3616.54  167.68
   3  -1  13   53.69    5.00
   3   1 -13   56.49    4.50
   3   1 -13   56.09   24.80
   3   1 -13   61.89    4.60
  -3   1  13   61.69    4.50
   3  -1 -13   51.89   21.20
   3   1  13   56.09    4.70
   3  -1 -13   58.49    4.50
   3  -1 -13   51.69    4.30
   4  -1  13  687.63   33.20
   4   1 -13  627.34   56.39
   4  -1  13  721.53   51.49
   4   1 -13  641.14   33.10
  -4   1  13  680.03   32.90
   4   1 -13  690.53   32.90
   4   1 -13  651.33   33.00
   4   1  13  700.33   50.69
   4  -1 -13  666.03   51.39
   4  -1 -13  693.13   33.30
   4  -1 -13  673.53   33.70
   4  -1 -13  653.93   33.70
  -4  -1  13  690.93   33.40
   4   1  13  712.03   33.70
   0   2  13  111.29    6.80
   0   2  13  113.19    7.10
   0   2 -13  116.39    7.10
   0  -2 -13  123.09    7.40
   0  -2  13  104.59    6.50
   0  -2  13  110.19    6.60
  -1   2  13 3086.29  148.49
   1   2 -13 3199.98  148.39
  -1   2  13 3058.09  148.79
   1  -2  13 3194.38  148.69
   1  -2  13 3120.59  148.69
  -1  -2 -13 3237.38  148.49
   1   2 -13 2868.51  148.29
   1   2  13 2841.02  143.79
  -1  -2  13 2919.81  143.49
   1   2  13 3139.89  143.89
  -1  -2  13 2935.51  143.49
   1  -2 -13 2968.20  143.49
   1   2  13 3121.59  144.49
  -1   2 -13 3117.99  143.49
   2   2 -13 1775.92   85.99
  -2  -2 -13 1801.72   85.99
   2  -2  13 1798.42   86.49
  -2   2  13 1803.42   86.19
   2  -2  13 1721.93  111.09
   2  -2  13 1877.61   86.79
   2   2 -13 1729.43   86.09
   2   2 -13 1840.42   86.39
   2  -2 -13 1706.13   81.19
  -2   2 -13 1705.13   80.99
  -2  -2  13 1738.93   81.19
   2   2  13 1703.23   81.59
   2  -2 -13 1610.94   81.39
   2  -2 -13 1680.93   81.29
   3   2 -13   31.20   23.90
   3  -2  13   37.50    4.40
  -3   2  13   38.30    3.80
   3   2 -13   37.70    3.70
   3   2 -13   42.20    3.80
   3  -2 -13   35.40    3.50
   3  -2 -13   31.90    3.60
   3   2  13   40.80    4.00
   3  -2 -13   34.40    3.30
  -3  -2  13   35.40    3.40
   4   2 -13  276.97   38.00
  -4   2  13  280.47   14.10
   4   2 -13  265.97   14.30
   4   2 -13  256.97   14.10
   4   2 -13  273.57   14.20
   4  -2  13  283.97   14.50
   4   2  13  247.98   28.40
  -4  -2  13  282.67   13.80
   4  -2 -13  260.27   14.20
   4   2  13  275.07   14.20
   4  -2 -13  285.27   13.70
   4  -2 -13  270.27   14.20
   0  -3  13   43.60    3.50
   0  -3 -13   49.50    3.50
   0   3 -13   39.50    3.30
   0  -3  13   38.70    4.80
   0   3  13   40.70    4.20
   0   3  13   40.60    4.00
   1  -3  13  220.78   11.50
   1  -3  13  221.78   11.80
   1   3 -13  215.68   11.20
  -1  -3 -13  220.78   11.30
   1  -3  13  188.58   11.30
  -1   3  13  224.18   12.10
  -1   3  13  209.98   11.40
   1   3  13  179.18   12.50
   1  -3 -13  196.08   10.30
   1   3  13  200.68   10.80
  -1  -3  13  190.78   10.30
  -1   3 -13  206.08   10.20
   2   3 -13 1333.27   66.39
   2   3 -13 1341.77   65.59
   2  -3  13 1311.37   90.49
   2  -3  13 1385.36   66.09
  -2  -3 -13 1376.86   65.59
   2   3 -13 1368.66   65.59
  -2   3  13 1319.57   65.79
   2  -3  13 1460.75   66.19
   2  -3 -13 1285.47   62.29
   2   3  13 1330.77   62.79
   2  -3 -13 1304.97   62.39
   2  -3 -13 1241.88   62.49
   2  -3 -13 1248.28   62.69
  -2  -3  13 1325.17   62.39
  -2   3 -13 1325.87   62.19
   3   3 -13 1373.56   64.29
   3  -3  13 1354.36   87.89
  -3   3  13 1368.66   64.09
   3   3 -13 1360.86   63.99
   3   3 -13 1164.38   65.19
   3  -3 -13 1312.27   64.99
  -3  -3  13 1359.76   64.69
   3  -3 -13 1367.66   64.59
   3  -3 -13 1332.67   65.09
   4   3 -13  276.27   15.40
  -4   3  13  311.77   15.40
   4   3 -13  309.47   15.50
   4  -3  13  305.67   30.30
   4   3 -13  295.47   41.20
   4  -3  13  312.67   15.80
   4  -3 -13  260.67   14.00
  -4  -3  13  282.47   13.80
   4   3  13  272.77   13.90
   4  -3 -13  272.57   13.30
   4  -3 -13  239.88   13.90
   0   4 -13 1281.17   59.69
   0  -4  13 1239.88   59.99
   0  -4  13 1240.28   59.59
   0   4  13 1242.98   59.79
   0   4  13 1207.68   60.09
   0  -4 -13 1217.98   59.79
   0   4  13 1229.78   60.59
  -1  -4 -13  645.14   31.20
   1  -4  13  622.04   31.50
   1   4 -13  637.94   32.20
   1   4 -13  641.34   31.10
   1  -4  13  645.34   31.30
  -1   4  13  638.04   31.80
  -1   4  13  610.14   31.20
   1  -4 -13  574.34   28.50
  -1  -4  13  584.44   28.50
  -1   4 -13  589.64   28.30
  -1  -4  13  587.54   28.40
   1   4  13  563.54   28.90
   1  -4 -13  563.34   28.20
   1   4  13  586.04   29.50
   2  -4  13 1653.83   77.39
  -2   4  13 1582.54   76.89
   2   4 -13 1549.74   77.79
   2   4 -13 1562.24   76.69
  -2  -4 -13 1643.74   76.79
   2  -4  13 1690.83   77.19
   2   4 -13 1555.84   76.79
   2  -4  13 1541.25  102.49
   2   4  13 1568.24   74.59
   2  -4 -13 1483.95   74.09
   2  -4 -13 1613.14   73.99
   2   4  13 1560.54   75.29
  -2   4 -13 1561.04   73.99
  -2  -4  13 1545.15   74.09
  -2  -4  13 1463.15   74.19
   3  -4  13  488.75   44.90
   3   4 -13  494.95   26.40
   3   4 -13  505.65   25.20
  -3   4  13  504.65   25.30
   3  -4  13  540.05   25.90
   3  -4 -13  517.85   25.60
  -3  -4  13  505.25   25.00
  -3  -4  13  481.45   25.20
   3   4  13  518.65   25.50
   3  -4 -13  513.65   25.50
   4   4 -13   71.99    4.70
  -4   4  13   66.29    4.50
   4   4 -13   57.19    4.70
   4  -4  13   67.19    5.10
   4  -4  13   60.29   14.40
   4   4 -13   65.99   23.60
   4  -4 -13   69.39    3.90
   4  -4 -13   68.99    5.00
  -4  -4  13   56.99    4.50
   4   4  13   61.19    5.60
   0   5 -13   26.20    6.50
   0   5 -13   16.90    2.60
   0   5  13   19.90    3.80
   0  -5 -13   18.90    2.70
   0   5  13   15.20    2.60
  -1  -5 -13 3157.98  147.69
   1  -5  13 3166.68  147.79
   1  -5  13 3080.09  147.69
   1   5 -13 3144.59  148.79
  -1   5  13 2867.61  147.49
  -1   5  13 2975.90  148.39
   1   5 -13 3059.89  147.49
  -1   5  13 3254.27  148.29
   1  -5  13 3101.39  147.89
   1  -5 -13 2820.32  142.89
   1   5  13 3183.28  143.89
  -1   5 -13 3091.29  142.79
  -1  -5  13 3026.40  142.79
   1  -5 -13 2991.90  142.99
  -1  -5  13 2977.60  142.89
   1   5  13 2980.00  143.39
   1   5  13 2863.31  142.99
   2  -5  13 1574.04   80.59
   2  -5  13 1747.73   81.09
   2   5 -13 1637.44   80.39
  -2   5  13 1557.44   81.89
  -2  -5 -13 1764.02   80.59
   2   5 -13 1754.42   81.99
   2   5 -13 1698.63   80.49
   2  -5 -13 1662.63   78.39
   2  -5 -13 1534.55   78.59
  -2  -5  13 1576.24   78.69
   2   5  13 1676.43   79.09
   2   5  13 1736.93   79.89
   3   5 -13  214.38   11.30
   3   5 -13  194.78   47.50
   3   5 -13  202.98   12.80
  -3   5  13  205.08   10.90
   3  -5  13  187.08   39.80
   3  -5  13  207.48   11.50
  -3  -5  13  197.28   10.20
  -3  -5  13  197.78   10.60
   3  -5 -13  195.68   10.10
   3   5  13  194.18   10.80
   3  -5 -13  192.78   10.90
   0   6  13   19.30    2.90
   0  -6  13   19.50    3.70
   0   6 -13   23.70    7.10
   0  -6  13   18.80    2.70
   0   6 -13   21.90    2.70
   0   6  13   21.10    3.70
   0   6  13   25.90    4.20
   0  -6  13   19.70    2.70
   1  -6  13  143.99    8.80
  -1   6  13  154.98    9.10
   1  -6  13  149.88    8.30
  -1   6  13  132.29    8.30
   1   6 -13  143.29    8.10
   1  -6  13  146.39    8.40
   1   6 -13  150.08   10.80
  -1   6  13  144.99    9.30
  -1   6 -13  155.48    8.50
   1   6  13  158.58    9.30
  -1  -6  13  154.88    8.60
   1   6  13  166.78    9.80
   1  -6 -13  155.18    8.70
   1   6  13  155.08    8.80
  -1  -6  13  149.49    8.40
   2  -6  13 1029.50   50.99
   2  -6  13 1156.98   51.89
   2   6 -13 1042.60   50.69
  -2  -6 -13 1037.90   50.79
  -2   6  13 1047.00   51.49
  -2   6  13  978.10   50.69
   2   6 -13 1043.10   54.89
   2  -6 -13 1032.10   48.20
   2   6  13 1066.49   49.70
  -2  -6  13  972.80   48.60
   2  -6 -13  907.11   48.50
  -2  -6  13  973.50   48.30
   2   6  13 1064.29   49.50
   3   6 -13  585.04   28.00
   3  -6  13  606.54   28.40
  -3   6  13  586.64   28.00
   3   6 -13  492.75   56.89
  -3   6  13  566.54   28.70
   3  -6 -13  627.24   29.00
   3   6  13  591.84   29.50
  -3  -6  13  587.64   29.40
   3  -6 -13  585.44   29.80
   0  -7  13  282.67   14.60
   0   7 -13  300.47   14.60
   0   7  13  283.57   15.60
   0   7  13  271.17   14.80
   0  -7  13  278.97   14.50
   0   7 -13  299.57   17.50
   0   7  13  274.07   15.30
   1  -7  13  165.98   10.20
   1   7 -13  187.28    9.60
  -1   7  13  162.58   10.40
   1  -7  13  163.38    9.50
  -1   7  13  177.18    9.80
   1  -7  13  181.58    9.80
   1   7 -13  193.68   12.60
   1   7  13  153.28    8.90
   1  -7 -13  155.98    8.90
  -1  -7  13  149.69    8.50
  -1  -7  13  153.38    8.70
  -1   7 -13  155.18    8.60
  -1   7 -13  188.68   16.90
   1   7  13  161.78    9.80
   1   7  13  162.98    9.40
  -2  -7 -13  818.72   38.80
  -2   7  13  734.13   38.20
   2  -7  13  805.72   38.80
  -2   7  13  776.02   39.10
   2   7 -13  805.32   40.20
   2   7  13  909.61   42.90
   2   7  13  797.52   40.50
   2  -7 -13  821.42   39.80
  -2  -7  13  782.22   40.20
  -3   7  13  731.83   35.80
   3   7 -13  671.73   60.89
   3  -7  13  806.62   36.20
  -3  -7  13  714.83   36.50
   3  -7 -13  796.22   36.10
   3   7  13  775.22   36.60
   3  -7 -13  719.73   36.90
   0   8  13  322.77   16.90
   0   8  13  326.97   17.30
   0  -8  13  315.67   16.60
   0  -8  13  315.47   16.70
   0   8 -13  335.17   16.80
   0   8 -13  347.97   19.90
   0   8  13  347.07   17.60
  -1   8  13 1243.08   60.89
   1  -8  13 1258.67   60.49
   1   8 -13 1263.47   62.09
   1  -8  13 1236.18   60.39
   1   8  13 1328.67   61.89
  -1  -8  13 1192.68   60.79
   1   8  13 1276.07   61.29
  -1  -8  13 1249.68   61.09
   1   8  13 1292.97   61.59
   2  -8  13  506.75   24.80
   2  -8  13  508.85   24.80
  -2  -8 -13  492.15   24.60
   2   8 -13  492.15   24.60
  -2   8  13  482.85   25.10
   2   8  13  523.05   26.10
   2   8  13  544.15   26.60
  -2  -8  13  505.85   25.80
   0  -9  13  533.85   29.80
   0   9  13  604.54   30.50
   0  -9 -13  624.94   30.10
   0   9 -13  605.14   32.60
   0   9  13  684.83   30.80
   1   9 -13  518.05   24.70
  -1   9  13  486.75   25.20
   1  -9  13  491.75   24.80
   1  -9  13  498.95   24.70
  -1  -9  13  517.65   26.50
   1  -9 -13  521.55   26.70
   1   9  13  564.34   26.80
   1   9  13  561.04   27.20
   2  -9  13 1034.30   52.69
  -2   9  13 1150.18   54.59
   2   9  13 1096.39   51.59
  -2  -9  13 1003.80   50.49
   0  10 -13  316.87   15.50
   0 -10  13  291.17   15.30
   0  10  13  304.77   15.60
   0  10  13  304.17   15.90
   0 -10 -13  312.77   15.70
  -1 -10 -13    4.50    2.80
   1 -10  13    5.50    2.20
  -1  10  13    4.50    2.80
   1  10 -13    2.60    1.40
  -1 -10  13    2.20    1.60
   1  10  13    3.10    2.40
  -1  10 -13    2.90    1.50
   1  10  13    2.80    1.60
   0   0 -14  618.74   30.60
   0   0  14  645.94   30.80
   0   0  14  606.04   30.90
  -1   0 -14 2984.40  135.69
   1   0 -14 2871.11  135.59
   1   0  14 2758.02  135.89
  -1   0  14 2876.61  135.79
   1   0 -14 2536.35  135.39
   1   0  14 3009.60  135.99
   2   0  14  167.58    9.50
  -2   0  14  152.08    8.60
  -2   0 -14  154.78    8.30
   2   0 -14  151.18    8.60
   2   0 -14  150.28    8.40
   2   0  14  152.58    8.90
   2   0 -14  136.99    8.40
   3   0 -14 2128.89   95.79
   3   0  14 1926.01  116.99
   3   0 -14 1989.90   95.59
   3   0 -14 2084.49   95.49
   3   0 -14 1817.72  123.49
  -3   0  14 1996.10   95.49
   4   0 -14  189.68   10.90
   4   0  14  168.88   23.30
   4   0 -14  194.28   25.70
   4   0 -14  188.78   10.80
  -4   0  14  223.78   10.60
   4   0  14  221.28   11.10
   4   0 -14  222.58   10.60
   0  -1 -14 1095.49   54.59
   0  -1  14 1105.59   54.89
   0   1  14 1173.98   54.79
   0  -1  14 1185.98   54.79
   0   1  14 1095.79   54.89
   0   1 -14 1124.99   54.59
   1  -1  14 2298.47  105.79
   1   1 -14 2209.08  105.49
  -1   1  14 2222.08  105.59
  -1   1  14 2079.09  105.69
   1  -1  14 2137.69  105.79
  -1  -1 -14 2272.17  105.49
   1   1  14 2448.56  109.59
  -1  -1  14 2367.26  109.29
   1   1  14 2246.98  109.49
   1  -1 -14 2088.89  109.09
   1  -1 -14 2263.27  109.19
   1   1  14 2299.07  110.19
  -1   1 -14 2399.76  109.19
  -1  -1  14 2143.59  109.09
   2  -1  14  168.68    9.70
   2  -1  14  146.49   26.10
   2   1 -14  164.38    9.10
   2   1 -14  164.18    9.20
  -2  -1 -14  172.08    9.10
  -2   1  14  173.28    9.30
   2   1 -14  173.08    9.40
   2  -1  14  177.68   10.20
   2   1  14  167.48   10.00
   2  -1 -14  171.58    9.30
   2   1  14  184.48    9.90
  -2   1 -14  171.68    9.20
   2  -1 -14  162.58    9.40
   2  -1 -14  165.58    9.40
  -2  -1  14  174.58    9.40
  -3   1  14 1143.59   52.89
   3  -1  14 1096.99   74.89
   3   1 -14  972.90   82.59
   3   1 -14 1081.89   52.89
   3   1 -14 1156.28   53.19
   3   1  14  984.60   70.19
   3  -1 -14 1070.69   51.19
   3  -1 -14  950.80   73.19
   3  -1 -14 1124.29   50.99
  -3  -1  14 1113.99   50.99
   3  -1 -14 1110.99   51.29
   3   1  14 1005.20   52.89
   4   1 -14 1034.20   51.99
   4  -1  14 1012.10   67.19
   4   1 -14 1039.00   52.09
   4   1 -14 1037.40   73.69
   4  -1  14 1138.59   52.19
  -4   1  14 1124.89   51.89
   4   1 -14 1141.69   51.89
   4  -1 -14 1040.10   51.79
  -4  -1  14 1091.49   51.49
   4  -1 -14 1046.10   51.79
   4   1  14  931.91   64.19
   4  -1 -14 1078.29   69.09
   4   1  14 1138.89   51.89
   4  -1 -14 1158.58   51.49
   0  -2  14  558.64   27.80
   0   2  14  534.25   27.90
   0  -2 -14  542.85   27.50
   0   2  14  573.84   27.70
   0  -2  14  573.04   27.60
   0   2 -14  563.44   27.50
   1  -2  14 1435.26   65.99
  -1  -2 -14 1382.66   65.79
  -1   2  14 1317.77   66.09
   1   2 -14 1330.07   65.69
   1  -2  14 1345.57   66.09
  -1   2  14 1378.66   65.89
  -1   2 -14 1371.26   63.79
   1  -2 -14 1304.07   63.79
  -1  -2  14 1306.57   63.89
   1   2  14 1379.46   64.19
   1   2  14 1318.97   67.79
   1   2  14 1270.87   64.19
   2  -2  14  526.95   49.20
  -2  -2 -14  576.64   28.00
   2   2 -14  558.54   28.00
  -2   2  14  564.54   28.20
   2   2 -14  559.24   28.10
   2  -2  14  619.94   28.90
   2  -2  14  584.84   28.70
  -2   2 -14  562.54   27.30
   2  -2 -14  553.84   27.70
   2   2  14  562.34   27.90
   2  -2 -14  537.25   27.40
  -2  -2  14  567.34   27.50
   3  -2  14  958.00   69.39
   3  -2  14 1026.70   48.20
   3   2 -14  981.10   47.80
  -3   2  14 1039.40   47.80
   3   2 -14 1029.60   48.10
   3   2 -14  857.91   80.29
   3  -2 -14  908.11   46.10
   3   2  14  956.00   46.20
   3  -2 -14  997.70   46.00
  -3  -2  14  935.21   45.80
   3  -2 -14  932.51   46.10
   4   2 -14   17.30    3.20
   4  -2  14   19.80    3.30
   4  -2  14   24.00   12.10
   4   2 -14   19.30    2.80
   4   2 -14   23.90   16.10
  -4   2  14   21.40    2.60
   4  -2 -14   23.10    3.40
  -4  -2  14   20.30    4.20
   4  -2 -14   24.20    2.40
   4   2  14   30.30    3.70
   0   3  14 7038.60  322.87
   0  -3  14 6591.34  322.67
   0   3  14 6620.64  323.17
   0  -3  14 6882.91  322.97
  -1   3  14  603.14   30.80
   1   3 -14  624.44   30.70
   1  -3  14  653.23   30.90
   1  -3  14  623.74   31.10
  -1  -3 -14  630.14   30.80
  -1   3  14  618.84   31.30
   1   3  14  652.53   31.40
   1   3  14  594.74   30.60
  -1  -3  14  614.54   30.20
  -1   3 -14  628.24   30.10
   1  -3 -14  607.44   30.20
  -1  -3  14  595.54   30.20
   2  -3  14 1642.74   77.59
   2   3 -14 1548.84   77.09
   2  -3  14 1682.73   77.69
  -2   3  14 1564.64   77.19
   2   3 -14 1570.34   76.99
  -2  -3 -14 1614.64   77.09
   2  -3 -14 1544.35   74.69
  -2  -3  14 1434.16   74.69
  -2   3 -14 1589.94   74.49
   2  -3 -14 1594.24   74.49
   2  -3 -14 1510.65   74.89
   2   3  14 1599.84   75.09
  -2  -3  14 1599.44   74.69
   3  -3  14  261.97   13.20
   3   3 -14  231.48   12.50
  -3   3  14  242.08   12.60
   3  -3  14  216.38   29.60
   3  -3 -14  243.38   12.00
   3  -3 -14  219.98   12.30
  -3  -3  14  228.98   12.00
   3   3  14  231.88   12.50
   4   3 -14   77.59    4.80
   4  -3  14   72.49    5.10
   4  -3  14   64.69   14.40
   4   3 -14   72.39   20.80
  -4   3  14   74.79    4.70
   4  -3 -14   71.39    5.20
   4  -3 -14   78.89    4.20
  -4  -3  14   69.59    4.90
  -4  -3  14   67.59    5.30
   0  -4  14   20.30    4.70
   0   4  14   36.60    4.80
   0  -4  14   25.00    3.10
   0  -4 -14   32.30    3.00
   0   4 -14   28.20    3.00
   0  -4  14   31.10    3.00
   0   4  14   25.50    3.80
   0   4  14   27.20    3.80
   1  -4  14 2219.08  108.89
  -1   4  14 2327.47  109.19
   1  -4  14 2281.97  108.69
   1   4 -14 2272.57  108.49
  -1  -4 -14 2346.17  108.69
  -1   4  14 2157.78  108.59
  -1  -4  14 2095.39  102.59
  -1  -4  14 2122.79  102.59
   1   4  14 2138.29  103.09
  -1   4 -14 2175.98  102.49
   1   4  14 2225.58  103.59
   1  -4 -14 2127.69  102.59
   1  -4 -14 2110.89  102.29
  -2   4  14   33.80    3.90
   2  -4  14   30.90    4.20
   2   4 -14   34.00    3.40
   2  -4  14   39.50    4.00
  -2  -4 -14   33.20    3.60
   2   4  14   46.40    7.00
   2   4  14   39.00    4.20
   2  -4 -14   32.40    3.80
  -2   4 -14   29.30    5.80
   2  -4 -14   36.00    3.60
  -2  -4  14   38.60    3.40
  -2  -4  14   36.60    3.30
   2  -4 -14   38.50    3.20
  -3   4  14 1724.03   83.09
   3  -4  14 1840.22   83.49
   3   4 -14 1621.54   82.99
  -3  -4  14 1665.93   81.59
   3   4  14 1666.73   81.99
   3  -4 -14 1702.43   81.49
   3  -4 -14 1777.72   82.29
   0   5  14   71.29    5.40
   0   5  14   64.59    5.90
   0  -5 -14   67.49    4.70
   0  -5  14   64.49    4.60
   0  -5  14   67.29    6.10
   0  -5  14   67.99    4.70
   0   5 -14   68.59    4.60
  -1   5  14   45.40    4.10
  -1   5  14   52.69    5.20
   1  -5  14   43.60    4.70
   1   5 -14   47.40    3.80
  -1   5  14   50.79    5.20
  -1  -5 -14   49.10    4.00
   1  -5  14   53.79    4.40
  -1   5 -14   50.29    3.80
   1  -5 -14   57.99    4.00
   1   5  14   42.00    4.50
   1   5  14   54.09    5.50
  -1  -5  14   52.19    3.90
  -1  -5  14   44.90    3.70
   2   5 -14  854.41   42.90
  -2  -5 -14  863.71   43.00
   2  -5  14  973.30   43.90
  -2   5  14  847.52   43.00
   2   5  14  874.41   41.80
   2  -5 -14  893.51   40.90
  -2  -5  14  824.42   41.20
  -2  -5  14  858.31   41.10
   2  -5 -14  790.92   41.20
   2   5  14  868.11   42.40
   2  -5 -14  823.72   41.60
  -3   5  14   58.99    4.20
  -3   5  14   54.39    5.50
   3  -5  14   59.89    5.00
   3   5 -14   57.59    6.00
   3   5 -14   60.19   25.10
   3  -5 -14   64.59    4.90
   3  -5 -14   69.99    4.10
  -3  -5  14   67.79    4.60
  -3  -5  14   63.79    4.50
   3   5  14   68.79    5.00
   0  -6  14  121.19    6.90
   0   6 -14  111.29    6.80
   0  -6  14  131.19    8.30
   0   6  14  115.69    7.70
   0  -6 -14  123.99    7.20
   0   6  14  110.79    7.00
   0   6  14  119.39    8.10
  -1   6  14 1182.58   53.89
   1  -6  14 1082.09   53.19
  -1  -6 -14 1091.79   53.29
   1  -6  14 1065.79   53.19
  -1   6  14 1080.39   53.99
   1   6 -14 1114.79   53.09
   1  -6  14 1070.69   53.39
  -1  -6  14  976.80   50.39
   1   6  14 1096.39   50.89
   1   6  14 1109.89   51.59
  -1   6 -14 1058.69   50.49
  -1  -6  14 1019.60   50.59
   1   6  14 1054.89   51.09
   1  -6 -14 1003.10   50.59
   2   6 -14  663.23   30.30
  -2   6  14  568.64   30.00
  -2   6  14  549.25   29.10
   2  -6  14  596.04   29.60
   2   6  14  591.34   28.70
  -2  -6  14  550.64   28.00
   2  -6 -14  595.84   27.90
   2  -6 -14  525.35   28.30
   2   6  14  635.64   31.40
  -2  -6  14  548.95   28.20
   3  -6  14  901.81   39.90
  -3   6  14  817.42   39.40
   3   6 -14  753.92   67.79
  -3   6  14  776.52   40.00
   3   6  14  876.61   41.90
   3  -6 -14  829.32   42.00
  -3  -6  14  813.92   41.70
   3  -6 -14  922.51   41.40
   0  -7  14 4324.17  205.68
   0   7  14 4463.05  206.08
   0  -7  14 3999.70  205.78
   0  -7 -14 4394.86  206.08
   0   7 -14 4364.16  205.78
   0   7  14 4370.96  206.58
  -1  -7 -14  161.88    9.00
   1  -7  14  154.18    8.70
   1  -7  14  159.08    9.30
   1   7 -14  162.68    8.80
  -1   7  14  159.58    9.70
   1  -7  14  159.78    8.90
   1   7  14  170.38    9.30
   1   7  14  176.18   10.20
   1  -7 -14  164.88    9.20
  -1   7 -14  162.38    9.10
   1   7  14  167.38    9.70
  -1  -7  14  156.08    8.90
  -1  -7  14  165.08    8.90
   2  -7  14  756.72   35.60
   2   7 -14  712.83   35.20
  -2  -7 -14  729.33   35.30
  -2   7  14  746.03   35.90
  -2   7  14  665.63   35.00
   2   7  14  767.72   37.50
  -2  -7  14  721.53   36.60
   2   7  14  771.32   37.00
   0  -8  14  105.79    6.40
   0   8  14  112.59    6.80
   0   8  14  123.89    8.00
   0   8  14  117.19    7.30
   0  -8 -14  109.89    6.90
  -1  -8 -14  155.58    8.50
   1  -8  14  146.39    8.40
  -1   8  14  149.59    9.10
   1  -8  14  146.29    8.70
  -1  -8  14  156.88    8.90
  -1  -8  14  155.38    9.00
   1   8  14  183.28   10.00
   1   8  14  173.48    9.50
   1  -8 -14  168.68    9.30
   2  -8  14  221.98   11.40
  -2   8  14  211.88   11.90
   2   8 -14  198.38   11.30
  -2  -8 -14  220.38   11.40
   2   8  14  231.48   13.00
  -2  -8  14  219.98   11.70
  -2   8 -14  225.28   12.10
   2   8  14  232.68   12.00
   0   9  14  510.85   25.50
   0  -9 -14  525.65   25.20
   0   9  14  519.95   25.10
   0  -9  14  469.85   24.80
  -1  -9 -14 1244.38   56.39
  -1   9  14 1147.09   56.59
   1  -9  14 1162.58   56.19
   1  -9  14 1091.49   56.09
   1   9 -14 1184.98   56.19
  -1  -9  14 1057.39   53.89
  -1   9 -14 1209.78   54.09
   1  -9 -14 1070.89   54.19
   1   9  14 1145.29   54.49
   0   0  15    9.60    2.50
   0   0  15    6.60    2.10
   1   0  15 1938.51   87.69
   1   0  15 1760.82   87.69
   1   0 -15 1661.03   88.19
  -1   0 -15 1907.61   87.39
  -1   0  15 1830.82   87.39
   2   0  15   55.89    4.90
  -2   0  15   56.29    4.50
   2   0 -15   47.10    4.10
   2   0 -15   55.29    4.40
   2   0 -15   50.99    4.20
   2   0  15   55.29    5.50
  -2   0 -15   44.70    4.10
   3   0 -15   28.30    3.30
   3   0 -15   29.30    3.20
  -3   0  15   36.20    3.20
   3   0  15   27.20    3.70
   3   0 -15   23.50   19.60
   0   1  15 1798.12   84.29
   0  -1 -15 1725.83   84.09
   0   1  15 1687.43   84.39
   0  -1  15 1846.82   84.29
   0  -1  15 1661.73   84.29
   0   1 -15 1788.12   84.09
  -1  -1 -15  937.81   44.50
  -1   1  15  914.31   44.60
   1  -1  15  901.81   44.80
  -1   1  15  869.51   44.90
   1  -1  15  956.80   44.80
   1   1 -15  917.41   44.50
   1   1  15  994.70   45.90
   1   1  15  958.50   46.70
  -1   1 -15  983.50   45.50
  -1  -1  15  948.11   45.70
   1  -1 -15  821.42   45.40
   1  -1 -15  940.71   45.60
   1   1  15  926.51   45.90
   2  -1  15 4549.34  209.08
   2   1 -15 4191.48  208.58
   2   1 -15 4306.47  208.58
  -2  -1 -15 4464.75  208.58
   2  -1 -15 3983.00  202.78
   2   1  15 4441.66  203.18
   2   1  15 4384.76  203.28
  -2   1 -15 4301.17  202.68
   2  -1 -15 4164.08  202.78
   3   1 -15   32.30   20.10
   3  -1  15   36.90    4.20
   3   1 -15   37.10    4.90
   3  -1 -15   35.20    4.90
   3  -1 -15   30.10   20.90
  -3  -1  15   43.10    3.40
   3  -1 -15   38.70    3.20
   3   1  15   36.30    3.90
   3  -1 -15   33.60    3.60
   0  -2  15   43.80    4.80
   0   2  15   44.20    4.60
   0   2 -15   39.10    3.50
   0  -2 -15   41.90    3.60
   0  -2  15   50.59    3.80
   1   2 -15  131.59    7.60
  -1  -2 -15  134.09    7.60
  -1   2  15  128.89    8.70
   1  -2  15  138.89    8.20
  -1   2  15  131.89    7.80
   1  -2  15  142.69    8.10
   1   2  15  131.09    8.90
  -1   2 -15  122.89    6.90
  -1  -2  15  122.49    7.00
   1   2  15  127.99    7.50
   1   2  15  120.09    7.50
  -1  -2  15  114.69    7.00
   1  -2 -15  116.59    6.90
   1  -2 -15  106.49    6.90
  -2   2  15  706.33   34.60
   2  -2  15  702.23   34.90
   2   2 -15  672.13   34.40
   2  -2  15  795.82   35.60
  -2  -2 -15  682.03   34.30
   2   2 -15  659.43   34.30
   2  -2 -15  674.83   33.40
   2   2  15  703.73   33.90
  -2   2 -15  698.63   33.30
   2  -2 -15  698.43   33.40
   2  -2 -15  683.43   33.70
  -2  -2  15  642.14   33.40
  -3   2  15  650.63   30.30
   3   2 -15  535.65   57.09
   3  -2  15  664.33   30.70
   3   2 -15  602.44   30.40
   3   2  15  613.94   30.80
  -3  -2  15  608.14   30.40
   3  -2 -15  642.54   30.40
   0  -3  15  889.71   42.70
   0   3  15  888.01   43.20
   0  -3  15  888.91   43.00
   0   3  15  881.51   42.80
   0  -3 -15  844.32   42.70
   0   3  15  847.32   43.60
   0   3 -15  897.91   42.60
  -1  -3 -15  422.76   21.10
   1  -3  15  443.16   21.30
  -1   3  15  414.26   21.60
   1   3 -15  410.56   21.00
  -1   3  15  408.46   21.10
   1  -3  15  422.86   21.50
   1   3  15  382.06   19.60
  -1  -3  15  371.56   19.10
  -1   3 -15  388.26   19.10
   1  -3 -15  393.56   19.20
   1   3  15  399.76   20.50
  -1  -3  15  386.56   19.20
   1  -3 -15  347.67   19.10
   1  -3 -15  375.66   18.90
  -2  -3 -15 2268.17  108.89
   2  -3  15 2395.46  109.49
  -2   3  15 2198.78  108.99
   2  -3  15 2330.07  109.39
   2   3 -15 2188.08  108.89
  -2  -3  15 2012.00  104.09
   2   3  15 2241.48  104.59
   2  -3 -15 2309.57  103.99
   2  -3 -15 2103.49  104.29
  -2  -3  15 2223.08  104.09
  -2   3 -15 2228.68  103.99
   2  -3 -15 2100.99  104.09
   3   3 -15  758.92   72.29
   3  -3  15  948.21   42.40
   3   3 -15  855.21   41.90
  -3   3  15  879.91   41.90
   3  -3 -15  896.31   41.10
  -3  -3  15  765.92   41.20
   3   3  15  865.71   41.60
   3  -3 -15  844.02   41.60
  -3  -3  15  876.41   41.20
   0   4 -15  669.03   31.20
   0   4  15  625.84   31.20
   0  -4  15  591.34   31.00
   0  -4  15  654.73   31.50
   0   4  15  644.94   31.70
   0  -4  15  610.34   31.10
   0  -4 -15  653.63   31.30
   0   4  15  622.74   32.10
  -1   4  15 1471.85   70.39
   1  -4  15 1474.45   70.09
   1   4 -15 1369.86   69.69
  -1   4  15 1349.77   69.79
  -1  -4 -15 1443.26   69.89
   1  -4  15 1586.84   70.39
   1   4  15 1393.26   65.19
   1   4  15 1352.96   64.69
  -1  -4  15 1268.17   64.09
   1  -4 -15 1300.07   64.19
   1  -4 -15 1252.47   63.79
  -1   4 -15 1374.96   64.09
  -1  -4  15 1377.96   64.19
  -2  -4 -15  373.86   18.30
  -2   4  15  350.16   18.20
   2   4 -15  358.06   18.20
   2  -4 -15  370.86   17.40
   2  -4 -15  350.76   17.90
   2  -4 -15  336.67   17.70
  -2  -4  15  326.17   17.60
  -2  -4  15  358.96   17.60
   3  -4  15  266.17   13.60
   3   4 -15  229.88   37.80
  -3   4  15  259.67   13.00
  -3  -4  15  241.18   12.10
   3  -4 -15  225.78   12.50
   3   4  15  243.48   12.60
   3  -4 -15  253.37   11.90
  -3  -4  15  214.38   12.20
   0  -5  15   11.00    2.90
   0  -5  15   16.30    2.70
   0  -5 -15    9.60    2.00
   0   5 -15   11.50    2.50
   0   5  15   15.40    3.80
   1   5 -15 2846.02  136.89
   1  -5  15 2984.90  137.09
  -1  -5 -15 2929.61  137.09
   1  -5  15 2962.20  137.29
  -1   5  15 2640.44  137.69
  -1   5  15 2682.83  136.79
  -1   5  15 3016.50  137.59
  -1   5 -15 2878.41  132.89
  -1  -5  15 2659.83  132.89
  -1  -5  15 2649.93  132.79
   1   5  15 2795.22  133.49
   1   5  15 2961.50  133.99
   1  -5 -15 2753.62  132.99
  -2   5  15  914.71   46.20
  -2   5  15  930.51   47.00
   2  -5  15 1015.00   46.70
   2  -5 -15  867.01   44.80
   2  -5 -15  971.80   44.50
  -2  -5  15  934.61   44.70
   2  -5 -15  907.91   45.10
   2   5  15  979.40   45.30
  -2  -5  15  883.61   44.80
  -3   5  15  549.15   28.40
  -3   5  15  573.34   27.70
   3  -5  15  611.04   28.10
   3   5 -15  522.95   54.49
  -3  -5  15  564.24   28.20
  -3  -5  15  540.05   28.10
   3  -5 -15  547.75   28.40
   3   5  15  600.04   28.40
   3  -5 -15  617.04   27.80
   0   6  15  664.93   32.50
   0  -6  15  617.14   31.60
   0   6  15  612.64   32.50
   0  -6  15  641.04   31.60
   0  -6 -15  660.13   31.90
   0   6 -15  682.63   31.70
  -1  -6 -15 1634.04   74.79
   1  -6  15 1446.76   74.49
   1   6 -15 1576.44   74.59
  -1   6  15 1515.75   75.29
   1  -6  15 1552.34   74.59
   1  -6  15 1578.84   74.79
   1   6  15 1694.73   75.39
   1  -6 -15 1501.15   74.49
  -1  -6  15 1444.86   74.19
  -1   6 -15 1546.65   74.29
  -1  -6  15 1476.25   74.29
   1   6  15 1627.74   75.09
   2   6 -15  260.97   13.50
  -2   6  15  250.27   13.30
   2  -6  15  271.27   13.90
  -2  -6 -15  259.17   13.50
  -2   6  15  258.37   14.30
   2   6  15  275.37   13.50
  -2  -6  15  247.78   12.80
   2  -6 -15  239.18   13.50
   2  -6 -15  260.27   12.70
  -2  -6  15  255.87   13.00
   2   6  15  237.98   15.60
   3  -6  15   45.50    3.80
  -3   6  15   40.20    3.40
   3   6 -15   45.30   17.80
  -3  -6  15   43.90    3.90
   3  -6 -15   57.79    3.20
   3   6  15   57.79    4.20
   3  -6 -15   51.49    4.30
   0   7  15  657.53   31.80
   0  -7  15  629.14   31.20
   0  -7 -15  594.04   32.40
   0   7  15  655.43   31.60
   0  -7  15  628.54   30.90
   1  -7  15  170.78    9.80
  -1   7  15  179.98   11.80
   1  -7  15  163.98    9.50
   1   7 -15  175.68    9.40
  -1  -7 -15  174.78    9.50
   1   7  15  194.38   11.10
   1   7  15  172.78    9.80
  -1  -7  15  165.98    9.00
  -1   7 -15  162.78    9.30
   1  -7 -15  168.58    9.40
  -1  -7  15  164.48   10.00
  -2  -7 -15 1125.79   55.89
   2   7 -15 1097.19   55.89
   2  -7  15 1235.28   56.09
  -2   7  15 1182.58   56.49
   2   7  15 1206.68   58.79
   2  -7 -15 1181.08   58.29
  -2  -7  15 1156.88   57.89
   2   7  15 1274.57   58.29
   0  -8  15   78.29    5.00
   0  -8  15   81.59    4.90
   0   8  15   80.79    6.00
   0  -8 -15   77.79    5.40
  -1  -8 -15   83.69    5.50
  -1   8  15   83.29    6.20
   1  -8  15   83.59    5.60
   1  -8  15   82.59    6.10
   1   8  15   78.79    6.70
   1  -8 -15   66.19    5.00
  -1  -8  15   64.69    4.60
  -1  -8  15   70.99    4.50
   1   8  15   77.19    5.30
   2  -8  15  316.77   16.00
  -2  -8  15  274.87   14.20
   2   8  15  286.07   14.20
   2  -8 -15  273.07   14.40
   0   9 -15  388.56   18.30
   0  -9 -15  376.76   18.50
   0  -9  15  330.97   18.10
   0   9  15  364.46   18.80
  -1   9  15  185.08   10.60
   1   9 -15  176.98    9.60
  -1  -9  15  179.88    9.70
  -1   9 -15  178.88    9.60
   0   0  16  919.11   44.00
   0   0 -16  876.81   43.90
   0   0  16  910.11   44.30
  -1   0 -16   73.29    4.90
   1   0 -16   68.59    4.80
  -1   0  16   74.19    5.00
   1   0  16   80.09    5.50
   1   0  16   70.39    5.50
  -2   0  16   24.00    2.90
  -2   0 -16   28.90    3.40
   2   0 -16   32.10    3.30
   2   0  16   25.30    3.60
   2   0 -16   26.20    3.50
   3   0 -16   61.19   21.50
   3   0  16   62.69    4.90
  -3   0  16   71.39    4.40
   3   0 -16   66.19    4.40
   3   0 -16   55.39    4.80
   0  -1 -16 2070.79  102.69
   0   1 -16 2119.99  102.69
   0   1  16 2231.58  102.89
   0   1  16 2133.29  103.09
   0  -1  16 2115.09  102.99
   0  -1  16 2191.48  102.89
   1  -1  16 2564.74  115.29
  -1   1  16 2417.96  115.09
  -1  -1 -16 2344.77  114.99
   1   1 -16 2317.97  114.99
   1  -1  16 2370.16  115.29
  -1  -1  16 2325.67  110.99
   1   1  16 2285.87  111.29
  -1   1 -16 2296.77  110.89
   1   1  16 2435.96  111.19
   1  -1 -16 2242.58  110.89
   2  -1  16   28.20    3.80
   2   1 -16   23.60    3.10
  -2  -1 -16   26.10    3.30
  -2   1  16   24.90    3.00
   2   1  16   27.50    3.60
   2  -1 -16   26.60    3.20
   2  -1 -16   28.40    3.30
  -2   1 -16   22.60    3.30
  -2  -1  16   18.50    3.40
  -2  -1  16   20.80    2.90
   3   1 -16  966.90   75.39
   3   1 -16 1041.10   51.79
   3   1 -16 1096.69   51.79
   3  -1  16 1163.38   52.29
  -3   1  16 1090.89   51.79
   3   1  16 1144.99   55.19
  -3  -1  16 1137.69   54.79
   3  -1 -16 1058.49   54.89
   3  -1 -16 1206.18   54.79
   0  -2  16 3979.00  191.78
   0  -2  16 4017.20  191.88
   0   2  16 4151.38  191.78
   0  -2 -16 3815.72  191.68
   0   2  16 4005.90  192.08
   0   2 -16 4148.88  191.68
  -1   2  16  385.76   20.40
   1  -2  16  424.76   20.30
   1  -2  16  390.46   20.10
   1   2 -16  377.76   19.70
  -1  -2 -16  382.16   19.70
  -1   2  16  392.56   20.00
   1   2  16  375.56   18.80
  -1   2 -16  363.56   18.40
   1  -2 -16  328.97   19.80
   1  -2 -16  366.16   18.50
  -1  -2  16  393.96   18.70
   1   2  16  366.56   19.00
   1   2  16  369.56   19.80
  -2   2  16  247.88   13.40
   2  -2  16  282.97   14.10
  -2  -2 -16  255.87   13.50
   2   2 -16  248.58   13.40
   2  -2 -16  208.48   11.60
  -2  -2  16  227.68   11.50
   2  -2 -16  219.58   11.60
  -2   2 -16  225.08   11.50
  -2  -2  16  196.98   11.40
   2  -2 -16  233.28   11.40
   3   2 -16  802.92   39.70
   3   2 -16  743.63   64.59
  -3   2  16  817.72   39.30
   3  -2  16  868.41   39.80
  -3  -2  16  709.93   38.90
   3  -2 -16  888.61   38.90
   3  -2 -16  771.52   39.10
   3   2  16  839.62   39.30
  -3  -2  16  803.52   38.90
   0   3 -16  225.08   11.60
   0   3  16  219.38   12.80
   0  -3  16  200.78   11.50
   0   3  16  219.38   12.20
   0  -3 -16  223.88   11.60
   0   3  16  216.98   11.70
   0  -3  16  221.78   12.30
  -1  -3 -16 1293.17   64.39
   1   3 -16 1265.77   64.29
  -1   3  16 1343.37   64.79
  -1   3  16 1399.46   64.79
   1  -3  16 1309.57   64.59
   1  -3  16 1395.86   64.79
   1  -3 -16 1112.99   58.09
   1  -3 -16 1198.98   58.19
  -1  -3  16 1109.39   57.89
   1   3  16 1245.38   58.59
   1   3  16 1265.27   59.19
  -1  -3  16 1293.67   58.39
   1  -3 -16 1165.38   57.79
  -1   3 -16 1238.98   58.09
   2   3 -16  786.62   39.30
   2  -3  16  850.51   39.90
   2  -3  16  844.82   39.80
  -2  -3 -16  779.42   39.40
  -2   3  16  780.02   39.30
  -2  -3  16  796.02   37.10
  -2  -3  16  692.43   36.90
   2  -3 -16  782.32   37.40
   2  -3 -16  722.33   37.20
   2   3  16  806.72   37.60
   3   3 -16  522.45   53.19
   3  -3  16  642.44   29.30
  -3   3  16  600.84   28.90
   3   3  16  651.93   31.00
   3  -3 -16  611.24   30.90
   3  -3 -16  672.83   30.50
  -3  -3  16  546.45   30.60
  -3  -3  16  659.53   30.60
   0   4  16 1228.78   61.39
   0  -4  16 1207.78   60.49
   0   4 -16 1266.47   60.49
   0   4  16 1280.17   61.09
   0  -4 -16 1288.87   60.69
   1  -4  16  799.92   38.60
  -1   4  16  752.32   38.20
  -1  -4 -16  792.02   38.30
   1  -4  16  805.22   38.40
   1   4 -16  793.32   38.20
  -1   4  16  785.02   39.10
  -1   4  16  754.72   39.10
   1   4  16  762.82   36.70
  -1   4 -16  788.72   36.20
  -1  -4  16  691.83   36.10
   1  -4 -16  652.43   36.20
  -1  -4  16  746.23   36.20
   1  -4 -16  767.02   36.30
   1   4  16  785.32   37.30
   2   4 -16  144.89    8.30
  -2   4  16  139.19    8.00
   2  -4  16  140.79    8.60
  -2  -4 -16  151.08    8.30
  -2  -4  16  134.29    7.20
   2  -4 -16  130.19    7.00
  -2  -4  16  129.79    8.40
   2  -4 -16  123.29    7.80
   2   4  16  134.89    7.90
   2  -4 -16  114.19    7.50
   3   4 -16  248.98   34.60
  -3   4  16  260.17   14.70
  -3   4  16  275.97   13.70
   3  -4  16  287.07   14.00
   3  -4 -16  231.08   12.80
   3  -4 -16  261.07   12.30
  -3  -4  16  224.88   12.70
  -3  -4  16  251.67   13.10
   3   4  16  259.27   12.90
   0  -5 -16 4255.67  190.98
   0   5 -16 4132.89  190.78
   0   5  16 4091.49  191.68
   0  -5  16 3979.90  190.78
   0  -5  16 3550.94  190.58
  -1   5  16  481.85   25.40
   1  -5  16  519.55   25.60
  -1  -5 -16  510.75   25.60
  -1   5  16  553.94   26.20
   1   5 -16  518.45   25.50
  -1   5  16  494.55   26.40
   1  -5  16  530.35   25.90
   1  -5 -16  506.25   25.30
  -1  -5  16  479.35   25.10
   1   5  16  531.75   25.80
  -1   5 -16  515.35   25.10
   1   5  16  537.25   26.30
  -1  -5  16  489.95   25.00
  -2   5  16 1022.10   49.60
  -2   5  16  975.70   48.70
   2   5 -16  992.30   48.80
   2  -5  16 1075.29   49.20
  -2  -5 -16  981.10   48.80
   2   5  16 1084.79   49.10
   2  -5 -16  945.11   48.90
  -2  -5  16  946.81   48.60
   2  -5 -16  980.00   48.90
   2  -5 -16 1075.99   48.30
  -2  -5  16 1006.70   48.50
   3  -5  16  522.15   24.70
   3   5 -16  453.05   45.80
  -3   5  16  517.05   25.10
   3   5  16  529.65   26.10
   3  -5 -16  520.15   26.90
   3  -5 -16  543.15   25.60
   0  -6 -16  262.17   13.70
   0  -6  16  245.58   13.10
   0   6  16  265.67   13.90
   0   6  16  250.17   14.10
   1  -6  16  194.58   10.60
  -1   6  16  206.48   12.00
   1  -6  16  201.78   11.00
  -1  -6 -16  199.68   10.70
   1   6 -16  197.58   10.60
   1   6  16  198.38   11.20
   1  -6 -16  199.68   10.80
  -1  -6  16  203.88   10.90
   1   6  16  221.08   12.30
  -1  -6  16  195.68   10.50
  -1   6 -16  193.68   10.60
   2   6 -16    9.20    2.20
   2  -6  16    8.60    1.90
  -2  -6 -16    8.90    2.40
  -2   6  16   12.20    3.20
  -2   6  16    7.10    2.20
  -2  -6  16   11.10    2.50
   2   6  16   13.20    2.90
   2  -6 -16   11.40    2.80
  -2  -6  16    9.60    2.20
   0  -7 -16   12.40    2.50
   0  -7  16   15.60    2.80
   0   7  16   16.50    3.20
   0  -7  16   12.20    2.20
   0   7 -16   11.80    2.20
   0   7  16   16.20    3.90
   1  -7  16 1055.79   50.29
  -1  -7 -16 1054.59   50.29
   1   7 -16 1055.09   50.19
  -1   7  16  991.50   50.69
  -1   7 -16  977.60   48.50
  -1  -7  16  936.71   48.40
   1   7  16 1052.59   49.00
  -1  -7  16 1010.50   48.40
   1  -7 -16 1009.80   48.60
   1   7  16 1043.80   49.30
  -2   7  16  288.37   16.10
   2  -7  16  321.27   15.60
  -2  -7  16  267.47   14.80
   2   7  16  323.47   15.10
   2  -7 -16  290.27   15.10
   0  -8 -16 1236.58   57.89
   0  -8  16 1112.39   57.69
   0   8  16 1251.27   58.29
  -1  -8 -16  111.39    6.70
  -1   8  16  108.09    7.20
   1   8  16  105.59    7.40
  -1  -8  16  108.89    6.10
  -1  -8  16   94.49    6.00
   1   8  16  114.39    6.40
  -1   0  17  262.87   13.80
   1   0 -17  255.57   13.70
  -1   0 -17  263.17   13.70
   1   0  17  270.97   14.20
   1   0  17  276.47   14.10
  -2   0 -17 1142.69   57.19
   2   0  17 1220.08   57.69
  -2   0  17 1194.58   57.29
   3   0 -17  176.58    9.00
   3   0 -17  159.28   27.30
  -3   0  17  169.28    9.00
   3   0  17  173.98    9.50
   0   1  17 2179.98   93.39
   0   1 -17 1779.92   91.79
   0   1  17 1821.72   92.19
   0  -1 -17 1819.02   91.89
   0  -1  17 1853.41   92.09
   0  -1  17 2035.30   92.29
   1  -1  17  894.11   43.70
  -1  -1 -17  903.21   43.40
  -1   1  17  871.71   43.40
   1   1 -17  846.52   43.30
   1  -1  17  942.41   43.70
   1  -1 -17  839.92   43.00
  -1   1 -17  878.51   43.00
   1   1  17  906.31   43.20
   1   1  17  913.41   43.50
  -1  -1  17  886.91   43.10
   2  -1  17  799.62   37.90
  -2   1  17  752.32   37.40
   2  -1  17  796.22   37.80
  -2  -1 -17  724.43   37.40
  -2   1 -17  740.13   38.00
  -2  -1  17  749.42   38.10
   2  -1 -17  784.22   38.10
   2   1  17  781.12   38.50
   2  -1 -17  862.81   39.20
   3   1 -17  710.63   33.40
   3  -1  17  730.53   33.80
  -3   1  17  688.73   33.40
   3   1 -17  614.54   51.89
   3  -1 -17  647.54   34.70
   3   1  17  727.83   35.00
   3  -1 -17  774.32   34.60
  -3  -1  17  699.03   34.60
   0   2  17  202.78   11.20
   0   2 -17  189.58   10.50
   0  -2  17  203.28   11.30
   0   2  17  190.38   10.60
   0  -2  17  200.38   10.60
   0   2  17  186.68   11.80
   0  -2 -17  193.08   10.50
   1  -2  17   22.80    3.90
   1  -2  17   17.70    3.10
  -1   2  17   22.20    2.90
   1   2 -17   24.00    2.90
   1   2  17   21.40    3.50
   1  -2 -17   17.90    2.70
   1   2  17   19.70    3.60
  -1   2 -17   16.20    2.70
  -1  -2  17   19.10    2.70
   2   2 -17  787.52   40.40
  -2  -2 -17  808.22   40.40
   2  -2  17  886.21   40.90
   2  -2  17  862.81   40.80
  -2   2  17  811.42   40.40
   2  -2 -17  781.92   39.60
  -2  -2  17  822.42   39.60
   2   2  17  845.62   40.00
   2  -2 -17  870.51   39.50
   2  -2 -17  750.12   39.90
   3  -2  17   11.20    2.80
   3   2 -17   14.10   15.20
  -3   2  17   13.50    2.20
   3   2 -17   12.70    2.30
   3  -2 -17   11.70    1.80
   3  -2 -17   11.10    2.80
   3   2  17   12.10    2.70
  -3  -2  17   11.10    2.00
   0  -3  17 1295.47   64.19
   0   3  17 1373.36   64.79
   0   3  17 1318.57   64.19
   0  -3 -17 1267.47   64.29
   0   3  17 1313.07   65.09
   0   3 -17 1425.16   64.29
   1   3 -17 4580.04  228.88
   1  -3  17 5032.50  229.18
  -1   3  17 4577.24  228.88
  -1   3  17 4771.52  229.28
   1  -3  17 5212.88  229.78
  -1  -3 -17 4667.83  228.98
  -1   3 -17 4610.94  215.28
  -1  -3  17 4411.16  215.28
   1   3  17 4529.75  216.08
   1  -3 -17 4526.75  215.38
  -2   3  17  373.36   19.00
   2  -3  17  404.16   19.50
  -2  -3 -17  376.96   19.10
   2   3 -17  363.46   19.00
   2  -3 -17  346.87   18.10
   2  -3 -17  385.96   17.80
  -2  -3  17  380.66   18.00
   2   3  17  386.36   18.50
  -2  -3  17  309.67   17.90
   2  -3 -17  339.37   18.10
  -3   3  17   53.09    3.60
   3  -3  17   49.90    4.10
   3   3 -17   48.80   17.40
   3  -3 -17   43.80    2.90
  -3  -3  17   44.50    4.60
   3   3  17   43.50    3.80
   0  -4 -17   76.49    5.30
   0  -4  17   76.09    5.00
   0   4  17   79.79    6.60
   0   4  17   83.99    6.10
   0   4 -17   79.49    5.10
   1  -4  17    7.00    2.00
  -1   4  17    7.40    2.50
   1  -4  17    5.00    2.20
  -1   4  17    7.30    2.20
  -1  -4 -17    2.70    1.80
  -1   4  17   12.70    3.40
   1   4 -17    5.70    1.90
  -1  -4  17    8.40    1.80
  -1   4 -17    5.60    2.40
   1  -4 -17    8.80    2.10
   1   4  17    9.20    6.10
  -2   4  17 1253.87   61.89
   2  -4  17 1382.76   62.39
  -2  -4 -17 1249.47   61.99
   2   4 -17 1280.27   61.99
  -2   4  17 1274.57   62.79
  -2  -4  17 1327.37   60.29
   2   4  17 1363.66   60.79
   2  -4 -17 1211.28   60.49
   2  -4 -17 1329.77   60.09
  -2  -4  17 1126.09   60.19
   2  -4 -17 1165.78   60.39
   0   5  17  161.48   10.10
   0  -5  17  168.08    8.90
   0   5  17  167.88    9.70
   1   5 -17   92.39    5.70
   1  -5  17   94.89    5.60
   1  -5  17   87.39    6.30
  -1   5  17   83.39    5.60
  -1  -5 -17   96.89    5.80
  -1   5 -17   92.99    5.70
  -1  -5  17   82.69    5.70
   1   5  17   96.19    7.60
  -1  -5  17   90.69    5.40
   1  -5 -17   89.19    5.80
   1   5  17   97.29    6.20
  -2   5  17   64.39    4.40
  -2   5  17   75.99    6.10
   2   5 -17   66.69    4.80
   2  -5  17   65.59    4.90
  -2  -5 -17   68.09    5.20
  -2  -5  17   67.69    4.00
   2  -5 -17   63.29    4.30
  -2  -5  17   54.39    4.40
   2   5  17   64.69    4.70
   2  -5 -17   62.79    4.90
   0   6  17    5.40    1.90
   0  -6  17    5.90    1.70
   0  -6 -17    4.50    1.90
   0   6 -17    4.20    1.90
  -1  -6 -17   57.19    4.40
   1  -6  17   60.99    4.10
   1   6 -17   64.69    4.40
   1  -6  17   57.09    5.20
  -1   6  17   60.79    5.50
   1   6  17   48.60    4.20
  -1  -6  17   47.20    3.40
  -1  -6  17   42.90    4.00
  -1   6 -17   53.69    4.10
   1   6  17   50.09    6.00
   1  -6 -17   48.70    5.70
   1  -6 -17   50.99    4.30
  -2   6  17  795.22   40.10
  -2   6  17  760.62   39.30
   2  -6  17  891.71   39.70
   2   6  17  874.81   41.00
  -2  -6  17  808.02   40.50
   0   7 -17  146.49    8.20
   0   7  17  155.98    8.50
   0  -7  17  147.49    7.90
   0  -7 -17  147.79    8.30
   0   7  17  143.99    9.10
  -1   7  17 1877.11   91.69
   1   7 -17 1962.70   91.19
  -1  -7 -17 1878.31   91.29
   1   7  17 2083.29   94.69
   1   7  17 1862.01   95.09
   0   0 -18 1861.31   86.99
   0   0  18 1816.12   87.59
   0   0  18 1691.73   87.59
   0   0  18 1875.21   86.99
  -1   0  18  125.59    7.20
   1   0  18  133.99    7.50
  -1   0 -18  122.59    7.20
   1   0 -18  118.99    7.20
   1   0  18  121.39    7.70
   2   0  18  309.57   15.50
  -2   0  18  289.87   15.10
   2   0 -18  280.87   15.20
  -2   0 -18  309.47   16.90
   0  -1  18 1694.33   75.59
   0   1 -18 1553.94   75.19
   0   1  18 1610.24   75.59
   0  -1  18 1556.14   75.19
   0   1  18 1473.25   75.89
   0  -1 -18 1503.35   75.19
   0   1  18 1546.75   75.19
   1  -1  18 2220.88  104.89
  -1  -1 -18 2196.28  104.59
   1  -1  18 2289.07  104.79
  -1   1  18 2091.99  104.59
   1   1 -18 2126.49  104.59
  -1  -1  18 2090.29  101.49
   1   1  18 2151.98  101.59
   1   1  18 2212.28  101.89
  -1   1 -18 2112.79  101.49
   1  -1 -18 2031.30  101.49
   2  -1  18  333.17   16.40
  -2  -1 -18  309.67   16.10
   2   1 -18  305.67   16.00
  -2   1  18  310.67   15.90
   2  -1 -18  299.87   16.70
   2   1  18  337.27   17.00
  -2  -1  18  330.67   16.50
   2  -1 -18  341.67   16.40
   0   2 -18 1399.86   67.49
   0  -2 -18 1387.96   67.59
   0   2  18 1367.96   67.49
   0   2  18 1445.46   67.99
   0  -2  18 1479.25   67.79
   0  -2  18 1412.76   67.49
   0   2  18 1319.47   68.29
  -1   2  18  188.98   10.50
   1   2 -18  186.38   10.80
   1  -2  18  208.68   11.00
   1  -2  18  207.28   10.70
   1  -2 -18  209.68   10.90
   1   2  18  184.78   10.40
  -1  -2  18  189.18   10.20
   1  -2 -18  188.28   10.10
   1   2  18  198.28   10.90
   2   2 -18   11.30    2.30
  -2  -2 -18   15.90    3.10
   2  -2  18    9.10    2.00
  -2   2  18   13.20    2.20
  -2  -2  18    9.60    2.00
   2  -2 -18    7.40    2.30
   2  -2 -18    7.10    1.40
   2   2  18    5.70    1.80
   0   3  18   66.29    4.70
   0   3  18   70.19    6.50
   0   3  18   69.49    5.60
   0  -3  18   73.19    4.70
   0   3 -18   65.99    4.70
   0  -3 -18   72.69    4.80
  -1   3  18 1064.19   52.69
   1   3 -18 1014.60   52.29
   1  -3  18 1107.09   52.49
  -1   3  18 1018.10   52.29
   1  -3  18 1103.59   52.59
  -1   3  18 1200.68   55.79
  -1  -3 -18 1079.69   52.39
   1   3  18 1081.59   51.09
   1  -3 -18 1025.60   50.79
  -1   3 -18 1052.19   50.69
  -1  -3  18 1037.20   50.69
   2  -3  18  602.04   27.60
  -2   3  18  551.54   27.10
  -2  -3 -18  534.95   27.30
   2   3 -18  527.65   27.20
   2  -3 -18  556.24   25.50
  -2  -3  18  531.85   25.70
   2   3  18  545.65   26.10
   2  -3 -18  460.45   25.80
   0   4  18  994.40   48.20
   0  -4 -18  994.60   47.90
   0   4  18  953.50   48.60
   0   4 -18 1022.00   47.80
   0  -4  18  970.10   47.70
   1   4 -18   24.10    2.90
   1  -4  18   26.40    2.90
  -1  -4 -18   22.50    3.20
  -1   4  18   21.50    2.90
   1  -4  18   24.40    3.80
  -1   4 -18   21.60    3.00
  -1  -4  18   25.10    2.60
   1  -4 -18   24.10    3.20
   1   4  18   27.20    3.50
   2   4 -18  150.08    8.70
  -2   4  18  155.78    9.60
   2  -4  18  161.58    8.70
  -2   4  18  152.78    8.30
  -2  -4  18  156.18    8.50
   2  -4 -18  163.88    8.30
   2   4  18  168.08    9.10
   0   5  18 3647.03  168.88
   0  -5 -18 3566.34  168.58
   0  -5  18 3448.65  168.38
   0   5  18 3288.97  168.98
   0   5 -18 3715.03  168.48
   1   5 -18  225.78   12.10
  -1  -5 -18  229.18   12.20
   1  -5  18  230.88   12.00
   1  -5  18  251.77   12.50
  -1   5  18  226.98   13.00
  -1   5 -18  207.78   11.40
   1  -5 -18  219.38   11.40
   1   5  18  222.08   11.70
   1   5  18  218.18   13.80
  -1  -5  18  214.78   11.10
  -2   5  18  642.74   33.10
  -2   5  18  635.34   32.30
   2  -5  18  725.03   32.70
   2   5  18  722.63   34.50
  -2  -5  18  686.83   34.10
   0   6  18  892.31   45.00
   0   6 -18  911.41   44.40
   0  -6  18  908.11   44.30
   0  -6 -18  936.21   44.50
   0   6  18  940.21   44.70
  -1   6  18   35.60    4.50
  -1  -6 -18   42.20    4.00
   1   6 -18   36.70    3.60
   1   6  18   32.90    3.50
  -1  -6  18   36.90    2.80
  -1   0 -19  495.55   24.40
   1   0  19  515.65   24.50
   1   0 -19  452.55   24.30
   1   0  19  527.45   24.80
  -1   0  19  473.05   24.30
   2   0  19  104.89    6.50
  -2   0  19   99.89    5.90
   2   0 -19  107.79    5.90
   0   1  19 1049.70   57.09
   0  -1  19 1188.08   55.69
   0   1  19 1090.49   55.59
   0   1 -19 1187.68   55.69
   0   1  19 1210.18   55.99
   0  -1  19 1233.88   55.99
   0  -1 -19 1109.99   55.69
  -1  -1 -19  835.02   41.50
   1  -1  19  883.81   41.80
   1  -1  19  901.81   41.60
  -1   1  19  827.02   41.40
   1   1 -19  821.52   41.40
   1   1  19  825.12   39.60
   1  -1 -19  812.92   39.30
   1   1  19  862.51   40.00
  -1  -1  19  810.62   39.50
  -1   1 -19  793.22   39.50
   1  -1 -19  782.82   39.60
   2   1 -19 2015.60   97.99
   2   1 -19 1783.12  116.29
  -2   1  19 2080.49   97.89
   2  -1  19 2307.37   98.29
   2  -1 -19 2300.37  106.09
  -2  -1  19 2109.99  106.09
   2   1  19 2254.97  106.49
   0  -2  19    3.90    1.80
   0   2 -19    2.30    1.50
   0  -2 -19    5.80    1.70
   0   2  19    2.90    2.10
  -1   2  19  685.93   36.40
  -1  -2 -19  739.23   35.70
   1   2 -19  682.83   35.60
   1  -2  19  799.02   35.90
   1  -2  19  790.92   36.00
  -1   2  19  692.03   35.50
   1  -2 -19  689.03   34.70
   1  -2 -19  701.93   34.40
   1   2  19  764.82   35.20
  -1   2 -19  699.43   34.70
  -1  -2  19  708.93   34.70
   2   2 -19  487.05   45.10
   2  -2  19  622.44   27.80
  -2   2  19  571.74   27.40
   2   2  19  611.04   29.60
   2  -2 -19  611.94   29.10
  -2  -2  19  579.04   29.20
   0  -3  19  327.67   15.70
   0   3  19  279.37   15.50
   0   3  19  334.87   16.20
   0  -3 -19  317.47   15.80
   0   3  19  287.77   16.70
  -1   3  19  186.38   11.60
   1  -3  19  208.08   10.50
  -1   3  19  182.08   10.20
   1   3 -19  205.58   10.50
  -1  -3 -19  190.08   10.40
   1  -3  19  207.98   10.80
   1  -3 -19  189.98   10.40
  -1   3 -19  194.18   10.40
   1   3  19  209.78   10.80
  -1  -3  19  192.28   10.20
   2  -3  19  712.73   33.00
  -2   3  19  684.13   33.30
  -2   3  19  626.24   33.50
   2  -3 -19  664.23   31.90
   2   3  19  689.73   32.50
  -2  -3  19  631.24   32.00
   0   4 -19   19.50    2.70
   0   4  19   18.50    3.50
   0  -4  19   24.80    2.50
   0   4  19   19.00    3.80
   0  -4 -19   14.40    2.90
   1  -4  19  915.91   42.10
  -1   4  19  831.32   42.60
   1   4 -19  834.52   41.90
  -1  -4 -19  843.42   42.00
   1  -4  19  901.51   42.00
   1   4  19  930.31   42.30
  -1   4 -19  842.62   42.00
   1  -4 -19  821.62   42.00
  -1  -4  19  875.61   41.90
   0  -5  19   13.50    2.00
   0  -5 -19   14.20    2.40
   0   5  19   10.40    3.50
   0   5 -19   14.80    2.40
   0   5  19   12.40    3.10
   1  -5  19 1645.04   73.69
   1  -5  19 1581.44   74.49
   1   5 -19 1515.95   73.69
  -1   5  19 1402.76   74.09
   1   5  19 1619.64   74.99
  -1  -5  19 1500.35   74.59
   0   0  20   14.30    3.00
   0   0 -20   12.90    2.70
   1   0  20  764.12   35.40
  -1   0  20  702.33   35.20
   1   0  20  791.82   35.70
   1   0 -20  681.23   35.30
  -1   0 -20  694.33   35.30
   0  -1  20  909.41   43.70
   0  -1 -20  868.31   43.80
   0   1  20  980.20   44.10
   0   1  20  862.91   43.60
   0   1 -20  899.51   43.80
  -1  -1 -20  727.83   36.80
   1  -1  20  825.42   37.10
   1   1 -20  737.93   36.80
  -1   1  20  753.52   36.70
  -1   1  20  698.83   37.60
   1  -1  20  805.92   36.90
   1  -1 -20  670.83   35.00
  -1   1 -20  683.03   35.00
   1   1  20  805.92   35.40
   1   1  20  694.93   35.70
   1  -1 -20  756.42   34.80
  -1  -1  20  713.33   35.00
   0   2 -20   25.00    3.40
   0   2  20   29.80    4.20
   0   2  20   30.20    3.00
   0  -2 -20   26.80    3.30
   0  -2  20   36.60    2.90
  -1   2  20  197.88   12.70
   1   2 -20  214.08   11.40
  -1  -2 -20  209.88   11.50
   1  -2  20  238.48   11.80
   1  -2  20  239.48   11.50
  -1   2  20  219.88   11.30
  -1   2 -20  201.38   11.20
   1  -2 -20  198.38   10.90
  -1  -2  20  202.78   10.70
   1   2  20  230.18   11.20
   0   3  20 4074.89  187.38
   0  -3 -20 3832.02  187.18
   0  -3  20 3885.11  187.08
   0   3 -20 3924.71  187.18
   1  -3  20  403.06   20.60
  -1   3  20  361.16   19.40
   1   3 -20  383.16   19.70
  -1   3  20  410.16   21.00
   1  -3  20  424.16   19.70
  -1  -3  20  403.26   20.40
   1   3  20  427.26   20.80
   0  -4  20   17.60    2.10
   0   4  20   17.60    3.30
   0  -4 -20   17.30    3.00
   0   0 -21    1.20    2.00
   0   1  21  919.51   46.40
   0  -1  21 1012.80   46.60

_computing_structure_solution     'SHELXT 2014/4 (Sheldrick, 2014)'
;
_shelx_hkl_checksum              42344
_shelx_shelxl_version_number     2014/7
_olex2_submission_special_instructions 'No special instructions were received'
loop_
_space_group_symop_operation_xyz
'x, y, z'
'-x+1/2, -y, z+1/2'
'-x, y+1/2, -z+1/2'
'x+1/2, -y+1/2, -z'
loop_
_atom_site_label
_atom_site_type_symbol
_atom_site_fract_x
_atom_site_fract_y
_atom_site_fract_z
_atom_site_U_iso_or_equiv
_atom_site_adp_type
_atom_site_occupancy
_atom_site_site_symmetry_order
_atom_site_calc_flag
_atom_site_refinement_flags_posn
_atom_site_refinement_flags_adp
_atom_site_refinement_flags_occupancy
_atom_site_disorder_assembly
_atom_site_disorder_group
Br1 Br 0.48269(9) 0.30256(3) 0.73768(2) 0.02454(14) Uani 1 1 d . . . . .
Br2 Br 0.61174(8) 0.49455(3) 0.41223(2) 0.02188(13) Uani 1 1 d . . . . .
N1 N 0.7047(7) 0.3051(3) 0.55826(18) 0.0196(6) Uani 1 1 d . . . . .
C1 C 0.5198(8) 0.4115(3) 0.57704(18) 0.0173(6) Uani 1 1 d . . . . .
C2 C 0.3833(8) 0.4270(3) 0.6551(2) 0.0194(6) Uani 1 1 d . . . . .
C3 C 0.1867(8) 0.5306(3) 0.6741(2) 0.0210(6) Uani 1 1 d . . . . .
C4 C 0.1146(8) 0.6235(3) 0.6142(2) 0.0222(6) Uani 1 1 d . . . . .
C5 C 0.2408(8) 0.6116(3) 0.5366(2) 0.0202(6) Uani 1 1 d . . . . .
C6 C 0.4388(7) 0.5069(3) 0.51943(18) 0.0186(6) Uani 1 1 d . . . . .
H1A H 0.809(16) 0.318(5) 0.522(4) 0.046(17) Uiso 1 1 d . . . . .
H1B H 0.759(11) 0.261(5) 0.600(3) 0.025(11) Uiso 1 1 d . . . . .
H4 H -0.007(14) 0.692(5) 0.625(4) 0.042(15) Uiso 1 1 d . . . . .
H3 H 0.104(11) 0.533(4) 0.734(3) 0.020(10) Uiso 1 1 d . . . . .
H5 H 0.194(12) 0.676(4) 0.490(3) 0.030(12) Uiso 1 1 d . . . . .
loop_
_atom_site_aniso_label
_atom_site_aniso_U_11
_atom_site_aniso_U_22
_atom_site_aniso_U_33
_atom_site_aniso_U_23
_atom_site_aniso_U_13
_atom_site_aniso_U_12
Br1 0.0290(2) 0.0283(2) 0.01638(19) 0.00556(11) -0.00067(13) 0.00118(14)
Br2 0.0255(2) 0.0254(2) 0.01470(19) 0.00162(12) 0.00136(11) -0.00301(14)
N1 0.0215(14) 0.0206(13) 0.0168(14) -0.0003(11) 0.0003(11) 0.0034(12)
C1 0.0156(13) 0.0192(13) 0.0170(13) -0.0020(11) -0.0035(12) -0.0030(11)
C2 0.0199(15) 0.0209(14) 0.0174(14) 0.0020(11) -0.0012(13) -0.0030(13)
C3 0.0207(15) 0.0217(15) 0.0205(14) -0.0050(12) 0.0003(12) -0.0021(12)
C4 0.0198(15) 0.0190(14) 0.0277(17) -0.0055(13) 0.0007(13) 0.0010(13)
C5 0.0213(15) 0.0174(14) 0.0220(15) 0.0008(12) -0.0031(13) -0.0002(12)
C6 0.0185(14) 0.0200(13) 0.0172(12) -0.0001(11) -0.0003(11) -0.0015(13)
loop_
_atom_type_symbol
_atom_type_description
_atom_type_scat_dispersion_real
_atom_type_scat_dispersion_imag
_atom_type_scat_source
C C 0.0140 0.0070 'International Tables Vol C Tables 4.2.6.8 and 6.1.1.4'
H H 0.0000 0.0000 'International Tables Vol C Tables 4.2.6.8 and 6.1.1.4'
Br Br -0.9340 1.0410 'International Tables Vol C Tables 4.2.6.8 and 6.1.1.4'
N N 0.0250 0.0140 'International Tables Vol C Tables 4.2.6.8 and 6.1.1.4'
loop_
_geom_angle_atom_site_label_1
_geom_angle_atom_site_label_2
_geom_angle_atom_site_label_3
_geom_angle
_geom_angle_site_symmetry_1
_geom_angle_site_symmetry_3
C1 N1 H1A 112(4) . .
C1 N1 H1B 113(3) . .
H1A N1 H1B 124(6) . .
N1 C1 C2 122.0(3) . .
N1 C1 C6 122.7(3) . .
C6 C1 C2 115.2(3) . .
C1 C2 Br1 118.2(2) . .
C3 C2 Br1 119.0(3) . .
C3 C2 C1 122.8(3) . .
C2 C3 C4 119.5(3) . .
C2 C3 H3 116(2) . .
C4 C3 H3 125(2) . .
C3 C4 H4 121(4) . .
C5 C4 C3 119.6(3) . .
C5 C4 H4 119(4) . .
C4 C5 C6 119.5(3) . .
C4 C5 H5 123(3) . .
C6 C5 H5 117(3) . .
C1 C6 Br2 118.3(2) . .
C5 C6 Br2 118.4(2) . .
C5 C6 C1 123.3(3) . .
loop_
_geom_bond_atom_site_label_1
_geom_bond_atom_site_label_2
_geom_bond_distance
_geom_bond_site_symmetry_2
Br1 C2 1.898(3) .
Br2 C6 1.907(3) .
N1 C1 1.380(4) .
N1 H1A 0.76(7) .
N1 H1B 0.85(5) .
C1 C2 1.413(5) .
C1 C6 1.396(4) .
C2 C3 1.389(5) .
C3 C4 1.395(5) .
C3 H3 1.04(5) .
C4 C5 1.385(5) .
C4 H4 0.89(5) .
C5 C6 1.394(5) .
C5 H5 1.02(5) .
loop_
_geom_hbond_atom_site_label_D
_geom_hbond_atom_site_label_H
_geom_hbond_atom_site_label_A
_geom_hbond_distance_DH
_geom_hbond_distance_HA
_geom_hbond_distance_DA
_geom_hbond_angle_DHA
_geom_hbond_site_symmetry_A
N1 H1A Br2 0.76(7) 2.67(6) 3.091(3) 117(5) .
N1 H1A N1 0.76(7) 2.49(7) 3.090(4) 137(5) 4_556
N1 H1B Br1 0.85(5) 2.58(5) 3.082(3) 119(4) .
N1 H1B Br2 0.85(5) 3.02(5) 3.551(3) 122(4) 4_556
loop_
_geom_torsion_atom_site_label_1
_geom_torsion_atom_site_label_2
_geom_torsion_atom_site_label_3
_geom_torsion_atom_site_label_4
_geom_torsion
_geom_torsion_site_symmetry_1
_geom_torsion_site_symmetry_2
_geom_torsion_site_symmetry_3
_geom_torsion_site_symmetry_4
Br1 C2 C3 C4 179.3(2) . . . .
N1 C1 C2 Br1 4.2(4) . . . .
N1 C1 C2 C3 -177.4(3) . . . .
N1 C1 C6 Br2 -3.8(4) . . . .
N1 C1 C6 C5 176.9(3) . . . .
C1 C2 C3 C4 0.9(5) . . . .
C2 C1 C6 Br2 180.0(2) . . . .
C2 C1 C6 C5 0.7(5) . . . .
C2 C3 C4 C5 -0.3(5) . . . .
C3 C4 C5 C6 -0.1(5) . . . .
C4 C5 C6 Br2 -179.4(2) . . . .
C4 C5 C6 C1 -0.1(5) . . . .
C6 C1 C2 Br1 -179.5(2) . . . .
C6 C1 C2 C3 -1.1(5) . . . .

_cod_database_fobs_code 3500031
