#------------------------------------------------------------------------------
#$Date: 2019-12-18 18:15:21 +0200 (Wed, 18 Dec 2019) $
#$Revision: 245329 $
#$URL: file:///home/coder/svn-repositories/cod/cif/3/50/00/3500032.cif $
#------------------------------------------------------------------------------
#
# This file is available in the Crystallography Open Database (COD),
# http://www.crystallography.net/
#
# All data on this site have been placed in the public domain by the
# contributors.
#
data_3500032
loop_
_publ_author_name
'Thierry Maris'
_publ_section_references
;
Dolomanov, O.V., Bourhis, L.J., Gildea, R.J, Howard, J.A.K. & Puschmann, H.
 (2009), J. Appl. Cryst. 42, 339-341.

Sheldrick, G.M. (2008). Acta Cryst. A64, 112-122.

Sheldrick, G.M. (2015). Acta Cryst. A71, 3-8.
;
_publ_section_title
;
 3,5-Dinitrobenzyl chloride
;
_journal_name_full               'Personal communication to COD'
_journal_year                    2019
_chemical_formula_moiety         'C7 H5 Cl N2 O4'
_chemical_formula_sum            'C7 H5 Cl N2 O4'
_chemical_formula_weight         216.58
_chemical_name_common            '3,5-Dinitrobenzyl chloride'
_chemical_name_systematic        'Benzene, 1-(chloromethyl)-3,5-dinitro- '
_space_group_crystal_system      monoclinic
_space_group_IT_number           14
_space_group_name_Hall           '-P 2ybc'
_space_group_name_H-M_alt        'P 1 21/c 1'
_symmetry_space_group_name_Hall  '-P 2ybc'
_symmetry_space_group_name_H-M   'P 1 21/c 1'
_atom_sites_solution_hydrogens   difmap
_audit_creation_date             2015-12-11
_audit_creation_method
;
Olex2 1.2
(compiled 2015.09.30 svn.r3233 for OlexSys, GUI svn.r5103)
;
_cell_angle_alpha                90
_cell_angle_beta                 106.130(2)
_cell_angle_gamma                90
_cell_formula_units_Z            4
_cell_length_a                   8.5171(5)
_cell_length_b                   8.4949(5)
_cell_length_c                   12.0795(7)
_cell_measurement_reflns_used    9836
_cell_measurement_temperature    100
_cell_measurement_theta_max      60.671
_cell_measurement_theta_min      3.314
_cell_volume                     839.57(9)
_computing_cell_refinement
;
SAINT (2013) V8.35A; Integration Software for Single Crystal Data.
Bruker AXS Inc., Madison, WI 53719-1173.
;
_computing_data_collection
;
APEX 2 (2013) Bruker AXS Inc., Madison, WI 53719-1173.
;
_computing_data_reduction
;
SAINT (2013) V8.35A; Integration Software for Single Crystal Data.
Bruker AXS Inc., Madison, WI 53719-1173.
;
_computing_molecular_graphics    'Olex2 (Dolomanov et al., 2009)'
_computing_publication_material  'Olex2 (Dolomanov et al., 2009)'
_computing_structure_refinement  'XL (Sheldrick, 2008)'
_computing_structure_solution    'XT (Sheldrick, 2015)'
_diffrn_ambient_temperature      100
_diffrn_detector                 'CMOS Area detector'
_diffrn_detector_area_resol_mean 10.24
_diffrn_detector_type            'Bruker Photon 100 CMOS Detector'
_diffrn_measured_fraction_theta_full 0.997
_diffrn_measured_fraction_theta_max 0.996
_diffrn_measurement_device       'k-geometry diffractometer'
_diffrn_measurement_device_type  'Bruker Venture Metaljet'
_diffrn_measurement_method       '\w and \f scans'
_diffrn_radiation_collimation    'Focusing mirrors'
_diffrn_radiation_monochromator  'Helios MX Mirror Optics'
_diffrn_radiation_probe          x-ray
_diffrn_radiation_type           GaK\a
_diffrn_radiation_wavelength     1.34139
_diffrn_reflns_av_R_equivalents  0.0350
_diffrn_reflns_av_unetI/netI     0.0239
_diffrn_reflns_Laue_measured_fraction_full 0.997
_diffrn_reflns_Laue_measured_fraction_max 0.996
_diffrn_reflns_limit_h_max       11
_diffrn_reflns_limit_h_min       -11
_diffrn_reflns_limit_k_max       11
_diffrn_reflns_limit_k_min       -11
_diffrn_reflns_limit_l_max       15
_diffrn_reflns_limit_l_min       -15
_diffrn_reflns_number            12978
_diffrn_reflns_point_group_measured_fraction_full 0.997
_diffrn_reflns_point_group_measured_fraction_max 0.996
_diffrn_reflns_theta_full        53.594
_diffrn_reflns_theta_max         60.639
_diffrn_reflns_theta_min         4.702
_diffrn_source                   'Metal Jet'
_diffrn_source_target            Ga
_diffrn_source_type              'Gallium Liquid Metal Jet Source'
_exptl_absorpt_coefficient_mu    2.616
_exptl_absorpt_correction_T_max  0.7519
_exptl_absorpt_correction_T_min  0.5977
_exptl_absorpt_correction_type   multi-scan
_exptl_absorpt_process_details
;
SADABS-2014/5 (Bruker,2014/5) was used for absorption correction.
wR2(int) was 0.1055 before and 0.0487 after correction.
The Ratio of minimum to maximum transmission is 0.7949.
The \l/2 correction factor is 0.00150.
;
_exptl_crystal_colour            'clear light Colorless'
_exptl_crystal_colour_lustre     clear
_exptl_crystal_colour_modifier   light
_exptl_crystal_colour_primary    Colorless
_exptl_crystal_density_diffrn    1.713
_exptl_crystal_description       block
_exptl_crystal_F_000             440
_exptl_crystal_size_max          0.21
_exptl_crystal_size_mid          0.13
_exptl_crystal_size_min          0.05
_exptl_special_details
;
X-ray crystallographic data for I were collected from a single crystal
sample, which was mounted on a loop fiber. Data were collected using
a Bruker Venture diffractometer equipped with a Photon 100 CMOS Detector,
a Helios MX optics and a Kappa goniometer. The crystal-to-detector distance 
was 4.0 cm, and the data collection was carried out in 1024 x 1024 pixel mode.
;
_geom_special_details
;
 All esds (except the esd in the dihedral angle between two l.s. planes)
 are estimated using the full covariance matrix.  The cell esds are taken
 into account individually in the estimation of esds in distances, angles
 and torsion angles; correlations between esds in cell parameters are only
 used when they are defined by crystal symmetry.  An approximate (isotropic)
 treatment of cell esds is used for estimating esds involving l.s. planes.
;
_refine_diff_density_max         0.327
_refine_diff_density_min         -0.301
_refine_diff_density_rms         0.055
_refine_ls_extinction_coef       .
_refine_ls_extinction_method     none
_refine_ls_goodness_of_fit_ref   1.058
_refine_ls_hydrogen_treatment    refall
_refine_ls_matrix_type           full
_refine_ls_number_parameters     147
_refine_ls_number_reflns         1917
_refine_ls_number_restraints     0
_refine_ls_restrained_S_all      1.058
_refine_ls_R_factor_all          0.0280
_refine_ls_R_factor_gt           0.0262
_refine_ls_shift/su_max          0.000
_refine_ls_shift/su_mean         0.000
_refine_ls_structure_factor_coef Fsqd
_refine_ls_weighting_details
'w=1/[\s^2^(Fo^2^)+(0.0419P)^2^+0.3130P] where P=(Fo^2^+2Fc^2^)/3'
_refine_ls_weighting_scheme      calc
_refine_ls_wR_factor_gt          0.0716
_refine_ls_wR_factor_ref         0.0733
_reflns_Friedel_coverage         0.000
_reflns_Friedel_fraction_full    .
_reflns_Friedel_fraction_max     .
_reflns_number_gt                1790
_reflns_number_total             1917
_reflns_special_details
;
 Reflections were merged by SHELXL according to the crystal
 class for the calculation of statistics and refinement.
 
 _reflns_Friedel_fraction is defined as the number of unique
 Friedel pairs measured divided by the number that would be
 possible theoretically, ignoring centric projections and
 systematic absences.
;
_reflns_threshold_expression     'I > 2\s(I)'
_cod_data_source_file            DNITCL.cif
_cod_data_source_block           dnitcl
_cod_depositor_comments
;
The following automatic conversions were performed:

'_diffrn_radiation_probe' value 'X-ray' changed to 'x-ray' according
to the built-in table from CIF Core dictionary named 'cif_core.dic'
version 2.4.1 from 2010-06-29.

Automatic conversion script
Id: cif_fix_values 4287 2015-11-16 14:04:37Z antanas 

 Added Title
;
_cod_database_code               3500032
_cod_database_fobs_code          3500032
_shelx_space_group_comment
;
The symmetry employed for this shelxl refinement is uniquely defined
by the following loop, which should always be used as a source of
symmetry information in preference to the above space-group names.
They are only intended as comments.
;
_olex2_refinement_description
;
;
_shelx_res_file
;
    dnitcl.res created by SHELXL-2014/7

TITL dnitcl_a.res in P2(1)/c
REM Old TITL DNITCL in P21/c #14
REM SHELXT solution in P2(1)/c
REM R1 0.081, Rweak 0.002, Alpha 0.017, Orientation as input
REM Formula found by SHELXT: C9 O4 Cl
CELL 1.34139 8.5171 8.4949 12.0795 90 106.13 90
ZERR 4 0.0005 0.0005 0.0007 0 0.002 0
LATT 1
SYMM -X,0.5+Y,0.5-Z
SFAC C H N O Cl
DISP C 0.014 0.007 57.748
DISP Cl 0.329 0.54 4086.178
DISP H -0 0 0.648
DISP N 0.025 0.014 110.512
DISP O 0.039 0.025 193.954
UNIT 28 20 8 16 4

L.S. 30
PLAN  5
TEMP 0
BOND $H
LIST 6
fmap 2 53
MORE -1
CONF
ACTA
REM <olex2.extras>
REM <HklSrc "%.\\DNITCL.hkl">
REM </olex2.extras>

WGHT    0.041900    0.313000
FVAR       1.02649
CL1   5    0.066932    0.256845    0.380880    11.00000    0.02072    0.01904 =
         0.02194    0.00179    0.00379   -0.00545
O4    4    0.671308    0.401207    0.301436    11.00000    0.01867    0.01610 =
         0.02196   -0.00087    0.00747    0.00326
O2    4    0.477435    0.909972    0.596034    11.00000    0.02786    0.02144 =
         0.01587   -0.00493    0.00726   -0.00680
O3    4    0.755476    0.641692    0.341354    11.00000    0.01665    0.02112 =
         0.02475   -0.00060    0.00891   -0.00427
O1    4    0.214401    0.928717    0.522766    11.00000    0.02781    0.01802 =
         0.03011   -0.00239    0.01414    0.00550
N2    3    0.653329    0.536653    0.331160    11.00000    0.01389    0.01651 =
         0.01234    0.00170    0.00406    0.00101
N1    3    0.346895    0.867692    0.529189    11.00000    0.02437    0.01300 =
         0.01495    0.00060    0.00956   -0.00119
C4    1    0.499430    0.703481    0.429177    11.00000    0.01556    0.01336 =
         0.01166    0.00172    0.00320   -0.00093
C3    1    0.352014    0.735130    0.452074    11.00000    0.01890    0.01107 =
         0.01103    0.00073    0.00510    0.00191
C5    1    0.499632    0.575838    0.357916    11.00000    0.01318    0.01344 =
         0.01184    0.00260    0.00463    0.00217
C2    1    0.211127    0.647762    0.406901    11.00000    0.01453    0.01467 =
         0.01351    0.00280    0.00499    0.00320
C1    1    0.217281    0.519988    0.335677    11.00000    0.01400    0.01350 =
         0.01238    0.00207    0.00270    0.00036
C6    1    0.363690    0.483034    0.311365    11.00000    0.01599    0.01270 =
         0.01176    0.00079    0.00388    0.00098
C7    1    0.068752    0.420617    0.286137    11.00000    0.01383    0.01718 =
         0.01703    0.00074    0.00334   -0.00104
H6    2    0.371103    0.397948    0.264521    11.00000    0.02032
H7A   2   -0.029477    0.475675    0.279029    11.00000    0.02025
H2    2    0.116211    0.673405    0.426645    11.00000    0.01595
H7B   2    0.070935    0.378979    0.212811    11.00000    0.01758
H4    2    0.590774    0.765722    0.459043    11.00000    0.01903
HKLF 4

REM  dnitcl_a.res in P2(1)/c
REM R1 =  0.0262 for    1790 Fo > 4sig(Fo)  and  0.0280 for all    1917 data
REM    147 parameters refined using      0 restraints

END

WGHT      0.0417      0.3136

REM Highest difference peak  0.327,  deepest hole -0.301,  1-sigma level  0.055
Q1    1   0.1577  0.4731  0.3178  11.00000  0.05    0.33
Q2    1   0.2170  0.5607  0.3797  11.00000  0.05    0.30
Q3    1   0.4957  0.6564  0.3757  11.00000  0.05    0.28
Q4    1   0.2817  0.5141  0.3134  11.00000  0.05    0.28
Q5    1   0.5633  0.5601  0.3430  11.00000  0.05    0.26
;
_shelx_res_checksum              50616
_shelx_hkl_file
;
   1   0   0 2408.16  120.49
  -2   0   0   21.60    1.30
   2   0   0   20.90    1.20
   3   0   0  415.96   19.60
  -3   0   0  459.75   19.70
   3   0   0  413.06   19.60
   3   0   0  432.56   19.60
  -4   0   0  587.34   26.00
   4   0   0  574.14   25.90
   4   0   0  551.44   25.90
   4   0   0  562.84   25.90
   5   0   0  685.73   32.90
   5   0   0  743.33   33.00
  -5   0   0  749.23   33.10
   5   0   0  740.13   33.00
   5   0   0  701.83   33.00
   6   0   0   75.29    3.80
  -6   0   0   67.79    4.00
   6   0   0   67.39    3.90
   6   0   0   73.49    3.80
   6   0   0   74.19    3.80
   7   0   0 9999.00  450.95
  -8   0   0   36.00    3.40
   8   0   0   35.30    2.80
   8   0   0   37.20    2.70
  -8   0   0   33.80    3.20
   8   0   0   37.00    2.90
  -9   0   0    0.10    1.60
   9   0   0    2.70    1.40
  -9   0   0   -0.40    1.90
   9   0   0    1.10    1.50
   9   0   0    0.20    1.40
 -10   0   0  154.78    8.90
  10   0   0  162.78    8.30
   0  -1   0    0.50    0.20
   0  -1   0    0.50    0.20
   1  -1   0  380.06   17.50
   1  -1   0  348.87   17.40
  -1   1   0  414.16   17.50
   3  -1   0 2210.88   92.99
   3  -1   0 2020.60   92.79
   3  -1   0 2076.69   92.69
  -3  -1   0 2035.50   92.79
  -3   1   0 2008.80   92.69
   3   1   0 1956.50   92.69
  -4  -1   0 1978.50   88.59
   4  -1   0 1937.31   88.89
   4  -1   0 1941.31   88.39
   4  -1   0 1970.10   88.49
   4   1   0 1972.70   88.39
   4   1   0 2028.00   88.39
  -4   1   0 1858.81   88.39
   5  -1   0 3137.89  140.29
   5  -1   0 3126.19  140.29
   5  -1   0 3175.28  140.39
   5  -1   0 3022.80  140.39
  -5  -1   0 3156.08  140.49
  -5   1   0 3167.58  140.39
   5   1   0 3136.79  140.29
   5   1   0 3176.18  140.39
   5   1   0 2856.91  140.19
   6  -1   0   96.59    4.90
  -6  -1   0   97.89    5.40
   6  -1   0   96.49    4.90
  -6  -1   0   99.49    5.20
   6  -1   0   92.49    5.00
   6   1   0   96.59    4.90
  -6   1   0   98.09    5.00
   6   1   0   93.49    4.80
   6   1   0   92.69    4.90
  -7  -1   0  175.68    9.10
   7  -1   0  179.78    8.80
   7  -1   0  183.48    8.70
   7  -1   0  178.08    8.80
   7  -1   0  181.18    8.70
  -7  -1   0  173.78    9.10
  -7   1   0  177.58    8.90
   7   1   0  181.18    8.70
   7   1   0  173.78    8.60
   7   1   0  183.78    8.80
   8  -1   0  153.28    7.80
   8  -1   0  159.08    7.90
  -8  -1   0  158.18    8.30
  -8  -1   0  151.08    8.20
   8  -1   0  165.28    8.00
  -8   1   0  157.98    8.10
   8   1   0  157.08    8.00
   8   1   0  150.28    7.70
   8   1   0  158.28    7.90
  -9  -1   0  116.29    7.00
   9  -1   0  127.99    6.30
   9  -1   0  119.39    6.40
   9  -1   0  118.59    6.60
   9   1   0  121.79    6.50
  -9   1   0  125.99    7.10
   9   1   0  113.79    7.70
   9   1   0  125.69    6.50
  -9   1   0  120.79    6.80
 -10  -1   0  344.37   16.80
  10  -1   0  346.77   16.00
  10  -1   0  341.17   16.30
  10  -1   0  322.57   17.00
 -10   1   0  336.97   16.60
 -10   1   0  345.87   16.50
  10   1   0  350.66   16.30
   0  -2   0   97.89    4.60
   0  -2   0   94.49    4.50
   0  -2   0   96.69    4.50
   1   2   0 2712.53  154.18
  -2  -2   0 2429.96  108.69
  -2  -2   0 2269.17  108.79
   2  -2   0 2447.06  108.79
   2   2   0 2396.06  108.69
   2   2   0 2498.15  108.69
  -3  -2   0   69.99    3.60
   3  -2   0   65.19    3.30
   3  -2   0   73.39    3.40
   3  -2   0   66.99    3.40
  -3  -2   0   67.29    3.30
   3  -2   0   67.69    3.70
  -3  -2   0   68.89    3.60
   3   2   0   62.19    3.30
   3   2   0   68.59    3.40
  -4  -2   0   31.40    2.90
   4  -2   0   34.70    2.20
   4  -2   0   35.00    2.00
  -4  -2   0   36.80    3.30
  -4  -2   0   33.50    2.10
   4  -2   0   34.00    2.20
  -4  -2   0   34.50    2.30
   4  -2   0   34.00    2.80
   4  -2   0   35.60    1.90
  -4   2   0   33.20    2.00
   4   2   0   36.00    2.00
   4   2   0   37.40    2.10
  -5  -2   0  530.55   25.80
   5  -2   0  559.84   25.40
  -5  -2   0  539.05   25.50
   5  -2   0  593.24   25.50
  -5  -2   0  509.15   25.70
   5  -2   0  583.14   25.60
   5  -2   0  598.74   25.60
   5   2   0  594.24   25.60
  -5   2   0  544.35   25.60
   5   2   0  514.15   25.40
   5   2   0  564.44   25.50
   6  -2   0  810.72   35.30
   6  -2   0  771.82   35.30
  -6  -2   0  786.32   35.70
   6  -2   0  774.32   35.20
   6  -2   0  812.72   35.70
  -6  -2   0  753.52   35.60
   6  -2   0  771.52   35.30
  -6  -2   0  717.13   35.20
  -6  -2   0  739.43   35.60
   6   2   0  802.32   35.30
  -6   2   0  793.92   35.40
   6   2   0  726.73   35.10
   6   2   0  770.42   35.20
   7  -2   0   33.60    2.50
   7  -2   0   32.50    2.60
   7  -2   0   35.40    2.70
  -7  -2   0   30.50    3.00
  -7  -2   0   37.30    3.30
   7  -2   0   34.40    2.60
   7   2   0   30.50    2.60
   7   2   0   34.10    2.60
   7   2   0   29.90    2.60
  -7   2   0   29.00    2.50
   8  -2   0  268.97   12.60
  -8  -2   0  271.37   13.00
   8  -2   0  248.58   12.60
   8  -2   0  267.57   12.50
   8  -2   0  242.98   12.50
   8   2   0  272.07   12.60
  -8   2   0  254.07   12.70
   9  -2   0  452.15   20.60
  -9  -2   0  427.46   20.90
   9  -2   0  435.76   20.60
   9  -2   0  441.46   20.40
   9   2   0  432.86   20.60
  -9   2   0  441.06   20.80
  10  -2   0   31.20    3.50
  10   2   0   35.70    3.30
 -10   2   0   30.60    3.70
 -10   2   0   39.30    4.60
   0  -3   0   -4.00    0.40
   0  -3   0   -4.80    0.70
   0  -3   0   -3.80    0.40
   0  -3   0   -4.10    0.50
   0  -3   0   -3.80    0.40
   0   3   0   -4.20    0.50
  -1  -3   0 1779.72   81.59
   1  -3   0 1775.82   81.49
   1  -3   0 1743.23   81.59
  -1  -3   0 1810.92   81.79
   1  -3   0 1886.11   81.79
   1  -3   0 1852.51   81.59
   1   3   0 1777.12   81.49
  -2  -3   0  857.81   39.90
   2  -3   0  912.21   40.20
  -2  -3   0  854.71   40.10
   2  -3   0  890.01   40.00
   2  -3   0  844.22   40.10
   2  -3   0  840.52   39.90
   2   3   0  871.01   39.90
  -2   3   0  980.20   40.00
   3  -3   0  183.38    8.80
   3  -3   0  172.18    8.60
   3  -3   0  193.88    8.80
   3  -3   0  176.58    8.90
  -3  -3   0  169.28    9.20
   3  -3   0  202.28    8.70
  -3  -3   0  194.78    9.00
  -3  -3   0  191.98    8.70
   3   3   0  173.88    8.70
  -3   3   0  202.58    8.70
  -4  -3   0   59.79    3.30
   4  -3   0   58.09    3.10
  -4  -3   0   66.79    3.70
   4  -3   0   63.49    3.40
   4  -3   0   65.59    3.20
   4  -3   0   56.99    4.10
  -4  -3   0   53.49    4.00
   4  -3   0   59.99    3.40
   4   3   0   62.09    3.30
  -4   3   0   62.39    3.20
   5  -3   0  870.61   43.10
   5  -3   0  944.01   43.10
  -5  -3   0  878.51   43.30
   5  -3   0  950.90   42.90
  -5  -3   0  899.91   42.90
   5  -3   0  970.60   43.00
   5  -3   0 1004.40   43.10
   5   3   0 1035.10   43.10
  -5   3   0  948.11   43.10
   6  -3   0   76.59    4.80
   6  -3   0   76.39    4.20
  -6  -3   0   72.19    4.30
   6  -3   0   80.29    4.30
   6  -3   0   80.79    4.20
  -6  -3   0   79.69    4.80
   6  -3   0   74.59    4.30
  -6   3   0   77.39    4.20
   6   3   0   74.99    4.30
   7  -3   0  360.86   16.80
  -7  -3   0  343.67   16.80
   7  -3   0  348.27   16.90
   7  -3   0  378.56   16.90
  -7   3   0  349.87   16.90
   7   3   0  365.56   16.90
   8  -3   0  165.98    8.90
  -8  -3   0  174.88    9.40
   8  -3   0  173.68    8.70
   8  -3   0  181.68    8.90
   8   3   0  177.48    8.90
  -8   3   0  183.68    9.00
   9  -3   0  260.37   12.70
   9  -3   0  290.87   13.30
  -9  -3   0  253.97   13.30
   9  -3   0  258.47   12.90
  -9   3   0  261.27   13.00
   9   3   0  269.37   12.90
  10  -3   0    6.00    1.90
 -10   3   0   12.80    3.50
  10   3   0    8.90    1.80
 -10   3   0    7.80    2.10
   0  -4   0   27.20    2.10
   0  -4   0   28.90    1.70
   0  -4   0   28.80    1.70
   0  -4   0   26.80    1.90
   0  -4   0   25.70    1.60
   0   4   0   29.60    2.00
  -1  -4   0 1406.16   65.99
   1  -4   0 1494.65   65.89
   1  -4   0 1446.46   65.69
   1  -4   0 1414.36   65.89
   1  -4   0 1519.95   65.99
   1  -4   0 1526.35   66.09
   1  -4   0 1467.75   65.79
   1  -4   0 1471.95   65.89
  -1  -4   0 1432.06   65.79
   1   4   0 1372.36   65.79
   2  -4   0 1371.76   63.39
   2  -4   0 1415.26   63.19
   2  -4   0 1292.17   62.99
   2  -4   0 1422.96   63.29
  -2  -4   0 1382.26   63.09
  -2   4   0 1504.15   63.19
   2   4   0 1365.96   63.09
   3  -4   0  506.05   23.30
  -3  -4   0  516.65   23.30
  -3  -4   0  514.15   23.60
  -3  -4   0  484.85   23.40
   3  -4   0  546.95   23.40
  -3  -4   0  449.76   23.80
   3  -4   0  524.25   23.30
   3   4   0  523.15   23.30
  -3   4   0  512.35   23.30
  -4  -4   0  707.63   33.20
  -4  -4   0  785.02   33.70
   4  -4   0  746.43   33.40
  -4  -4   0  632.84   33.90
   4  -4   0  793.52   33.30
   4  -4   0  679.93   33.40
   4  -4   0  788.02   33.50
  -4  -4   0  728.43   33.40
  -4   4   0  743.33   33.30
   4   4   0  695.33   33.40
   5  -4   0    8.30    1.80
  -5  -4   0    6.30    1.80
   5  -4   0    4.20    1.00
   5  -4   0    4.30    1.00
   5   4   0    7.80    1.20
  -5   4   0    5.30    1.00
   6  -4   0  261.47   15.00
   6  -4   0  309.97   14.20
  -6  -4   0  285.87   14.70
  -6  -4   0  299.17   14.20
   6  -4   0  312.67   14.20
   6   4   0  317.77   14.30
  -6   4   0  302.67   14.20
   7  -4   0  346.27   16.20
   7  -4   0  345.17   16.20
   7  -4   0  344.57   16.10
  -7  -4   0  332.87   16.10
  -7  -4   0  345.47   16.70
  -7   4   0  349.77   16.20
   7   4   0  321.57   16.20
   8  -4   0  165.58    8.30
   8  -4   0  167.28    8.30
  -8  -4   0  169.28    9.00
   8  -4   0  159.78    8.30
  -8  -4   0  151.28    8.20
   8  -4   0  145.19    8.60
   8   4   0  164.18    8.40
  -8   4   0  174.18    8.40
   9  -4   0  206.18   10.10
  -9  -4   0  201.88   10.90
  -9   4   0  207.38   10.30
   9   4   0  201.78   10.20
   0  -5   0   -0.60    0.70
   0  -5   0    1.60    0.60
   0  -5   0   -0.10    0.70
   0  -5   0   -0.20    0.90
   0  -5   0    0.90    0.80
   0  -5   0   -0.40    0.60
   0  -5   0   -0.70    1.00
   0   5   0   -0.10    0.90
  -1  -5   0   62.19    3.50
   1  -5   0   60.89    3.30
   1  -5   0   57.59    3.20
  -1  -5   0   62.29    3.60
   1  -5   0   61.09    3.40
   1  -5   0   60.49    3.30
   1  -5   0   55.69    3.00
  -1  -5   0   61.49    3.20
   1  -5   0   55.69    3.40
   1  -5   0   62.69    3.60
   1  -5   0   57.49    3.20
   1   5   0   57.89    3.30
  -1   5   0   59.99    3.30
   1   5   0   57.69    3.80
  -2  -5   0  132.09    6.80
   2  -5   0  124.29    6.60
   2  -5   0  135.39    6.90
   2  -5   0  132.99    6.50
   2  -5   0  131.09    6.30
  -2  -5   0  137.39    6.40
   2  -5   0  131.79    6.40
  -2  -5   0  130.89    6.60
   2  -5   0  138.59    6.70
   2  -5   0  140.09    6.60
   2   5   0  127.59    6.40
  -3  -5   0 2897.11  137.99
   3  -5   0 3084.09  137.79
   3  -5   0 2955.70  137.69
  -3  -5   0 3005.30  137.79
   3  -5   0 3027.10  137.59
   3  -5   0 3188.48  137.79
   3  -5   0 3037.30  137.69
  -3  -5   0 3003.20  137.59
  -3   5   0 3085.19  137.69
   3   5   0 3180.38  137.69
   4  -5   0 1969.40   92.99
   4  -5   0 1992.80   92.99
   4  -5   0 2119.39   93.09
  -4  -5   0 2051.89   92.99
   4  -5   0 2098.49   92.89
  -4  -5   0 2030.20   93.29
   4   5   0 1971.80   92.99
  -4   5   0 2169.88   92.89
   5  -5   0    2.60    1.80
   5  -5   0    2.00    1.10
   5  -5   0    2.90    1.20
   5  -5   0    4.10    1.00
  -5  -5   0    2.70    1.60
   5   5   0    4.40    1.20
   6  -5   0  298.47   14.40
   6  -5   0  295.57   14.30
  -6  -5   0  304.97   14.20
   6  -5   0  305.77   14.30
   6  -5   0  313.17   14.30
   6  -5   0  295.87   14.30
  -6  -5   0  281.97   14.80
  -6   5   0  289.57   14.20
   6   5   0  306.07   14.40
  -7  -5   0  130.09    7.60
  -7  -5   0  132.29    6.80
   7  -5   0  127.49    6.90
   7  -5   0  130.49    6.90
   7  -5   0  127.19    6.80
   7  -5   0  130.29    6.90
   7   5   0  127.39    7.00
  -7   5   0  128.79    6.80
   8  -5   0   29.70    3.20
  -8  -5   0   28.00    3.00
  -8  -5   0   30.80    4.40
   8  -5   0   35.60    3.00
   8  -5   0   27.70    3.20
  -8   5   0   32.40    3.10
   8   5   0   31.60    3.00
   9  -5   0  154.28    8.00
  -9   5   0  156.38    8.30
   9   5   0  158.38    8.10
   0  -6   0 3063.79  131.89
   0  -6   0 2870.21  131.79
   0  -6   0 2846.22  132.09
   0  -6   0 2942.11  131.79
   0  -6   0 2858.01  131.79
   0  -6   0 2990.80  132.19
   0   6   0 2827.52  132.19
   1  -6   0  147.99    7.60
  -1  -6   0  144.39    7.30
   1  -6   0  154.28    7.20
   1  -6   0  150.58    7.30
   1  -6   0  142.99    7.30
  -1  -6   0  153.48    7.30
   1  -6   0  140.09    7.00
   1  -6   0  146.29    7.50
  -1  -6   0  149.88    7.60
  -1  -6   0  147.69    7.20
   1   6   0  139.29    7.90
  -1   6   0  145.49    7.30
  -2  -6   0 1777.42   79.29
   2  -6   0 1726.03   79.29
  -2  -6   0 1757.12   79.59
  -2  -6   0 1746.43   79.19
   2  -6   0 1733.63   79.59
   2  -6   0 1762.62   79.29
   2  -6   0 1700.83   79.09
   2  -6   0 1799.52   79.69
   2  -6   0 1766.82   79.29
   2   6   0 1704.13   80.09
   3  -6   0   11.80    1.90
   3  -6   0    5.50    1.40
   3  -6   0    9.80    1.30
   3  -6   0   10.90    1.50
  -3  -6   0    7.90    1.30
  -3  -6   0    5.90    1.50
   3  -6   0    6.00    1.20
   3  -6   0    6.30    1.20
  -3   6   0    7.50    1.10
   3   6   0    6.10    1.40
  -4  -6   0    0.40    1.10
   4  -6   0    2.20    1.40
   4  -6   0    0.10    1.40
   4  -6   0   -0.50    1.10
  -4  -6   0    3.90    1.80
  -4   6   0    1.10    0.80
   4   6   0    0.80    1.20
   5  -6   0  982.50   44.00
  -5  -6   0  998.10   44.10
   5  -6   0  959.00   43.90
  -5  -6   0  926.01   44.60
   5  -6   0  931.91   44.00
   5  -6   0  982.80   44.20
  -5   6   0  963.20   44.00
   5   6   0  942.41   44.10
   6  -6   0   13.40    1.80
   6  -6   0   22.50    2.70
   6  -6   0   13.80    1.80
  -6  -6   0   20.50    3.00
   6  -6   0   17.90    2.30
  -6  -6   0   18.90    2.30
   6   6   0   17.90    2.20
  -6   6   0   19.70    2.20
   7  -6   0  634.94   29.30
   7  -6   0  655.53   29.40
  -7  -6   0  641.44   29.20
  -7  -6   0  629.34   29.80
   7  -6   0  590.14   29.40
  -7   6   0  635.94   29.30
   7   6   0  631.74   29.40
  -8  -6   0  475.65   22.80
   8  -6   0  454.85   22.20
  -8  -6   0  475.45   22.10
   8  -6   0  495.75   22.30
  -8   6   0  481.45   22.30
   8   6   0  474.65   22.40
   0  -7   0   -1.40    1.30
   0  -7   0   -0.50    1.10
   0  -7   0    1.00    1.00
   0  -7   0    1.20    1.20
  -1  -7   0   35.50    3.20
   1  -7   0   38.60    2.90
   1  -7   0   41.20    2.90
   1  -7   0   39.50    3.40
  -1  -7   0   39.70    2.90
  -1  -7   0   35.50    2.70
   1  -7   0   33.60    3.30
   1  -7   0   37.90    2.80
   2  -7   0 2688.93  119.09
   2  -7   0 2639.64  118.69
   2  -7   0 2734.63  118.69
  -2  -7   0 2580.24  119.09
  -2  -7   0 2635.54  118.69
  -2  -7   0 2757.32  118.79
   2   7   0 2301.97  119.59
   3  -7   0  155.58    8.10
  -3  -7   0  145.39    7.60
  -3  -7   0  147.89    8.00
   3  -7   0  142.69    7.50
   3  -7   0  145.69    7.50
  -3  -7   0  151.38    7.50
   3  -7   0  141.69    7.50
   3   7   0  131.79   10.40
  -3   7   0  144.59    7.30
  -4  -7   0   32.40    3.70
   4  -7   0   33.10    3.30
  -4  -7   0   33.80    2.90
   4  -7   0   32.40    2.90
   4  -7   0   37.80    4.00
   4  -7   0   31.70    3.20
  -4  -7   0   30.90    2.90
   4  -7   0   30.10    2.90
  -4   7   0   37.80    2.60
  -5  -7   0 1834.02   75.89
   5  -7   0 1552.24   75.69
   5  -7   0 1706.83   75.99
  -5  -7   0 1540.45   76.29
   5  -7   0 1711.23   75.79
   5   7   0 1514.05   75.69
  -5   7   0 1792.62   75.79
   6  -7   0  106.29    6.70
  -6  -7   0   92.79    6.50
  -6  -7   0   95.49    5.30
   6  -7   0   99.29    5.60
   6  -7   0   91.99    7.10
   6  -7   0   94.39    5.50
   6  -7   0   95.69    6.20
   6   7   0   89.69    6.00
  -6   7   0   91.09    5.30
  -7  -7   0   73.49    4.30
   7  -7   0   67.89    4.70
  -7  -7   0   68.09    8.60
   7  -7   0   63.99    4.30
   7   7   0   60.59    5.30
  -7   7   0   73.69    4.40
   8  -7   0   38.00    4.20
  -8  -7   0   36.30    2.70
   8  -7   0   30.70    3.50
  -8   7   0   42.50    4.00
   0  -8   0  736.63   35.10
   0  -8   0  775.12   35.20
   0  -8   0  781.32   35.20
   0  -8   0  763.12   35.70
   1  -8   0  318.17   14.70
  -1  -8   0  303.37   14.70
   1  -8   0  310.97   14.70
   1  -8   0  298.27   15.10
  -1  -8   0  294.07   15.10
  -1  -8   0  310.07   14.70
  -1  -8   0  313.87   14.70
   2  -8   0   24.30    2.60
   2  -8   0   28.00    2.90
  -2  -8   0   26.40    2.80
  -2  -8   0   26.30    3.00
  -2  -8   0   26.80    3.20
   2  -8   0   24.50    2.90
  -2  -8   0   26.30    2.60
   2  -8   0   28.80    3.60
  -3  -8   0  630.34   31.20
   3  -8   0  688.83   31.30
  -3  -8   0  731.93   31.40
  -3  -8   0  663.73   31.30
   3  -8   0  657.33   31.90
   3  -8   0  669.53   31.40
  -3  -8   0  675.83   31.80
   3  -8   0  661.23   31.30
  -3   8   0  700.83   31.20
   4  -8   0  305.07   15.00
  -4  -8   0  308.57   15.70
   4  -8   0  307.47   15.10
   4  -8   0  311.07   15.20
   4  -8   0  307.47   15.90
  -4  -8   0  335.37   15.10
  -4   8   0  317.37   14.90
   5  -8   0   -0.50    1.80
   5  -8   0    1.00    1.50
   5  -8   0    2.00    2.20
   5  -8   0    2.60    3.70
   5  -8   0    2.60    2.70
  -5  -8   0    5.40    2.50
  -5  -8   0    3.90    1.50
  -5   8   0    0.10    1.30
   6  -8   0  167.78    8.50
  -6  -8   0  158.48   11.20
  -6  -8   0  166.78    8.30
   6  -8   0  158.68    8.80
  -6   8   0  160.18    8.30
   7  -8   0  233.28   12.20
  -7  -8   0  256.47   12.00
  -7  -8   0  262.47   13.30
  -7   8   0  256.37   12.30
   0  -9   0    0.10    1.50
   0  -9   0    2.00    1.70
   0  -9   0   -2.20    1.70
   0  -9   0    0.20    1.30
  -1  -9   0  140.39    8.10
  -1  -9   0  148.09    7.50
  -1  -9   0  140.49    7.60
  -1  -9   0  139.79    7.50
   1  -9   0  152.98    7.60
   1  -9   0  138.29    7.60
   2  -9   0   22.30    2.40
   2  -9   0   23.00    2.70
  -2  -9   0   21.40    2.60
  -2  -9   0   25.60    3.10
  -2  -9   0   21.50    2.70
  -2  -9   0   22.40    2.50
  -2   9   0   18.70    2.30
  -3  -9   0  168.38    9.50
   3  -9   0  179.88    9.80
   3  -9   0  166.88    9.00
  -3  -9   0  170.98    8.90
  -3  -9   0  184.48    8.90
  -3   9   0  173.38    8.70
  -4  -9   0  192.28   10.70
  -4  -9   0  200.88   10.10
   4  -9   0  205.98   10.00
   4  -9   0  201.38   10.20
   5  -9   0  149.88    7.50
   5  -9   0  142.39    7.60
  -5  -9   0  130.59    8.50
  -5  -9   0  149.49    7.50
  -5   9   0  144.99    7.50
  -6  -9   0   -0.20    3.80
  -6  -9   0    3.10    1.30
   6  -9   0    0.40    1.50
   0 -10   0  241.58   11.40
   0 -10   0  220.78   11.60
  -1 -10   0  466.05   22.40
   1 -10   0  452.25   22.30
   1 -10   0  513.65   22.00
  -1 -10   0  478.75   21.80
  -1 -10   0  443.06   22.00
  -1  10   0  453.55   21.80
  -2 -10   0   31.50    3.90
   2 -10   0   31.80    3.30
  -2 -10   0   37.90    3.30
   2 -10   0   30.30    3.50
  -2 -10   0   32.60    3.20
  -2  10   0   31.90    2.90
   3 -10   0   83.09    5.20
  -3 -10   0   80.49    5.80
   3 -10   0   82.59    4.90
  -3 -10   0   85.19    4.90
  -3  10   0   81.19    4.80
  -4 -10   0   29.40    2.70
  -4 -10   0   27.50    3.60
   4 -10   0   28.40    2.80
   4 -10   0   18.80    2.30
  -4  10   0   24.80    2.50
   0 -11   0    0.70    1.40
 -10   0   1   -1.70    3.10
  10   0  -1    2.50    1.60
 -10   0   1   -0.60    1.60
  10   0  -1    1.70    2.00
  -9   0   1    0.40    1.60
   9   0  -1    2.10    2.40
  -9   0   1    2.50    1.90
   9   0  -1    1.40    1.30
   9   0  -1   -2.80    1.40
  -8   0   1    2.50    1.80
  -8   0   1   -0.40    1.20
   8   0  -1    0.60    1.10
   8   0  -1   -1.00    1.20
   8   0  -1    0.60    1.10
   7   0  -1    0.20    1.00
   7   0  -1   -0.70    0.80
   7   0  -1    0.10    0.90
   6   0  -1    0.40    0.60
   6   0  -1   -0.70    0.60
   6   0  -1    0.60    1.00
   6   0  -1    2.30    0.90
  -6   0   1    0.80    0.80
  -5   0   1   -0.90    0.50
   5   0  -1    0.20    0.50
   5   0  -1   -1.70    0.70
   5   0  -1   -1.90    0.80
  -5   0   1    0.10    1.50
   5   0  -1    0.20    0.60
  -4   0   1    0.40    0.50
   4   0  -1    0.30    0.40
   4   0  -1    0.40    0.60
  -3   0   1   -0.90    0.40
   3   0  -1   -0.10    0.80
   3   0  -1   -1.80    0.50
  -2   0   1    0.00    0.30
   2   0  -1    2.10    0.70
   1   0  -1    0.20    0.10
  -1   0   1    0.70    0.30
   1   0  -1    0.40    0.30
   1   0   1    1.00    0.20
   2   0   1   -2.40    0.50
  -2   0  -1   -2.40    0.40
   2   0   1   -2.10    0.20
   2   0   1   -2.00    0.30
   3   0   1   -2.20    0.50
   3   0   1   -2.50    0.40
   3   0   1   -2.20    0.40
  -3   0  -1   -2.20    0.50
   4   0   1    0.20    0.40
  -4   0  -1   -0.60    0.60
   4   0   1    0.70    0.50
   4   0   1    0.00    0.70
   5   0   1    1.20    0.70
   5   0   1    0.60    0.60
  -5   0  -1    0.80    0.70
   5   0   1    0.20    0.70
   5   0   1    0.40    0.60
  -6   0  -1    0.70    0.90
   6   0   1    1.40    0.90
   6   0   1   -0.20    0.80
   6   0   1   -0.50    0.70
  -7   0  -1   -0.60    1.50
   7   0   1    1.50    0.90
  -7   0  -1    0.90    1.20
   7   0   1   -0.30    1.10
   7   0   1    0.00    0.90
   8   0   1    0.80    1.10
   8   0   1    0.90    1.20
  -8   0  -1   -0.10    1.70
   8   0   1    0.50    1.20
  -8   0  -1    1.00    1.40
   8   0   1   -2.10    1.70
   9   0   1   -1.60    1.50
  -9   0  -1    0.90    2.40
   9   0   1   -2.30    1.20
  -9   0  -1    0.60    1.70
   9   0   1   -0.20    1.80
  10   0   1    3.90    1.70
  10   0   1   -0.10    2.10
 -10  -1   1   90.29    5.90
  10  -1  -1   81.59    5.50
  10  -1  -1   83.79    5.20
 -10   1   1   93.59    5.60
 -10   1   1   95.19    6.50
  10   1  -1   93.29    5.30
  -9  -1   1    0.40    1.90
   9  -1  -1    0.80    1.60
  -9  -1   1    2.40    1.60
   9  -1  -1    2.60    1.50
   9  -1  -1    2.60    1.50
  -9   1   1    2.20    1.90
  -9   1   1    1.90    1.50
   9   1  -1    0.50    1.20
  -8  -1   1   54.09    4.10
   8  -1  -1   59.79    3.80
  -8  -1   1   62.69    4.30
   8  -1  -1   63.29    3.80
   8  -1  -1   63.79    3.80
  -8   1   1   60.09    4.00
   8   1  -1   59.19    3.80
   8   1  -1   65.39    4.00
   8   1  -1   64.59    3.80
   7  -1  -1   16.60    1.70
   7  -1  -1   17.80    1.80
  -7  -1   1   12.00    1.80
  -7  -1   1   21.10    2.70
   7  -1  -1   14.30    1.70
   7  -1  -1   16.20    1.60
   7   1  -1   17.30    1.80
   7   1  -1   18.40    2.20
  -7   1   1   13.00    1.70
   7   1  -1   12.10    2.00
   6  -1  -1  171.98    7.90
   6  -1  -1  156.88    7.80
  -6  -1   1  163.78    8.10
  -6  -1   1  159.38    8.20
   6  -1  -1  170.48    7.80
   6  -1  -1  158.88    7.80
   6   1  -1  156.48    7.80
   6   1  -1  162.88    7.80
   6   1  -1  159.38    7.80
  -6   1   1  164.38    7.90
   5  -1  -1  587.24   27.00
   5  -1  -1  589.74   27.00
   5  -1  -1  571.34   27.00
   5  -1  -1  591.74   27.00
  -5  -1   1  625.04   27.20
   5   1  -1  580.14   27.00
   5   1  -1  580.34   27.00
  -5   1   1  607.04   27.10
  -4  -1   1  353.96   17.00
   4  -1  -1  387.96   16.90
   4  -1  -1  361.86   16.90
  -4  -1   1  315.87   17.20
   4   1  -1  385.56   16.90
  -4   1   1  381.76   16.90
   4   1  -1  385.26   16.80
   3  -1  -1   52.89    3.00
   3  -1  -1   51.29    2.60
  -3  -1   1   50.79    2.70
   3  -1  -1   53.19    2.70
   3   1  -1   52.39    2.50
  -3   1   1   51.29    2.60
  -2  -1   1 1596.44   71.59
  -2   1   1 1543.45   71.49
   2   1  -1 1590.74   71.49
   1  -1  -1   10.00    0.70
   1  -1  -1   13.60    0.70
   1  -1  -1   10.60    0.80
  -1   1   1   13.00    0.80
   0  -1  -1  528.85   24.70
   0   1   1  564.24   24.90
   1  -1   1   48.40    2.40
   2  -1   1  514.85   25.30
   2  -1   1  551.84   25.40
  -2  -1  -1  573.94   25.40
   2  -1   1  551.94   25.30
  -2   1  -1  561.44   25.30
   2   1   1  581.64   25.30
   2   1   1  561.34   25.30
   3  -1   1 1159.18   49.80
  -3  -1  -1 1067.99   49.80
   3  -1   1 1213.18   49.99
   3  -1   1 1056.09   49.70
   3  -1   1 1126.09   49.80
   3   1   1 1028.60   49.70
   3   1   1 1041.20   49.70
  -3   1  -1 1090.99   49.70
  -4  -1  -1  497.65   22.90
   4  -1   1  516.15   22.70
   4  -1   1  463.75   23.10
   4  -1   1  492.55   22.70
   4  -1   1  477.35   22.70
   4  -1   1  512.25   22.80
   4   1   1  492.75   22.70
  -4   1  -1  524.05   22.80
   4   1   1  494.25   22.70
  -5  -1  -1  181.28    9.10
   5  -1   1  188.88    8.80
  -5  -1  -1  188.48    9.10
   5  -1   1  186.68    8.80
   5  -1   1  186.88    8.70
   5  -1   1  181.38    8.90
  -5   1  -1  192.98    8.90
   5   1   1  185.88    8.80
   5   1   1  187.08    8.80
   5   1   1  176.18    8.70
   6  -1   1  158.78    7.60
   6  -1   1  160.68    7.70
  -6  -1  -1  158.48    8.00
   6  -1   1  153.48    7.70
  -6  -1  -1  155.68    8.00
   6  -1   1  156.58    7.70
   6   1   1  158.68    7.70
  -6   1  -1  157.98    7.80
   6   1   1  154.28    7.70
   7  -1   1   88.09    5.20
  -7  -1  -1   90.69    5.50
   7  -1   1   92.09    5.20
   7  -1   1  100.79    4.90
  -7  -1  -1  102.39    5.50
   7  -1   1   96.49    5.20
   7  -1   1   96.09    5.20
   7   1   1   96.19    5.10
  -7   1  -1   91.69    5.20
   7   1   1   95.19    5.10
   7   1   1   91.19    4.90
  -8  -1  -1   -0.20    1.80
   8  -1   1   -0.90    1.40
  -8  -1  -1    5.30    1.70
   8  -1   1    1.70    1.30
   8  -1   1   -1.00    1.20
   8  -1   1   -0.40    1.00
  -8   1  -1    2.60    1.50
   8   1   1    1.40    1.30
   8   1   1   -0.20    1.00
  -8   1  -1   -0.90    1.80
   8   1   1   -0.60    1.40
   9  -1   1   24.20    2.30
   9  -1   1   25.30    2.90
  -9  -1  -1   21.10    3.10
   9  -1   1   19.60    2.30
   9   1   1   23.10    2.70
  -9   1  -1   22.20    2.60
  -9   1  -1   18.10    2.80
   9   1   1   23.90    2.80
  10  -1   1   73.89    4.20
  10   1   1   67.59    4.70
  10  -2  -1   69.79    4.60
 -10  -2   1   78.49    5.50
 -10   2   1   73.29    5.10
 -10   2   1   70.49    4.90
  10   2  -1   79.49    4.60
  -9  -2   1   65.49    4.80
   9  -2  -1   55.59    4.40
   9  -2  -1   67.79    4.00
   9   2  -1   69.69    4.10
  -9   2   1   66.89    4.40
   8  -2  -1  851.81   38.40
   8  -2  -1  801.52   38.30
   8  -2  -1  864.71   38.30
  -8  -2   1  878.11   38.90
   8  -2  -1  821.42   38.40
   8   2  -1  783.62   38.30
  -8   2   1  837.62   38.60
   8   2  -1  854.31   38.50
   7  -2  -1   91.59    4.90
   7  -2  -1   88.69    4.80
   7  -2  -1   91.49    4.80
  -7  -2   1   91.69    5.30
  -7  -2   1   95.89    5.40
   7  -2  -1   91.79    5.00
   7   2  -1   85.29    4.90
  -7   2   1   92.49    5.00
   7   2  -1   93.99    4.90
   6  -2  -1   25.10    2.10
   6  -2  -1   19.80    1.70
  -6  -2   1   21.40    2.50
   6  -2  -1   24.80    2.10
  -6  -2   1   22.90    2.30
  -6  -2   1   21.90    2.80
  -6   2   1   24.60    1.90
   6   2  -1   21.10    1.80
   6   2  -1   22.30    1.80
   5  -2  -1    5.70    1.00
   5  -2  -1    6.60    1.10
   5  -2  -1    5.50    0.80
  -5  -2   1    7.50    1.20
   5  -2  -1    4.70    0.70
  -5  -2   1    7.40    1.00
  -5  -2   1    5.90    1.60
   5   2  -1    4.20    0.70
   5   2  -1    7.00    0.80
  -4  -2   1 1791.62   83.09
   4  -2  -1 1724.83   83.49
  -4  -2   1 1707.93   83.29
  -4  -2   1 1757.32   82.79
   4  -2  -1 1797.12   82.99
  -4  -2   1 1859.61   83.59
   4  -2  -1 1988.80   82.99
   4  -2  -1 1915.21   82.99
   4   2  -1 1892.01   82.89
  -4   2   1 1815.82   82.99
   4   2  -1 1922.51   82.99
   3  -2  -1 2591.44  121.29
  -3  -2   1 2542.05  121.09
  -3  -2   1 2677.03  121.09
  -3  -2   1 2668.33  120.89
   3  -2  -1 2786.22  120.99
   3  -2  -1 2617.14  120.99
   3   2  -1 2858.81  120.99
   3   2  -1 2689.53  120.89
   2  -2  -1    4.30    0.70
   2  -2  -1    4.40    0.90
  -2  -2   1    4.10    0.80
  -2  -2   1    5.80    0.60
   2  -2  -1    5.00    0.60
  -2  -2   1    5.70    0.80
   2  -2  -1    4.80    0.80
  -2   2   1    4.70    0.80
   2   2  -1    4.50    0.50
   1  -2  -1 4668.53  228.78
   1  -2  -1 4147.88  219.78
   0  -2  -1 1032.40   49.20
   0  -2  -1 1138.79   49.20
   0  -2   1 1030.80   49.20
   0  -2   1 1081.39   49.20
   0  -2   1 1087.69   49.20
   0  -2  -1 1157.68   49.30
   0   2   1 1092.29   49.40
   1  -2   1    1.00    0.50
  -1  -2  -1    1.70    0.40
   1  -2   1    2.00    0.30
   1   2   1    2.00    0.50
   2  -2   1  556.64   25.40
  -2  -2  -1  531.35   25.50
  -2  -2  -1  580.54   25.40
   2  -2   1  568.34   25.50
   2  -2   1  526.05   25.40
  -2   2  -1  552.24   25.40
   2   2   1  586.54   25.40
   3  -2   1 2174.78   96.49
   3  -2   1 2162.08   96.29
  -3  -2  -1 2210.18   96.39
   3  -2   1 2056.69   96.19
  -3  -2  -1 2168.58   96.39
   3  -2   1 2243.58   96.89
  -3  -2  -1 2194.48   96.29
  -3   2  -1 1879.71   96.29
   3   2   1 2086.59   96.29
   4  -2   1 1487.35   65.59
   4  -2   1 1497.35   65.59
   4  -2   1 1531.65   65.79
   4  -2   1 1364.66   65.99
  -4  -2  -1 1374.46   65.79
  -4  -2  -1 1372.06   65.79
   4  -2   1 1529.95   65.69
  -4  -2  -1 1446.66   65.69
  -4   2  -1 1396.36   65.69
   4   2   1 1545.85   65.69
   4   2   1 1394.36   65.59
   5  -2   1  200.38    9.40
   5  -2   1  213.28    9.50
   5  -2   1  206.28    9.40
   5  -2   1  201.28    9.60
  -5  -2  -1  190.48    9.50
  -5  -2  -1  189.88    9.80
   5  -2   1  196.08    9.60
  -5  -2  -1  192.18    9.80
   5   2   1  203.18    9.50
   5   2   1  208.18    9.60
  -5   2  -1  192.78    9.50
   5   2   1  200.38    9.40
  -6  -2  -1   24.80    2.60
   6  -2   1   28.10    2.20
   6  -2   1   23.60    1.90
   6  -2   1   24.00    2.10
   6  -2   1   19.60    2.50
  -6  -2  -1   22.30    2.20
  -6  -2  -1   26.40    2.80
   6  -2   1   26.10    2.10
  -6   2  -1   24.00    2.10
   6   2   1   23.90    2.10
   7  -2   1   33.80    2.70
   7  -2   1   29.70    3.00
  -7  -2  -1   33.70    3.40
   7  -2   1   28.60    3.00
   7  -2   1   32.00    2.80
   7  -2   1   32.20    2.50
  -7   2  -1   33.00    2.60
   7   2   1   28.60    2.50
   7   2   1   30.50    2.50
   8  -2   1  110.89    6.20
   8  -2   1  119.79    6.00
   8  -2   1  108.09    6.30
   8  -2   1  114.89    6.10
  -8  -2  -1  113.89    6.70
   8   2   1  113.09    6.20
   8   2   1  111.59    5.90
  -8   2  -1  123.69    6.40
   9  -2   1  126.79    6.40
  -9  -2  -1  125.39    8.70
   9  -2   1  122.49    7.50
  -9   2  -1  126.19    7.10
   9   2   1  128.69    6.80
  -9   2  -1  118.99    7.30
  10  -2   1   -0.10    1.20
 -10   2  -1   -5.10    2.30
  10   2   1    3.80    1.90
 -10  -3   1   27.20    3.60
  10  -3  -1   33.40    3.20
 -10   3   1   36.00    3.60
  10   3  -1   33.40    3.20
 -10   3   1   27.50    3.90
  -9  -3   1    0.30    2.00
   9  -3  -1    1.10    1.40
   9  -3  -1    0.30    1.30
   9  -3  -1    2.50    1.20
   9   3  -1    0.20    1.30
  -9   3   1    0.20    1.50
   8  -3  -1    4.10    1.30
   8  -3  -1    4.20    1.30
   8  -3  -1    1.70    1.60
  -8  -3   1    5.30    1.90
   8   3  -1    4.00    1.20
  -8   3   1    4.80    1.30
   7  -3  -1  147.49    7.70
   7  -3  -1  161.98    8.50
  -7  -3   1  148.69    8.40
   7  -3  -1  160.78    7.80
   7  -3  -1  164.48    7.80
  -7  -3   1  143.89    7.90
   7   3  -1  162.98    7.80
  -7   3   1  157.98    7.90
   6  -3  -1   74.19    4.10
   6  -3  -1   69.69    3.80
  -6  -3   1   69.79    4.20
   6  -3  -1   71.79    3.90
  -6  -3   1   71.29    4.60
   6  -3  -1   70.49    4.10
  -6   3   1   72.69    4.00
   6   3  -1   73.09    4.10
   6   3  -1   74.49    4.00
  -5  -3   1   43.10    3.20
  -5  -3   1   46.10    3.00
   5  -3  -1   49.99    2.90
   5  -3  -1   46.50    2.90
   5  -3  -1   48.00    2.70
  -5  -3   1   43.10    3.60
   5  -3  -1   48.60    2.60
   5   3  -1   48.30    2.70
   5   3  -1   48.20    2.80
  -5   3   1   46.60    2.70
  -4  -3   1  302.17   15.70
   4  -3  -1  324.77   15.10
   4  -3  -1  324.57   15.30
   4  -3  -1  354.86   15.30
  -4  -3   1  339.67   15.60
  -4  -3   1  312.27   15.10
   4  -3  -1  337.07   15.30
   4   3  -1  299.17   15.20
   4   3  -1  357.46   15.30
  -4   3   1  354.46   15.30
  -3  -3   1 2228.78  100.49
   3  -3  -1 2066.89  100.39
  -3  -3   1 2182.68   99.89
   3  -3  -1 2229.48  100.09
   3  -3  -1 2303.57  100.09
  -3  -3   1 2206.28  100.19
   3  -3  -1 2192.78   99.99
  -3   3   1 2241.28   99.99
   3   3  -1 2264.07   99.99
   3   3  -1 2219.58   99.89
  -2  -3   1   56.59    2.90
   2  -3  -1   51.49    3.20
   2  -3  -1   58.49    3.00
   2  -3  -1   58.49    2.90
   2  -3  -1   56.79    3.00
  -2  -3   1   55.89    3.20
  -2  -3   1   56.49    2.90
  -2   3   1   62.49    3.10
   2   3  -1   54.79    2.90
  -1  -3   1 1212.08   57.69
  -1  -3   1 1281.87   57.69
  -1  -3   1 1297.77   57.89
   1  -3  -1 1253.17   57.69
   1  -3  -1 1341.57   57.89
  -1  -3   1 1221.08   57.89
  -1  -3   1 1309.77   57.79
   1  -3  -1 1269.87   57.89
   1  -3  -1 1316.27   57.79
   1  -3  -1 1322.07   57.79
  -1   3   1 1204.18   57.99
   0  -3  -1  162.58    7.40
   0  -3  -1  142.99    7.70
   0  -3  -1  172.38    7.60
   0  -3  -1  165.08    7.80
   0  -3   1  160.98    7.60
   0  -3   1  162.48    7.70
   0  -3   1  163.48    7.60
   0  -3   1  162.48    7.80
   0  -3  -1  175.78    7.80
   0  -3   1  160.38    7.60
   0  -3   1  162.38    7.50
   0   3   1  166.98    7.90
   1  -3   1   52.59    2.70
   1  -3   1   53.79    2.70
   1  -3   1   53.19    2.60
  -1  -3  -1   52.89    2.90
   1  -3   1   54.89    3.00
  -1  -3  -1   48.90    2.70
   1   3   1   50.29    2.70
  -1   3  -1   55.59    2.50
   2  -3   1   -1.60    0.90
   2  -3   1   -1.60    0.30
  -2  -3  -1   -0.70    0.70
  -2  -3  -1   -1.20    0.50
   2   3   1   -0.50    0.50
  -3  -3  -1   16.20    1.70
  -3  -3  -1   15.20    1.30
   3  -3   1   16.10    1.40
   3  -3   1   14.70    1.40
   3  -3   1   17.70    1.60
   3  -3   1   16.90    1.20
  -3   3  -1   15.70    1.20
   3   3   1   16.00    1.30
   4  -3   1 1189.68   50.29
  -4  -3  -1 1084.79   50.19
   4  -3   1 1148.09   50.39
   4  -3   1 1138.99   50.19
   4  -3   1  988.20   50.09
  -4  -3  -1 1124.09   50.49
  -4   3  -1 1118.19   50.19
   4   3   1 1056.29   50.29
   5  -3   1   58.39    3.30
   5  -3   1   61.29    3.40
  -5  -3  -1   51.69    3.80
  -5  -3  -1   55.39    3.30
   5  -3   1   61.89    3.30
   5  -3   1   52.09    3.20
   5  -3   1   56.49    3.70
   5   3   1   61.89    3.40
  -5   3  -1   57.29    3.20
   5   3   1   53.59    3.30
   6  -3   1  145.79    6.80
   6  -3   1  111.89    6.70
   6  -3   1  138.49    6.80
   6  -3   1  140.59    6.90
  -6  -3  -1  133.49    7.30
   6  -3   1  139.29    7.00
   6   3   1  130.29    7.40
  -6   3  -1  136.49    6.90
   7  -3   1   65.89    4.10
   7  -3   1   69.79    4.10
   7  -3   1   69.99    4.00
   7  -3   1   67.39    4.20
  -7  -3  -1   74.39    5.00
  -7  -3  -1   64.89    4.30
   7  -3   1   61.99    4.30
   7   3   1   69.19    4.20
  -7   3  -1   69.59    4.10
   8  -3   1    4.90    1.40
   8  -3   1    6.10    1.60
   8  -3   1    2.90    1.60
  -8  -3  -1    6.90    2.60
   8  -3   1    4.70    1.20
  -8   3  -1    3.00    1.50
   8   3   1    5.50    1.40
   9  -3   1   73.39    4.20
   9  -3   1   76.29    4.50
   9   3   1   53.39    5.30
  -9   3  -1   71.59    4.70
  10   3   1    5.40    2.00
  10  -4  -1    9.90    2.00
 -10   4   1    5.00    2.40
 -10   4   1    5.90    2.20
  10   4  -1    1.00    1.80
  -9  -4   1    7.00    2.50
   9  -4  -1    3.60    1.40
   9  -4  -1    4.50    1.90
  -9   4   1    2.40    1.70
   8  -4  -1  208.88   10.80
   8  -4  -1  223.08   10.70
  -8  -4   1  204.78   10.70
   8  -4  -1  229.68   10.80
  -8  -4   1  219.08   11.40
   8   4  -1  221.28   10.80
  -8   4   1  228.18   10.90
   7  -4  -1   28.70    2.50
  -7  -4   1   28.20    2.80
  -7  -4   1   26.30    3.40
   7  -4  -1   26.10    2.70
   7  -4  -1   22.80    2.50
   7   4  -1   29.50    2.50
  -7   4   1   28.70    2.40
  -6  -4   1    4.10    1.60
   6  -4  -1    2.80    1.10
   6  -4  -1    5.50    1.00
  -6  -4   1    3.30    1.20
   6  -4  -1    1.40    1.00
  -6   4   1    3.30    1.00
   5  -4  -1   -0.60    0.80
  -5  -4   1    1.60    1.00
   5  -4  -1    0.20    0.60
   5  -4  -1    1.70    0.90
  -5  -4   1    1.60    1.40
  -5  -4   1    1.20    1.60
  -5   4   1    3.10    0.80
   5   4  -1    0.90    0.80
  -4  -4   1  622.64   30.80
  -4  -4   1  692.93   31.10
   4  -4  -1  664.33   30.80
   4  -4  -1  671.83   30.80
   4  -4  -1  698.03   30.70
  -4   4   1  651.43   30.70
   4   4  -1  710.63   30.80
   3  -4  -1  194.68    9.00
  -3  -4   1  187.48    8.80
   3  -4  -1  184.78    9.00
   3  -4  -1  171.28    9.40
   3  -4  -1  198.48    8.80
  -3  -4   1  177.38    9.50
  -3  -4   1  190.38    9.20
  -3   4   1  181.08    8.90
   3   4  -1  193.18    8.90
  -3   4   1  209.48    9.10
   2  -4  -1  228.28   10.50
   2  -4  -1  235.18   10.70
  -2  -4   1  212.18   11.10
  -2  -4   1  222.98   10.80
  -2  -4   1  213.38   10.50
  -2  -4   1  221.38   10.50
   2  -4  -1  238.68   10.90
   2  -4  -1  223.48   10.60
   2   4  -1  230.18   10.50
  -2   4   1  236.48   10.80
   1  -4  -1 1385.96   62.09
   1  -4  -1 1324.67   61.89
   1  -4  -1 1361.36   62.09
   1  -4  -1 1468.65   62.29
  -1  -4   1 1439.46   62.29
  -1  -4   1 1419.46   62.09
  -1  -4   1 1362.96   62.29
   1  -4  -1 1378.06   62.19
  -1  -4   1 1378.16   61.99
  -1  -4   1 1301.07   61.89
   1   4  -1 1312.47   61.89
  -1   4   1 1319.47   62.29
   0  -4   1   31.40    2.00
   0  -4   1   30.00    2.00
   0  -4  -1   31.10    1.80
   0  -4   1   32.10    2.20
   0  -4   1   31.70    1.80
   0  -4  -1   28.10    1.60
   0  -4  -1   32.60    2.10
   0  -4   1   28.70    1.70
   0  -4  -1   30.00    1.80
   0  -4   1   30.60    1.80
   0  -4  -1   32.40    2.20
   0   4   1   33.10    1.90
   0   4  -1   30.70    1.90
   0   4   1   29.60    2.20
   1  -4   1   61.49    3.20
   1  -4   1   62.59    3.50
   1  -4   1   58.89    3.00
  -1  -4  -1   61.29    3.20
  -1  -4  -1   57.79    3.40
   1  -4   1   55.69    3.20
  -1   4  -1   62.79    3.00
   1   4   1   60.29    3.10
   2  -4   1  121.89    5.70
  -2  -4  -1  118.19    5.80
   2  -4   1  125.49    6.10
   2  -4   1  120.39    5.70
   2  -4   1  107.49    5.80
   2  -4   1  119.39    5.80
   2   4   1  120.59    5.70
  -3  -4  -1  345.77   16.20
   3  -4   1  344.17   16.20
   3  -4   1  351.06   16.30
   3  -4   1  355.16   16.20
  -3  -4  -1  352.06   16.40
  -3  -4  -1  347.57   16.50
   3  -4   1  331.17   16.30
  -3   4  -1  372.06   16.20
   3   4   1  354.76   16.30
   4  -4   1   64.49    4.00
   4  -4   1   67.39    3.80
  -4  -4  -1   70.89    4.20
  -4  -4  -1   69.99    3.80
   4  -4   1   67.39    3.60
   4  -4   1   67.69    3.80
   4   4   1   61.99    3.70
  -4   4  -1   73.19    3.60
   5  -4   1    8.40    1.30
  -5  -4  -1    4.60    1.40
  -5  -4  -1    3.80    1.60
   5  -4   1    4.10    1.10
   5  -4   1    4.10    1.00
   5  -4   1    3.90    1.60
  -5   4  -1    4.30    1.00
   5   4   1    2.10    1.00
   6  -4   1  106.69    5.50
   6  -4   1  107.59    5.50
   6  -4   1  101.19    5.60
  -6  -4  -1   99.99    6.20
   6  -4   1   98.89    5.60
   6  -4   1  104.39    5.50
  -6   4  -1  101.79    5.40
   6   4   1   99.39    5.60
   7  -4   1    0.10    1.80
  -7  -4  -1    3.50    2.20
  -7  -4  -1   -0.30    1.40
   7  -4   1    2.50    1.10
   7  -4   1    1.10    1.20
   7  -4   1    0.00    1.00
   7  -4   1    1.50    1.20
  -7   4  -1    2.80    1.20
   7   4   1   -0.30    1.30
   8  -4   1   58.89    4.20
  -8  -4  -1   62.69    5.50
   8  -4   1   63.49    4.00
   8  -4   1   60.09    3.80
  -8   4  -1   66.79    4.20
   8   4   1   54.99    4.10
   9  -4   1   -0.10    1.20
   9  -4   1    0.50    1.50
   9   4   1    1.00    1.60
  -9   4  -1    0.00    1.90
   9  -5  -1    5.90    2.00
   9  -5  -1    5.40    1.70
  -9  -5   1    9.20    2.80
  -9   5   1    5.60    1.80
   9   5  -1    4.10    1.70
  -8  -5   1   38.70    4.20
   8  -5  -1   39.90    3.50
   8  -5  -1   43.00    3.40
   8  -5  -1   37.30    3.20
  -8  -5   1   38.90    4.10
   8   5  -1   41.80    3.30
  -8   5   1   41.60    3.20
   7  -5  -1  341.77   16.90
   7  -5  -1  382.46   16.90
  -7  -5   1  358.36   17.40
  -7  -5   1  354.86   16.80
   7  -5  -1  362.56   16.80
  -7   5   1  341.47   16.80
   7   5  -1  347.57   16.90
   6  -5  -1    1.00    1.00
  -6  -5   1    0.10    2.10
   6  -5  -1   -2.20    1.10
   6  -5  -1   -0.10    1.20
  -6  -5   1    0.20    1.20
  -6   5   1    0.80    0.90
   6   5  -1    1.30    1.20
   5  -5  -1   56.39    3.30
   5  -5  -1   53.29    3.60
  -5  -5   1   57.59    3.50
   5  -5  -1   51.29    4.00
  -5  -5   1   57.59    4.10
   5  -5  -1   58.99    3.60
   5   5  -1   60.39    3.50
  -4  -5   1    0.00    1.10
  -4  -5   1    0.40    1.20
   4  -5  -1    0.20    0.90
   4  -5  -1    0.80    0.70
  -4  -5   1    1.50    1.60
   4  -5  -1    2.00    1.50
   4  -5  -1    0.20    0.90
   4   5  -1    0.80    0.80
  -4   5   1    0.00    0.70
  -3  -5   1    5.50    1.30
  -3  -5   1    6.10    1.10
   3  -5  -1    4.60    1.00
  -3  -5   1    4.90    1.20
   3  -5  -1    5.70    1.40
  -3  -5   1    4.00    3.10
   3  -5  -1    6.40    0.80
   3   5  -1    6.20    1.00
  -3   5   1    5.90    1.20
  -2  -5   1  323.97   17.90
  -2  -5   1  377.26   17.30
   2  -5  -1  396.66   17.60
   2  -5  -1  364.96   17.20
   2  -5  -1  388.76   17.50
   2  -5  -1  364.96   17.50
   2  -5  -1  385.16   17.50
   2  -5  -1  385.46   17.30
   2  -5  -1  394.46   17.80
  -2  -5   1  374.06   17.70
   2  -5  -1  393.16   17.40
  -2  -5   1  349.47   17.40
  -2   5   1  388.86   17.60
   2   5  -1  373.36   17.30
   1  -5  -1 1322.37   57.39
  -1  -5   1 1213.68   57.29
  -1  -5   1 1251.97   57.59
   1  -5  -1 1322.07   57.29
  -1  -5   1 1328.37   57.29
  -1  -5   1 1261.17   57.29
   1  -5  -1 1278.07   57.49
   1  -5  -1 1212.38   57.09
   1  -5  -1 1374.66   57.59
   1  -5  -1 1251.57   57.29
   1  -5  -1 1158.18   57.29
  -1  -5   1 1171.18   57.09
  -1  -5   1 1286.67   57.59
  -1  -5   1 1290.07   57.29
   1  -5  -1 1246.08   57.09
  -1   5   1 1225.88   57.59
   0  -5  -1 1949.70   85.89
   0  -5   1 1840.82   85.69
   0  -5   1 1970.40   85.89
   0  -5  -1 1706.83   85.89
   0  -5  -1 1918.21   86.09
   0  -5   1 1810.32   85.89
   0  -5   1 1995.60   86.19
   0  -5   1 1900.71   85.89
   0  -5  -1 1914.91   86.09
   0  -5   1 1921.41   86.09
   0  -5  -1 1957.10   85.89
   0   5   1 1908.71   86.39
   0   5  -1 1861.91   85.99
   1  -5   1   27.10    2.10
   1  -5   1   28.50    2.00
  -1  -5  -1   28.10    1.90
  -1  -5  -1   26.00    2.30
   1  -5   1   29.20    2.30
   1  -5   1   25.10    2.20
   1  -5   1   26.50    1.80
   1  -5   1   25.20    1.80
  -1  -5  -1   27.40    2.30
   1   5   1   29.70    2.00
  -1   5  -1   29.50    1.60
   1   5   1   28.10    2.60
   2  -5   1   24.10    2.10
  -2  -5  -1   25.60    1.90
  -2  -5  -1   26.20    2.30
   2  -5   1   28.70    1.90
   2  -5   1   24.60    1.70
   2  -5   1   26.50    2.00
   2  -5   1   25.20    2.40
   2  -5   1   27.20    2.20
  -2  -5  -1   19.80    2.10
   2   5   1   24.30    1.90
  -3  -5  -1  294.97   13.30
   3  -5   1  275.67   13.10
  -3  -5  -1  278.97   13.50
   3  -5   1  282.67   13.30
   3  -5   1  299.37   13.20
  -3  -5  -1  270.97   13.10
   3  -5   1  277.17   13.30
   3  -5   1  268.27   13.20
   3   5   1  280.77   13.20
  -3   5  -1  280.97   13.10
   4  -5   1  149.39    7.50
  -4  -5  -1  144.69    7.50
   4  -5   1  149.69    7.70
   4  -5   1  149.79    7.60
   4  -5   1  156.08    7.60
  -4  -5  -1  151.48    8.00
   4  -5   1  156.38    7.70
  -4   5  -1  161.38    7.50
   4   5   1  157.38    7.70
   5  -5   1   64.49    3.70
   5  -5   1   59.09    3.90
   5  -5   1   57.59    4.00
   5  -5   1   61.89    3.70
  -5  -5  -1   54.19    4.40
   5  -5   1   61.69    3.60
  -5   5  -1   62.89    3.60
   6  -5   1  235.38   11.30
   6  -5   1  223.18   11.30
   6  -5   1  230.58   11.20
   6  -5   1  235.18   11.20
  -6  -5  -1  227.68   11.90
   6  -5   1  230.38   11.20
   6   5   1  226.38   11.30
  -6   5  -1  233.28   11.20
   7  -5   1  237.28   11.60
  -7  -5  -1  239.58   11.60
  -7  -5  -1  241.48   12.50
   7  -5   1  234.08   11.80
   7  -5   1  243.38   11.80
   7  -5   1  248.38   11.80
   7  -5   1  238.68   11.70
   7   5   1  234.68   11.90
  -7   5  -1  251.77   11.80
  -8  -5  -1   -1.80    4.50
   8  -5   1    1.00    1.30
  -8  -5  -1   -0.30    1.50
   8  -5   1   -0.80    1.90
  -8   5  -1    2.30    2.20
   8   5   1   -0.90    1.50
   9  -5   1    1.50    1.80
  -9   5  -1   -2.80    2.40
   9   5   1   -2.20    1.70
   9  -6  -1  147.59    7.70
  -9   6   1  144.69    7.80
   8  -6  -1    0.90    2.10
  -8  -6   1    5.80    2.60
   8  -6  -1   -0.70    1.70
  -8  -6   1    2.50    1.30
   8  -6  -1    2.00    1.70
   8   6  -1    3.60    1.70
  -8   6   1    4.50    1.50
   7  -6  -1   34.30    3.00
  -7  -6   1   21.40    3.10
   7  -6  -1   23.40    3.40
  -7  -6   1   35.00    2.80
   7  -6  -1   26.20    3.40
   7  -6  -1   28.50    3.00
   7  -6  -1   43.90    6.00
  -7   6   1   32.30    2.70
   7   6  -1   30.00    3.20
   6  -6  -1   66.09    5.50
  -6  -6   1   66.99    4.20
  -6  -6   1   65.39    5.10
   6  -6  -1   69.49    4.30
   6  -6  -1   67.09    4.80
   6  -6  -1   67.99    4.40
   6  -6  -1   70.19    4.30
  -6   6   1   69.49    4.10
   6   6  -1   67.99    4.40
   5  -6  -1  125.49    6.70
   5  -6  -1  124.79    6.90
  -5  -6   1  133.39    6.80
   5  -6  -1  123.39    6.90
   5  -6  -1  129.49    6.80
   5  -6  -1  135.59    7.50
   5  -6  -1  127.99    6.60
  -5  -6   1  139.49    7.90
   5   6  -1  126.89    6.80
  -5   6   1  124.29    6.50
   4  -6  -1   44.90    3.10
  -4  -6   1   52.09    3.30
  -4  -6   1   48.00    3.80
   4  -6  -1   49.80    3.40
   4  -6  -1   51.69    3.90
  -4  -6   1   49.30    3.30
   4  -6  -1   50.99    3.60
   4  -6  -1   52.69    3.60
  -4   6   1   52.29    3.20
   4   6  -1   54.29    3.50
   3  -6  -1    1.80    0.90
  -3  -6   1    2.00    1.30
   3  -6  -1    1.40    0.90
   3  -6  -1    0.50    1.30
  -3  -6   1    2.40    1.50
   3  -6  -1    0.20    0.90
   3  -6  -1    0.60    1.30
   3  -6  -1    0.10    0.90
  -3  -6   1    0.80    1.10
   3   6  -1   -1.10    1.20
  -2  -6   1  153.18    7.40
  -2  -6   1  140.89    7.40
   2  -6  -1  152.78    7.70
   2  -6  -1  153.48    7.40
   2  -6  -1  150.08    7.30
   2  -6  -1  142.99    7.20
   2  -6  -1  153.88    7.40
  -2  -6   1  140.39    7.70
  -2   6   1  151.38    7.50
  -1  -6   1  170.58    8.40
  -1  -6   1  166.48    8.70
   1  -6  -1  168.48    8.70
   1  -6  -1  181.18    8.80
   1  -6  -1  177.28    8.40
  -1  -6   1  182.48    8.40
   1  -6  -1  172.58    8.40
   1  -6  -1  168.48    8.30
  -1  -6   1  172.88    8.40
   1  -6  -1  175.68    8.40
  -1   6   1  166.78    8.70
   1   6  -1  163.08    8.80
   0  -6  -1    5.70    1.10
   0  -6  -1    4.80    1.10
   0  -6   1    4.90    1.00
   0  -6   1    7.80    1.40
   0  -6  -1    4.40    1.20
   0  -6   1    5.80    1.30
   0  -6   1    4.80    1.00
   0  -6   1    3.90    1.30
   0  -6  -1    3.80    1.30
   0  -6   1    6.00    1.20
   0  -6   1    4.90    1.00
   0   6  -1    6.90    1.50
   0   6   1    4.40    1.70
   1  -6   1  235.78   11.40
   1  -6   1  243.08   11.40
  -1  -6  -1  235.38   11.40
  -1  -6  -1  244.08   11.70
   1  -6   1  246.48   11.70
   1  -6   1  247.48   11.40
  -1  -6  -1  238.88   11.30
   1  -6   1  231.58   11.20
   1  -6   1  245.88   11.70
   1   6   1  221.68   12.10
  -2  -6  -1   89.99    5.30
   2  -6   1   94.69    5.20
   2  -6   1   93.69    4.90
  -2  -6  -1   96.39    4.80
   2  -6   1   88.99    4.90
  -2  -6  -1   93.49    4.90
   2  -6   1   93.09    4.80
   2  -6   1   93.19    4.90
   2  -6   1   92.59    5.30
   2   6   1   88.69    4.90
   2   6   1   87.29    6.10
  -3  -6  -1   35.90    2.60
  -3  -6  -1   34.60    2.60
   3  -6   1   32.70    2.50
   3  -6   1   32.90    2.60
   3  -6   1   28.90    2.40
  -3  -6  -1   36.20    3.20
   3   6   1   27.50    2.60
  -3   6  -1   34.10    2.30
   4  -6   1   26.40    2.50
   4  -6   1   27.90    2.50
   4  -6   1   24.60    2.40
   4  -6   1   21.40    2.50
   4  -6   1   23.40    2.30
  -4  -6  -1   23.00    3.20
  -4   6  -1   26.10    2.10
   4   6   1   21.80    2.60
   5  -6   1    1.00    1.30
   5  -6   1    0.20    1.30
   5  -6   1   -0.80    1.10
   5  -6   1    0.30    1.40
  -5  -6  -1    3.70    2.00
   5  -6   1   -0.90    1.30
   5   6   1    0.20    1.40
  -5   6  -1    2.10    1.00
  -6  -6  -1  342.17   17.30
   6  -6   1  348.87   16.60
   6  -6   1  357.46   16.90
  -6  -6  -1  353.36   16.70
   6  -6   1  366.76   16.80
   6  -6   1  340.07   16.70
  -6   6  -1  353.86   16.70
   6   6   1  355.06   16.90
   7  -6   1    3.90    1.40
   7  -6   1    4.00    2.00
  -7  -6  -1    4.10    3.00
   7  -6   1    5.00    1.60
  -7   6  -1    4.80    1.60
   7   6   1   -0.30    1.70
   8  -6   1    1.90    1.70
   8  -6   1    5.60    1.80
  -8  -6  -1    5.20    1.40
  -8   6  -1    2.40    2.00
   8   6   1    5.60    2.00
  -8  -7   1    9.60    3.20
   8  -7  -1    7.40    2.30
   8  -7  -1   10.10    2.10
  -8  -7   1    7.20    1.40
  -8   7   1    6.70    1.90
  -7  -7   1    9.00    1.60
  -7  -7   1   14.00    2.80
   7  -7  -1    7.70    1.90
  -7   7   1    7.10    2.20
   7   7  -1    9.90    2.60
   6  -7  -1  197.18    9.90
   6  -7  -1  183.18   11.00
  -6  -7   1  203.38    9.70
   6  -7  -1  200.48    9.90
  -6  -7   1  186.48   10.50
   6  -7  -1  205.68   10.30
   6   7  -1  184.18   10.00
  -6   7   1  195.98    9.70
   5  -7  -1 1483.25   69.49
   5  -7  -1 1479.45   69.69
  -5  -7   1 1533.25   70.19
  -5  -7   1 1679.23   69.69
   5  -7  -1 1452.55   70.09
   5  -7  -1 1511.25   69.49
   5  -7  -1 1473.45   69.69
  -5   7   1 1603.54   69.59
   4  -7  -1  354.86   17.40
  -4  -7   1  369.86   17.40
   4  -7  -1  345.57   17.20
  -4  -7   1  392.06   17.50
   4  -7  -1  387.56   18.00
   4  -7  -1  347.57   17.40
  -4  -7   1  376.56   18.00
   4  -7  -1  375.06   17.50
  -4   7   1  356.66   17.20
   3  -7  -1  109.09    5.90
  -3  -7   1  111.69    6.60
  -3  -7   1  108.79    6.10
   3  -7  -1  115.29    6.70
   3  -7  -1  113.59    6.10
  -3  -7   1  120.39    6.10
   3  -7  -1  114.19    6.20
  -3  -7   1  113.79    6.00
   3  -7  -1  119.09    6.10
  -3   7   1  110.59    5.90
   2  -7  -1  178.48    8.80
  -2  -7   1  174.68    8.80
   2  -7  -1  184.28    8.90
   2  -7  -1  178.38    9.30
  -2  -7   1  175.38    8.80
  -2  -7   1  169.98    9.20
  -2  -7   1  179.38    8.80
  -1  -7   1   48.00    3.30
   1  -7  -1   49.20    3.40
  -1  -7   1   47.70    3.70
   1  -7  -1   49.00    3.80
  -1  -7   1   51.09    3.40
   1  -7  -1   52.99    3.40
  -1  -7   1   53.29    3.70
   1  -7  -1   55.29    3.70
   0  -7   1   -1.30    1.30
   0  -7   1    0.30    1.20
   0  -7  -1    0.80    1.20
   0  -7   1    0.50    1.10
   0  -7   1    2.00    1.20
   0  -7  -1    0.30    1.10
   0  -7  -1   -0.10    1.20
   0  -7   1    0.90    1.10
   0  -7  -1    0.80    1.10
   0  -7   1    0.40    1.60
   1  -7   1   53.39    4.00
  -1  -7  -1   59.59    3.50
   1  -7   1   54.29    3.40
  -1  -7  -1   57.19    3.60
   1  -7   1   56.39    4.00
  -1  -7  -1   55.89    3.90
   1  -7   1   56.39    3.50
  -1  -7  -1   49.80    3.50
   1  -7   1   56.99    3.60
   1   7   1   49.30    5.10
  -2  -7  -1 1318.57   56.19
   2  -7   1 1228.98   55.69
  -2  -7  -1 1260.67   55.79
   2  -7   1 1224.58   56.09
   2  -7   1 1225.08   55.69
   2  -7   1 1288.57   55.89
  -2  -7  -1 1187.58   55.59
   2  -7   1 1129.19   55.49
   2   7   1 1128.29   56.89
   3  -7   1  565.74   25.90
   3  -7   1  529.95   25.30
   3  -7   1  576.04   25.50
   3  -7   1  525.75   25.50
  -3  -7  -1  569.54   25.50
   3  -7   1  575.14   25.50
  -3  -7  -1  520.95   26.50
  -3   7  -1  561.44   25.30
   3   7   1  495.05   27.50
   4  -7   1   20.80    3.00
   4  -7   1   21.50    2.20
   4  -7   1   14.60    1.90
   4  -7   1   21.20    2.60
   4  -7   1   20.40    2.30
  -4  -7  -1   26.30    3.50
  -4   7  -1   20.60    2.10
   4   7   1   18.10    2.40
  -5  -7  -1    3.20    2.50
   5  -7   1    4.90    2.20
   5  -7   1    2.10    1.50
  -5  -7  -1    1.50    1.10
   5  -7   1    0.30    1.40
   5  -7   1    2.70    2.80
   5  -7   1    0.60    1.50
  -5   7  -1    3.10    1.20
   5   7   1    0.60    2.00
   6  -7   1  129.79    7.00
   6  -7   1  134.29    7.00
   6  -7   1  124.29    7.60
  -6  -7  -1  138.79    6.90
  -6  -7  -1  117.09    7.90
   6  -7   1  122.09    8.40
   6  -7   1  135.09    7.10
   6   7   1  128.59    7.40
  -6   7  -1  126.49    6.80
  -7  -7  -1   38.10    6.80
  -7  -7  -1   30.20    2.60
   7  -7   1   20.60    2.50
   7  -7   1   31.50    3.00
   7   7   1   23.30    3.00
  -7   7  -1   30.70    3.40
  -7  -8   1   15.20    3.10
   7  -8  -1    8.10    2.00
  -7  -8   1   10.00    1.60
  -7   8   1    7.40    1.70
  -6  -8   1   24.00    2.80
  -6  -8   1   15.50    3.00
   6  -8  -1   23.80    3.20
  -6   8   1   17.40    2.40
  -5  -8   1  457.95   22.40
  -5  -8   1  512.05   21.90
   5  -8  -1  428.36   22.00
   5  -8  -1  460.15   21.90
   5  -8  -1  418.16   22.70
  -5   8   1  496.45   21.70
   4  -8  -1  121.49    7.30
   4  -8  -1  130.09    8.20
   4  -8  -1  137.19    7.10
  -4  -8   1  128.79    6.90
  -4  -8   1  131.29    7.80
   4  -8  -1  126.99    7.00
  -4  -8   1  138.09    7.00
  -4   8   1  134.79    6.80
   3  -8  -1  219.28   10.80
  -3  -8   1  201.68   10.50
   3  -8  -1  219.58   10.70
  -3  -8   1  210.38   11.20
   3  -8  -1  212.38   11.40
   3  -8  -1  216.98   10.70
  -3  -8   1  224.08   10.70
  -3   8   1  217.38   10.50
   2  -8  -1    8.50    1.50
  -2  -8   1   11.80    1.80
  -2  -8   1    6.60    1.70
  -2  -8   1    9.90    1.70
  -2  -8   1    6.40    1.80
   2  -8  -1    9.20    1.80
  -1  -8   1  179.78    9.10
  -1  -8   1  184.88    9.10
  -1  -8   1  173.58    9.10
   1  -8  -1  184.68    9.10
   1  -8  -1  175.78    9.50
   1  -8  -1  192.18    9.20
  -1  -8   1  178.08    9.50
   0  -8  -1  366.96   17.30
   0  -8   1  347.37   17.80
   0  -8  -1  370.46   17.90
   0  -8   1  354.46   17.30
   0  -8   1  366.96   17.40
   0  -8  -1  388.06   17.40
   0  -8  -1  372.46   17.40
   0  -8   1  374.56   17.40
  -1  -8  -1  229.98   11.00
  -1  -8  -1  214.88   11.40
  -1  -8  -1  212.88   10.90
   1  -8   1  229.78   11.00
   1  -8   1  215.18   11.40
   1  -8   1  225.38   11.70
  -1  -8  -1  225.28   11.00
   1  -8   1  240.88   11.10
   1  -8   1  223.58   11.00
  -2  -8  -1 1292.27   58.99
   2  -8   1 1307.07   58.99
  -2  -8  -1 1226.88   58.99
  -2  -8  -1 1340.97   58.99
   2  -8   1 1332.97   59.09
   2  -8   1 1295.17   59.49
   2  -8   1 1329.57   59.09
  -2  -8  -1 1229.08   59.39
  -2   8  -1 1274.47   58.89
   3  -8   1  190.18    9.50
  -3  -8  -1  190.08    9.50
  -3  -8  -1  176.58    9.50
  -3  -8  -1  193.78    9.50
   3  -8   1  187.78    9.60
  -3  -8  -1  190.78   10.10
  -3   8  -1  190.48    9.30
   4  -8   1   74.99    4.90
  -4  -8  -1   75.49    4.40
   4  -8   1   68.49    4.40
  -4  -8  -1   65.69    5.50
   4  -8   1   67.89    4.50
   4  -8   1   59.49    4.70
   4  -8   1   66.29    5.80
  -4   8  -1   75.39    4.20
  -5  -8  -1  194.38   11.30
   5  -8   1  224.78   10.50
  -5  -8  -1  216.88   11.90
   5  -8   1  216.68   10.60
   5  -8   1  201.88   11.00
   5  -8   1  193.18   11.70
  -5   8  -1  221.18   10.40
   6  -8   1  123.59    7.60
  -6  -8  -1  134.79    8.60
  -6  -8  -1  147.89    7.10
   6  -8   1  137.49    7.20
   6  -8   1  133.69    7.00
  -6   8  -1  136.89    7.30
   7  -8   1  133.39    7.30
  -7  -8  -1  146.49    7.10
  -6  -9   1   64.39    3.90
  -6  -9   1   54.89    5.40
   6  -9  -1   63.89    4.20
  -6   9   1   61.89    4.10
  -5  -9   1    3.30    1.60
   5  -9  -1    1.80    1.60
   5  -9  -1    0.50    1.90
  -5  -9   1    3.40    3.60
  -5   9   1   -1.30    1.50
  -4  -9   1   10.10    2.40
   4  -9  -1    5.60    1.50
  -4  -9   1   12.10    2.00
   4  -9  -1   12.20    1.90
  -4   9   1   11.40    1.60
  -3  -9   1   11.40    2.60
  -3  -9   1    3.10    1.60
   3  -9  -1   -0.50    1.40
  -3  -9   1    0.20    1.50
   3  -9  -1    0.20    2.00
  -3   9   1    2.40    1.20
  -2  -9   1   -0.40    1.50
  -2  -9   1    2.50    1.30
  -2  -9   1    0.80    1.50
   2  -9  -1    2.30    1.50
  -2  -9   1    1.60    2.10
   2  -9  -1   -0.10    1.30
  -2   9   1    0.70    1.10
  -1  -9   1    1.20    1.50
  -1  -9   1    1.30    1.90
  -1  -9   1    2.10    1.30
   1  -9  -1   -0.90    1.30
  -1  -9   1    0.90    1.80
   1  -9  -1    2.00    1.40
   0  -9   1   86.79    5.30
   0  -9   1   89.19    5.40
   0  -9  -1   89.29    5.80
   0  -9   1   89.69    5.80
   0  -9   1   97.39    5.20
   0  -9  -1   92.89    5.20
   0  -9  -1   84.49    5.20
   0  -9  -1   92.89    5.40
   1  -9   1   63.69    4.30
  -1  -9  -1   58.69    4.80
  -1  -9  -1   68.59    4.40
   1  -9   1   66.39    4.20
  -1  -9  -1   61.39    4.20
  -2  -9  -1    1.30    1.50
   2  -9   1    1.40    1.60
  -2  -9  -1   -0.70    1.30
  -2  -9  -1   -1.80    2.00
  -2  -9  -1   -2.10    1.80
   2  -9   1    0.10    1.40
  -2   9  -1   -0.60    1.20
  -3  -9  -1   78.89    6.30
  -3  -9  -1   88.89    6.30
   3  -9   1   97.49    6.10
   3  -9   1   95.89    6.80
   3  -9   1   85.89    7.10
   3  -9   1   87.39    5.50
  -3  -9  -1  103.99    7.00
  -3   9  -1   93.99    5.10
   4  -9   1    5.30    2.90
  -4  -9  -1    8.20    1.80
   4  -9   1    6.00    1.70
  -4  -9  -1    5.70    2.80
  -4   9  -1    9.90    1.80
  -5  -9  -1   17.10    2.50
  -5  -9  -1   21.60    3.90
   5  -9   1   12.90    1.80
   5  -9   1   13.60    2.00
  -5   9  -1   15.40    2.10
  -4 -10   1  174.78   10.20
   4 -10  -1  184.68    9.70
   4 -10  -1  209.48    9.60
  -4 -10   1  200.78    9.50
  -4  10   1  189.98    9.50
   3 -10  -1   26.90    3.00
   3 -10  -1   24.80    3.20
  -3 -10   1   24.10    2.90
  -3 -10   1   26.90    3.30
  -3 -10   1   30.20    2.90
  -3  10   1   34.20    2.80
  -2 -10   1   85.29    5.60
  -2 -10   1   79.59    5.00
  -2 -10   1   79.99    4.90
   2 -10  -1   80.49    5.10
   2 -10  -1   82.69    4.90
  -2  10   1   82.59    4.80
  -1 -10   1   25.10    3.10
  -1 -10   1   30.70    3.20
  -1 -10   1   26.70    3.40
   1 -10  -1   21.10    2.90
  -1 -10   1   25.00    2.80
   1 -10  -1   27.30    3.00
   0 -10   1    3.20    1.40
   0 -10   1    5.30    2.10
   0 -10  -1   -0.90    2.00
   0 -10  -1    0.60    1.60
   1 -10   1    7.50    1.90
   1 -10   1    4.80    2.00
  -1 -10  -1    3.20    1.70
  -1 -10  -1    2.50    1.70
  -1 -10  -1    3.00    2.10
  -1  10  -1    4.10    1.50
   2 -10   1  230.68   10.40
  -2 -10  -1  172.78   12.50
   2 -10   1  209.18   10.60
  -2 -10  -1  210.48   10.30
  -2  10  -1  209.08   10.20
  -3 -10  -1   87.99    6.70
  -3 -10  -1   91.59    5.20
   3 -10   1   91.59    5.20
   3 -10   1   86.39    5.50
  -3  10  -1   90.89    5.30
   4 -10   1  129.09    6.20
  -4 -10  -1  119.79    6.20
   4 -10   1  119.19    6.60
  -4 -10  -1   96.69    8.10
   0 -11   1  108.09    5.40
   0 -11  -1   98.09    5.40
   0  11   1   85.39    5.90
 -10   0   2  478.05   22.80
 -10   0   2  504.45   22.90
  10   0  -2  494.25   22.60
  10   0  -2  458.45   22.60
   9   0  -2  643.44   29.10
   9   0  -2  580.94   29.30
  -9   0   2  630.94   29.30
   9   0  -2  641.94   29.00
  -9   0   2  641.24   29.40
  -8   0   2   21.80    2.60
   8   0  -2   23.50    2.20
   8   0  -2   27.70    2.20
  -8   0   2   21.40    3.00
   8   0  -2   26.50    2.80
   7   0  -2   13.40    1.60
  -7   0   2   15.40    1.90
   7   0  -2   14.00    1.60
   7   0  -2   11.40    1.30
  -6   0   2  791.22   35.00
   6   0  -2  775.12   34.90
   6   0  -2  821.22   34.90
   6   0  -2  778.42   34.90
  -6   0   2  656.83   35.20
   5   0  -2  211.38    9.40
  -5   0   2  209.78    9.50
  -5   0   2  186.18    9.90
   5   0  -2  196.68    9.40
  -4   0   2  178.88    8.00
   4   0  -2  163.68    7.90
   4   0  -2  168.08    7.90
   1   0  -2 1084.29   61.39
   1   0  -2 1172.08   65.39
   0   0   2   14.50    1.00
   0   0  -2   16.10    1.00
   1   0   2  248.08   11.70
   1   0   2  269.27   11.80
   1   0   2  239.28   11.70
   2   0   2 6779.62  340.87
  -3   0  -2  119.49    5.60
   3   0   2  111.29    5.50
   3   0   2  116.09    5.60
   3   0   2  111.19    5.50
   4   0   2 1410.96   66.39
  -4   0  -2 1579.74   66.49
   4   0   2 1405.86   66.29
   4   0   2 1490.95   66.49
   4   0   2 1441.26   66.39
   5   0   2 1114.19   49.00
   5   0   2 1024.00   48.90
  -5   0  -2 1166.58   49.10
   5   0   2 1053.99   48.80
   5   0   2 1017.20   48.90
  -6   0  -2 1771.72   79.19
   6   0   2 1747.53   79.09
   6   0   2 1732.33   79.09
   6   0   2 1714.23   78.89
   7   0   2   38.90    2.90
   7   0   2   40.60    2.70
  -7   0  -2   39.80    3.30
   7   0   2   39.10    2.80
  -7   0  -2   42.20    3.70
   8   0   2    3.10    1.40
   8   0   2    6.30    1.20
   8   0   2    4.90    1.60
  -8   0  -2    3.20    1.70
  -8   0  -2    0.60    2.30
   8   0   2    3.60    1.50
   9   0   2  415.56   17.00
   9   0   2  303.27   18.20
  10   0   2   80.99    5.40
  10  -1  -2   66.49    4.70
  10  -1  -2   69.49    4.70
 -10  -1   2   76.19    5.00
  10   1  -2   77.99    4.50
 -10   1   2   74.59    5.00
 -10   1   2   68.39    4.80
   9  -1  -2  461.15   21.90
   9  -1  -2  491.85   22.00
  -9  -1   2  437.26   22.20
  -9  -1   2  464.45   22.40
  -9   1   2  472.95   22.20
   9   1  -2  468.75   22.00
   9   1  -2  491.75   22.00
  -9   1   2  478.45   22.40
  -8  -1   2  423.56   21.10
  -8  -1   2  452.85   21.30
   8  -1  -2  460.85   20.80
   8  -1  -2  439.26   20.80
   8  -1  -2  463.25   20.80
   8   1  -2  458.75   20.80
   8   1  -2  443.76   20.80
  -8   1   2  429.96   21.00
  -7  -1   2  136.59    8.00
  -7  -1   2  147.09    7.50
   7  -1  -2  134.09    6.90
   7  -1  -2  136.29    6.80
   7  -1  -2  137.29    7.00
   7   1  -2  141.09    6.80
   7   1  -2  138.39    6.90
   7   1  -2  142.59    7.20
   6  -1  -2 1161.38   53.49
   6  -1  -2 1185.68   53.49
   6  -1  -2 1257.57   53.59
  -6  -1   2 1194.08   53.69
   6  -1  -2 1196.58   53.49
   6   1  -2 1170.78   53.49
   6   1  -2 1104.89   53.39
  -6   1   2 1118.39   53.59
   6   1  -2 1215.38   53.49
   5  -1  -2  401.06   19.70
  -5  -1   2  412.06   20.10
   5  -1  -2  413.66   19.60
   5  -1  -2  448.46   19.70
  -5  -1   2  440.46   19.80
   5   1  -2  435.66   19.60
  -5   1   2  447.46   19.70
  -4  -1   2  625.74   29.40
  -4  -1   2  583.64   29.60
   4  -1  -2  680.23   29.30
   4  -1  -2  643.24   29.30
   4   1  -2  667.93   29.20
  -4   1   2  649.64   29.30
  -3  -1   2 1362.86   60.49
   3  -1  -2 1319.57   60.39
   3  -1  -2 1312.87   60.89
   3  -1  -2 1373.36   60.49
   3   1  -2 1304.67   60.39
  -3   1   2 1313.57   60.49
   3   1  -2 1372.36   60.89
   2  -1  -2 4699.13  236.68
   1  -1  -2  219.78   10.70
   1  -1  -2  227.08   10.40
   1  -1  -2  218.98   10.50
  -1  -1   2  224.78   10.40
   1  -1  -2  230.68   10.40
  -1  -1   2  225.68   10.40
  -1  -1   2  221.08   10.50
  -1   1   2  223.08   10.60
   1   1  -2  259.57   10.60
   0  -1   2  390.46   16.70
   0  -1   2  354.16   16.70
   0  -1  -2  358.46   16.70
   0   1   2  364.16   16.90
   0   1  -2  360.46   16.70
   2  -1   2 1931.61   85.49
   2  -1   2 1913.61   85.59
   2  -1   2 1799.42   85.49
  -2  -1  -2 1881.31   85.59
  -2   1  -2 1906.71   85.49
   2   1   2 1925.71   85.49
  -3  -1  -2  681.63   33.70
   3  -1   2  721.93   33.60
   3  -1   2  730.23   33.60
   3   1   2  732.23   33.60
   3   1   2  760.32   33.60
  -3   1  -2  794.62   33.60
   4  -1   2  557.24   25.40
   4  -1   2  567.64   25.50
   4  -1   2  565.94   25.30
   4  -1   2  582.04   25.40
  -4  -1  -2  539.05   25.50
  -4  -1  -2  527.85   25.50
   4   1   2  563.44   25.40
   4   1   2  525.95   25.30
   4   1   2  520.55   25.40
  -4   1  -2  599.04   25.40
   5  -1   2  500.05   22.80
   5  -1   2  516.05   23.00
   5  -1   2  509.15   23.00
   5  -1   2  479.35   22.90
  -5  -1  -2  516.95   23.20
  -5  -1  -2  485.95   23.10
   5   1   2  484.75   22.80
  -5   1  -2  503.45   23.00
   5   1   2  493.95   23.00
   5   1   2  498.05   23.00
  -6  -1  -2   44.80    3.50
  -6  -1  -2   43.00    3.30
   6  -1   2   43.80    2.90
   6  -1   2   44.90    2.70
   6  -1   2   46.30    3.00
   6  -1   2   46.50    3.00
   6   1   2   43.70    2.70
  -6   1  -2   49.20    3.00
   6   1   2   44.20    3.00
  -7  -1  -2  186.78    9.70
   7  -1   2  195.48    9.10
   7  -1   2  185.08    9.30
   7  -1   2  187.08    9.20
   7  -1   2  183.18    9.30
  -7  -1  -2  185.78    9.70
   7  -1   2  189.58    9.40
   7   1   2  187.68    9.20
   7   1   2  191.38    9.40
   7   1   2  193.48    9.10
  -7   1  -2  196.48    9.50
   8  -1   2 1657.73   77.79
   8  -1   2 1793.32   77.69
   8  -1   2 1731.03   77.79
  -8  -1  -2 1624.24   77.89
   8  -1   2 1708.23   77.59
  -8   1  -2 1741.83   77.99
   8   1   2 1689.23   77.89
   8   1   2 1808.22   77.59
  -8   1  -2 1639.04   77.89
   9  -1   2   39.90    3.70
   9  -1   2   43.80    4.00
   9  -1   2   43.60    3.00
   9   1   2   43.20    3.10
   9   1   2   42.10    4.00
  -9   1  -2   42.90    5.10
  10  -1   2  111.99    5.90
  10  -2  -2   42.10    3.30
  10  -2  -2   36.20    3.50
 -10  -2   2   39.10    4.70
 -10   2   2   34.80    3.60
  10   2  -2   40.90    3.20
   9  -2  -2   47.00    3.70
   9  -2  -2   50.89    3.50
  -9  -2   2   50.39    4.20
   9   2  -2   50.09    3.50
  -9   2   2   52.19    3.80
   8  -2  -2  179.38    8.90
  -8  -2   2  184.68    9.40
   8  -2  -2  171.38    8.70
   8  -2  -2  184.98    8.80
  -8  -2   2  170.08    9.20
   8   2  -2  169.98    8.80
   8   2  -2  186.08    8.90
  -8   2   2  184.48    9.00
   7  -2  -2 1275.27   57.59
   7  -2  -2 1261.37   57.59
   7  -2  -2 1218.08   57.59
   7  -2  -2 1251.07   57.49
  -7  -2   2 1286.97   57.99
  -7  -2   2 1191.08   57.89
   7   2  -2 1352.06   57.69
  -7   2   2 1323.37   57.69
   7   2  -2 1229.18   57.49
  -6  -2   2   16.80    2.30
  -6  -2   2   10.80    1.90
   6  -2  -2   16.60    1.80
   6  -2  -2   19.60    1.60
   6  -2  -2   15.90    1.50
  -6  -2   2   17.40    2.10
  -6  -2   2   19.10    2.50
   6   2  -2   14.20    1.50
   6   2  -2   16.00    1.50
  -6   2   2   16.70    1.60
   5  -2  -2  647.74   29.00
   5  -2  -2  618.24   29.10
  -5  -2   2  602.84   29.40
  -5  -2   2  636.84   29.30
   5  -2  -2  628.04   29.10
  -5  -2   2  612.84   29.20
   5   2  -2  675.43   29.00
  -5   2   2  645.34   29.10
   5   2  -2  647.54   28.90
  -4  -2   2 4907.01  214.98
  -4  -2   2 4538.95  214.98
   4  -2  -2 4857.51  214.78
  -4  -2   2 4724.13  214.88
   3  -2  -2  303.07   13.70
   3  -2  -2  306.27   13.70
   3  -2  -2  270.27   14.10
   3  -2  -2  300.37   13.70
  -3  -2   2  285.57   13.90
  -3  -2   2  283.97   13.80
   3   2  -2  278.97   13.60
  -3   2   2  334.27   14.00
   3   2  -2  320.77   14.20
   2  -2  -2   38.00    2.00
  -2  -2   2   37.00    2.20
   2  -2  -2   34.00    2.30
  -2  -2   2   39.30    2.00
   2   2  -2   36.60    1.80
  -2   2   2   38.10    2.20
  -1  -2   2 2366.46  113.39
  -1  -2   2 2652.53  113.29
   0  -2  -2 3746.73  202.98
   0   2   2 3923.21  206.58
   1  -2   2   21.10    1.40
   1  -2   2   21.40    1.30
  -1  -2  -2   22.80    1.40
   1  -2   2   22.20    1.20
   1   2   2   19.50    1.30
   2  -2   2  721.83   30.50
   2  -2   2  706.13   30.30
  -2  -2  -2  654.13   30.40
   2  -2   2  728.43   30.40
   2  -2   2  607.04   30.30
  -2  -2  -2  621.14   30.50
   2  -2   2  591.14   30.50
   2   2   2  687.13   30.40
  -2   2  -2  694.33   30.40
   3  -2   2 6167.38  273.27
  -3  -2  -2 6108.09  273.47
   3   2   2 5902.91  273.17
  -4  -2  -2  414.06   20.80
   4  -2   2  463.85   20.00
   4  -2   2  455.45   19.90
  -4  -2  -2  414.06   20.00
   4  -2   2  420.26   20.10
  -4  -2  -2  420.06   19.90
   4  -2   2  442.46   19.80
   4  -2   2  405.06   19.80
   4   2   2  430.26   19.90
   4   2   2  412.06   19.70
  -4   2  -2  461.95   19.90
   5  -2   2   60.79    3.30
  -5  -2  -2   58.69    3.30
   5  -2   2   55.09    3.20
   5  -2   2   61.09    3.50
  -5  -2  -2   52.29    3.60
  -5  -2  -2   53.39    3.80
   5  -2   2   58.69    3.40
   5   2   2   57.09    3.20
   5   2   2   58.69    3.40
  -5   2  -2   64.29    3.30
   5   2   2   56.89    3.30
   6  -2   2  448.16   21.50
  -6  -2  -2  458.45   21.70
   6  -2   2  479.55   21.30
  -6  -2  -2  432.96   21.40
   6  -2   2  452.85   21.30
   6  -2   2  471.15   21.70
   6  -2   2  490.75   21.50
  -6   2  -2  483.55   21.50
   6   2   2  466.65   21.20
   6   2   2  443.36   21.50
   6   2   2  443.86   21.30
   7  -2   2   22.50    2.40
   7  -2   2   18.40    2.10
   7  -2   2   16.80    1.90
   7  -2   2   16.40    1.90
  -7  -2  -2   20.70    3.80
  -7  -2  -2   18.20    2.10
   7  -2   2   16.20    1.90
   7  -2   2   16.30    2.10
   7   2   2   17.90    2.10
  -7   2  -2   17.50    2.30
   7   2   2   19.30    2.30
   8  -2   2   31.10    3.80
   8  -2   2   43.30    2.90
   8  -2   2   36.00    3.10
   8  -2   2   44.60    3.30
   8   2   2   42.10    3.30
  -8   2  -2   40.50    3.80
   8   2   2   40.50    3.10
   9  -2   2   64.99    4.30
   9  -2   2   64.59    3.80
   9   2   2   59.59    4.60
  -9   2  -2   60.39    4.70
 -10  -3   2   89.29    6.00
  10  -3  -2   90.69    5.40
  10  -3  -2   90.59    5.60
  10   3  -2   97.09    5.40
 -10   3   2   99.29    5.70
 -10   3   2   95.19    5.80
  -9  -3   2  218.78   11.40
   9  -3  -2  210.28   10.90
   9   3  -2  230.68   11.00
  -9   3   2  232.18   11.10
   8  -3  -2  440.06   21.70
   8  -3  -2  476.95   21.50
  -8  -3   2  469.15   22.00
   8  -3  -2  450.25   21.50
   8   3  -2  460.85   21.60
  -8   3   2  469.15   21.70
   7  -3  -2  577.14   25.70
  -7  -3   2  575.74   26.30
  -7  -3   2  527.65   25.70
   7  -3  -2  562.64   25.80
   7  -3  -2  551.04   25.80
   7  -3  -2  543.35   25.60
  -7   3   2  553.74   25.80
   7   3  -2  564.64   25.80
   6  -3  -2  320.17   14.90
   6  -3  -2  327.37   14.80
  -6  -3   2  314.27   14.80
   6  -3  -2  312.57   14.60
  -6  -3   2  275.97   15.30
   6  -3  -2  307.57   14.80
  -6  -3   2  323.47   15.30
   6   3  -2  328.17   14.80
  -6   3   2  321.97   14.80
   6   3  -2  320.67   14.70
  -5  -3   2  237.58   12.90
  -5  -3   2  270.97   12.90
   5  -3  -2  247.98   12.50
  -5  -3   2  258.77   12.60
   5  -3  -2  273.57   12.50
   5  -3  -2  280.87   12.50
   5   3  -2  291.47   12.50
  -5   3   2  258.27   12.50
   5   3  -2  276.67   12.30
   4  -3  -2   28.60    1.80
  -4  -3   2   32.50    2.30
  -4  -3   2   24.00    2.40
   4  -3  -2   28.70    2.10
   4  -3  -2   28.10    1.90
  -4   3   2   29.80    1.80
   4   3  -2   30.10    1.80
   4   3  -2   27.90    1.70
  -3  -3   2   39.20    2.90
   3  -3  -2   44.90    2.40
   3  -3  -2   41.80    2.40
  -3  -3   2   43.00    3.00
   3  -3  -2   42.90    2.30
   3  -3  -2   38.10    2.60
   3   3  -2   44.00    2.50
   3   3  -2   47.60    2.20
  -3   3   2   47.60    2.60
  -3   3   2   41.30    2.30
   2  -3  -2 1132.69   47.70
   2  -3  -2 1071.99   47.80
   2  -3  -2  954.30   48.10
  -2  -3   2 1066.79   47.70
  -2  -3   2 1006.40   47.70
  -2  -3   2 1017.10   47.90
  -2   3   2 1130.79   48.10
   1  -3  -2 6788.92  351.26
   0  -3   2  432.86   19.80
   0  -3   2  425.66   20.00
   0  -3  -2  450.65   19.90
   0  -3   2  398.06   19.80
   0  -3  -2  423.96   20.00
   0   3  -2  501.45   19.70
   0   3   2  413.46   19.80
   0   3   2  428.96   20.20
   1  -3   2 1352.76   61.79
   1  -3   2 1383.96   61.89
  -1  -3  -2 1296.07   61.79
   1  -3   2 1438.56   61.79
   1  -3   2 1319.27   61.69
  -1  -3  -2 1375.76   61.79
   1   3   2 1350.56   61.69
  -2  -3  -2  112.49    5.60
   2  -3   2  119.89    5.60
   2  -3   2  115.79    5.60
   2  -3   2  120.09    5.50
  -2  -3  -2  103.09    5.70
  -2   3  -2  117.39    5.50
   2   3   2  118.39    5.60
  -3  -3  -2    7.40    1.00
  -3  -3  -2    7.10    1.20
   3  -3   2    5.00    0.90
   3  -3   2    3.70    0.70
   3  -3   2    6.40    0.90
   3  -3   2    5.10    0.90
   3   3   2    6.10    0.90
  -3   3  -2    5.80    0.70
  -4  -3  -2  156.28    7.80
   4  -3   2  162.88    7.50
   4  -3   2  145.19    7.40
   4  -3   2  161.08    7.60
   4  -3   2  167.38    7.50
  -4  -3  -2  160.88    7.60
   4  -3   2  143.59    7.70
  -4   3  -2  157.38    7.50
   4   3   2  147.99    7.60
   4   3   2  151.08    7.40
  -5  -3  -2  397.96   19.90
  -5  -3  -2  384.26   20.20
   5  -3   2  419.46   19.90
   5  -3   2  449.06   20.00
   5  -3   2  440.06   19.80
   5  -3   2  434.36   20.00
   5  -3   2  446.16   20.60
   5  -3   2  441.76   20.00
   5   3   2  421.26   19.70
   5   3   2  448.26   20.10
  -5   3  -2  444.26   19.90
   6  -3   2 1802.02   76.79
   6  -3   2 1658.73   76.69
   6  -3   2 1665.83   76.59
  -6  -3  -2 1690.13   76.89
   6  -3   2 1708.13   76.59
   6   3   2 1642.54   76.79
   6   3   2 1666.73   76.39
  -6   3  -2 1661.03   76.69
  -7  -3  -2  258.27   12.30
   7  -3   2  255.47   12.40
   7  -3   2  249.48   12.20
  -7  -3  -2  257.67   12.90
   7  -3   2  247.48   12.20
   7  -3   2  254.57   12.40
   7  -3   2  258.77   12.40
  -7   3  -2  263.47   12.40
   7   3   2  257.87   12.50
   7   3   2  246.58   12.00
   8  -3   2   65.09    3.90
   8  -3   2   62.99    4.10
   8  -3   2   61.89    4.50
   8  -3   2   63.29    4.30
   8   3   2   59.39    4.10
  -8   3  -2   63.59    4.50
   9  -3   2  110.89    5.80
   9  -3   2  110.69    6.10
  -9   3  -2  107.99    6.60
   9   3   2  111.29    6.20
  10  -4  -2   94.69    5.50
 -10  -4   2  103.39    6.30
 -10   4   2   90.79    5.70
  10   4  -2   94.79    5.50
  -9  -4   2   35.80    3.80
   9  -4  -2   33.70    3.10
  -9   4   2   43.50    3.60
   9   4  -2   32.90    3.10
   8  -4  -2  116.09    6.30
   8  -4  -2  116.49    6.60
  -8  -4   2  122.89    7.10
  -8  -4   2  116.29    6.40
  -8   4   2  120.69    6.40
   8   4  -2  125.79    6.40
   7  -4  -2    3.10    1.20
   7  -4  -2    5.30    1.40
   7  -4  -2    2.80    1.10
  -7  -4   2    5.80    1.50
  -7  -4   2    3.30    1.70
  -7   4   2    3.20    1.20
   7   4  -2    4.10    1.30
  -6  -4   2  459.25   24.50
  -6  -4   2  522.55   23.90
   6  -4  -2  514.85   23.90
   6  -4  -2  501.45   23.80
  -6  -4   2  491.35   24.30
   6  -4  -2  522.95   24.00
   6   4  -2  579.34   24.00
  -6   4   2  529.05   23.90
   5  -4  -2 1717.83   76.19
  -5  -4   2 1635.34   76.09
  -5  -4   2 1540.35   76.59
  -5  -4   2 1684.13   76.49
   5  -4  -2 1569.84   76.19
   5  -4  -2 1733.73   76.09
  -5   4   2 1722.73   76.09
   5   4  -2 1815.52   76.09
   4  -4  -2  940.61   40.80
   4  -4  -2  866.31   40.90
  -4  -4   2  933.31   41.20
  -4  -4   2  879.21   40.90
   4  -4  -2  881.71   40.90
  -4  -4   2  799.92   40.80
  -4   4   2  908.01   40.80
   4   4  -2  962.90   40.80
   3  -4  -2  350.96   17.20
  -3  -4   2  368.06   17.40
   3  -4  -2  383.36   17.20
  -3  -4   2  352.46   17.60
  -3  -4   2  351.66   17.20
   3  -4  -2  375.96   17.10
   3   4  -2  378.96   17.10
  -3   4   2  405.36   17.50
  -2  -4   2    4.10    0.80
  -2  -4   2    4.50    0.80
   2  -4  -2    6.20    0.90
   2  -4  -2    4.70    0.90
  -2  -4   2    4.50    0.90
   2  -4  -2    5.30    0.80
   2  -4  -2    3.30    0.60
   2  -4  -2    6.10    0.90
  -2  -4   2    1.80    1.50
   2   4  -2    5.30    0.70
  -2   4   2    5.50    1.10
  -1  -4   2 1737.93   88.99
   1  -4  -2 2072.99   88.79
   1  -4  -2 1920.51   88.69
   1  -4  -2 2021.10   88.59
  -1  -4   2 2043.20   88.69
  -1  -4   2 1938.41   88.59
   1  -4  -2 2017.30   88.89
  -1  -4   2 1930.61   88.69
  -1  -4   2 2007.50   88.89
   1  -4  -2 1912.71   88.89
  -1   4   2 1977.40   89.19
   0  -4   2    1.40    0.50
   0  -4   2    2.60    0.70
   0  -4  -2    1.70    1.00
   0  -4  -2    2.60    0.50
   0  -4   2    2.20    0.90
   0  -4   2    2.70    0.80
   0  -4  -2    2.60    0.70
   0   4   2    1.70    0.70
   0   4   2    1.60    1.00
   0   4  -2    2.00    0.60
  -1  -4  -2 2928.41  135.99
   1  -4   2 2994.10  135.89
  -1  -4  -2 3076.79  135.89
   1  -4   2 2950.40  135.79
   1   4   2 2923.51  135.79
   1   4   2 3170.98  136.59
  -2  -4  -2  219.48   10.50
   2  -4   2  219.98   10.30
   2  -4   2  206.28   10.20
   2  -4   2  224.48   10.20
  -2  -4  -2  222.38   10.30
  -2  -4  -2  211.98   10.40
   2  -4   2  221.18   10.50
   2  -4   2  215.28   10.10
   2   4   2  220.58   10.20
   3  -4   2  763.42   37.30
   3  -4   2  789.92   37.40
  -3  -4  -2  833.62   37.40
   3  -4   2  773.22   37.30
  -3  -4  -2  813.42   37.60
   3  -4   2  864.31   37.40
   3  -4   2  845.12   37.50
  -3   4  -2  843.82   37.30
   3   4   2  846.32   37.50
   4  -4   2 1070.19   50.69
  -4  -4  -2 1096.69   50.69
   4  -4   2 1174.78   50.89
   4  -4   2 1088.89   50.69
   4  -4   2 1148.79   50.69
  -4  -4  -2 1095.69   50.99
   4   4   2 1059.09   50.79
  -4   4  -2 1173.48   50.69
   4   4   2 1116.69   50.49
   5  -4   2  150.28    7.40
  -5  -4  -2  143.69    7.40
  -5  -4  -2  128.09    7.80
   5  -4   2  152.28    7.50
   5  -4   2  155.88    7.30
   5   4   2  146.29    7.50
  -5   4  -2  151.68    7.30
  -6  -4  -2   80.59    5.80
   6  -4   2   85.59    4.80
   6  -4   2   83.19    4.80
   6  -4   2   86.09    4.80
   6  -4   2   84.49    4.80
   6  -4   2   86.29    4.70
   6   4   2   83.99    4.90
  -6   4  -2   83.09    4.70
  -7  -4  -2   30.20    2.80
   7  -4   2   27.30    2.90
   7  -4   2   26.90    2.80
  -7  -4  -2   38.00    3.80
   7  -4   2   30.10    2.80
   7  -4   2   25.60    2.60
  -7   4  -2   30.00    3.10
   7   4   2   30.30    2.90
   8  -4   2  241.08   11.70
   8  -4   2  238.78   11.80
   8  -4   2  234.18   12.20
   8  -4   2  243.48   11.80
   8   4   2  240.08   11.90
  -8   4  -2  249.18   12.00
   9  -4   2   11.90    1.90
   9  -4   2   10.90    1.50
   9   4   2   14.00    2.10
  -9   4  -2   10.70    2.80
   9  -5  -2  155.58    8.70
   9  -5  -2  171.98    8.60
  -9  -5   2  166.28    9.20
   9   5  -2  176.28    8.70
  -9   5   2  181.38    8.70
   8  -5  -2  207.48   10.90
  -8  -5   2  216.78   11.50
  -8  -5   2  204.58   10.80
   8  -5  -2  255.77   11.80
   8  -5  -2  233.48   10.90
  -8   5   2  214.58   10.90
   8   5  -2  220.48   10.90
   7  -5  -2  346.47   16.00
  -7  -5   2  338.17   16.00
  -7  -5   2  359.06   16.70
   7  -5  -2  323.77   16.00
  -7   5   2  317.97   16.00
   7   5  -2  338.37   16.00
   6  -5  -2 1801.22   82.49
   6  -5  -2 1853.21   82.29
  -6  -5   2 1880.31   82.39
  -6  -5   2 1565.54   83.89
  -6   5   2 1847.22   82.39
   6   5  -2 1919.61   82.39
  -5  -5   2    0.40    1.00
   5  -5  -2    3.20    0.90
   5  -5  -2   -0.30    1.00
  -5  -5   2   -0.10    1.60
  -5  -5   2   -0.20    1.60
   5   5  -2    1.10    1.00
  -5   5   2    0.20    1.10
  -4  -5   2  169.68    9.20
  -4  -5   2  176.18    8.50
   4  -5  -2  158.28    8.70
   4  -5  -2  170.58    8.50
  -4  -5   2  176.88    8.50
  -4  -5   2  177.18    8.90
   4  -5  -2  177.78    8.30
   4   5  -2  177.88    8.40
  -4   5   2  182.28    8.40
   3  -5  -2  101.09    5.30
  -3  -5   2  102.09    5.30
   3  -5  -2  107.89    5.20
   3  -5  -2  107.29    5.40
  -3  -5   2  101.49    5.40
  -3  -5   2  106.69    5.70
   3  -5  -2  104.29    5.80
  -3  -5   2  104.59    5.50
   3  -5  -2  107.39    5.60
   3   5  -2  104.09    5.20
  -3   5   2  112.19    5.70
  -2  -5   2  106.29    5.60
   2  -5  -2  116.49    5.50
  -2  -5   2  104.59    6.20
  -2  -5   2  108.99    5.50
   2  -5  -2  116.49    5.80
  -2  -5   2  113.09    5.40
   2  -5  -2  111.39    5.90
   2  -5  -2  114.19    5.30
  -2  -5   2  109.49    5.70
   2  -5  -2  110.99    5.60
   2  -5  -2  114.59    5.60
  -2  -5   2  111.89    5.80
   2   5  -2  110.39    5.40
  -2   5   2  110.09    5.90
  -1  -5   2 2135.79   94.39
  -1  -5   2 1974.00   94.69
   1  -5  -2 1929.41   94.49
   1  -5  -2 2180.68   94.69
   1  -5  -2 2138.99   94.39
  -1  -5   2 2174.18   94.69
  -1  -5   2 2115.09   94.39
  -1  -5   2 2194.58   94.99
   1  -5  -2 2091.89   94.69
  -1  -5   2 1955.60   94.39
   1  -5  -2 2113.29   94.49
  -1   5   2 2036.90   94.89
   0  -5   2 1540.45   70.99
   0  -5   2 1598.74   71.39
   0  -5   2 1635.74   71.09
   0  -5   2 1567.14   71.29
   0  -5   2 1604.64   71.09
   0  -5   2 1497.25   71.09
   0  -5  -2 1589.14   71.29
   0  -5  -2 1532.05   71.09
   0  -5  -2 1484.65   71.09
   0   5  -2 1687.53   70.89
   0   5   2 1563.74   71.69
   0   5   2 1514.95   70.89
   0   5  -2 1564.64   70.89
   1  -5   2 2665.63  114.49
   1  -5   2 2142.39  114.09
   1  -5   2 2615.84  114.19
   1  -5   2 2411.06  114.19
  -1  -5  -2 2497.65  114.29
   1  -5   2 2626.04  114.29
   1  -5   2 2584.94  114.19
  -1  -5  -2 2541.85  114.49
  -1  -5  -2 2573.94  114.29
   1  -5   2 2632.74  114.49
   1   5   2 2523.55  114.99
   1   5   2 2494.45  114.09
  -2  -5  -2   15.70    1.80
  -2  -5  -2   10.30    1.50
   2  -5   2   14.50    1.80
   2  -5   2   17.00    2.00
   2  -5   2   15.50    1.90
  -2  -5  -2   15.20    1.70
   2  -5   2   15.70    1.50
   2  -5   2   16.30    1.70
   2   5   2   15.00    1.60
   3  -5   2    4.50    1.00
  -3  -5  -2    5.50    1.30
  -3  -5  -2    4.20    1.10
   3  -5   2    6.00    1.00
  -3  -5  -2    5.00    1.40
   3  -5   2    2.90    0.90
   3  -5   2    4.10    1.10
   3  -5   2    3.90    1.30
  -3   5  -2    3.30    0.80
   3   5   2    3.90    1.00
  -4  -5  -2  129.49    6.80
   4  -5   2  128.39    6.80
   4  -5   2  129.89    6.70
   4  -5   2  136.19    7.00
  -4  -5  -2  136.89    7.30
  -4   5  -2  143.89    6.70
   4   5   2  134.09    6.90
  -5  -5  -2   88.49    5.90
   5  -5   2   99.39    5.30
   5  -5   2   94.59    5.10
   5  -5   2  101.29    5.20
   5  -5   2   93.99    5.20
   5  -5   2   93.59    5.30
  -5   5  -2   94.29    5.00
   5   5   2   88.39    5.30
   6  -5   2  978.70   42.50
   6  -5   2  935.71   42.30
   6  -5   2  937.51   42.30
   6  -5   2  880.01   42.40
  -6  -5  -2  860.51   42.70
  -6   5  -2  930.01   42.30
   6   5   2  938.41   42.50
   7  -5   2  149.09    7.90
   7  -5   2  158.28    7.80
   7  -5   2  141.59    7.70
  -7  -5  -2  144.69    7.60
   7  -5   2  160.18    7.90
   7   5   2  153.08    8.00
  -7   5  -2  155.58    7.90
   8  -5   2  446.86   21.20
   8  -5   2  484.35   21.30
   8  -5   2  435.86   21.00
  -8  -5  -2  429.76   21.00
   8   5   2  458.45   21.30
  -8   5  -2  458.35   21.30
  -9  -6   2  109.69    6.70
   9  -6  -2  101.19    6.10
  -9  -6   2  109.89    5.70
   9   6  -2  105.09    6.70
  -9   6   2  110.19    6.10
  -8  -6   2    6.40    2.50
   8  -6  -2    2.50    1.90
   8  -6  -2    6.70    1.80
  -8  -6   2    6.20    1.40
   8  -6  -2    8.60    2.10
   8   6  -2    5.30    1.90
  -8   6   2    7.50    1.80
  -7  -6   2   -1.20    1.90
  -7  -6   2    1.90    1.30
   7  -6  -2    0.80    1.40
   7  -6  -2    0.10    1.40
   7  -6  -2    1.30    1.60
   7   6  -2   -0.20    1.60
  -7   6   2   -0.30    1.00
   6  -6  -2  146.69    7.50
   6  -6  -2  150.18    7.40
   6  -6  -2  139.39    8.50
  -6  -6   2  134.69    8.10
   6  -6  -2  146.79    7.60
  -6  -6   2  155.58    7.50
   6  -6  -2  132.89    7.80
  -6   6   2  144.69    7.40
   6   6  -2  144.89    7.50
   5  -6  -2   14.40    2.00
   5  -6  -2   17.90    2.30
  -5  -6   2   19.50    2.10
   5  -6  -2   21.90    2.30
  -5  -6   2   19.80    2.40
   5  -6  -2   17.00    2.80
  -5  -6   2   14.10    2.30
   5   6  -2   20.70    2.40
  -5   6   2   19.00    1.90
   4  -6  -2 1042.70   49.40
  -4  -6   2 1135.19   49.40
   4  -6  -2 1140.69   49.40
  -4  -6   2 1104.69   49.90
  -4  -6   2  956.40   49.90
  -4  -6   2 1074.69   49.30
   4  -6  -2 1138.49   49.50
   4  -6  -2 1005.70   49.80
   4  -6  -2 1129.79   49.70
   4   6  -2 1047.60   49.30
  -4   6   2 1111.59   49.30
   3  -6  -2 1320.87   57.59
   3  -6  -2 1205.68   56.99
   3  -6  -2 1299.57   57.29
  -3  -6   2 1241.08   57.09
  -3  -6   2 1241.28   57.79
  -3  -6   2 1122.69   57.79
  -3  -6   2 1190.78   57.29
   3  -6  -2 1222.98   57.09
  -3  -6   2 1344.77   57.69
   3  -6  -2 1347.87   57.29
   3  -6  -2 1302.57   57.29
   2  -6  -2 1197.08   52.69
  -2  -6   2 1098.39   52.59
  -2  -6   2 1153.68   52.99
   2  -6  -2 1078.19   52.39
  -2  -6   2 1164.08   52.69
   2  -6  -2 1173.88   52.99
   2  -6  -2 1216.08   52.79
   2  -6  -2 1199.28   52.69
  -2  -6   2 1109.09   52.59
   2  -6  -2 1211.78   52.69
  -2   6   2 1121.29   52.99
  -1  -6   2   28.30    2.60
  -1  -6   2   29.30    2.20
   1  -6  -2   29.40    2.20
   1  -6  -2   25.40    2.20
   1  -6  -2   26.10    2.50
   1  -6  -2   29.20    2.70
  -1  -6   2   24.40    2.60
  -1  -6   2   25.70    2.30
  -1  -6   2   29.60    2.10
  -1  -6   2   26.60    2.20
  -1  -6   2   26.40    3.20
   1   6  -2   24.60    2.60
  -1   6   2   26.80    2.90
   0  -6   2  108.09    5.60
   0  -6   2  117.89    6.00
   0  -6   2  100.99    5.40
   0  -6   2  101.59    5.70
   0  -6  -2  112.19    5.90
   0  -6   2  112.59    5.60
   0  -6   2  109.49    5.90
   0  -6   2  116.29    5.60
   0  -6  -2  112.89    5.60
   0  -6  -2  108.99    5.70
   0   6   2  105.69    6.40
   1  -6   2   16.00    2.10
  -1  -6  -2   18.40    1.90
   1  -6   2   18.10    1.90
   1  -6   2   17.30    2.30
  -1  -6  -2   20.20    1.90
   1  -6   2   17.10    1.70
   1  -6   2   17.30    1.70
   1  -6   2   20.80    1.90
  -1  -6  -2   12.00    1.70
   1   6   2   20.00    3.70
   1   6   2   16.80    1.70
   2  -6   2  193.38    9.90
  -2  -6  -2  204.68    9.60
   2  -6   2  206.28    9.70
   2  -6   2  199.68    9.50
   2  -6   2  193.98    9.90
  -2  -6  -2  202.88   10.00
  -2  -6  -2  184.88   10.00
   2  -6   2  194.78    9.60
   2  -6   2  200.48    9.60
   2   6   2  189.98    9.50
   2   6   2  201.78   11.00
   3  -6   2  373.46   19.00
  -3  -6  -2  391.56   19.00
   3  -6   2  410.86   19.10
   3  -6   2  422.36   19.20
   3  -6   2  420.66   19.10
  -3  -6  -2  428.86   19.20
  -3  -6  -2  406.56   19.50
   3   6   2  386.96   20.80
  -3   6  -2  438.46   19.00
   3   6   2  402.86   19.10
   4  -6   2 1502.45   67.39
   4  -6   2 1407.46   67.29
   4  -6   2 1509.25   67.39
  -4  -6  -2 1458.75   67.79
   4  -6   2 1486.15   67.49
  -4  -6  -2 1442.66   67.29
  -4   6  -2 1525.25   67.29
   4   6   2 1502.45   67.49
   5  -6   2  902.61   39.30
  -5  -6  -2  756.82   39.40
   5  -6   2  865.01   39.10
   5  -6   2  838.82   39.00
   5  -6   2  916.61   39.20
   5   6   2  806.12   39.20
  -5   6  -2  865.31   39.00
   6  -6   2   60.79    4.10
   6  -6   2   54.19    3.90
   6  -6   2   55.89    3.80
  -6  -6  -2   62.09    5.70
   6  -6   2   57.19    3.90
   6   6   2   66.19    4.30
  -6   6  -2   58.49    3.90
  -7  -6  -2   77.39    4.30
   7  -6   2   67.49    4.50
   7  -6   2   75.69    4.70
   7   6   2   68.29    5.30
  -7   6  -2   90.69    5.70
   8  -6   2  118.49    6.70
   8  -6   2  131.89    6.80
  -8  -6  -2  130.89    6.40
  -8   6  -2  126.49    8.40
   8   6   2  118.19    7.10
  -8  -7   2  261.87   12.80
   8  -7  -2  238.08   12.20
  -8  -7   2  254.57   11.90
   8  -7  -2  242.28   12.30
  -8   7   2  248.08   12.10
   7  -7  -2  504.95   25.60
   7  -7  -2  522.65   25.50
   7  -7  -2  545.75   25.10
  -7  -7   2  532.05   25.00
  -7  -7   2  535.85   25.60
  -7   7   2  588.04   25.50
  -6  -7   2   84.59    6.00
   6  -7  -2   84.79    8.60
  -6  -7   2  100.49    5.30
   6  -7  -2   88.19    6.60
   6  -7  -2   94.09    5.40
   6  -7  -2   88.29    5.40
  -6   7   2   89.99    5.10
   5  -7  -2  448.16   22.30
  -5  -7   2  474.05   21.60
   5  -7  -2  486.95   22.40
   5  -7  -2  432.46   21.40
   5  -7  -2  449.76   21.70
  -5  -7   2  451.35   22.20
   5  -7  -2  451.85   21.60
  -5   7   2  484.75   21.50
   4  -7  -2   77.09    5.70
  -4  -7   2   80.69    5.40
  -4  -7   2   83.19    4.60
   4  -7  -2   84.49    4.90
   4  -7  -2   81.99    4.70
  -4  -7   2   85.39    4.80
   4  -7  -2   73.89    5.00
   4  -7  -2   67.29    4.60
  -4   7   2   84.79    4.50
   3  -7  -2   20.90    2.40
   3  -7  -2   22.20    2.30
  -3  -7   2   18.20    2.30
   3  -7  -2   13.40    2.30
   3  -7  -2   23.90    2.40
  -3  -7   2   15.50    3.20
  -3  -7   2   22.70    2.40
   2  -7  -2   80.09    4.70
  -2  -7   2   71.99    4.80
   2  -7  -2   80.09    4.50
  -2  -7   2   65.89    4.30
  -2  -7   2   71.39    4.20
  -2  -7   2   75.39    4.40
  -1  -7   2  292.07   14.40
  -1  -7   2  306.47   14.40
   1  -7  -2  305.97   14.50
  -1  -7   2  305.67   14.40
  -1  -7   2  306.97   14.80
   1  -7  -2  307.97   14.80
   1  -7  -2  307.77   14.40
   1  -7  -2  293.37   14.40
   0  -7  -2 2212.38   96.69
   0  -7   2 2128.39   96.69
   0  -7  -2 2262.57   96.69
   0  -7   2 2139.19   96.69
   0  -7  -2 2148.58   96.69
   0  -7   2 2049.09   96.99
   0  -7  -2 2254.57   97.09
   0  -7   2 2040.50   96.59
   0  -7   2 2154.08   96.59
   0  -7   2 2109.69   96.99
   0   7   2 1938.01   97.39
   1  -7   2  107.99    6.10
  -1  -7  -2  110.29    5.60
  -1  -7  -2  106.09    6.00
   1  -7   2  101.69    5.50
  -1  -7  -2  106.69    5.60
   1  -7   2  107.69    5.60
   1  -7   2  102.19    5.50
   1  -7   2  101.69    5.50
   1  -7   2  101.19    6.00
   1   7   2   90.69    7.20
   2  -7   2  354.36   17.60
  -2  -7  -2  364.96   17.40
   2  -7   2  375.56   17.50
   2  -7   2  379.56   17.90
   2  -7   2  387.66   17.50
  -2  -7  -2  376.26   17.90
   2  -7   2  371.76   17.50
  -2  -7  -2  386.16   17.50
  -2   7  -2  372.66   17.30
   2   7   2  330.87   19.10
   3  -7   2   15.20    2.00
   3  -7   2   13.70    1.80
   3  -7   2   16.90    2.00
  -3  -7  -2   18.40    2.10
  -3  -7  -2   14.30    2.00
   3  -7   2   12.30    1.70
   3  -7   2   16.00    2.50
  -3   7  -2   17.30    1.90
  -4  -7  -2    5.40    2.30
   4  -7   2    6.40    1.60
   4  -7   2    8.70    1.90
   4  -7   2    7.30    1.70
   4  -7   2    8.30    2.60
   4  -7   2    6.70    1.60
   4   7   2    7.10    1.90
  -4   7  -2    7.40    1.30
   5  -7   2  107.49    6.30
   5  -7   2   98.69    6.00
   5  -7   2  104.79    7.00
  -5  -7  -2   96.89    7.10
   5  -7   2  115.09    5.80
   5  -7   2  113.49    6.00
  -5   7  -2  102.09    5.70
   5   7   2   98.59    6.20
  -6  -7  -2   41.70    3.50
   6  -7   2   53.39    5.60
   6  -7   2   54.99    4.20
   6  -7   2   50.29    3.50
   6  -7   2   47.90    3.60
   6  -7   2   55.49    4.70
   7  -7   2  565.14   26.00
   7  -7   2  562.54   25.90
   7  -7   2  548.35   25.60
  -7  -7  -2  574.34   25.80
  -7   7  -2  550.54   26.00
   7   7   2  543.65   26.10
  -7  -8   2   29.70    2.70
  -7  -8   2   34.00    4.50
   7  -8  -2   26.00    3.30
  -7   8   2   30.30    3.10
  -6  -8   2  107.19    7.20
  -6  -8   2  108.29    6.30
  -6   8   2  130.09    6.90
   5  -8  -2  295.67   14.10
  -5  -8   2  318.97   14.20
   5  -8  -2  263.27   14.40
  -5  -8   2  280.57   14.70
   5  -8  -2  269.87   15.40
  -5   8   2  303.97   13.90
  -4  -8   2  601.74   29.10
   4  -8  -2  603.14   29.10
  -4  -8   2  638.44   29.90
   4  -8  -2  632.94   29.40
  -4  -8   2  657.33   29.30
   4  -8  -2  607.84   30.00
   4  -8  -2  641.54   29.30
  -4   8   2  654.53   29.20
  -3  -8   2   59.69    3.90
  -3  -8   2   52.79    3.50
   3  -8  -2   53.09    3.80
   3  -8  -2   48.70    3.60
  -3  -8   2   50.49    4.30
  -3   8   2   52.09    3.40
   2  -8  -2   40.00    3.20
  -2  -8   2   35.80    3.50
  -2  -8   2   34.70    3.10
  -2  -8   2   29.30    3.30
  -2  -8   2   31.80    2.80
   2  -8  -2   38.60    3.10
  -1  -8   2  138.79    7.30
   1  -8  -2  142.39    7.30
  -1  -8   2  133.09    7.70
   1  -8  -2  134.79    7.30
   1  -8  -2  148.09    7.30
  -1  -8   2  141.69    7.20
  -1  -8   2  136.79    7.30
   0  -8   2    2.00    1.30
   0  -8   2   -1.20    1.50
   0  -8  -2    1.40    1.30
   0  -8  -2    0.60    1.10
   0  -8  -2    1.30    1.60
   0  -8   2   -0.30    1.60
   0  -8   2   -0.50    1.20
  -1  -8  -2  182.28    9.30
   1  -8   2  185.38    9.70
  -1  -8  -2  184.48    9.20
  -1  -8  -2  190.48    9.30
   1  -8   2  183.48    9.30
   1  -8   2  174.68    9.80
   1  -8   2  191.88    9.30
  -1  -8  -2  186.78    9.80
   1  -8   2  177.18    9.20
   2  -8   2  370.26   18.20
   2  -8   2  388.36   17.70
  -2  -8  -2  370.86   18.10
   2  -8   2  367.56   17.60
  -2  -8  -2  388.36   17.70
  -2  -8  -2  364.46   17.70
   2  -8   2  377.96   17.70
  -2  -8  -2  347.67   17.60
  -2   8  -2  371.06   17.40
   3  -8   2  857.81   43.10
   3  -8   2 1003.50   43.40
   3  -8   2  919.11   43.40
   3  -8   2  964.60   43.90
  -3  -8  -2  905.91   43.30
   3  -8   2  956.80   43.40
  -3  -8  -2  925.51   43.80
  -3   8  -2 1005.10   43.20
   4  -8   2    4.20    1.50
   4  -8   2    5.70    1.50
   4  -8   2    4.10    2.00
   4  -8   2    7.20    3.10
  -4  -8  -2    5.60    1.60
   4  -8   2    5.00    2.40
  -4  -8  -2    3.90    2.60
  -4  -8  -2    4.50    2.30
  -4   8  -2    5.60    1.50
   5  -8   2   33.20    2.80
   5  -8   2   25.00    2.90
   5  -8   2   30.30    2.80
  -5  -8  -2   25.40    4.00
   5  -8   2   15.00    2.90
  -5  -8  -2   27.10    3.00
  -5   8  -2   24.80    3.10
  -6  -8  -2  230.98   10.60
   6  -8   2  194.18   10.90
   6  -8   2  218.78   10.50
   6  -8   2  222.68   10.70
  -6   8  -2  215.88   11.00
   6  -9  -2   32.50    3.40
  -6  -9   2   29.20    4.10
  -6  -9   2   34.10    2.80
  -6   9   2   34.40    3.10
   5  -9  -2    0.90    1.50
  -5  -9   2   -1.80    2.60
  -5  -9   2    1.40    1.40
  -5   9   2    0.00    1.30
  -4  -9   2  220.78   11.20
   4  -9  -2  230.98   11.30
   4  -9  -2  229.08   11.20
  -4  -9   2  225.18   11.90
  -4   9   2  237.18   11.20
   3  -9  -2   14.60    1.90
  -3  -9   2   15.90    2.00
  -3  -9   2   19.10    2.80
  -3  -9   2   16.80    2.20
  -3   9   2   16.60    1.90
  -2  -9   2 2516.15  111.59
   2  -9  -2 2519.55  111.59
   2  -9  -2 2383.26  111.59
  -2  -9   2 2498.95  111.59
  -2  -9   2 2377.26  112.09
  -1  -9   2   10.90    1.80
  -1  -9   2   11.60    2.20
  -1  -9   2   10.10    2.10
   1  -9  -2   10.80    1.90
  -1  -9   2   11.20    1.60
   1  -9  -2    8.10    1.60
   0  -9   2    5.30    1.90
   0  -9  -2    3.20    1.50
   0  -9  -2    5.50    1.40
   0  -9   2    3.50    1.30
   0  -9   2    4.80    1.80
   0  -9   2    2.50    1.70
   0  -9  -2    4.80    1.60
  -1  -9  -2  366.96   18.20
   1  -9   2  398.66   17.70
  -1  -9  -2  380.26   17.60
   1  -9   2  369.56   17.80
  -1  -9  -2  373.56   17.70
  -1  -9  -2  361.56   17.70
  -1   9  -2  349.57   17.40
  -2  -9  -2   74.09    4.70
  -2  -9  -2   73.19    4.70
   2  -9   2   79.89    4.80
   2  -9   2   71.49    4.80
  -2  -9  -2   74.19    5.60
  -2  -9  -2   70.79    4.90
  -2   9  -2   75.59    4.40
   3  -9   2    4.50    1.60
  -3  -9  -2    5.90    1.70
  -3  -9  -2    1.50    3.00
  -3  -9  -2    3.10    2.80
   3  -9   2   11.00    3.80
   3  -9   2    9.20    2.70
   3  -9   2    5.90    1.70
   4  -9   2    4.20    1.60
   4  -9   2    1.70    1.50
  -4  -9  -2    4.50    3.40
  -4  -9  -2    2.30    1.50
  -4   9  -2    4.20    1.80
   5  -9   2 1057.79   50.19
   5  -9   2 1146.29   49.99
  -5  -9  -2 1089.59   50.09
  -4 -10   2  374.16   16.80
   4 -10  -2  341.97   16.90
  -4 -10   2  346.47   17.30
  -4  10   2  357.66   16.70
   3 -10  -2   29.50    3.10
   3 -10  -2   26.70    3.00
  -3 -10   2   29.40    3.70
  -3 -10   2   23.70    2.70
  -3 -10   2   22.20    2.70
  -3  10   2   24.90    2.50
   2 -10  -2  415.66   18.60
   2 -10  -2  382.86   18.60
  -2 -10   2  398.76   18.50
  -2 -10   2  372.36   18.50
  -2 -10   2  400.66   19.10
  -2  10   2  390.36   18.40
  -1 -10   2   13.20    2.40
  -1 -10   2   13.10    1.90
   1 -10  -2   13.20    2.10
  -1 -10   2   15.30    2.00
   1 -10  -2   17.30    2.20
   0 -10  -2   71.69    4.70
   0 -10   2   61.99    5.30
   0 -10  -2   59.69    4.50
   0 -10   2   69.49    4.50
   0 -10  -2   79.09    4.60
   0  10  -2   68.79    4.20
  -1 -10  -2   51.39    3.70
   1 -10   2   42.90    4.40
  -1 -10  -2   44.70    4.20
   1 -10   2   51.09    3.80
  -1 -10  -2   52.79    3.80
  -1  10  -2   47.60    3.70
   2 -10   2   23.10    2.80
  -2 -10  -2   15.20    2.90
   2 -10   2   26.20    2.70
  -2 -10  -2   26.70    2.70
  -2  10  -2   25.30    3.20
   3 -10   2  575.74   27.50
  -3 -10  -2  583.44   27.30
   3 -10   2  613.34   27.40
 -11   0   3    3.30    2.30
  10   0  -3    0.30    2.00
 -10   0   3    1.90    2.10
  10   0  -3    2.30    1.60
 -10   0   3    0.20    1.90
   9   0  -3    2.20    1.30
   9   0  -3   -0.20    1.10
  -9   0   3   -0.10    1.60
  -9   0   3   -0.30    1.40
   8   0  -3   -0.20    1.60
  -8   0   3    1.70    1.60
  -8   0   3   -1.40    1.10
   8   0  -3    0.10    1.00
   8   0  -3    0.10    0.80
   7   0  -3   -0.20    0.80
   7   0  -3    4.00    0.90
  -7   0   3    1.20    2.10
  -7   0   3   -0.80    0.90
   6   0  -3    0.50    0.60
   6   0  -3    0.00    1.20
  -6   0   3    0.10    0.60
  -6   0   3    1.80    1.80
  -5   0   3    0.10    0.60
  -4   0   3   -0.30    0.40
   4   0  -3    0.60    0.40
  -3   0   3   -0.70    0.40
   3   0  -3   -0.70    0.30
   3   0  -3    0.70    1.00
  -2   0   3   -0.10    0.50
  -2   0   3   -0.30    0.40
   2   0  -3    0.70    0.30
   2   0  -3   -0.20    0.70
  -2   0   3   -0.30    0.40
  -1   0   3   -2.70    0.40
  -1   0   3   -3.30    0.50
   1   0  -3   -3.10    0.50
   1   0  -3   -3.10    0.30
   0   0   3   -1.00    0.30
   0   0   3   -1.00    0.40
   0   0   3   -1.10    0.50
   0   0   3   -0.60    0.40
   1   0   3   -7.30    0.40
   1   0   3   -7.80    0.40
   1   0   3   -7.90    0.50
   1   0   3   -7.90    0.50
  -2   0  -3   -0.90    0.50
   2   0   3   -1.20    0.50
   2   0   3   -1.30    0.50
   2   0   3   -1.40    0.40
   3   0   3    1.10    0.70
   3   0   3    0.90    0.60
   3   0   3    0.40    0.50
   3   0   3    0.40    0.70
   4   0   3    0.70    0.80
   4   0   3   -0.80    0.70
   4   0   3    1.40    0.70
   4   0   3   -0.10    0.60
  -4   0  -3   -0.50    0.80
   4   0   3    0.10    0.60
   5   0   3    0.60    0.80
  -5   0  -3    1.00    1.00
   5   0   3    0.10    0.70
   6   0   3   -0.90    1.10
   6   0   3    1.30    0.80
   6   0   3   -0.10    0.90
  -6   0  -3   -0.50    1.20
  -6   0  -3   -1.20    1.80
   7   0   3    0.20    1.10
   7   0   3    0.50    0.90
   7   0   3    0.10    1.20
  -7   0  -3   -0.10    1.50
  -7   0  -3   -3.50    3.70
   8   0   3    1.00    1.70
   8   0   3    1.50    1.30
   8   0   3   -1.10    1.50
   9   0   3    1.20    1.90
   9   0   3    0.40    1.50
   9   0   3    1.10    1.20
  10  -1  -3    1.80    1.70
 -10  -1   3   -0.80    1.90
  10  -1  -3    1.70    1.80
 -10   1   3   -2.20    1.60
 -10   1   3    2.00    1.80
  10   1  -3   -1.60    1.50
  -9  -1   3  217.88   11.70
  -9  -1   3  239.68   11.90
   9  -1  -3  232.48   11.40
   9  -1  -3  241.58   11.40
   9   1  -3  246.18   11.50
  -9   1   3  244.28   12.00
  -9   1   3  227.88   11.70
   9   1  -3  234.78   11.50
   8  -1  -3   57.29    3.40
  -8  -1   3   63.09    4.20
   8  -1  -3   51.19    3.80
   8  -1  -3   56.89    3.50
  -8  -1   3   55.09    3.90
   8   1  -3   56.69    3.40
   8   1  -3   55.49    3.50
  -8   1   3   62.19    3.80
  -7  -1   3  791.62   34.50
   7  -1  -3  720.23   34.00
  -7  -1   3  662.83   34.50
  -7  -1   3  747.53   34.30
   7  -1  -3  735.93   34.00
   7  -1  -3  762.12   33.90
   7   1  -3  739.03   33.90
  -7   1   3  763.72   34.20
   7   1  -3  754.72   34.00
  -6  -1   3   97.69    4.90
   6  -1  -3   93.39    4.70
   6  -1  -3   86.49    4.90
   6   1  -3   94.29    4.70
  -6   1   3   88.99    4.80
   6   1  -3   91.59    4.60
  -5  -1   3  109.59    5.80
   5  -1  -3  117.69    5.70
  -5  -1   3  117.19    6.20
   5  -1  -3  123.99    5.70
   5  -1  -3  110.29    5.90
   5   1  -3  116.79    5.60
  -5   1   3  122.59    5.80
   4  -1  -3  121.09    5.70
  -4  -1   3  125.39    6.10
  -4  -1   3  112.39    5.80
   4  -1  -3  121.79    5.70
   4   1  -3  124.79    5.70
  -4   1   3  119.89    5.80
   3  -1  -3  143.99    7.50
   3  -1  -3  140.09    6.90
   3  -1  -3  148.29    6.90
   3  -1  -3  143.89    6.90
  -3  -1   3  139.79    7.00
  -3   1   3  153.78    6.90
  -3   1   3  161.88    7.30
   3   1  -3  154.38    7.50
  -2  -1   3 5110.29  230.58
   1  -1  -3    8.50    0.80
  -1  -1   3    9.90    0.90
  -1  -1   3    6.90    0.80
   1  -1  -3    7.20    1.10
  -1   1   3    6.60    1.10
   1   1  -3    6.90    1.00
  -1   1   3    7.60    0.90
   1  -1   3 2686.33  119.39
   1  -1   3 2678.63  119.49
   1   1   3 2561.24  119.29
   1   1   3 2651.33  119.39
   2  -1   3 1411.66   65.99
   2  -1   3 1407.66   65.99
   2  -1   3 1563.04   66.09
  -2  -1  -3 1396.86   65.99
  -2   1  -3 1553.34   65.99
   2   1   3 1421.96   65.89
   2   1   3 1452.35   65.99
  -3  -1  -3  970.40   45.00
   3  -1   3  969.70   44.90
  -3  -1  -3  905.51   44.90
   3  -1   3 1100.99   45.00
   3  -1   3 1022.10   44.90
   3  -1   3  932.11   44.80
   3   1   3 1023.50   44.90
   3   1   3 1000.70   44.80
   3   1   3  995.30   45.10
   3   1   3  960.10   44.80
   4  -1   3  178.08    7.80
  -4  -1  -3  148.89    7.90
  -4  -1  -3  147.99    7.90
   4  -1   3  164.18    7.80
   4  -1   3  155.88    7.70
   4  -1   3  164.28    7.70
   4  -1   3  166.88    7.60
   4   1   3  146.99    7.60
   4   1   3  153.48    7.60
   4   1   3  161.08    7.80
  -4   1  -3  177.68    7.80
  -5  -1  -3   37.40    2.80
   5  -1   3   32.10    2.50
   5  -1   3   36.90    2.20
   5  -1   3   37.60    2.50
   5  -1   3   34.30    2.50
   5  -1   3   38.30    2.40
  -5  -1  -3   40.50    3.30
   5   1   3   39.10    2.70
   5   1   3   33.40    2.40
   5   1   3   34.20    2.50
  -5   1  -3   38.80    2.60
  -6  -1  -3  116.49    6.80
  -6  -1  -3  110.19    7.00
   6  -1   3  125.19    6.10
   6  -1   3  116.59    6.30
   6  -1   3  126.79    6.40
   6   1   3  127.29    6.10
   6   1   3  120.59    6.20
  -6   1  -3  127.59    6.40
   7  -1   3 1959.80   88.69
   7  -1   3 1928.81   88.49
  -7  -1  -3 1892.81   88.69
   7  -1   3 2037.20   88.49
   7  -1   3 1860.41   88.59
   7   1   3 2037.70   88.49
   7   1   3 1882.51   88.49
  -7   1  -3 1971.50   88.79
   7   1   3 1996.40   88.79
   8  -1   3  180.38    9.00
   8  -1   3  201.88    9.50
  -8  -1  -3  177.18    9.70
   8  -1   3  176.48    9.30
   8  -1   3  182.28    9.20
   8   1   3  179.98    9.30
   8   1   3  191.98    9.10
  -8   1  -3  175.78    9.60
   9  -1   3   68.49    5.30
   9  -1   3   80.89    4.30
   9  -1   3   75.99    5.20
   9   1   3   82.59    4.30
   9   1   3   71.99    4.40
   9   1   3   74.69    4.90
 -10  -2   3   21.40    2.70
  10  -2  -3   20.20    2.30
 -10   2   3   23.50    2.60
 -10   2   3   25.30    3.30
  10   2  -3   24.80    2.70
  -9  -2   3  158.28    8.50
   9  -2  -3  162.68    8.00
   9  -2  -3  147.29    8.00
   9   2  -3  168.98    8.10
  -9   2   3  153.48    8.20
  -8  -2   3  136.99    7.20
   8  -2  -3  130.19    6.50
  -8  -2   3  121.09    7.00
   8  -2  -3  122.89    6.40
   8   2  -3  122.39    6.50
   8   2  -3  135.39    6.60
  -8   2   3  120.29    6.70
   7  -2  -3 1880.81   82.99
  -7  -2   3 1660.53   83.49
   7  -2  -3 1831.12   82.99
  -7  -2   3 1746.33   83.29
  -7  -2   3 1893.01   83.39
   7  -2  -3 1896.71   82.79
   7   2  -3 1996.60   82.99
  -7   2   3 1761.22   82.99
   7   2  -3 1785.52   82.79
  -6  -2   3  118.69    6.50
  -6  -2   3  126.99    6.90
   6  -2  -3  124.09    6.30
  -6  -2   3  130.19    6.70
  -6  -2   3  119.69    6.50
   6  -2  -3  126.89    6.30
   6   2  -3  137.29    6.20
   6   2  -3  127.69    6.10
  -6   2   3  120.29    6.20
  -5  -2   3  121.49    6.40
  -5  -2   3  125.89    6.60
   5  -2  -3  131.69    6.20
  -5  -2   3  126.19    6.70
   5  -2  -3  122.39    6.40
   5  -2  -3  134.69    6.20
  -5   2   3  128.29    6.20
   5   2  -3  130.39    6.10
  -4  -2   3  408.66   19.00
  -4  -2   3  393.56   19.00
   4  -2  -3  398.26   18.70
  -4  -2   3  381.56   18.80
   4  -2  -3  380.76   18.80
   4  -2  -3  419.26   18.70
  -4   2   3  449.76   19.20
  -4   2   3  423.66   18.70
   4   2  -3  417.96   18.60
  -3  -2   3  111.59    5.70
   3  -2  -3  115.59    5.40
   3  -2  -3  104.49    6.10
   3  -2  -3  113.59    5.40
  -3  -2   3  121.79    5.50
  -3  -2   3  109.29    5.60
  -3  -2   3  111.49    5.50
   3  -2  -3  115.89    5.40
  -3   2   3  120.89    5.80
   3   2  -3  108.49    6.00
   3   2  -3  110.69    5.30
  -2  -2   3  291.77   14.30
   2  -2  -3  302.87   14.20
   2  -2  -3  326.27   14.20
   2  -2  -3  284.17   14.70
   2  -2  -3  306.87   14.30
  -2  -2   3  296.57   14.40
   2  -2  -3  318.47   14.20
  -2   2   3  324.57   14.60
   2   2  -3  348.67   14.60
  -1  -2   3 2616.14  116.09
  -1  -2   3 2617.04  116.29
  -1  -2   3 2664.43  116.19
   1  -2  -3 2385.26  116.59
   0   2   3 9642.94  478.05
   1  -2   3  433.76   19.40
   1  -2   3  390.56   19.40
   1  -2   3  435.26   19.50
  -1  -2  -3  447.36   19.40
   1   2   3  397.66   19.40
  -1   2  -3  422.56   19.30
   2  -2   3   53.29    2.70
   2  -2   3   49.70    2.50
   2  -2   3   47.30    2.70
  -2  -2  -3   46.70    2.70
   2  -2   3   54.09    2.80
   2  -2   3   50.89    2.70
   2  -2   3   52.69    2.50
   2   2   3   50.89    2.70
  -2   2  -3   51.69    2.60
   3  -2   3  392.56   18.80
   3  -2   3  414.36   18.90
   3  -2   3  399.86   18.70
   3  -2   3  431.96   18.80
   3  -2   3  416.16   18.80
  -3  -2  -3  415.16   18.90
  -3  -2  -3  401.46   18.90
   3  -2   3  417.16   18.70
  -3   2  -3  422.36   18.70
   3   2   3  389.26   18.80
   3   2   3  398.36   18.70
  -4  -2  -3  187.88    9.70
  -4  -2  -3  191.58    9.50
   4  -2   3  217.08    9.40
   4  -2   3  196.98    9.60
   4  -2   3  196.18    9.40
   4  -2   3  202.78    9.50
   4  -2   3  206.18    9.50
  -4   2  -3  206.78    9.40
   4   2   3  191.98    9.40
   4   2   3  189.78    9.60
   4   2   3  206.08    9.40
   5  -2   3  850.01   38.10
  -5  -2  -3  769.02   38.30
   5  -2   3  819.32   38.10
   5  -2   3  873.11   38.00
   5  -2   3  843.82   38.30
   5  -2   3  807.12   38.20
  -5  -2  -3  876.31   38.30
   5  -2   3  867.81   38.30
  -5   2  -3  860.71   38.20
   5   2   3  794.22   38.20
   5   2   3  814.52   38.20
   5   2   3  840.12   38.30
  -6  -2  -3  265.57   13.10
   6  -2   3  256.67   12.60
   6  -2   3  264.77   12.60
   6  -2   3  278.47   12.70
   6  -2   3  268.27   12.50
  -6  -2  -3  259.37   12.70
   6  -2   3  264.37   13.30
   6   2   3  257.57   12.80
   6   2   3  269.87   12.40
   7  -2   3  143.99    7.40
   7  -2   3  140.29    7.60
   7  -2   3  152.38    7.30
   7  -2   3  149.09    7.60
   7  -2   3  146.59    7.70
  -7  -2  -3  138.29    7.60
   7   2   3  148.39    7.30
   7   2   3  147.19    7.70
  -7   2  -3  158.48    7.80
   8  -2   3   12.20    1.80
   8  -2   3    8.40    1.40
   8  -2   3   10.80    1.70
   8   2   3    6.30    1.30
  -8   2  -3    7.80    2.10
   8   2   3    7.30    1.70
   9  -2   3   21.80    2.50
   9  -2   3   18.50    2.30
   9   2   3   21.10    2.30
  -9   2  -3   17.50    3.00
   9   2   3   20.70    2.00
 -10  -3   3   26.00    3.50
  10  -3  -3   20.90    2.40
 -10   3   3   16.90    2.30
  10   3  -3   17.40    2.00
 -10   3   3   26.40    3.00
 -10   3   3   22.70    3.20
  -9  -3   3    6.80    2.20
   9  -3  -3    5.20    1.70
  -9   3   3    4.00    1.40
   9   3  -3    2.80    1.30
   8  -3  -3   92.99    5.40
  -8  -3   3   99.49    7.40
   8  -3  -3  105.29    5.50
  -8  -3   3  102.39    6.20
  -8   3   3  103.69    5.60
   8   3  -3  106.59    5.50
  -7  -3   3  224.38   12.20
  -7  -3   3  246.58   12.10
   7  -3  -3  243.48   11.60
   7  -3  -3  233.88   11.30
  -7  -3   3  235.68   11.50
   7  -3  -3  243.08   11.40
   7   3  -3  251.47   11.40
  -7   3   3  232.38   11.50
   6  -3  -3    0.80    1.10
   6  -3  -3    0.30    1.00
  -6  -3   3    3.80    1.60
  -6  -3   3    0.30    1.60
  -6  -3   3   -1.30    1.30
   6  -3  -3    1.20    0.80
   6   3  -3    0.40    1.00
   6   3  -3    0.00    0.70
  -6   3   3    0.20    0.70
  -5  -3   3  175.78    8.70
  -5  -3   3  166.48    8.40
   5  -3  -3  181.28    8.20
   5  -3  -3  176.18    8.20
   5  -3  -3  163.08    8.30
  -5  -3   3  158.68    8.70
   5   3  -3  174.38    8.10
  -5   3   3  172.38    8.20
   5   3  -3  166.08    8.00
  -4  -3   3  223.58   11.10
   4  -3  -3  229.08   10.70
   4  -3  -3  230.48   10.80
  -4  -3   3  238.08   11.10
  -4  -3   3  220.18   11.10
  -4   3   3  214.98   10.70
  -4   3   3  254.57   11.20
   3  -3  -3   64.09    3.30
  -3  -3   3   63.19    3.60
   3  -3  -3   63.89    3.30
   3  -3  -3   64.59    3.20
  -3  -3   3   63.29    3.70
  -3   3   3   63.49    3.60
  -3   3   3   60.49    3.20
   3   3  -3   64.69    3.10
   2  -3  -3  235.18   10.70
  -2  -3   3  225.18   10.70
  -2  -3   3  209.08   10.80
   2  -3  -3  234.08   10.60
   2  -3  -3  232.88   10.70
  -2  -3   3  253.17   11.00
   2  -3  -3  239.28   10.60
   2  -3  -3  195.08   11.20
   2   3  -3  254.67   11.10
  -2   3   3  234.18   11.10
   2   3  -3  220.98   10.50
   1  -3  -3 1207.88   53.69
  -1  -3   3 1198.18   53.49
  -1  -3   3 1158.08   53.49
  -1  -3   3 1159.58   53.59
  -1  -3   3 1126.79   53.49
   1  -3  -3 1145.79   53.59
  -1  -3   3 1215.08   53.59
  -1   3   3 1145.39   53.89
   1   3  -3 1277.67   53.59
   0  -3  -3  129.39    6.40
   0  -3   3  131.29    6.20
   0  -3  -3  127.69    6.30
   0  -3   3  126.09    6.40
   0  -3   3  135.89    6.20
   0   3   3  131.19    6.20
   0   3   3  134.49    6.80
   1  -3   3  147.49    7.00
   1  -3   3  146.09    7.20
  -1  -3  -3  145.79    7.20
  -1  -3  -3  142.69    7.10
   1   3   3  157.38    7.70
   2  -3   3    0.70    0.60
   2  -3   3    1.60    0.70
  -2  -3  -3    1.80    1.00
  -2  -3  -3   -0.30    0.60
   2   3   3    1.00    0.60
  -2   3  -3    0.70    0.50
   3  -3   3    4.50    0.80
   3  -3   3    4.00    0.80
   3  -3   3    5.00    0.80
  -3  -3  -3    3.90    0.90
   3  -3   3    2.90    1.20
   3  -3   3    4.00    0.90
  -3  -3  -3    3.70    1.30
   3   3   3    4.10    1.00
  -3   3  -3    3.70    0.70
   4  -3   3   31.70    2.30
  -4  -3  -3   29.60    3.10
   4  -3   3   29.80    2.10
   4  -3   3   31.20    2.10
   4  -3   3   30.70    2.20
   4  -3   3   25.30    2.40
  -4  -3  -3   27.70    2.20
   4   3   3   29.40    2.00
   4   3   3   28.50    2.30
  -4   3  -3   29.20    2.00
   5  -3   3    1.30    0.70
   5  -3   3    1.70    1.00
  -5  -3  -3    2.10    2.10
  -5  -3  -3    3.00    1.10
   5  -3   3    0.60    1.60
   5  -3   3    0.70    0.80
   5  -3   3    1.50    0.90
  -5   3  -3    3.20    1.00
   5   3   3    1.80    1.00
   5   3   3    1.90    1.20
   6  -3   3  322.37   16.20
   6  -3   3  337.37   16.10
   6  -3   3  341.07   16.20
  -6  -3  -3  328.07   16.20
  -6  -3  -3  368.86   17.50
   6  -3   3  343.47   16.00
   6   3   3  338.87   15.90
  -6   3  -3  351.26   16.20
   6   3   3  352.06   16.40
   7  -3   3   28.50    2.70
   7  -3   3   25.00    2.30
   7  -3   3   26.00    2.60
   7  -3   3   23.90    2.70
  -7   3  -3   28.00    3.20
   7   3   3   27.00    2.50
   7   3   3   23.30    2.70
   8  -3   3   16.00    2.00
   8  -3   3   10.80    1.70
   8  -3   3   16.90    1.80
  -8   3  -3   18.50    2.50
   8   3   3   15.20    2.00
   8   3   3   16.70    1.80
   9  -3   3    6.60    1.20
   9  -3   3    5.70    2.00
   9   3   3    5.60    1.70
  -9   3  -3    9.80    3.50
  10  -4  -3  175.88    8.80
 -10  -4   3  175.88    9.30
  10   4  -3  177.08    8.90
 -10   4   3  176.68    9.10
  -9  -4   3    3.50    2.00
   9  -4  -3    1.70    1.50
   9   4  -3    1.10    1.30
  -9   4   3    0.30    1.40
  -8  -4   3   50.99    3.70
   8  -4  -3   52.69    3.50
  -8  -4   3   55.69    4.40
  -8   4   3   44.20    4.20
  -8   4   3   54.59    3.70
   8   4  -3   56.19    3.60
  -7  -4   3   21.90    2.80
   7  -4  -3   25.10    2.70
  -7  -4   3   22.50    2.60
   7  -4  -3   23.20    2.10
   7   4  -3   23.70    2.20
  -6  -4   3   77.69    4.90
  -6  -4   3   73.79    4.40
  -6  -4   3   66.99    5.10
   6  -4  -3   74.39    4.10
   6  -4  -3   77.49    4.30
   6   4  -3   79.49    4.10
  -6   4   3   72.49    4.20
  -5  -4   3  439.36   19.60
  -5  -4   3  407.26   20.10
   5  -4  -3  438.26   19.60
   5  -4  -3  405.56   19.40
  -5  -4   3  417.86   20.00
  -5  -4   3  382.26   19.60
   5   4  -3  458.95   19.50
  -5   4   3  418.96   19.50
   4  -4  -3  229.78   10.60
  -4  -4   3  193.88   11.20
  -4  -4   3  202.28   10.70
   4  -4  -3  231.08   10.60
  -4  -4   3  217.28   10.70
  -4  -4   3  230.38   11.00
  -4   4   3  232.38   10.60
   4   4  -3  243.78   10.60
  -4   4   3  238.38   11.00
  -3  -4   3  882.61   40.80
   3  -4  -3  874.21   40.60
  -3  -4   3  794.32   40.60
   3  -4  -3  881.51   40.50
  -3  -4   3  899.91   40.50
  -3  -4   3  865.31   40.90
   3  -4  -3  945.21   40.60
   3  -4  -3  896.91   40.50
   3  -4  -3  882.91   40.60
  -3   4   3  937.81   41.00
   3   4  -3  940.51   40.50
   2  -4  -3   -0.40    0.40
   2  -4  -3   -0.60    0.60
  -2  -4   3    0.30    0.80
   2  -4  -3    0.60    0.70
  -2  -4   3    0.70    0.70
  -2  -4   3    0.10    0.90
   2  -4  -3    0.00    0.80
  -2   4   3   -0.70    0.90
   2   4  -3    3.20    1.40
  -1  -4   3  300.67   14.00
  -1  -4   3  288.47   13.90
   1  -4  -3  299.97   13.60
  -1  -4   3  289.17   13.70
  -1  -4   3  296.37   13.80
  -1  -4   3  299.87   13.70
   1  -4  -3  297.57   13.80
   1  -4  -3  283.07   14.00
  -1   4   3  298.07   14.30
   1   4  -3  323.67   13.90
   0  -4   3  604.64   26.70
   0  -4   3  592.74   26.70
   0  -4  -3  573.24   26.60
   0  -4  -3  570.04   26.90
   0  -4  -3  584.84   26.80
   0   4   3  590.74   27.40
   0   4   3  578.44   26.70
  -1  -4  -3  456.15   21.10
  -1  -4  -3  419.06   21.00
   1  -4   3  452.65   21.10
   1  -4   3  479.65   21.00
   1  -4   3  475.05   20.90
   1   4   3  445.36   21.70
   1   4   3  463.45   20.90
  -2  -4  -3  519.45   24.90
   2  -4   3  525.45   24.90
   2  -4   3  574.64   25.00
  -2  -4  -3  536.85   25.00
  -2  -4  -3  527.25   24.90
   2  -4   3  538.15   24.90
   2  -4   3  539.75   24.80
  -2   4  -3  573.04   24.70
   2   4   3  539.05   24.90
  -3  -4  -3  373.26   17.70
   3  -4   3  385.26   17.50
   3  -4   3  364.16   17.70
   3  -4   3  376.66   17.60
   3  -4   3  374.96   17.60
  -3  -4  -3  365.16   17.60
   3   4   3  395.36   17.70
  -3   4  -3  390.26   17.40
  -4  -4  -3   45.00    3.70
   4  -4   3   41.50    2.90
   4  -4   3   42.90    3.00
  -4  -4  -3   44.00    3.00
   4  -4   3   48.30    2.70
   4  -4   3   41.70    2.80
   4  -4   3   43.10    2.90
   4   4   3   45.60    2.70
   4   4   3   41.50    3.00
  -4   4  -3   43.00    2.70
   5  -4   3   52.09    3.10
   5  -4   3   55.59    3.40
  -5  -4  -3   44.30    4.60
  -5  -4  -3   45.30    3.50
   5  -4   3   53.69    3.50
   5  -4   3   49.00    3.40
   5   4   3   48.50    3.50
   5   4   3   48.70    3.20
  -5   4  -3   52.09    3.20
  -6  -4  -3    3.90    1.90
   6  -4   3   -0.20    0.90
   6  -4   3    2.00    1.20
   6  -4   3    1.10    1.30
   6  -4   3    0.80    1.20
  -6   4  -3   -0.80    1.20
   6   4   3    1.10    1.20
   6   4   3   -1.50    1.20
   7  -4   3   38.10    3.10
   7  -4   3   34.20    3.10
   7  -4   3   35.80    2.90
  -7  -4  -3   38.10    3.00
   7  -4   3   33.00    2.90
  -7   4  -3   36.60    3.50
   7   4   3   38.10    3.40
   8  -4   3   70.99    5.10
   8  -4   3   61.19    4.10
   8  -4   3   61.99    3.90
   8  -4   3   55.69    3.80
   8   4   3   47.60    5.20
  -8   4  -3   61.39    5.10
   9  -4   3   44.80    3.00
   9  -4   3   46.80    3.90
   9   4   3   42.50    3.70
   9  -5  -3   30.90    3.40
   9  -5  -3   35.30    3.10
  -9  -5   3   28.40    4.10
  -9  -5   3   39.50    3.40
   9   5  -3   39.70    3.30
  -9   5   3   41.20    3.20
  -8  -5   3   89.29    5.90
   8  -5  -3   80.89    5.50
  -8  -5   3   87.89    5.00
   8   5  -3   90.59    5.10
  -8   5   3   89.39    5.00
   7  -5  -3    5.90    1.50
  -7  -5   3    4.30    1.40
   7  -5  -3    5.30    1.40
  -7  -5   3    7.20    2.30
   7   5  -3    5.10    1.40
  -7   5   3    4.90    1.30
   6  -5  -3    0.30    0.90
   6  -5  -3    2.10    2.40
  -6  -5   3   -1.70    1.60
  -6  -5   3    0.10    1.80
   6  -5  -3    0.80    1.10
  -6  -5   3    1.40    1.20
   6  -5  -3   -0.20    1.80
  -6   5   3    1.50    0.90
   6   5  -3    5.50    1.30
   5  -5  -3  391.56   18.10
   5  -5  -3  386.96   17.60
   5  -5  -3  382.56   17.80
  -5  -5   3  352.66   18.40
  -5  -5   3  366.66   17.80
   5  -5  -3  384.16   17.80
  -5  -5   3  384.16   17.90
  -5  -5   3  368.16   18.30
   5   5  -3  400.06   17.70
   4  -5  -3   26.70    2.00
   4  -5  -3   30.70    2.70
   4  -5  -3   28.40    2.20
  -4  -5   3   26.20    2.40
   4  -5  -3   30.20    2.30
  -4  -5   3   31.10    2.50
  -4  -5   3   30.60    3.20
  -4  -5   3   29.50    2.80
  -4   5   3   29.10    2.10
  -4   5   3   24.50    2.70
   4   5  -3   29.40    2.20
  -3  -5   3   89.99    4.80
   3  -5  -3   89.19    5.50
  -3  -5   3   86.59    4.60
  -3  -5   3   85.19    4.70
   3  -5  -3   93.59    4.70
   3  -5  -3   88.49    4.50
   3  -5  -3   90.49    4.60
   3  -5  -3   90.99    4.70
   3  -5  -3   91.59    4.90
  -3  -5   3   84.79    6.00
  -3  -5   3   90.09    5.10
   3   5  -3   95.79    4.60
  -3   5   3   89.69    5.10
  -2  -5   3  583.04   26.40
  -2  -5   3  540.35   26.10
   2  -5  -3  604.04   26.40
  -2  -5   3  547.95   26.00
   2  -5  -3  599.54   26.20
  -2  -5   3  566.34   26.50
   2  -5  -3  583.24   26.00
   2  -5  -3  544.15   26.30
  -2  -5   3  555.74   26.20
   2  -5  -3  589.14   26.10
  -2  -5   3  558.94   26.00
  -2   5   3  560.94   26.60
  -1  -5   3    0.20    0.90
   1  -5  -3    1.60    1.40
  -1  -5   3   -3.60    1.80
   1  -5  -3    0.60    1.20
  -1  -5   3   -1.20    1.20
  -1  -5   3   -0.50    0.70
  -1  -5   3   -0.40    1.00
  -1  -5   3    0.00    1.00
   1  -5  -3    0.70    0.60
  -1  -5   3   -0.20    0.70
  -1  -5   3    1.00    0.80
   1  -5  -3    0.50    0.70
  -1   5   3    1.00    1.30
   0  -5  -3  239.58   11.20
   0  -5   3  248.88   11.10
   0  -5  -3  230.58   11.00
   0  -5  -3  229.68   11.30
   0  -5   3  244.48   11.40
   0  -5   3  229.08   11.20
   0  -5  -3  223.58   11.20
   0  -5   3  248.28   11.30
   0  -5   3  237.68   11.10
   0  -5   3  248.68   11.20
   0   5   3  236.28   11.10
   0   5   3  220.08   11.80
   1  -5   3  180.88    8.80
  -1  -5  -3  189.78    8.90
  -1  -5  -3  183.78    9.00
  -1  -5  -3  190.98    9.00
   1  -5   3  164.48    8.70
   1  -5   3  187.58    9.10
   1  -5   3  179.28    8.80
   1  -5   3  187.18    8.90
   1   5   3  189.28    8.80
   1   5   3  184.68    9.70
  -2  -5  -3  110.29    5.90
   2  -5   3  118.39    5.90
   2  -5   3  112.39    6.10
   2  -5   3  114.49    5.70
   2  -5   3  117.49    5.80
   2  -5   3  111.49    5.70
  -2  -5  -3  113.19    5.80
  -2  -5  -3  117.59    6.10
   2   5   3  110.59    5.70
   2   5   3  113.79    7.00
  -2   5  -3  112.99    5.60
  -3  -5  -3   45.10    3.10
   3  -5   3   48.20    3.00
   3  -5   3   47.70    3.00
  -3  -5  -3   49.30    3.60
   3  -5   3   50.29    3.20
   3  -5   3   39.70    3.10
  -3   5  -3   46.70    2.80
   3   5   3   51.49    5.00
   3   5   3   49.00    3.10
  -4  -5  -3  199.28   10.60
   4  -5   3  220.28   11.30
   4  -5   3  199.78   10.10
   4  -5   3  203.68   10.00
   4  -5   3  214.88   10.20
  -4  -5  -3  209.38   10.40
   4   5   3  208.98    9.80
   4   5   3  202.28   10.20
  -4   5  -3  206.58    9.90
   5  -5   3    3.80    1.30
   5  -5   3    1.50    1.10
  -5  -5  -3    9.40    2.90
  -5  -5  -3    5.30    1.80
   5  -5   3    6.50    1.40
   5  -5   3    4.40    1.40
   5   5   3    5.20    1.40
   5   5   3    4.50    1.50
  -5   5  -3    6.00    1.30
   6  -5   3  196.08    9.50
   6  -5   3  194.18    9.70
   6  -5   3  195.08    9.50
   6  -5   3  188.48    9.70
  -6   5  -3  189.28    9.60
   6   5   3  194.88    9.90
   7  -5   3   32.70    3.30
   7  -5   3   40.00    3.20
   7  -5   3   36.10    3.20
   7  -5   3   37.90    3.00
   7   5   3   40.90    3.50
  -7   5  -3   35.50    3.90
   8  -5   3   23.70    2.80
   8  -5   3   27.70    3.00
   8  -5   3   25.50    2.50
   8  -5   3   18.90    2.30
   8   5   3   20.90    2.40
  -9  -6   3    2.50    1.50
  -9  -6   3    4.00    2.30
   9  -6  -3    2.50    1.90
  -9   6   3    2.70    1.60
   9   6  -3    2.90    2.70
  -8  -6   3   16.20    2.60
  -8  -6   3   18.50    2.30
   8  -6  -3   16.10    2.30
   8  -6  -3   22.30    2.60
  -8  -6   3   19.30    2.30
   8  -6  -3   21.60    2.30
  -8   6   3   17.70    2.30
   8   6  -3   20.70    2.40
   7  -6  -3  250.17   12.20
  -7  -6   3  260.17   12.30
  -7  -6   3  252.87   13.00
   7  -6  -3  239.48   12.30
   7   6  -3  258.37   12.30
  -7   6   3  251.67   12.20
   6  -6  -3   91.09    5.40
  -6  -6   3   98.89    5.40
   6  -6  -3   91.79    5.10
  -6  -6   3   92.79    6.10
   6   6  -3   97.59    5.30
  -6   6   3   94.79    5.20
  -5  -6   3  926.11   40.30
  -5  -6   3  840.02   40.90
  -5  -6   3  870.21   40.20
   5  -6  -3  851.21   40.60
  -5  -6   3  917.61   40.90
   5  -6  -3  904.21   40.10
   5  -6  -3  859.91   40.20
   5  -6  -3  840.32   40.20
   5   6  -3  875.91   40.20
  -5   6   3  880.31   40.20
  -4  -6   3  847.42   37.30
  -4  -6   3  798.22   37.20
   4  -6  -3  800.22   37.50
   4  -6  -3  811.02   37.20
  -4  -6   3  804.52   37.70
   4  -6  -3  800.02   37.00
  -4  -6   3  769.92   37.80
   4   6  -3  820.12   37.10
  -4   6   3  847.32   37.20
   3  -6  -3  267.97   12.40
   3  -6  -3  252.27   12.20
  -3  -6   3  236.68   13.10
   3  -6  -3  275.27   12.80
  -3  -6   3  279.97   13.20
   3  -6  -3  258.17   12.60
   3  -6  -3  262.97   12.50
  -3  -6   3  266.57   12.90
  -3   6   3  261.37   13.10
  -2  -6   3  338.47   16.00
   2  -6  -3  360.86   16.10
  -2  -6   3  313.27   16.60
  -2  -6   3  346.57   16.40
   2  -6  -3  327.87   15.80
  -2  -6   3  358.36   16.10
  -2  -6   3  333.87   15.90
   2  -6  -3  363.56   16.20
  -2   6   3  339.27   16.60
  -1  -6   3    0.90    2.40
  -1  -6   3    2.10    1.00
  -1  -6   3   -0.20    1.30
  -1  -6   3    1.20    1.20
  -1  -6   3    0.30    0.90
  -1  -6   3   -0.80    1.00
   1  -6  -3    2.00    1.30
  -1  -6   3    0.50    0.90
   1  -6  -3    0.70    0.90
  -1  -6   3   -1.00    1.40
   1  -6  -3    1.40    1.30
  -1   6   3    0.50    1.80
   0  -6   3   52.69    3.50
   0  -6  -3   56.09    3.20
   0  -6   3   54.59    3.10
   0  -6  -3   55.39    3.60
   0  -6  -3   53.69    3.30
   0  -6   3   48.80    3.10
   0  -6   3   54.19    3.60
   0  -6   3   49.50    3.20
   0  -6   3   50.79    3.20
   0  -6   3   48.60    3.50
  -1  -6  -3  279.87   13.10
  -1  -6  -3  278.77   13.30
   1  -6   3  275.47   12.90
   1  -6   3  266.57   12.90
   1  -6   3  276.57   13.00
   1  -6   3  284.17   13.10
   1  -6   3  277.67   13.30
  -1  -6  -3  292.67   13.10
   1  -6   3  265.07   13.30
   1   6   3  260.47   14.10
   1   6   3  260.17   12.90
  -2  -6  -3  917.21   40.20
   2  -6   3  868.41   40.20
   2  -6   3  899.61   40.20
   2  -6   3  901.71   40.10
  -2  -6  -3  881.91   40.40
   2  -6   3  796.82   40.00
   2   6   3  858.31   40.10
  -2   6  -3  889.21   40.00
   3  -6   3  859.51   41.10
   3  -6   3  856.31   40.90
  -3  -6  -3  888.61   41.10
  -3  -6  -3  922.31   41.40
   3  -6   3  934.41   41.10
   3  -6   3  852.81   41.30
  -3   6  -3  958.10   41.00
   3   6   3  923.41   41.10
   3   6   3  871.11   43.00
   4  -6   3  349.67   17.50
  -4  -6  -3  360.46   17.60
   4  -6   3  372.26   17.70
   4  -6   3  394.66   17.70
  -4  -6  -3  366.56   18.10
   4  -6   3  373.76   17.60
   4   6   3  379.06   17.70
  -4   6  -3  383.36   17.40
   5  -6   3  321.07   15.40
  -5  -6  -3  284.17   15.90
   5  -6   3  314.77   15.20
   5  -6   3  343.07   15.30
   5  -6   3  339.47   15.40
  -5   6  -3  331.57   15.20
   5   6   3  304.87   15.50
   6  -6   3    0.30    1.30
   6  -6   3    0.20    1.50
   6  -6   3    0.20    1.30
   6  -6   3    2.50    1.20
   6   6   3    0.10    1.70
  -6   6  -3    2.70    1.70
   7  -6   3   88.79    5.10
   7  -6   3   96.99    5.60
   7  -6   3   95.89    5.30
   7  -6   3   91.39    5.50
  -7  -6  -3   92.19    5.10
  -7   6  -3  105.29    6.30
   7   6   3   99.19    5.90
   8  -6   3  176.48    8.70
   8  -6   3  157.88    8.60
  -8  -6  -3  168.98    8.30
   8   6   3  167.68    9.00
  -8  -7   3  136.29    7.10
   8  -7  -3  132.69    8.00
   8  -7  -3  128.49    7.70
  -8  -7   3  151.98    7.90
  -8   7   3  140.09    7.20
  -7  -7   3   10.90    1.70
   7  -7  -3   15.90    2.20
  -7  -7   3   14.50    2.60
   7  -7  -3   13.70    2.70
  -7   7   3   10.20    1.70
   6  -7  -3    2.70    1.40
  -6  -7   3    3.80    2.20
   6  -7  -3    3.00    2.90
   6  -7  -3    3.30    1.80
  -6  -7   3    4.20    1.30
  -6   7   3    4.80    1.30
   5  -7  -3   13.00    1.90
   5  -7  -3   13.30    3.60
  -5  -7   3   12.30    1.80
  -5  -7   3   17.00    2.50
  -5  -7   3   18.20    2.80
   5  -7  -3   18.80    2.80
   5  -7  -3   12.70    2.10
  -5   7   3   17.60    2.00
  -4  -7   3   55.99    4.50
  -4  -7   3   51.79    5.10
   4  -7  -3   60.89    5.10
  -4  -7   3   62.49    3.80
   4  -7  -3   60.29    4.50
   4  -7  -3   58.89    3.80
   4  -7  -3   58.99    4.20
  -4  -7   3   68.69    4.10
  -4   7   3   62.79    3.70
   3  -7  -3   17.30    2.20
  -3  -7   3   14.40    1.70
  -3  -7   3   14.40    1.90
  -3  -7   3   11.80    3.20
   3  -7  -3   16.10    1.90
  -3  -7   3   12.00    2.80
  -2  -7   3   94.19    6.90
  -2  -7   3  110.59    5.80
   2  -7  -3  105.59    5.70
  -2  -7   3  103.99    5.60
  -2  -7   3   99.09    5.70
   2  -7  -3  107.99    5.70
   2  -7  -3  113.19    5.90
  -2  -7   3  108.49    6.20
  -1  -7   3  170.68    9.30
   1  -7  -3  194.38    9.80
   1  -7  -3  192.38    9.00
  -1  -7   3  186.78    9.00
   1  -7  -3  185.08    9.00
  -1  -7   3  175.38    8.90
  -1  -7   3  177.48    8.90
  -1   7   3  165.58   10.20
   0  -7   3   18.80    1.90
   0  -7  -3   15.30    1.80
   0  -7   3   15.50    1.80
   0  -7   3   16.60    2.00
   0  -7   3   19.60    2.40
   0  -7  -3   18.50    2.20
   0  -7  -3   19.70    2.40
   0  -7   3   15.00    2.20
   0   7   3   23.20    4.00
   1  -7   3   53.59    3.60
  -1  -7  -3   57.29    4.10
   1  -7   3   55.99    4.10
  -1  -7  -3   53.99    3.60
   1  -7   3   55.99    3.50
  -1  -7  -3   58.39    3.70
   1  -7   3   53.69    4.10
   1  -7   3   52.69    4.60
   1  -7   3   58.59    3.60
   1   7   3   53.79    6.10
  -2  -7  -3  415.46   19.80
  -2  -7  -3  401.96   19.70
   2  -7   3  428.46   19.90
  -2  -7  -3  430.06   20.20
   2  -7   3  434.86   20.20
   2  -7   3  407.86   19.70
   2  -7   3  409.96   19.80
   2  -7   3  434.86   19.80
  -2   7  -3  428.66   19.60
  -3  -7  -3  150.48    8.20
   3  -7   3  166.98    8.30
   3  -7   3  163.98    8.20
  -3  -7  -3  158.18    8.80
   3  -7   3  166.28    8.80
   3  -7   3  157.88    8.10
   3  -7   3  157.58    8.30
  -3   7  -3  167.28    8.00
   3   7   3  152.78    8.20
   4  -7   3    6.20    1.60
   4  -7   3    5.70    1.50
   4  -7   3    7.10    1.40
  -4  -7  -3    4.20    2.80
  -4   7  -3    8.00    1.60
   4   7   3    5.20    1.90
   5  -7   3  115.19    6.00
   5  -7   3  116.39    6.30
   5  -7   3  110.49    7.40
   5  -7   3  104.99    6.60
   5  -7   3  112.99    6.20
  -5   7  -3  108.19    6.10
   5   7   3  104.89    6.50
   6  -7   3    4.10    1.40
  -6  -7  -3    2.90    1.30
   6  -7   3    1.40    1.70
   6  -7   3    3.60    1.80
  -6   7  -3    0.10    2.20
   6   7   3   -0.40    2.40
   7  -7   3    9.00    1.70
   7  -7   3   15.00    1.70
  -7  -7  -3    8.90    1.40
   7  -7   3    6.80    2.00
   7   7   3    7.40    3.40
  -7  -8   3    0.00    1.20
  -7  -8   3   -0.90    2.30
   7  -8  -3    3.80    1.90
  -7   8   3   -0.30    1.40
  -6  -8   3  242.88   12.30
  -6  -8   3  226.28   12.90
  -6   8   3  288.37   12.80
  -5  -8   3    3.30    2.40
  -5  -8   3    3.50    1.40
   5  -8  -3    3.20    1.40
  -5   8   3    6.20    1.40
  -4  -8   3    1.40    1.20
   4  -8  -3    2.70    1.90
  -4  -8   3    5.00    1.60
  -4  -8   3    2.60    2.20
   4  -8  -3    0.60    1.20
  -4   8   3    1.80    1.10
  -3  -8   3   -0.80    1.00
   3  -8  -3    2.10    1.70
   3  -8  -3    3.50    1.50
  -3  -8   3    0.30    1.30
  -3  -8   3    3.10    1.70
  -3   8   3    0.10    1.00
   2  -8  -3  580.04   27.80
  -2  -8   3  597.34   27.70
   2  -8  -3  595.84   27.80
  -2  -8   3  600.24   28.20
  -2  -8   3  611.84   27.80
  -1  -8   3  746.13   35.60
   1  -8  -3  780.32   35.20
   1  -8  -3  800.32   35.20
  -1  -8   3  727.53   35.10
  -1  -8   3  776.62   35.20
  -1  -8   3  759.02   35.10
   1  -8  -3  749.42   35.20
   0  -8  -3   76.19    4.70
   0  -8   3   72.99    4.70
   0  -8  -3   80.59    4.80
   0  -8  -3   77.79    4.60
   0  -8   3   74.19    4.80
   0  -8  -3   78.09    5.20
   0  -8   3   77.69    5.10
   0  -8   3   74.79    4.50
   1  -8   3   83.29    5.80
  -1  -8  -3   91.69    5.30
   1  -8   3   89.89    5.20
   1  -8   3   82.09    5.10
   1  -8   3   85.69    5.60
  -1  -8  -3   88.09    5.30
   1  -8   3   92.49    5.10
  -1  -8  -3   88.29    5.20
  -1  -8  -3   93.79    5.80
   2  -8   3   20.20    2.40
  -2  -8  -3   20.40    2.50
  -2  -8  -3   19.10    2.90
   2  -8   3   16.50    2.10
   2  -8   3   15.00    2.30
  -2   8  -3   18.50    2.40
   3  -8   3  138.89    7.70
   3  -8   3  143.89    7.70
  -3  -8  -3  145.19    8.60
   3  -8   3  146.09    8.50
   3  -8   3  135.79    7.60
   3  -8   3  143.19    7.50
  -3   8  -3  150.18    7.40
   4  -8   3   45.50    3.40
  -4  -8  -3   32.70    5.10
   4  -8   3   37.30    4.10
   4  -8   3   36.70    5.10
   4  -8   3   34.10    3.70
   4  -8   3   41.80    4.10
  -4   8  -3   37.10    3.50
   5  -8   3  576.44   28.80
   5  -8   3  649.04   28.70
  -5  -8  -3  657.23   28.80
   5  -8   3  597.84   29.20
   6  -8   3   63.59    3.80
   6  -8   3   53.29    4.80
  -6  -8  -3   62.79    3.70
   6  -8   3   60.69    4.10
  -6  -9   3   -2.00    1.20
  -6  -9   3   -2.10    2.20
   6  -9  -3   -3.50    1.70
  -6   9   3   -0.10    1.30
   5  -9  -3   -0.40    1.50
  -5  -9   3    1.00    2.30
  -5  -9   3   -1.10    1.50
  -5   9   3    0.20    1.30
  -4  -9   3   43.40    3.50
   4  -9  -3   35.70    3.70
   4  -9  -3   42.00    3.40
  -4  -9   3   41.90    4.00
  -4  -9   3   40.40    3.70
  -4   9   3   51.69    3.60
   3  -9  -3  315.17   15.40
  -3  -9   3  345.97   16.20
  -3  -9   3  320.87   15.90
  -3  -9   3  273.67   16.00
   3  -9  -3  335.87   15.50
  -3   9   3  328.77   15.30
   2  -9  -3    7.80    1.80
  -2  -9   3    5.50    1.60
   2  -9  -3    7.40    1.80
  -2  -9   3    4.50    1.70
  -2  -9   3    5.70    1.90
  -1  -9   3   64.59    4.20
   1  -9  -3   69.29    4.40
  -1  -9   3   60.49    5.00
   1  -9  -3   73.39    4.50
  -1  -9   3   66.39    4.90
  -1  -9   3   67.19    4.40
   0  -9  -3    2.10    1.60
   0  -9  -3   -0.20    1.60
   0  -9   3    4.50    2.00
   0  -9   3    2.50    1.50
   0  -9   3    2.20    1.90
   0  -9  -3    1.30    1.50
   1  -9   3    0.40    1.70
  -1  -9  -3    1.30    1.60
  -1  -9  -3    2.90    1.60
  -1  -9  -3    0.90    1.50
   1  -9   3    3.20    1.70
  -1   9  -3    0.20    1.40
   2  -9   3    4.30    2.90
  -2  -9  -3   -1.30    2.80
  -2  -9  -3    5.20    1.90
   2  -9   3    7.10    1.90
   2  -9   3    7.60    2.20
  -2   9  -3    8.40    1.90
  -3  -9  -3    5.10    2.10
   3  -9   3   -1.60    3.40
   3  -9   3    5.00    2.50
   3  -9   3   -3.20    2.20
   3  -9   3   -1.30    1.50
  -3  -9  -3    1.90    1.60
  -3   9  -3    0.00    1.90
   4  -9   3  262.97   13.10
  -4  -9  -3  278.57   13.00
   4  -9   3  265.27   13.00
  -5  -9  -3    0.40    1.00
   5  -9   3   -2.40    1.30
   5  -9   3   -0.70    1.60
  -4 -10   3   18.00    2.60
   4 -10  -3   27.40    3.00
  -4 -10   3   29.20    2.60
  -4  10   3   28.50    2.70
   3 -10  -3   52.89    4.30
  -3 -10   3   52.79    4.40
  -3 -10   3   58.79    3.70
   3 -10  -3   48.80    3.90
  -3 -10   3   57.09    3.80
  -3  10   3   57.19    3.60
   2 -10  -3  196.48    9.90
  -2 -10   3  192.08    9.80
  -2 -10   3  198.68    9.70
   2 -10  -3  183.88    9.90
  -2 -10   3  230.18   11.10
  -2  10   3  187.28    9.60
   1 -10  -3    0.10    1.70
  -1 -10   3    0.00    1.90
  -1 -10   3    5.90    1.80
   1 -10  -3    0.90    1.70
  -1 -10   3    3.30    1.60
   0 -10  -3   49.10    3.70
   0 -10  -3   37.40    3.60
   0 -10   3   45.10    3.50
   0  10  -3   43.90    3.90
   1 -10   3  209.98   11.10
  -1 -10  -3  218.28   10.60
  -1 -10  -3  212.78   10.90
   1 -10   3  230.98   10.80
  -2 -10  -3   32.30    4.30
  -2 -10  -3   30.90    2.70
   2 -10   3   32.00    3.00
   2 -10   3   35.30    3.80
  -3 -10  -3   14.30    2.10
   3 -10   3    9.50    2.20
   3 -10   3   15.40    1.90
 -11   0   4  494.45   22.00
 -11   0   4  451.65   22.20
  10   0  -4  121.09    7.20
 -10   0   4  137.49    7.60
 -10   0   4  117.29    6.80
  10   0  -4  100.59    6.50
  -9   0   4  316.37   16.00
   9   0  -4  339.77   15.70
  -9   0   4  344.57   16.30
   9   0  -4  331.67   15.70
   8   0  -4   43.20    2.80
   8   0  -4   41.20    2.80
  -8   0   4   40.00    3.10
  -8   0   4   45.40    3.70
  -7   0   4  643.14   28.70
   7   0  -4  662.53   28.50
  -7   0   4  556.84   29.00
  -6   0   4  523.65   25.50
   6   0  -4  563.14   25.10
  -6   0   4  557.24   25.30
  -5   0   4 1962.50   91.99
  -5   0   4 1935.81   92.09
   5   0  -4 2197.48   91.89
  -4   0   4 6010.40  271.27
  -3   0   4 3169.18  139.29
   3   0  -4 3076.79  139.19
   3   0  -4 3014.60  139.89
  -2   0   4 1000.10   46.50
   2   0  -4  978.70   46.50
  -2   0   4 1069.59   46.60
   2   0  -4  972.40   46.90
  -2   0   4 1110.99   46.80
   1   0  -4 1349.16   61.69
  -1   0   4 1357.96   61.59
   1   0  -4 1305.17   61.39
  -1   0   4 1408.16   61.39
   0   0   4 4296.47  236.08
   0   0  -4 5057.59  237.78
   1   0   4  117.69    5.40
   1   0   4  106.19    5.30
   1   0   4  108.19    5.50
   1   0   4  107.69    5.20
  -2   0  -4 3333.07  140.89
   2   0   4 3022.80  140.99
   2   0   4 3003.50  140.99
   3   0   4  245.58   12.00
   3   0   4  263.17   12.10
  -3   0  -4  241.68   12.10
   3   0   4  261.17   12.20
   3   0   4  266.87   12.30
   3   0   4  265.07   12.10
  -4   0  -4   55.69    3.30
   4   0   4   52.39    2.90
   4   0   4   53.29    3.10
   4   0   4   55.19    3.30
   4   0   4   51.89    3.00
   5   0   4  119.59    6.00
   5   0   4  110.29    6.10
   5   0   4  121.59    5.80
  -5   0  -4  122.09    6.30
   6   0   4  203.28   10.00
  -6   0  -4  201.48   10.20
   6   0   4  196.58    9.90
   6   0   4  207.78    9.70
   7   0   4  855.11   37.00
  -7   0  -4  798.72   37.40
   7   0   4  787.52   37.30
   7   0   4  794.22   37.20
   8   0   4   12.30    2.00
   8   0   4   12.40    1.40
  -8   0  -4   14.40    2.40
   9   0   4  245.98   11.20
   9   0   4  219.98   11.80
   9   0   4  239.48   11.20
 -11  -1   4  464.55   22.30
  11   1  -4  474.35   22.30
 -11   1   4  437.06   22.50
 -11   1   4  473.15   22.30
 -11   1   4  514.25   22.00
 -10  -1   4   13.00    2.20
  10  -1  -4   12.40    1.90
  10  -1  -4   16.80    2.00
 -10   1   4   15.60    2.30
 -10   1   4   15.30    2.40
  10   1  -4   18.30    2.70
   9  -1  -4   12.70    1.60
  -9  -1   4   16.90    2.50
  -9  -1   4   14.30    2.10
   9  -1  -4   13.90    1.60
   9   1  -4   16.00    1.80
  -9   1   4   15.40    2.40
  -9   1   4   19.80    2.20
   9   1  -4   13.90    1.90
  -8  -1   4  104.19    6.00
   8  -1  -4  100.19    5.30
   8  -1  -4  103.79    5.30
  -8  -1   4  101.19    5.70
  -8  -1   4   84.19    6.30
  -8   1   4   99.89    5.50
   8   1  -4  104.29    5.30
   8   1  -4  103.99    5.30
  -7  -1   4    7.40    1.80
   7  -1  -4    7.50    1.10
  -7  -1   4    5.30    1.30
  -7  -1   4    4.40    1.90
   7   1  -4    7.10    1.10
   7   1  -4    8.80    1.40
  -7   1   4    7.70    1.50
  -6  -1   4 1515.45   70.49
  -6  -1   4 1629.14   70.59
   6  -1  -4 1577.14   70.09
  -6  -1   4 1563.44   70.29
  -6   1   4 1396.26   70.39
   6   1  -4 1540.15   70.09
  -6   1   4 1601.64   70.19
  -5  -1   4  134.99    6.70
   5  -1  -4  138.59    6.60
  -5  -1   4  142.39    7.00
  -5   1   4  128.89    7.10
  -5   1   4  137.69    6.60
   5   1  -4  139.29    6.50
  -4  -1   4 1081.29   49.20
   4  -1  -4 1030.80   48.90
  -4  -1   4 1060.29   49.00
   4  -1  -4 1064.69   49.00
  -4   1   4 1042.30   49.00
  -4   1   4 1188.68   49.50
   4   1  -4 1091.09   48.90
  -3  -1   4 1204.28   55.09
  -3  -1   4 1284.87   55.19
   3  -1  -4 1261.27   55.09
  -3  -1   4 1233.58   55.29
   3  -1  -4 1174.98   54.99
   3   1  -4 1209.28   54.99
  -3   1   4 1155.48   54.99
  -3   1   4 1239.18   55.49
   3   1  -4 1181.78   55.59
  -2  -1   4  561.04   26.80
   2  -1  -4  553.04   27.20
  -2  -1   4  677.63   27.00
  -2  -1   4  603.94   26.80
   2  -1  -4  559.84   26.80
  -2   1   4  640.74   27.20
  -2   1   4  552.34   26.70
  -2   1   4  608.64   26.80
   2   1  -4  545.15   26.60
   2   1  -4  581.24   27.10
   1  -1  -4  760.12   37.50
  -1  -1   4  855.91   37.10
   1  -1  -4  830.92   37.10
  -1  -1   4  794.82   37.30
  -1   1   4  807.52   37.40
   1   1  -4  836.22   37.30
  -1   1   4  837.12   37.10
   0  -1   4   90.39    4.40
   0  -1  -4   88.79    4.50
   0  -1   4   97.99    4.50
   0  -1   4   89.29    4.50
   0   1   4   91.99    4.50
   0   1   4   92.69    4.80
   0   1   4   89.09    4.40
   1  -1   4 2735.73  124.39
   1  -1   4 2704.63  124.39
   1  -1   4 2753.62  124.49
   1   1   4 2661.03  124.49
   1   1   4 2924.01  124.39
   2  -1   4   89.09    4.10
   2  -1   4   80.89    4.30
   2  -1   4   86.49    4.20
   2  -1   4   81.39    4.10
   2   1   4   81.49    4.10
   2   1   4   79.09    4.00
  -2   1  -4   77.29    4.10
   3  -1   4  260.87   12.50
   3  -1   4  262.17   12.40
   3  -1   4  261.97   12.60
   3  -1   4  258.67   12.40
   3  -1   4  288.57   12.60
   3   1   4  257.67   12.50
  -3   1  -4  287.07   12.50
   3   1   4  270.47   12.60
   3   1   4  264.47   12.40
   3   1   4  259.47   12.30
   4  -1   4 2370.96  110.09
   4  -1   4 2463.05  110.09
   4  -1   4 2506.65  109.99
   4  -1   4 2651.63  110.29
  -4  -1  -4 2094.69  110.19
   4   1   4 2357.66  109.99
   4   1   4 2495.15  110.19
   4   1   4 2346.37  109.99
  -4   1  -4 2615.14  110.19
   5  -1   4  359.46   16.00
   5  -1   4  321.37   16.20
   5  -1   4  359.86   16.30
  -5  -1  -4  331.77   16.40
   5  -1   4  338.77   16.20
   5   1   4  355.16   16.00
  -5   1  -4  373.06   16.30
   5   1   4  338.17   16.30
   5   1   4  332.27   16.10
   6  -1   4   20.60    2.20
   6  -1   4   13.20    1.80
   6  -1   4   20.10    1.80
   6   1   4   21.60    2.30
   6   1   4   17.80    1.80
   6   1   4   22.30    2.80
  -6   1  -4   16.70    2.00
  -7  -1  -4   34.90    3.20
   7  -1   4   37.90    3.20
   7  -1   4   37.90    3.40
   7  -1   4   39.30    2.90
   7  -1   4   39.70    2.60
   7   1   4   41.00    2.60
   7   1   4   39.80    3.30
  -7   1  -4   35.80    3.80
   8  -1   4   31.60    2.50
  -8  -1  -4   31.50    3.90
   8  -1   4   35.50    3.50
   8  -1   4   29.50    3.60
   8  -1   4   34.10    2.90
   8   1   4   32.20    2.50
   8   1   4   33.50    3.10
   9  -1   4   18.20    1.70
   9  -1   4   18.00    1.90
   9   1   4   18.80    2.10
   9   1   4   17.80    1.80
   9   1   4   16.80    2.40
  10  -2  -4  138.69    7.90
  10  -2  -4  145.89    7.80
 -10  -2   4  156.98    8.30
 -10   2   4  158.18    8.20
  10   2  -4  160.48    7.80
 -10   2   4  149.49    8.00
   9  -2  -4  132.49    7.10
  -9  -2   4  144.79    7.90
   9  -2  -4  145.79    7.20
   9   2  -4  142.89    7.20
  -9   2   4  136.59    7.40
   8  -2  -4 1351.76   61.69
  -8  -2   4 1265.87   61.99
  -8  -2   4 1447.16   62.29
  -8  -2   4 1197.88   62.29
   8  -2  -4 1367.86   61.59
  -8   2   4 1414.16   61.89
   8   2  -4 1498.15   61.79
   8   2  -4 1303.57   61.59
   7  -2  -4  640.74   28.90
  -7  -2   4  693.73   29.60
  -7  -2   4  607.04   29.00
  -7  -2   4  636.14   29.40
  -7  -2   4  562.74   29.40
   7   2  -4  641.34   28.90
  -7   2   4  638.24   29.00
   7   2  -4  604.44   28.70
  -6  -2   4  266.77   13.60
  -6  -2   4  290.97   13.60
   6  -2  -4  285.67   13.40
  -6  -2   4  274.27   13.90
  -6  -2   4  292.07   13.80
   6   2  -4  287.77   13.20
  -6   2   4  293.87   13.40
  -5  -2   4   32.80    2.40
  -5  -2   4   39.90    2.90
   5  -2  -4   37.50    2.20
  -5  -2   4   36.70    2.70
  -5  -2   4   31.80    2.80
   5  -2  -4   34.40    2.30
   5   2  -4   32.60    2.00
  -5   2   4   34.70    2.20
  -4  -2   4   63.49    3.70
   4  -2  -4   60.39    3.40
   4  -2  -4   67.59    3.40
  -4  -2   4   67.99    3.80
  -4  -2   4   58.19    3.50
   4  -2  -4   62.19    3.30
  -4   2   4   69.49    3.40
  -4   2   4   76.59    4.00
   4   2  -4   66.39    3.30
  -3  -2   4  169.88    8.20
   3  -2  -4  163.38    7.80
   3  -2  -4  167.68    7.90
   3  -2  -4  165.48    7.90
   3  -2  -4  163.78    7.80
  -3  -2   4  169.08    8.00
  -3  -2   4  166.88    8.10
   3   2  -4  163.38    7.80
  -3   2   4  163.38    7.90
  -3   2   4  173.68    8.40
  -2  -2   4  659.23   33.00
  -2  -2   4  685.23   33.00
   2  -2  -4  770.92   32.90
   2  -2  -4  656.53   33.50
  -2  -2   4  764.92   32.80
  -2  -2   4  766.72   32.90
   2   2  -4  749.92   33.20
  -2   2   4  734.33   33.30
   1  -2  -4 9528.75  485.55
  -1   2   4 9911.11  488.55
   0  -2   4 1401.66   64.59
   0  -2  -4 1437.86   64.49
   0  -2   4 1391.96   64.49
   0   2   4 1359.16   64.39
   0   2   4 1483.75   64.99
   0   2   4 1477.85   64.49
   1  -2   4  988.90   45.90
   1  -2   4  951.10   46.00
   1  -2   4 1061.69   46.10
  -1  -2  -4 1072.59   46.10
   1  -2   4  992.90   46.00
   1   2   4 1071.09   46.60
   1   2   4  980.00   45.80
  -1   2  -4 1020.30   45.80
   1   2   4  983.30   46.00
   2  -2   4   40.00    2.40
   2  -2   4   35.30    2.00
   2  -2   4   40.10    2.20
   2  -2   4   37.70    2.20
  -2  -2  -4   38.80    2.30
   2  -2   4   35.00    2.30
   2   2   4   35.90    2.10
   2   2   4   41.60    2.30
  -2   2  -4   37.20    2.10
   3  -2   4   44.90    2.80
   3  -2   4   52.29    2.80
   3  -2   4   48.60    2.80
   3  -2   4   48.30    2.70
   3  -2   4   46.60    2.80
   3  -2   4   42.20    3.10
  -3  -2  -4   48.40    2.90
   3  -2   4   50.99    2.90
   3   2   4   47.10    2.90
  -3   2  -4   52.39    2.80
   3   2   4   52.59    3.10
   3   2   4   50.69    2.70
   4  -2   4   27.30    2.20
  -4  -2  -4   32.50    2.30
   4  -2   4   25.40    2.50
   4  -2   4   33.00    2.30
   4  -2   4   30.20    2.70
   4  -2   4   32.60    2.30
   4   2   4   32.20    2.10
  -4   2  -4   34.50    2.30
   4   2   4   30.80    3.30
   4   2   4   29.60    2.30
   5  -2   4  412.66   18.10
   5  -2   4  351.06   18.10
   5  -2   4  376.46   18.20
   5  -2   4  400.66   18.30
   5  -2   4  403.96   18.40
  -5  -2  -4  401.66   18.40
   5   2   4  366.16   18.30
  -5   2  -4  405.66   18.20
   5   2   4  393.26   18.00
  -6  -2  -4 1782.62   86.69
   6  -2   4 1875.11   86.49
   6  -2   4 1978.50   86.69
   6  -2   4 1854.61   86.69
   6  -2   4 1988.10   86.39
   6   2   4 1956.00   86.39
   6   2   4 1851.31   86.69
  -6   2  -4 1965.20   86.69
   7  -2   4  145.59    7.10
  -7  -2  -4  130.99    7.50
   7  -2   4  146.99    7.40
   7  -2   4  144.99    7.30
   7   2   4  153.78    7.10
   7   2   4  144.89    7.60
  -7   2  -4  132.19    7.70
   8  -2   4  157.18    8.50
   8  -2   4  157.58    7.50
   8  -2   4  142.39    7.40
   8   2   4  152.68    7.30
  -8   2  -4  134.69    9.40
   8   2   4  143.19    7.80
   9  -2   4  226.48   11.00
   9  -2   4  231.78   10.90
   9   2   4  254.27   11.70
   9   2   4  210.98   11.30
   9   2   4  226.88   10.90
 -10  -3   4  484.35   21.50
  10  -3  -4  423.56   21.00
 -10   3   4  442.06   21.10
 -10   3   4  454.15   20.90
 -10   3   4  434.06   21.80
  10   3  -4  457.35   21.00
  -9  -3   4   49.30    4.20
   9  -3  -4   55.39    3.70
   9   3  -4   53.09    3.50
  -9   3   4   48.20    3.80
  -9   3   4   44.50    3.60
   8  -3  -4  318.27   14.70
  -8  -3   4  273.37   15.40
   8  -3  -4  295.47   14.50
  -8  -3   4  299.77   14.80
  -8  -3   4  322.37   15.40
  -8   3   4  325.07   14.90
   8   3  -4  338.27   14.80
   7  -3  -4   26.80    3.20
  -7  -3   4   23.10    2.70
  -7  -3   4   23.60    3.80
   7  -3  -4   23.80    2.10
   7   3  -4   22.70    2.00
  -7   3   4   24.20    2.10
   6  -3  -4  390.36   17.70
  -6  -3   4  372.96   18.20
  -6  -3   4  357.16   18.20
  -6  -3   4  376.06   17.80
   6  -3  -4  391.86   17.70
   6   3  -4  366.96   17.50
   6   3  -4  394.16   17.60
  -6   3   4  383.46   17.70
   5  -3  -4 1557.04   70.79
  -5  -3   4 1479.25   71.19
  -5  -3   4 1633.04   71.19
  -5  -3   4 1554.04   70.89
   5  -3  -4 1613.44   70.79
   5   3  -4 1495.85   70.59
  -5   3   4 1591.24   70.79
  -4  -3   4 2953.70  132.09
   4  -3  -4 2947.41  131.69
   4  -3  -4 2877.51  131.69
  -4  -3   4 2819.72  131.89
   4  -3  -4 2956.90  131.59
  -4  -3   4 2892.81  131.99
   4  -3  -4 3004.00  131.79
   4  -3  -4 2913.41  131.79
   4   3  -4 2799.42  131.59
  -4   3   4 2887.31  131.69
  -4   3   4 3018.80  132.29
  -3  -3   4  881.81   39.80
  -3  -3   4  824.12   39.60
   3  -3  -4  900.51   39.50
   3  -3  -4  879.51   39.50
   3  -3  -4  893.11   39.60
  -3  -3   4  890.21   39.80
   3  -3  -4  889.81   39.60
   3   3  -4  836.22   39.40
  -3   3   4  882.71   40.10
  -3   3   4  832.42   39.50
  -2  -3   4 1401.76   64.69
  -2  -3   4 1534.55   64.79
  -2  -3   4 1413.16   64.59
   2  -3  -4 1401.66   64.59
   2  -3  -4 1378.06   64.49
  -2  -3   4 1467.55   64.69
  -2  -3   4 1302.27   64.59
  -2  -3   4 1429.56   64.49
  -2   3   4 1445.06   65.09
   2   3  -4 1486.85   64.89
   1  -3  -4 2099.69   90.49
  -1  -3   4 2011.50   90.49
  -1  -3   4 1998.10   90.39
  -1  -3   4 1903.41   90.39
  -1  -3   4 2015.10   90.49
  -1  -3   4 1928.41   90.59
  -1   3   4 1976.90   90.99
   1   3  -4 2058.59   90.59
   0  -3  -4 1138.79   49.30
   0  -3  -4 1053.19   49.20
   0  -3   4 1008.50   49.20
   0  -3   4 1124.89   49.20
   0  -3   4 1089.59   49.20
   0   3   4 1089.09   49.20
   0   3   4 1077.79   49.80
  -1  -3  -4 1317.17   60.19
   1  -3   4 1383.76   60.09
   1  -3   4 1302.07   60.19
   1  -3   4 1330.77   60.19
  -1  -3  -4 1276.87   60.09
   1   3   4 1331.27   60.09
   1   3   4 1349.56   60.89
  -1   3  -4 1319.07   59.99
  -2  -3  -4 1022.10   44.20
   2  -3   4  926.21   43.90
   2  -3   4 1016.20   44.20
  -2  -3  -4  916.81   44.00
   2  -3   4  901.61   44.00
   2  -3   4 1035.40   44.10
   2   3   4  966.60   44.10
  -2   3  -4  952.90   43.90
   2   3   4  927.31   44.10
   2   3   4 1019.20   45.00
   3  -3   4 4551.94  222.78
  -3  -3  -4 5031.50  222.98
   3  -3   4 5096.29  222.68
   3   3   4 5065.69  222.98
  -3   3  -4 4926.91  222.68
   4  -3   4  126.39    6.50
   4  -3   4  134.49    6.50
   4  -3   4  134.49    6.30
   4  -3   4  130.79    6.50
  -4  -3  -4  128.69    6.60
   4   3   4  113.19    6.60
  -4   3  -4  131.69    6.40
  -5  -3  -4  681.03   32.20
   5  -3   4  726.83   32.20
   5  -3   4  707.83   32.10
   5  -3   4  692.53   31.90
  -5   3  -4  718.73   32.00
   5   3   4  655.23   31.80
   6  -3   4    9.20    1.50
   6  -3   4   19.80    1.90
   6  -3   4   20.20    2.10
  -6  -3  -4   11.60    1.90
   6  -3   4   15.40    1.80
   6   3   4   10.50    1.80
  -6   3  -4   19.60    2.10
   6   3   4   14.40    1.50
  -7  -3  -4  207.08   11.40
   7  -3   4  226.28   10.90
   7  -3   4  230.08   11.20
   7  -3   4  223.18   11.20
   7  -3   4  221.18   10.90
   7   3   4  225.98   11.30
  -7   3  -4  221.58   11.40
   7   3   4  250.87   11.20
   8  -3   4  413.26   19.00
   8  -3   4  408.36   18.90
   8  -3   4  415.06   19.20
  -8   3  -4  375.26   20.70
   8   3   4  413.96   18.80
   9  -3   4  137.99    6.50
   9   3   4  120.29    7.00
 -10  -4   4  352.26   15.80
 -10  -4   4  334.17   16.20
  10  -4  -4  317.17   15.80
 -10   4   4  331.97   16.00
  10   4  -4  340.27   15.90
  -9  -4   4   37.20    4.00
   9  -4  -4   45.00    3.30
   9   4  -4   48.80    3.40
  -9   4   4   43.70    3.40
   8  -4  -4  736.03   33.60
  -8  -4   4  723.23   33.60
  -8  -4   4  760.62   34.20
  -8   4   4  720.33   33.70
   8   4  -4  722.93   33.60
  -8   4   4  716.13   33.70
   7  -4  -4  188.08    8.90
  -7  -4   4  185.38    9.00
   7  -4  -4  169.08    9.00
  -7  -4   4  156.68    9.60
  -7  -4   4  191.58    9.70
  -7   4   4  167.48    9.30
  -7   4   4  180.28    8.90
   7   4  -4  196.78    8.90
  -6  -4   4  326.87   15.60
   6  -4  -4  336.37   14.90
  -6  -4   4  301.37   15.60
  -6  -4   4  324.57   15.10
   6  -4  -4  316.37   15.00
  -6   4   4  308.57   15.30
  -6   4   4  325.87   15.00
   6   4  -4  301.87   15.20
  -5  -4   4  396.16   18.90
   5  -4  -4  408.66   18.90
   5  -4  -4  395.16   18.70
   5  -4  -4  406.86   18.70
  -5  -4   4  388.16   19.30
  -5  -4   4  413.86   19.30
  -5   4   4  416.66   18.80
   5   4  -4  407.86   18.70
   4  -4  -4  124.29    6.30
   4  -4  -4  120.99    6.00
  -4  -4   4  121.99    6.60
  -4  -4   4  126.39    6.40
   4  -4  -4  122.79    6.00
   4  -4  -4  121.09    6.20
  -4  -4   4  126.29    6.60
   4  -4  -4  119.79    6.10
  -4  -4   4  120.29    6.60
  -4   4   4  126.99    6.10
  -4   4   4  129.19    6.70
   4   4  -4  126.99    6.00
  -3  -4   4 3513.45  161.08
   3  -4  -4 3599.94  161.18
   3  -4  -4 3648.64  160.98
  -3  -4   4 3595.84  161.38
   3  -4  -4 3601.84  161.18
  -3  -4   4 3445.56  161.18
   3  -4  -4 3520.05  161.18
  -3  -4   4 3535.75  161.38
  -3   4   4 3637.24  161.68
   2  -4  -4  127.19    6.40
  -2  -4   4  134.79    6.30
  -2  -4   4  125.59    7.00
  -2  -4   4  128.59    6.60
  -2  -4   4  132.79    6.40
  -2  -4   4  134.29    6.40
  -2  -4   4  139.79    6.70
   2  -4  -4  134.89    6.30
  -2  -4   4  129.69    6.60
   2   4  -4  135.79    6.80
  -2   4   4  132.39    7.00
  -1  -4   4  408.16   19.20
  -1  -4   4  425.06   19.00
   1  -4  -4  419.46   18.90
  -1  -4   4  370.86   19.00
  -1  -4   4  446.06   19.30
  -1  -4   4  411.56   19.20
  -1  -4   4  408.26   19.00
   1  -4  -4  424.16   19.10
  -1   4   4  412.86   19.70
   0  -4   4 1084.29   48.90
   0  -4   4 1080.89   48.90
   0  -4  -4 1081.69   49.00
   0  -4   4 1114.49   49.10
   0  -4  -4 1056.89   49.00
   0  -4   4 1046.60   49.10
   0   4   4 1052.19   49.70
   0   4   4 1095.69   48.90
  -1  -4  -4 2694.63  118.59
   1  -4   4 2742.43  118.49
   1  -4   4 2488.65  118.39
   1  -4   4 2574.94  118.49
  -1  -4  -4 2626.94  118.49
   1  -4   4 2564.34  118.59
  -1  -4  -4 2611.14  118.49
   1   4   4 2626.04  118.49
   1   4   4 2664.93  119.39
  -1   4  -4 2595.54  118.29
   2  -4   4  356.06   17.60
   2  -4   4  380.76   17.80
  -2  -4  -4  375.86   17.80
   2  -4   4  378.36   17.70
   2  -4   4  361.56   17.50
  -2  -4  -4  399.66   17.80
   2   4   4  388.46   17.70
   2   4   4  396.36   18.80
  -2   4  -4  389.56   17.50
  -3  -4  -4    3.60    1.80
   3  -4   4    2.90    0.90
  -3  -4  -4    4.90    1.30
   3  -4   4    3.00    0.90
   3  -4   4    2.90    1.00
   3  -4   4    2.60    1.10
  -3   4  -4    4.40    0.90
   3   4   4    3.90    2.60
   3   4   4    2.10    1.00
   4  -4   4  994.60   44.60
   4  -4   4 1020.80   44.50
  -4  -4  -4  946.91   45.20
   4  -4   4  949.80   44.70
   4  -4   4  967.10   45.20
   4   4   4  944.61   44.70
  -4   4  -4  997.40   44.50
   4   4   4  982.40   44.30
   5  -4   4   39.60    2.80
   5  -4   4   35.10    2.80
   5  -4   4   35.10    2.40
  -5  -4  -4   30.00    3.00
   5  -4   4   33.40    2.70
   5   4   4   32.80    3.00
  -5   4  -4   29.00    2.70
   5   4   4   30.20    2.50
   6  -4   4  114.79    6.30
   6  -4   4  114.59    6.30
   6  -4   4  113.89    6.10
   6  -4   4  117.39    5.90
  -6  -4  -4  111.79    6.50
  -6   4  -4  115.39    6.40
   6   4   4  116.99    5.90
   6   4   4  112.09    6.50
   7  -4   4  688.93   30.40
   7  -4   4  670.43   30.10
   7  -4   4  645.84   30.30
   7  -4   4  621.34   30.20
   7   4   4  652.13   30.50
  -7   4  -4  635.24   30.40
   7   4   4  662.13   29.90
   8  -4   4  461.15   21.50
   8  -4   4  474.35   21.70
   8  -4   4  455.35   21.40
   8   4   4  461.35   21.80
  -9  -5   4  349.77   16.40
  -9  -5   4  343.27   16.30
   9  -5  -4  335.47   16.40
  -9  -5   4  357.96   17.00
  -9   5   4  352.16   16.50
   9   5  -4  338.17   16.40
  -8  -5   4    1.60    1.40
  -8  -5   4    4.40    2.10
   8   5  -4    2.90    1.30
  -8   5   4    0.10    1.10
   7  -5  -4  111.19    6.60
   7  -5  -4  123.59    6.30
  -7  -5   4  122.29    6.50
  -7  -5   4  104.89    7.20
  -7  -5   4  134.39    7.30
  -7   5   4  120.29    6.40
   7   5  -4  130.69    6.40
   6  -5  -4  321.57   15.10
   6  -5  -4  317.37   15.00
  -6  -5   4  300.27   15.80
  -6  -5   4  331.97   15.20
  -6  -5   4  307.27   15.70
   6   5  -4  325.27   15.00
  -6   5   4  321.47   15.10
  -5  -5   4  103.19    5.60
   5  -5  -4  100.69    5.40
   5  -5  -4   96.29    5.20
   5  -5  -4   94.59    6.10
  -5  -5   4   95.89    5.60
  -5  -5   4   98.09    6.10
   5  -5  -4  104.89    5.50
  -5  -5   4  107.79    6.10
  -5   5   4  101.89    5.30
   5   5  -4  107.39    5.30
   4  -5  -4  102.49    5.20
   4  -5  -4   93.19    5.00
   4  -5  -4  100.79    5.50
   4  -5  -4   94.09    5.10
  -4  -5   4  105.09    5.70
  -4  -5   4  104.19    5.40
  -4  -5   4   94.59    5.80
  -4  -5   4   86.59    5.20
  -4   5   4   99.69    5.10
   4   5  -4  108.49    5.10
  -4   5   4   95.59    6.10
   3  -5  -4 1859.31   84.29
   3  -5  -4 1924.91   84.39
  -3  -5   4 1878.81   84.59
   3  -5  -4 1925.61   84.69
  -3  -5   4 1825.32   84.79
  -3  -5   4 1870.51   84.79
  -3  -5   4 1813.72   84.39
   3  -5  -4 1844.52   84.49
   3  -5  -4 1821.92   84.49
  -3  -5   4 1762.72   84.39
   3   5  -4 1915.71   84.29
  -3   5   4 1913.91   85.09
  -2  -5   4  559.04   26.80
   2  -5  -4  557.64   26.60
  -2  -5   4  585.84   26.60
   2  -5  -4  605.34   26.30
   2  -5  -4  601.34   26.60
  -2  -5   4  606.14   26.90
  -2  -5   4  594.14   26.40
  -2  -5   4  546.85   26.50
  -2  -5   4  566.94   26.40
  -2   5   4  550.54   27.10
  -1  -5   4   85.89    4.70
  -1  -5   4   87.69    5.20
  -1  -5   4   90.49    4.80
  -1  -5   4   87.29    4.40
   1  -5  -4   77.49    4.80
  -1  -5   4   90.49    4.50
  -1  -5   4   83.69    4.40
   1  -5  -4   88.69    4.20
  -1  -5   4   83.59    4.60
   1  -5  -4   83.59    4.50
  -1  -5   4   80.39    4.50
  -1   5   4   83.69    5.30
   0  -5   4    3.10    0.80
   0  -5  -4    1.60    0.80
   0  -5  -4    1.40    0.70
   0  -5   4    1.40    0.90
   0  -5  -4    1.80    1.30
   0  -5   4    1.60    0.70
   0  -5   4    0.40    1.00
   0  -5   4    0.50    0.90
   0  -5   4    2.30    1.40
   0  -5  -4    2.50    1.20
   0  -5   4    3.70    1.00
   0   5   4    1.80    0.80
   0   5   4    2.60    1.70
   1  -5   4  304.27   14.90
   1  -5   4  331.07   15.00
   1  -5   4  288.27   14.80
   1  -5   4  330.57   14.90
   1  -5   4  320.47   15.20
  -1  -5  -4  331.37   15.00
  -1  -5  -4  320.67   15.10
  -1  -5  -4  323.67   15.00
   1   5   4  329.37   14.90
   1   5   4  310.37   16.40
   2  -5   4  666.13   29.70
   2  -5   4  611.34   29.50
   2  -5   4  658.93   29.60
  -2  -5  -4  643.44   29.80
   2  -5   4  666.93   29.80
  -2  -5  -4  653.63   29.70
  -2   5  -4  653.63   29.40
   2   5   4  612.74   30.90
   2   5   4  635.04   29.60
   3  -5   4   27.90    2.40
   3  -5   4   24.70    2.20
  -3  -5  -4   25.50    2.60
   3  -5   4   26.40    2.30
  -3  -5  -4   28.40    3.70
   3  -5   4   23.10    2.40
   3   5   4   27.60    2.40
  -3   5  -4   24.60    2.10
   3   5   4   28.70    4.50
   4  -5   4  757.52   33.80
   4  -5   4  727.43   33.90
   4  -5   4  732.63   33.60
   4  -5   4  681.83   33.80
  -4  -5  -4  753.12   33.90
  -4   5  -4  739.33   33.70
   4   5   4  758.72   33.50
   4   5   4  714.33   33.90
  -5  -5  -4  252.27   12.50
   5  -5   4  268.27   12.40
   5  -5   4  247.18   12.50
   5  -5   4  270.97   12.50
   5  -5   4  259.67   12.30
   5   5   4  246.88   12.10
  -5   5  -4  260.37   12.30
   5   5   4  242.08   12.60
   6  -5   4  271.67   13.00
   6  -5   4  265.67   12.70
   6  -5   4  272.97   13.00
   6  -5   4  273.87   12.70
  -6   5  -4  253.67   13.00
   6   5   4  254.17   13.10
   7  -5   4    1.90    1.30
  -7  -5  -4    1.80    1.30
   7  -5   4    5.00    2.40
   7  -5   4    3.30    1.50
   7  -5   4    2.30    1.30
   7   5   4    6.10    2.00
   8  -5   4  142.09    7.40
   8  -5   4  141.49    6.90
   8  -5   4  141.69    6.90
   8   5   4  125.99    7.40
   9  -6  -4  288.37   14.60
  -9  -6   4  319.77   15.00
  -9  -6   4  302.57   14.40
  -9   6   4  311.77   14.60
   8  -6  -4  104.09    5.80
  -8  -6   4  105.49    6.30
   8  -6  -4   95.19    5.80
  -8  -6   4  102.49    5.50
  -8  -6   4   92.69    5.80
   8   6  -4   97.29    5.90
  -8   6   4  113.29    6.30
   7  -6  -4   51.19    3.90
   7  -6  -4   46.50    3.50
  -7  -6   4   49.80    3.50
  -7  -6   4   55.69    4.60
   7   6  -4   46.00    3.70
  -7   6   4   50.79    3.40
  -6  -6   4   -0.10    1.90
   6  -6  -4    1.00    1.20
  -6  -6   4    1.30    1.30
   6  -6  -4    1.00    1.30
  -6  -6   4    3.50    2.00
   6   6  -4    1.60    1.40
  -6   6   4    1.90    1.10
  -5  -6   4 2256.47  112.19
  -5  -6   4 2283.37  111.49
  -5  -6   4 2511.55  112.19
   5  -6  -4 2423.56  111.39
   5  -6  -4 2543.35  111.59
  -5  -6   4 2628.44  111.79
  -5   6   4 2672.63  111.59
   5   6  -4 2367.86  111.39
   4  -6  -4  246.98   11.40
   4  -6  -4  218.18   11.00
  -4  -6   4  228.08   11.50
  -4  -6   4  223.48   11.70
   4  -6  -4  221.08   11.50
  -4  -6   4  232.98   11.20
  -4  -6   4  218.58   10.90
   4  -6  -4  230.88   10.80
  -4   6   4  228.48   10.90
   3  -6  -4   41.70    3.90
  -3  -6   4   42.70    4.00
  -3  -6   4   44.90    3.50
  -3  -6   4   54.79    3.90
   3  -6  -4   44.10    3.10
  -3  -6   4   46.70    3.20
   3  -6  -4   41.50    3.00
   3  -6  -4   42.70    2.80
  -3   6   4   44.70    4.40
   2  -6  -4  574.84   27.40
  -2  -6   4  570.84   27.60
  -2  -6   4  597.24   27.50
  -2  -6   4  580.74   27.50
  -2  -6   4  610.34   28.00
   2  -6  -4  627.04   27.70
   2  -6  -4  620.14   27.70
  -2  -6   4  577.84   28.10
   2  -6  -4  628.84   27.70
  -2  -6   4  613.54   27.70
  -2   6   4  594.64   28.40
  -1  -6   4  150.58    8.10
  -1  -6   4  160.98    7.90
   1  -6  -4  168.38    8.00
   1  -6  -4  165.48    7.90
  -1  -6   4  156.28    7.80
  -1  -6   4  142.49    8.60
  -1  -6   4  160.88    8.10
  -1  -6   4  158.18    7.70
  -1  -6   4  157.18    7.80
  -1  -6   4  160.28    7.70
  -1   6   4  154.98    8.80
   0  -6   4  190.88    9.30
   0  -6  -4  178.58    9.40
   0  -6   4  180.58    8.90
   0  -6  -4  191.58    9.10
   0  -6   4  183.48    9.00
   0  -6   4  188.38    9.00
   0  -6  -4  181.78    9.30
   0  -6   4  180.08    9.20
   0  -6   4  174.58    8.80
   0   6   4  181.38   10.10
  -1  -6  -4    4.00    1.70
   1  -6   4    3.60    1.10
   1  -6   4    4.00    1.30
   1  -6   4    2.80    1.50
   1  -6   4    5.30    1.20
  -1  -6  -4    2.50    1.20
  -1  -6  -4    3.80    1.20
   1  -6   4    1.40    1.10
   1  -6   4    2.10    1.30
   1   6   4    4.50    2.80
   1   6   4    3.20    1.20
  -2  -6  -4 3686.83  158.88
   2  -6   4 3578.94  158.68
   2  -6   4 3557.54  158.78
   2  -6   4 3077.29  158.38
  -2  -6  -4 3607.64  158.68
  -2   6  -4 3692.23  158.48
   2   6   4 3261.17  160.08
   2   6   4 3585.54  158.58
   3  -6   4   32.70    2.70
  -3  -6  -4   20.50    3.10
   3  -6   4   26.50    2.50
  -3  -6  -4   24.40    2.70
   3  -6   4   28.20    2.60
   3  -6   4   26.40    2.60
   3   6   4   29.40    2.70
  -4  -6  -4  168.78    8.90
   4  -6   4  165.78    8.60
   4  -6   4  183.58    8.90
   4  -6   4  177.08    8.90
   4  -6   4  174.58    8.80
   4   6   4  173.18    8.90
  -4   6  -4  173.58    8.60
   4   6   4  173.08    8.50
   5  -6   4   23.40    2.50
   5  -6   4   27.10    2.70
   5  -6   4   27.50    2.90
   5  -6   4   27.60    2.70
  -5   6  -4   24.40    3.30
   5   6   4   28.40    3.40
   6  -6   4   71.49    4.40
   6  -6   4   73.89    4.50
   6  -6   4   79.29    4.80
   6  -6   4   70.99    4.60
   6   6   4   80.09    5.10
   7  -6   4  155.88    7.60
   7  -6   4  147.79    7.90
   7  -6   4  142.59    7.60
  -7  -6  -4  157.18    7.60
   7  -6   4  160.78    8.00
   7   6   4  152.08    8.20
   8  -7  -4  116.39    7.60
  -8  -7   4  134.79    7.30
  -8  -7   4  126.39    6.50
  -8   7   4  114.39    6.50
   7  -7  -4    2.20    2.00
  -7  -7   4    1.40    2.00
   7  -7  -4   -3.90    2.10
  -7  -7   4   -0.50    1.40
   7  -7  -4    1.70    2.50
  -7   7   4   -1.10    2.30
   6  -7  -4  326.17   16.40
   6  -7  -4  337.07   16.50
  -6  -7   4  356.16   17.10
  -6  -7   4  343.57   16.50
  -6   7   4  365.16   16.40
  -5  -7   4  182.78   11.80
  -5  -7   4  227.28   10.90
  -5  -7   4  233.58   11.50
  -5  -7   4  215.78   10.70
   5  -7  -4  209.48   10.70
   5  -7  -4  227.08   10.90
  -5   7   4  236.88   10.70
  -4  -7   4  124.69    7.10
   4  -7  -4  120.09    6.50
  -4  -7   4  127.89    6.70
  -4  -7   4  117.89    6.40
  -4  -7   4  112.59    7.50
  -4   7   4  126.99    6.40
  -3  -7   4 1034.80   46.70
  -3  -7   4 1040.90   46.90
   3  -7  -4 1044.00   46.80
  -3  -7   4 1079.09   47.30
   3  -7  -4  993.80   46.70
  -3  -7   4  934.31   47.30
  -2  -7   4    4.40    2.70
   2  -7  -4    1.60    1.20
   2  -7  -4    2.70    1.70
   2  -7  -4    2.10    1.30
  -2  -7   4    2.00    1.80
  -2  -7   4    1.70    1.20
  -2  -7   4    1.10    1.20
  -1  -7   4  150.28    7.50
  -1  -7   4  152.48    7.90
  -1  -7   4  143.29    7.50
  -1  -7   4  133.59    7.30
   1  -7  -4  149.69    7.60
   1  -7  -4  150.28    7.40
  -1   7   4  136.59    9.20
   0  -7   4   22.50    2.30
   0  -7   4   27.60    2.90
   0  -7  -4   29.80    2.60
   0  -7  -4   28.40    3.30
   0  -7   4   27.30    2.90
   0  -7   4   24.90    2.40
   0  -7   4   25.10    2.60
   0  -7  -4   25.50    2.70
   0  -7   4   22.50    3.00
   0  -7   4   22.40    3.10
   0   7   4   30.40    5.00
   1  -7   4  249.68   12.40
   1  -7   4  240.58   11.90
   1  -7   4  243.28   11.90
  -1  -7  -4  253.87   12.50
   1  -7   4  254.37   12.10
  -1  -7  -4  250.87   12.00
   1  -7   4  242.78   11.90
  -1  -7  -4  260.37   12.10
   1  -7   4  212.18   13.40
  -1   7  -4  253.37   11.80
   1   7   4  257.97   16.60
   2  -7   4  979.50   44.20
   2  -7   4  998.60   44.10
   2  -7   4  957.60   44.00
  -2  -7  -4  946.11   44.10
   2  -7   4  960.20   44.50
   2  -7   4  969.90   44.10
   2   7   4  884.11   43.90
  -2   7  -4  990.70   43.80
   3  -7   4    2.80    1.40
  -3  -7  -4    4.50    1.80
   3  -7   4    2.80    1.50
   3  -7   4    4.30    1.50
   3  -7   4    1.20    2.00
   3  -7   4    2.10    1.50
  -3  -7  -4    1.20    3.00
  -3   7  -4    1.70    1.40
   3   7   4    0.50    1.70
   4  -7   4  688.03   31.10
  -4  -7  -4  636.14   30.90
   4  -7   4  688.63   31.10
   4  -7   4  683.43   31.00
   4  -7   4  694.73   31.00
  -4   7  -4  654.13   30.80
   4   7   4  632.04   31.00
   5  -7   4   76.79    5.20
   5  -7   4   87.39    5.80
   5  -7   4   83.29    6.40
   5  -7   4   88.49    5.00
   5  -7   4   82.79    5.70
   5   7   4   84.29    5.70
   6  -7   4   70.79    4.40
  -6  -7  -4   69.69    4.20
   6  -7   4   67.29    4.70
   6  -7   4   68.89    4.10
   6   7   4   67.89    5.40
  -7  -8   4  180.38    9.50
  -7  -8   4  178.28    8.80
   7  -8  -4  164.38    9.00
  -7   8   4  178.98    8.80
  -6  -8   4  625.44   27.80
  -6  -8   4  591.44   28.30
   6  -8  -4  556.14   27.80
  -6   8   4  616.54   27.70
  -5  -8   4  132.89    7.50
  -5  -8   4  144.09    8.20
   5  -8  -4  138.19    7.50
  -5  -8   4  154.38    7.90
  -5   8   4  142.09    7.30
  -4  -8   4   31.50    3.00
   4  -8  -4   31.20    3.00
  -4  -8   4   31.70    3.80
  -4  -8   4   31.90    2.80
  -4   8   4   31.60    2.70
   3  -8  -4    3.60    1.50
   3  -8  -4    3.40    2.10
  -3  -8   4    1.50    1.30
  -3  -8   4    1.80    1.30
  -3  -8   4    4.20    2.00
  -3   8   4    3.10    1.10
   2  -8  -4   98.49    5.80
  -2  -8   4   99.59    5.40
  -2  -8   4   97.99    6.00
  -2  -8   4   95.19    5.60
   2  -8  -4   97.19    5.60
   1  -8  -4 1485.45   60.99
  -1  -8   4 1220.68   61.19
   1  -8  -4 1369.16   60.99
  -1  -8   4 1220.48   60.79
  -1  -8   4 1366.26   60.79
   1  -8  -4 1348.67   60.89
  -1  -8   4 1322.67   60.79
   0  -8   4  377.86   19.40
   0  -8  -4  419.66   19.50
   0  -8   4  397.86   19.90
   0  -8   4  422.96   19.40
   0  -8   4  406.36   19.80
   0  -8   4  393.76   19.30
   0  -8  -4  450.85   19.50
   0  -8  -4  425.66   19.50
   1  -8   4  702.63   31.30
  -1  -8  -4  679.43   31.80
   1  -8   4  666.73   31.40
  -1  -8  -4  669.03   31.40
  -1   8  -4  666.73   31.10
  -2  -8  -4   34.60    3.60
   2  -8   4   36.90    3.10
   2  -8   4   44.60    3.60
   2  -8   4   37.10    3.30
   2  -8   4   40.30    4.40
   2  -8   4   37.70    3.40
  -2  -8  -4   42.20    5.10
  -2   8  -4   39.20    3.30
   3  -8   4    0.20    1.40
   3  -8   4    2.50    2.80
   3  -8   4   -0.50    2.00
   3  -8   4   -4.70    1.80
   3  -8   4    0.00    1.30
   4  -8   4    5.10    2.40
   4  -8   4    6.20    1.70
   4  -8   4    5.20    3.00
   4  -8   4    4.00    2.00
   4  -8   4    3.30    1.70
   5  -8   4   69.39    4.40
   5  -8   4   65.39    4.80
  -5  -8  -4   67.89    4.10
   5  -8   4   71.59    4.20
   6  -8   4  574.04   25.80
   6  -8   4  534.45   26.10
  -6  -8  -4  578.74   25.90
  -6  -9   4   36.10    3.90
  -6  -9   4   33.60    2.90
   6  -9  -4   34.40    3.60
  -6   9   4   40.30    3.10
  -5  -9   4  376.06   17.70
   5  -9  -4  361.86   17.70
  -5   9   4  380.96   17.60
  -4  -9   4  547.85   27.00
  -4  -9   4  565.64   27.40
   4  -9  -4  593.74   27.40
  -4  -9   4  534.35   26.80
  -4   9   4  659.53   27.30
  -3  -9   4  293.07   15.10
  -3  -9   4  300.47   14.70
  -3  -9   4  307.17   14.50
   3  -9  -4  304.87   14.70
   3  -9  -4  299.37   14.60
  -3   9   4  309.97   14.40
   2  -9  -4   59.59    4.10
  -2  -9   4   59.99    3.90
  -2  -9   4   56.19    4.40
  -2  -9   4   55.29    4.80
  -1  -9   4   13.40    2.40
   1  -9  -4   14.70    2.10
  -1  -9   4   12.20    1.80
  -1  -9   4   15.70    2.60
   1  -9  -4   14.80    2.10
   0  -9   4  112.29    6.50
   0  -9   4   99.19    6.40
   0  -9   4  113.19    6.10
   0  -9  -4  112.59    6.20
   0   9  -4  104.29    6.10
   1  -9   4  168.98    9.40
   1  -9   4  148.29    8.20
  -1  -9  -4  146.39    8.10
  -1  -9  -4  155.78    8.50
   2  -9   4    0.80    2.30
   2  -9   4    4.00    2.40
   2  -9   4    7.60    3.30
  -2  -9  -4    4.90    2.20
   2  -9   4    2.20    1.90
   3  -9   4  864.51   40.30
   3  -9   4  883.81   40.20
  -3  -9  -4  924.51   40.20
  -3  -9  -4  824.12   40.20
  -4  -9  -4  621.14   28.70
   4  -9   4  604.04   28.80
   4  -9   4  638.34   28.70
  -4 -10   4   37.00    2.90
  -4 -10   4   31.00    3.70
   4 -10  -4   29.30    3.30
  -4  10   4   35.00    3.00
  -3 -10   4   48.70    3.40
  -3 -10   4   45.10    3.20
   3 -10  -4   42.80    3.70
  -3 -10   4   42.40    4.10
  -3  10   4   44.20    3.20
  -2 -10   4   20.10    2.90
   2 -10  -4   16.80    2.10
  -2 -10   4   20.50    2.80
  -2 -10   4   16.50    1.90
  -2  10   4   17.90    1.90
  -1 -10   4  693.03   30.90
  -1 -10   4  640.84   31.90
   1 -10  -4  672.33   31.00
   0 -10  -4  235.38   11.90
   0 -10   4  257.57   11.70
   0 -10  -4  230.38   11.60
   1 -10   4   88.79    8.30
  -1 -10  -4   82.79    4.80
  -1 -10  -4   77.79    5.30
   1 -10   4   86.89    4.90
  -2 -10  -4   -3.80    2.40
  -2 -10  -4    1.30    1.20
   2 -10   4   -0.70    1.40
   2 -10   4    2.60    2.60
 -11   0   5   -2.30    1.30
 -11   0   5    2.00    2.00
 -10   0   5    0.80    1.70
  10   0  -5   -2.80    1.70
  10   0  -5   -1.50    1.80
 -10   0   5   -0.90    1.80
  -9   0   5    1.10    1.70
  -9   0   5    0.60    1.50
   9   0  -5   -0.30    1.20
   9   0  -5   -0.70    0.90
   8   0  -5    0.00    1.00
  -8   0   5   -0.40    1.50
  -8   0   5    0.90    2.60
  -8   0   5    1.00    1.20
   8   0  -5    0.30    0.90
   7   0  -5    0.10    0.70
  -7   0   5   -1.40    2.00
  -7   0   5    1.50    1.00
   6   0  -5    0.20    0.60
  -6   0   5    0.20    0.80
   5   0  -5   -0.50    0.50
  -5   0   5   -1.20    0.60
  -5   0   5   -0.90    1.20
  -4   0   5   -1.50    1.00
   4   0  -5   -0.70    0.40
  -4   0   5   -0.40    0.60
  -3   0   5    0.00    0.50
  -3   0   5   -1.50    0.80
   3   0  -5    0.10    0.50
  -3   0   5   -0.30    0.50
  -3   0   5    1.20    0.80
  -2   0   5   -2.60    0.70
   2   0  -5   -2.70    0.50
   2   0  -5   -2.50    1.10
  -2   0   5   -2.70    0.50
  -1   0   5    0.40    0.40
   1   0  -5    0.30    1.00
  -1   0   5    0.10    0.60
   1   0  -5    0.00    0.40
   0   0   5    0.40    0.50
   0   0   5   -0.10    0.60
   0   0   5   -0.70    0.40
   1   0   5   -0.60    0.70
   1   0   5   -0.60    0.60
   1   0   5   -0.90    0.40
   2   0   5   -0.90    0.90
   2   0   5   -0.30    0.70
   2   0   5   -0.80    1.10
   2   0   5   -0.50    0.50
   2   0   5   -1.50    0.50
   3   0   5    0.40    0.60
   3   0   5    1.00    0.80
   3   0   5   -0.30    1.10
   3   0   5   -1.30    1.20
   3   0   5    0.10    0.60
  -3   0  -5    0.60    1.00
   4   0   5    0.60    0.80
   4   0   5   -1.10    1.80
  -4   0  -5    0.60    1.20
   4   0   5    0.30    1.00
   4   0   5    0.60    0.70
   5   0   5    1.20    1.10
   5   0   5    0.60    3.10
   5   0   5   -1.80    1.10
   5   0   5   -0.20    0.70
  -5   0  -5    0.40    1.50
   6   0   5    0.30    0.80
   6   0   5    0.20    1.40
   6   0   5   -0.60    1.20
   7   0   5   -0.20    0.90
   7   0   5    2.20    2.00
   7   0   5   -0.70    1.50
   8   0   5   -1.30    1.00
   8   0   5   -0.10    1.10
   8   0   5   -1.00    1.80
  -8   0  -5    5.60    2.40
   9   0   5   -1.30    1.50
   9   0   5   -0.40    0.90
 -11  -1   5  191.78    9.00
 -11  -1   5  183.28    9.40
 -11   1   5  177.18    9.40
  11   1  -5  165.28    9.20
 -11   1   5  187.68    8.90
  10  -1  -5  130.69    6.90
 -10  -1   5  138.99    7.50
  10  -1  -5  120.19    7.00
 -10   1   5  138.79    7.50
 -10   1   5  142.39    7.10
 -10   1   5  132.69    7.30
   9  -1  -5   28.80    2.50
  -9  -1   5   25.30    3.10
  -9  -1   5   27.70    3.30
   9  -1  -5   25.60    2.50
   9   1  -5   30.30    2.50
  -9   1   5   28.80    3.10
   9   1  -5   29.50    2.90
  -9   1   5   35.30    3.50
  -8  -1   5  105.79    6.20
   8  -1  -5  113.79    5.80
  -8  -1   5  102.89    6.90
  -8  -1   5  111.99    6.50
   8  -1  -5  114.69    5.80
  -8   1   5  114.19    6.10
   8   1  -5  118.49    5.90
   8   1  -5  110.89    5.80
  -7  -1   5   47.40    3.40
  -7  -1   5   46.10    4.00
   7  -1  -5   47.70    2.90
  -7  -1   5   53.79    3.80
  -7   1   5   44.30    3.90
   7   1  -5   47.60    2.90
  -6  -1   5   24.50    3.30
   6  -1  -5   24.80    1.80
  -6  -1   5   25.10    2.60
  -6  -1   5   19.00    2.60
  -6  -1   5   20.30    2.10
   6   1  -5   19.20    1.60
  -6   1   5   16.10    2.40
  -6   1   5   23.30    1.90
  -5  -1   5  256.87   12.20
  -5  -1   5  256.17   12.30
   5  -1  -5  257.57   11.90
  -5  -1   5  240.18   12.00
  -5   1   5  252.17   12.20
  -5   1   5  255.87   11.90
   5   1  -5  264.27   11.80
  -4  -1   5  598.74   28.20
  -4  -1   5  638.74   28.50
  -4  -1   5  653.13   28.40
   4  -1  -5  653.53   28.20
   4  -1  -5  621.74   28.10
   4  -1  -5  580.84   28.10
  -4   1   5  641.54   28.70
   4   1  -5  623.94   28.20
  -4   1   5  557.14   28.10
  -4   1   5  616.94   28.30
  -3  -1   5 1039.90   49.10
  -3  -1   5 1103.49   49.20
  -3  -1   5 1095.59   49.30
   3  -1  -5 1087.39   49.20
  -3  -1   5 1100.09   49.30
   3  -1  -5 1041.30   49.10
  -3   1   5 1154.28   49.60
  -3   1   5 1041.00   49.10
   2  -1  -5  910.01   40.90
  -2  -1   5  952.90   41.10
  -2  -1   5  963.60   41.10
  -2  -1   5  942.11   40.90
  -2  -1   5  839.62   40.90
  -2   1   5  879.61   40.80
   2   1  -5  864.51   41.30
  -2   1   5  885.81   41.30
   2   1  -5  873.11   40.80
   1  -1  -5 3515.65  156.88
   1  -1  -5 3419.56  156.38
   1   1  -5 3453.65  156.68
   0  -1  -5 1687.83   73.39
   0  -1   5 1507.15   73.29
   0  -1   5 1585.24   73.39
   0  -1   5 1755.52   73.29
   0   1   5 1582.34   73.19
   0   1   5 1592.34   73.29
   0   1   5 1632.24   73.79
   1  -1   5   39.70    2.30
   1  -1   5   38.00    2.40
   1  -1   5   41.60    2.30
  -1  -1  -5   42.70    2.40
   1  -1   5   40.50    2.40
   1   1   5   39.40    2.80
   1   1   5   46.70    2.40
   1   1   5   40.20    2.20
   2  -1   5   -0.70    0.60
   2  -1   5    0.10    0.70
   2  -1   5    0.00    0.70
   2  -1   5   -0.40    0.50
   2  -1   5   -0.40    1.10
   2  -1   5    0.50    0.80
   2   1   5    0.10    0.70
   2   1   5    0.90    1.10
   2   1   5    1.00    1.10
  -2   1  -5   -0.20    0.90
   3  -1   5  347.17   17.30
   3  -1   5  354.06   16.90
   3  -1   5  382.76   17.00
   3  -1   5  362.86   16.80
   3  -1   5  384.96   17.10
   3  -1   5  387.06   17.00
  -3   1  -5  345.67   17.00
   3   1   5  386.96   17.10
   3   1   5  363.96   16.90
   3   1   5  360.86   16.80
   3   1   5  360.36   17.80
   3   1   5  355.66   17.00
   4  -1   5    5.50    1.20
   4  -1   5    5.50    1.20
   4  -1   5    5.50    2.00
   4  -1   5    6.30    0.90
   4  -1   5    2.40    0.90
  -4   1  -5    4.40    1.40
   4   1   5    5.30    1.20
   4   1   5    4.50    0.80
   4   1   5    3.50    1.10
   5  -1   5  204.58   10.70
   5  -1   5  209.58   10.30
   5  -1   5  218.58   10.10
   5   1   5  221.38   10.80
  -5   1  -5  218.48   10.50
   5   1   5  201.08   10.30
   5   1   5  211.48   10.10
   6  -1   5   82.89    5.00
   6  -1   5   86.79    4.60
  -6  -1  -5   91.19    5.10
   6  -1   5   86.09    4.90
  -6   1  -5   83.49    5.40
   6   1   5   88.69    5.10
   6   1   5   87.69    4.60
   7  -1   5   28.90    3.30
   7  -1   5   34.50    2.40
  -7  -1  -5   27.50    3.20
   7  -1   5   32.80    2.60
   7  -1   5   35.80    3.20
   7   1   5   28.00    3.10
   7   1   5   31.70    2.50
   8  -1   5   35.80    2.60
   8  -1   5   32.20    2.60
  -8  -1  -5   33.10    3.50
   8  -1   5   30.20    3.10
   8   1   5   34.80    2.40
  -8   1  -5   26.20    3.00
   8   1   5   29.90    3.40
   9  -1   5   24.50    2.60
   9  -1   5   20.20    2.10
   9   1   5   21.80    2.20
  10  -2  -5    3.70    1.90
 -10  -2   5   -0.60    1.80
  10  -2  -5    1.90    1.60
 -10   2   5    1.10    1.40
 -10   2   5   -0.10    1.70
 -10   2   5    0.20    1.80
  10   2  -5    1.00    1.40
   9  -2  -5   59.29    3.70
   9  -2  -5   55.69    3.70
  -9  -2   5   62.89    4.50
   9   2  -5   60.79    3.70
  -9   2   5   56.89    3.90
  -8  -2   5    6.70    2.00
   8  -2  -5    6.80    1.40
   8  -2  -5    6.10    1.20
  -8  -2   5    8.10    2.30
   8   2  -5    4.40    1.10
   8   2  -5    4.00    1.50
  -8   2   5    8.10    1.40
  -7  -2   5  140.49    7.20
   7  -2  -5  130.29    6.50
  -7  -2   5  124.19    7.30
  -7  -2   5  114.89    6.80
   7   2  -5  124.49    6.30
  -7   2   5  126.39    6.60
   7   2  -5  138.29    6.50
  -6  -2   5  152.88    7.60
   6  -2  -5  143.59    7.00
  -6  -2   5  152.28    7.40
  -6  -2   5  136.39    7.30
  -6  -2   5  139.09    7.60
   6   2  -5  141.29    6.90
  -6   2   5  141.69    7.10
  -5  -2   5   14.10    1.70
  -5  -2   5   11.60    1.80
   5  -2  -5   11.40    1.30
   5  -2  -5   10.60    1.20
  -5  -2   5   13.20    1.70
   5   2  -5   11.10    1.20
  -5   2   5   10.90    1.30
   4  -2  -5   48.20    2.80
  -4  -2   5   46.30    2.90
   4  -2  -5   49.70    2.80
   4  -2  -5   53.39    2.80
  -4  -2   5   49.80    3.20
  -4  -2   5   49.70    3.00
  -4  -2   5   57.39    3.30
   4   2  -5   57.09    2.70
  -4   2   5   54.79    3.40
  -4   2   5   46.60    3.20
  -4   2   5   58.99    2.80
   3  -2  -5  429.86   20.00
  -3  -2   5  456.15   20.20
  -3  -2   5  440.76   20.10
  -3  -2   5  437.36   20.20
   3  -2  -5  444.96   20.00
  -3   2   5  423.06   20.50
  -3   2   5  422.06   19.90
   3   2  -5  435.16   20.00
   2  -2  -5  302.37   13.70
  -2  -2   5  310.87   13.90
  -2  -2   5  294.77   13.60
  -2  -2   5  295.97   13.70
  -2  -2   5  283.07   13.80
  -2  -2   5  297.67   13.50
  -2   2   5  306.97   14.20
   2   2  -5  285.57   13.50
   2   2  -5  285.97   14.10
  -1  -2   5  633.74   30.30
   1  -2  -5  693.53   30.30
  -1  -2   5  607.84   30.30
  -1  -2   5  670.43   30.20
  -1  -2   5  693.03   30.30
  -1   2   5  684.63   30.20
  -1   2   5  682.93   30.80
   1   2  -5  648.84   30.50
   0  -2   5   22.20    1.50
   0  -2   5   20.30    1.80
   0  -2   5   23.80    1.60
   0  -2   5   24.30    1.40
   0  -2  -5   22.50    1.60
   0   2   5   19.50    1.50
   0   2   5   22.30    2.10
   0   2   5   21.80    1.60
  -1  -2  -5  285.77   13.00
   1  -2   5  248.78   13.00
   1  -2   5  298.57   12.70
   1  -2   5  260.87   12.90
   1  -2   5  282.87   12.90
   1   2   5  267.07   12.70
   1   2   5  289.37   13.60
   1   2   5  285.37   12.90
   2  -2   5  253.87   11.80
   2  -2   5  222.58   12.10
   2  -2   5  243.88   11.90
   2  -2   5  252.57   12.00
   2  -2   5  257.27   11.80
   2  -2   5  243.28   11.90
  -2  -2  -5  245.68   12.00
   2  -2   5  261.67   12.00
   2   2   5  268.47   12.00
   2   2   5  274.57   12.80
   2   2   5  266.07   12.00
   2   2   5  257.87   11.80
  -2   2  -5  260.97   11.80
   3  -2   5   34.90    2.30
   3  -2   5   33.00    3.00
   3  -2   5   35.10    2.70
   3  -2   5   35.00    2.10
   3  -2   5   34.60    2.60
   3  -2   5   36.30    2.40
  -3  -2  -5   29.70    2.40
   3  -2   5   28.10    2.60
   3   2   5   34.90    3.50
   3   2   5   37.80    2.60
  -3   2  -5   40.20    2.50
   3   2   5   35.10    2.40
   4  -2   5  302.97   14.10
   4  -2   5  252.77   14.30
  -4  -2  -5  288.77   14.40
   4  -2   5  312.37   13.90
   4  -2   5  283.77   14.00
   4  -2   5  318.57   14.20
  -4   2  -5  324.17   14.10
   4   2   5  290.07   14.20
   4   2   5  310.07   13.90
   5  -2   5   27.60    2.30
   5  -2   5   23.90    2.30
   5  -2   5   20.20    2.60
   5  -2   5   23.70    1.90
  -5  -2  -5   23.70    2.40
   5  -2   5   20.20    2.30
   5   2   5   22.70    2.00
  -5   2  -5   31.50    3.20
   5   2   5   21.10    2.50
   6  -2   5  644.34   29.60
   6  -2   5  650.23   29.70
   6  -2   5  660.73   29.50
   6  -2   5  575.74   29.50
   6  -2   5  658.83   29.30
  -6  -2  -5  622.14   29.70
  -6   2  -5  640.04   29.60
   6   2   5  644.04   29.70
   6   2   5  651.73   29.30
   7  -2   5   83.79    4.80
   7  -2   5   72.89    4.80
   7  -2   5   74.79    4.50
  -7  -2  -5   72.69    5.00
   7   2   5   92.79    4.70
  -7   2  -5   86.89    6.40
   7   2   5   75.29    4.90
   8  -2   5   79.49    5.30
   8  -2   5   82.29    4.60
   8  -2   5   89.69    4.70
   8   2   5   88.79    5.30
   8   2   5   85.39    4.50
 -10  -3   5    5.10    2.20
  10  -3  -5    4.40    1.60
 -10  -3   5    3.30    1.60
 -10   3   5    4.30    1.80
 -10   3   5    6.20    2.60
  10   3  -5    5.50    1.50
 -10   3   5    3.10    1.80
  -9  -3   5   46.30    4.00
   9  -3  -5   36.60    3.30
   9  -3  -5   41.80    3.10
   9   3  -5   40.60    3.10
  -9   3   5   44.50    3.50
  -9   3   5   42.20    3.40
  -8  -3   5   48.80    3.90
   8  -3  -5   46.80    3.20
   8  -3  -5   45.80    3.30
  -8  -3   5   50.69    4.10
  -8  -3   5   42.60    4.30
  -8   3   5   49.40    3.70
  -8   3   5   48.30    3.40
   8   3  -5   53.49    3.20
  -7  -3   5  782.62   38.20
   7  -3  -5  779.02   37.50
  -7  -3   5  928.21   38.70
  -7  -3   5  798.42   37.60
  -7   3   5  761.02   37.60
   7   3  -5  856.61   37.50
  -7   3   5  829.02   37.60
   6  -3  -5  231.48   10.90
  -6  -3   5  234.68   11.10
   6  -3  -5  228.88   10.90
  -6  -3   5  229.68   11.50
  -6  -3   5  229.78   11.40
  -6   3   5  232.28   11.10
   6   3  -5  222.08   10.70
  -6   3   5  214.68   10.90
  -5  -3   5  176.58    9.00
  -5  -3   5  174.28    8.70
   5  -3  -5  172.28    8.50
  -5  -3   5  181.68    9.00
   5  -3  -5  180.98    8.50
  -5   3   5  185.88    9.20
  -5   3   5  177.28    8.70
   5   3  -5  167.08    8.30
  -5   3   5  176.68    8.50
   4  -3  -5  214.58    9.80
  -4  -3   5  217.08   10.10
  -4  -3   5  202.98   10.00
  -4  -3   5  210.38    9.80
   4  -3  -5  197.28    9.70
  -4  -3   5  176.48   10.10
   4  -3  -5  212.98    9.70
   4   3  -5  207.98    9.60
  -4   3   5  215.48    9.70
  -4   3   5  186.48    9.90
  -4   3   5  224.28   10.40
  -3  -3   5   76.89    4.30
  -3  -3   5   79.79    4.10
   3  -3  -5   78.79    4.00
   3  -3  -5   81.79    4.10
  -3  -3   5   85.79    4.40
  -3  -3   5   71.19    4.40
  -3  -3   5   80.49    4.30
  -3   3   5   76.59    3.90
   3   3  -5   77.89    3.90
  -3   3   5   79.49    4.60
  -2  -3   5   15.80    1.40
  -2  -3   5   17.00    1.40
  -2  -3   5   13.80    1.60
   2  -3  -5   16.10    1.20
  -2  -3   5   16.50    1.70
   2  -3  -5   16.90    1.40
  -2  -3   5   14.60    1.20
   2   3  -5   16.00    2.20
  -2   3   5   13.70    1.90
  -1  -3   5  681.83   31.60
  -1  -3   5  683.03   31.70
  -1  -3   5  715.73   31.70
   1  -3  -5  686.93   31.70
  -1  -3   5  724.63   31.80
  -1   3   5  669.53   32.30
   1   3  -5  697.13   31.70
   0  -3  -5 1258.87   55.29
   0  -3   5 1162.08   55.19
   0  -3   5 1188.18   55.19
   0  -3   5 1232.38   55.19
   0  -3   5 1242.18   55.29
   0   3   5 1253.47   55.19
   0   3   5 1177.28   55.89
   1  -3   5  868.01   38.90
   1  -3   5  840.52   39.00
   1  -3   5  810.32   38.90
   1  -3   5  921.61   39.00
   1  -3   5  837.42   39.00
  -1  -3  -5  876.01   39.00
  -1   3  -5  869.21   38.90
   1   3   5  825.12   39.70
   1   3   5  835.82   38.90
   1   3   5  858.41   39.00
   2  -3   5    1.60    0.70
   2  -3   5    1.40    1.40
   2  -3   5    1.70    0.70
  -2  -3  -5    2.10    1.00
   2  -3   5    2.90    0.90
   2  -3   5    1.10    1.60
   2  -3   5    2.00    1.00
   2   3   5    0.60    1.50
  -2   3  -5    0.30    0.90
   2   3   5    3.60    1.30
   2   3   5    2.10    0.80
  -3  -3  -5  300.17   15.90
   3  -3   5  348.77   15.70
   3  -3   5  353.96   15.90
   3  -3   5  323.47   15.80
   3  -3   5  340.27   15.90
  -3   3  -5  352.86   15.70
   3   3   5  334.67   17.10
   3   3   5  354.66   16.00
   4  -3   5    0.70    0.90
   4  -3   5   -0.80    0.70
   4  -3   5    0.30    0.80
  -4  -3  -5   -0.50    1.10
   4  -3   5   -0.80    1.10
  -4   3  -5   -1.70    1.30
   4   3   5   -0.80    3.20
   4   3   5    1.20    0.70
   4   3   5    0.90    1.20
  -5  -3  -5    1.20    1.30
   5  -3   5    1.90    1.30
   5  -3   5    1.50    1.10
   5  -3   5    0.80    0.80
   5  -3   5   -0.40    1.10
   5   3   5    2.30    1.30
  -5   3  -5   -0.30    2.00
   5   3   5    1.30    0.90
   6  -3   5    0.70    0.90
  -6  -3  -5    1.90    1.70
   6  -3   5    0.20    1.10
   6  -3   5   -2.60    1.20
   6  -3   5    2.40    1.10
   6   3   5    3.20    1.10
   6   3   5    1.00    1.50
  -6   3  -5    1.70    2.30
   7  -3   5  100.29    5.50
   7  -3   5   93.59    5.10
  -7  -3  -5   81.59    6.10
   7  -3   5   88.99    5.30
   7   3   5   97.29    5.60
   7   3   5  100.59    5.00
   8  -3   5   54.49    3.30
   8  -3   5   54.09    3.30
   8  -3   5   39.20    4.00
   8   3   5   43.50    3.90
   8   3   5   49.70    3.20
 -10  -4   5    6.60    1.60
 -10  -4   5    9.50    2.20
  10   4  -5   11.80    1.90
 -10   4   5   14.00    2.20
   9  -4  -5   90.59    5.20
  -9  -4   5   88.99    5.80
  -9   4   5   98.99    6.10
   9   4  -5   98.19    5.40
  -8  -4   5   28.20    3.00
  -8  -4   5   29.00    3.80
   8  -4  -5   34.30    2.70
  -8  -4   5   31.30    3.60
   8   4  -5   35.30    2.70
  -8   4   5   32.60    2.90
  -8   4   5   26.80    3.00
   7  -4  -5  519.75   22.30
  -7  -4   5  458.45   22.20
  -7  -4   5  474.25   21.70
  -7  -4   5  425.86   22.30
   7  -4  -5  473.65   21.60
   7  -4  -5  426.96   21.30
  -7   4   5  440.06   21.70
  -7   4   5  469.25   21.60
   7   4  -5  485.55   21.50
  -6  -4   5 1072.09   51.99
  -6  -4   5 1023.40   51.99
   6  -4  -5 1113.49   51.49
   6  -4  -5 1186.18   51.49
  -6  -4   5 1189.28   51.69
  -6   4   5 1104.29   51.59
  -6   4   5 1154.58   51.49
   6   4  -5 1188.78   51.59
  -5  -4   5  151.78    7.90
   5  -4  -5  155.38    7.40
  -5  -4   5  144.99    8.10
   5  -4  -5  149.39    7.50
  -5  -4   5  157.48    8.10
   5   4  -5  153.98    7.40
  -5   4   5  160.28    8.30
  -5   4   5  143.99    7.80
  -5   4   5  149.29    7.40
  -4  -4   5   44.00    3.20
   4  -4  -5   43.10    2.70
  -4  -4   5   42.40    3.10
   4  -4  -5   42.30    2.50
  -4  -4   5   42.90    2.80
  -4  -4   5   44.10    2.90
  -4  -4   5   44.90    3.20
   4  -4  -5   41.70    2.70
  -4   4   5   42.20    2.50
  -3  -4   5   83.99    5.20
   3  -4  -5   96.19    4.70
   3  -4  -5   96.29    4.80
  -3  -4   5   95.79    4.80
  -3  -4   5   82.29    5.10
  -3  -4   5   96.89    5.10
  -3  -4   5   94.59    5.00
  -3   4   5  101.39    5.50
   2  -4  -5 1268.57   56.79
  -2  -4   5 1221.98   56.79
  -2  -4   5 1219.18   56.59
  -2  -4   5 1242.98   56.89
  -2  -4   5 1228.18   56.79
  -2  -4   5 1254.47   56.69
  -2  -4   5 1357.76   56.99
   2  -4  -5 1272.67   56.59
  -2   4   5 1179.48   57.39
   1  -4  -5  137.79    6.70
  -1  -4   5  133.29    6.80
  -1  -4   5  129.49    6.70
  -1  -4   5  138.39    6.60
  -1  -4   5  129.79    6.80
  -1  -4   5  135.59    6.60
  -1  -4   5  147.19    6.90
  -1  -4   5  137.89    6.50
  -1  -4   5  136.89    6.70
  -1   4   5  136.39    7.40
   1   4  -5  137.79    6.40
   0  -4   5  593.54   25.00
   0  -4   5  507.85   24.80
   0  -4  -5  504.05   24.90
   0  -4   5  536.45   25.00
   0  -4   5  528.75   24.90
   0  -4   5  552.34   24.80
   0   4   5  551.84   24.80
   0   4   5  551.84   25.70
   1  -4   5  219.68   11.00
  -1  -4  -5  237.98   11.30
   1  -4   5  245.88   11.30
   1  -4   5  246.68   11.20
   1  -4   5  234.78   11.30
   1  -4   5  226.98   11.10
   1   4   5  241.88   12.20
   1   4   5  225.38   11.20
  -1   4  -5  231.78   11.10
   1   4   5  249.28   11.20
   2  -4   5   54.59    3.20
   2  -4   5   56.59    3.30
   2  -4   5   58.39    3.40
   2  -4   5   59.89    3.50
  -2  -4  -5   61.49    3.50
   2   4   5   54.59    3.40
   2   4   5   58.49    4.70
  -2   4  -5   58.49    3.20
  -3  -4  -5   36.10    4.20
   3  -4   5   46.90    3.10
   3  -4   5   48.80    3.00
   3  -4   5   45.60    2.80
   3  -4   5   38.40    4.00
   3   4   5   44.20    5.10
   3   4   5   48.50    3.20
  -3   4  -5   47.80    3.10
   4  -4   5   75.59    4.00
   4  -4   5   73.79    4.30
  -4  -4  -5   71.49    4.50
   4  -4   5   72.59    4.30
   4  -4   5   78.19    4.40
   4   4   5   80.69    4.00
   4   4   5   64.39    7.70
   4   4   5   69.89    4.50
  -4   4  -5   77.99    4.40
   5  -4   5  165.08    8.90
   5  -4   5  181.68    9.00
  -5  -4  -5  173.88    9.10
   5  -4   5  185.68    8.90
   5  -4   5  183.18    8.60
   5   4   5  167.28    8.50
   5   4   5  174.18    9.10
  -5   4  -5  185.18    9.00
   6  -4   5    0.00    1.20
   6  -4   5   -0.50    1.00
   6  -4   5   -0.60    1.20
  -6  -4  -5    4.70    2.10
   6  -4   5    0.20    1.10
   6   4   5    1.70    1.10
   6   4   5    0.20    1.50
   7  -4   5  124.89    6.90
   7  -4   5  127.59    6.70
   7  -4   5  127.29    6.60
   7   4   5  130.69    6.50
   7   4   5  134.39    7.10
   8  -4   5   -0.60    1.00
   8  -4   5    1.00    1.90
   8  -4   5   -0.30    1.20
   8   4   5   -0.30    1.80
  -9  -5   5   33.30    3.30
  -9  -5   5   36.30    3.20
  -9  -5   5   45.10    4.40
   9  -5  -5   34.00    3.20
   9   5  -5   32.60    3.10
  -9   5   5   35.50    3.20
   8  -5  -5    7.50    1.50
  -8  -5   5    6.90    1.90
  -8  -5   5    5.80    1.70
  -8  -5   5   10.40    2.40
  -8   5   5    5.30    1.40
   8   5  -5    8.00    1.50
  -7  -5   5    4.30    3.00
   7  -5  -5    9.00    1.40
  -7  -5   5    7.10    1.50
   7  -5  -5    5.90    1.90
  -7  -5   5    5.60    1.60
  -7  -5   5    8.40    2.00
  -7   5   5    5.30    1.30
   7   5  -5    8.40    1.40
  -6  -5   5   51.19    4.30
  -6  -5   5   53.09    4.40
   6  -5  -5   51.69    3.30
   6  -5  -5   52.29    3.60
  -6  -5   5   51.59    3.60
  -6  -5   5   53.49    3.80
   6   5  -5   59.19    3.40
  -6   5   5   53.39    3.40
   5  -5  -5 1322.67   59.39
  -5  -5   5 1241.88   59.99
  -5  -5   5 1332.27   59.99
   5  -5  -5 1272.77   59.29
  -5  -5   5 1213.68   59.39
  -5  -5   5 1345.27   59.59
  -5   5   5 1335.37   59.39
  -5   5   5 1298.47   60.19
   5   5  -5 1380.36   59.29
  -4  -5   5  161.68    8.60
  -4  -5   5  178.78    8.80
  -4  -5   5  167.38    9.10
  -4  -5   5  162.68    9.60
  -4  -5   5  183.88    9.10
   4  -5  -5  180.88    8.70
   4  -5  -5  175.28    8.80
   4  -5  -5  174.88    8.60
   4   5  -5  184.28    8.40
  -4   5   5  172.58    8.50
  -4   5   5  182.78    9.50
  -3  -5   5    4.00    1.10
   3  -5  -5    3.00    0.80
   3  -5  -5    2.70    1.00
   3  -5  -5    3.80    1.00
  -3  -5   5    4.20    1.10
  -3  -5   5    3.40    1.30
  -3  -5   5    4.90    1.40
  -3  -5   5    5.90    1.70
   3   5  -5    5.60    1.10
  -3   5   5    5.10    1.90
  -2  -5   5  259.57   12.10
  -2  -5   5  247.28   12.00
   2  -5  -5  255.17   11.60
  -2  -5   5  250.07   11.70
  -2  -5   5  222.38   12.70
   2  -5  -5  242.78   12.10
  -2  -5   5  267.97   11.90
  -2  -5   5  243.78   11.70
   2  -5  -5  256.17   11.80
  -2   5   5  237.48   12.70
  -1  -5   5  446.56   20.10
  -1  -5   5  457.85   20.10
  -1  -5   5  428.46   20.00
   1  -5  -5  427.76   19.60
  -1  -5   5  450.25   19.80
   1  -5  -5  415.36   19.90
  -1  -5   5  415.16   19.80
   1  -5  -5  417.06   19.90
  -1  -5   5  414.46   19.80
  -1  -5   5  436.86   19.70
  -1  -5   5  422.96   19.90
  -1   5   5  403.16   20.90
   0  -5   5  273.37   12.30
   0  -5   5  247.58   12.50
   0  -5   5  252.87   12.40
   0  -5   5  248.48   12.30
   0  -5   5  267.87   12.30
   0  -5  -5  254.67   12.00
   0  -5  -5  273.77   12.50
   0  -5  -5  267.47   12.40
   0  -5   5  249.48   12.60
   0  -5   5  263.37   12.70
   0   5   5  256.87   13.30
   1  -5   5   92.29    4.90
   1  -5   5   92.09    5.00
  -1  -5  -5   91.59    5.40
  -1  -5  -5   92.09    5.00
   1  -5   5   98.09    4.90
   1  -5   5   85.39    5.10
   1   5   5   85.19    6.20
   1   5   5   91.79    4.90
  -1   5  -5   94.49    4.60
   2  -5   5  741.93   34.40
   2  -5   5  788.92   34.50
   2  -5   5  783.32   34.50
  -2  -5  -5  695.73   34.50
   2   5   5  756.42   34.50
  -2   5  -5  750.42   34.20
   2   5   5  729.63   35.90
   3  -5   5   22.60    2.50
  -3  -5  -5   21.10    2.50
   3  -5   5   24.00    2.20
   3  -5   5   23.20    2.40
   3  -5   5   25.80    2.40
  -3   5  -5   28.20    2.60
   3   5   5   34.00    5.40
   4  -5   5   50.59    3.30
   4  -5   5   54.79    3.50
   4  -5   5   54.79    3.60
  -4  -5  -5   51.09    3.80
   4  -5   5   54.99    3.60
   4   5   5   51.59    3.20
   4   5   5   54.69    3.80
  -4   5  -5   45.30    4.90
   5  -5   5   95.29    5.60
   5  -5   5  103.49    5.50
   5  -5   5  102.19    5.70
  -5  -5  -5  103.39    6.00
   5  -5   5  103.49    5.30
   5   5   5   91.99    5.20
   5   5   5   94.59    5.90
   6  -5   5   99.79    5.50
   6  -5   5  102.59    5.50
   6  -5   5   99.79    5.70
   6  -5   5  107.29    5.90
   6   5   5   99.69    5.40
   6   5   5  102.69    6.00
   7  -5   5    5.50    1.60
   7  -5   5    4.90    1.30
   7  -5   5    3.90    1.30
   7  -5   5    6.30    1.70
  -7  -5  -5    4.30    1.40
   7   5   5    6.60    1.90
   9  -6  -5  164.48    9.20
  -9  -6   5  143.79    7.40
  -9  -6   5  151.18    8.10
  -9   6   5  137.19    7.60
  -8  -6   5   58.59    3.90
  -8  -6   5   66.29    4.90
   8  -6  -5   65.99    4.20
  -8  -6   5   59.79    5.40
   8   6  -5   57.79    4.40
  -8   6   5   61.99    4.00
  -7  -6   5    0.50    1.70
  -7  -6   5   -1.20    1.80
   7  -6  -5    2.20    1.80
  -7  -6   5   -1.60    1.10
  -7   6   5   -0.90    1.10
   7   6  -5    0.30    1.60
  -6  -6   5    9.30    2.30
   6  -6  -5   11.90    1.80
   6  -6  -5   11.80    1.50
  -6  -6   5    7.90    1.50
  -6  -6   5   10.70    2.20
   6   6  -5    9.80    1.80
  -6   6   5    8.90    1.30
  -5  -6   5   82.09    5.40
  -5  -6   5   87.79    4.90
   5  -6  -5   81.69    4.70
  -5  -6   5   78.09    5.50
   5  -6  -5   79.99    4.50
  -5  -6   5   73.69    4.80
  -5   6   5   87.69    4.50
   5   6  -5   81.09    4.70
  -4  -6   5  106.59    6.50
   4  -6  -5  107.09    5.50
  -4  -6   5  114.89    6.00
  -4  -6   5  107.69    6.30
  -4  -6   5  100.09    5.70
   4  -6  -5  110.89    5.80
  -4   6   5  116.29    5.60
  -4   6   5   97.19    7.70
  -3  -6   5  117.19    6.10
  -3  -6   5  106.69    5.90
  -3  -6   5  110.89    6.40
  -3  -6   5  109.69    5.90
   3  -6  -5  132.29    6.90
   3  -6  -5  112.79    6.00
  -3  -6   5  115.79    6.80
  -3   6   5  113.89    7.40
   2  -6  -5  236.68   11.30
   2  -6  -5  244.58   11.70
  -2  -6   5  231.98   11.90
  -2  -6   5  235.78   11.40
  -2  -6   5  254.37   11.70
  -2  -6   5  235.68   11.50
  -2  -6   5  240.28   12.20
   2  -6  -5  252.77   11.60
  -2   6   5  231.58   12.60
  -1  -6   5    5.50    1.70
  -1  -6   5    4.80    2.50
   1  -6  -5    4.90    1.60
  -1  -6   5    7.30    1.80
  -1  -6   5    8.50    1.30
  -1  -6   5    5.70    1.40
  -1  -6   5    4.80    1.20
  -1  -6   5    7.20    1.40
  -1  -6   5    5.40    1.30
  -1   6   5    5.80    2.80
   0  -6   5    8.40    1.50
   0  -6  -5    9.30    1.80
   0  -6   5    9.60    1.60
   0  -6   5   10.40    1.90
   0  -6   5    6.60    1.30
   0  -6   5    6.60    1.20
   0  -6  -5    8.50    1.40
   0  -6   5    7.50    1.30
   0  -6   5   11.80    1.80
   0   6   5    9.80    3.20
   1  -6   5   13.60    2.10
   1  -6   5   10.70    1.60
   1  -6   5   17.50    1.80
   1  -6   5   16.30    1.80
  -1  -6  -5   15.30    2.70
  -1  -6  -5   15.90    1.80
   1  -6   5   17.70    2.20
   1   6   5   19.10    3.90
  -1   6  -5   17.10    2.10
   1   6   5   15.60    1.80
   2  -6   5   59.29    3.60
   2  -6   5   53.29    3.50
   2  -6   5   50.69    3.50
  -2  -6  -5   56.89    3.70
   2  -6   5   52.39    3.60
  -2   6  -5   47.20    3.40
   2   6   5   50.69    4.20
   2   6   5   62.39    9.90
  -3  -6  -5   30.40    3.10
   3  -6   5   32.00    2.80
   3  -6   5   31.40    2.70
   3  -6   5   28.80    2.70
   3  -6   5   33.20    2.90
   3   6   5   31.00    2.90
   4  -6   5  155.78    7.80
   4  -6   5  152.58    7.90
   4  -6   5  142.39    7.60
   4  -6   5  161.78    8.00
  -4  -6  -5  145.49    8.00
   4   6   5  146.89    8.10
   4   6   5  154.98    7.50
   5  -6   5  171.18    8.80
   5  -6   5  173.78    8.70
   5  -6   5  168.18    8.50
   5  -6   5  178.78    8.60
   5   6   5  158.78    8.90
   5   6   5  169.78    8.40
   6  -6   5  102.79    5.80
   6  -6   5  113.19    6.20
   6  -6   5  112.49    5.80
   6   6   5  109.09    6.40
   7  -6   5    1.50    1.80
   7  -6   5    1.40    1.20
   7  -6   5    0.20    1.20
   7  -6   5    2.60    1.60
  -7  -6  -5    1.00    1.20
   7   6   5    0.40    2.20
  -8  -7   5    6.10    2.30
  -8  -7   5    3.20    1.40
  -8   7   5    3.90    1.60
  -7  -7   5    4.50    2.00
   7  -7  -5    0.00    2.00
   7  -7  -5    1.40    3.50
  -7  -7   5    1.60    1.40
   7  -7  -5   -2.10    2.80
  -7   7   5    1.70    1.40
  -6  -7   5    3.20    1.90
  -6  -7   5    2.00    1.90
  -6  -7   5   -0.20    1.20
   6  -7  -5    2.20    1.50
   6  -7  -5    0.40    1.90
  -6   7   5    1.00    1.20
  -5  -7   5   -2.10    2.50
  -5  -7   5    0.00    1.30
   5  -7  -5    1.10    1.50
  -5  -7   5    1.40    1.60
   5  -7  -5    5.90    1.80
  -5  -7   5    0.10    1.90
  -5   7   5    0.30    1.10
  -4  -7   5   -1.50    1.20
   4  -7  -5    0.20    1.30
  -4  -7   5    0.80    1.70
  -4  -7   5   -1.10    1.30
  -4  -7   5   -1.20    2.10
  -4   7   5    1.40    1.00
  -3  -7   5   -0.90    1.50
  -3  -7   5    4.60    2.50
  -3  -7   5    0.30    1.40
   3  -7  -5   -1.20    1.30
   3  -7  -5   -1.70    2.70
  -3  -7   5    1.70    1.20
   3  -7  -5    0.30    1.10
  -2  -7   5   -0.60    1.20
  -2  -7   5    1.40    1.20
   2  -7  -5   -0.90    1.20
   2  -7  -5   -0.10    1.90
  -2  -7   5   -4.80    2.60
   2  -7  -5    1.80    1.20
  -2  -7   5    0.00    1.50
  -2   7   5    5.50    5.50
  -1  -7   5   15.00    2.00
  -1  -7   5   12.60    1.80
  -1  -7   5   17.00    3.40
   1  -7  -5   15.80    2.10
  -1  -7   5   17.90    2.70
  -1  -7   5   13.50    1.80
  -1  -7   5   11.20    1.50
   1  -7  -5   13.90    1.80
  -1   7   5   21.70    7.10
   0  -7   5    3.80    1.90
   0  -7   5    5.90    1.60
   0  -7   5    4.60    1.40
   0  -7   5    3.80    1.80
   0  -7  -5    3.10    1.50
   0  -7   5    6.00    1.40
   0  -7   5    3.40    1.40
   0  -7   5    4.90    1.20
   1  -7   5    5.50    1.50
  -1  -7  -5    5.80    1.60
   1  -7   5    4.90    2.10
   1  -7   5    6.30    1.40
   1  -7   5    3.50    1.40
   1  -7   5    6.60    1.90
   1  -7   5    1.90    1.10
   2  -7   5    1.40    1.20
   2  -7   5   -0.50    1.20
   2  -7   5    0.90    1.50
   2  -7   5    1.90    1.40
  -2  -7  -5    1.70    1.60
   2  -7   5    0.80    2.00
  -3  -7  -5   14.30    2.30
   3  -7   5    9.90    1.70
   3  -7   5   10.70    1.70
   3  -7   5   14.10    2.00
   3  -7   5    9.90    1.80
   3  -7   5    6.40    2.40
   3   7   5    9.50    2.10
   4  -7   5   76.69    4.90
   4  -7   5   82.09    4.70
   4  -7   5   83.29    6.10
   4  -7   5   72.49    5.20
   4  -7   5   79.19    4.70
   4   7   5   68.79    5.20
   5  -7   5   30.00    4.80
   5  -7   5   40.10    3.70
   5  -7   5   43.30    4.90
   5  -7   5   35.90    3.10
   5  -7   5   33.80    3.50
   5   7   5   27.70    3.20
  -6  -7  -5   14.20    2.00
   6  -7   5   12.50    2.00
   6  -7   5   13.70    2.30
   6  -7   5   15.70    1.70
   6   7   5   16.30    2.90
  -7  -8   5    0.10    1.30
   7  -8  -5   -2.00    2.50
  -7  -8   5    2.90    2.20
  -7   8   5    0.40    1.50
   6  -8  -5   15.70    2.10
  -6  -8   5   12.60    2.10
  -6  -8   5   18.50    2.80
  -6   8   5   17.30    1.90
  -5  -8   5    0.20    1.60
  -5  -8   5    1.30    2.20
   5  -8  -5   -0.20    1.40
  -5   8   5   -0.30    1.20
  -4  -8   5  159.18    8.30
  -4  -8   5  163.08    9.10
  -4  -8   5  167.68    8.60
   4  -8  -5  160.08    8.40
  -4   8   5  171.78    8.30
   3  -8  -5   58.59    4.90
  -3  -8   5   65.59    4.20
  -3  -8   5   58.29    3.80
  -3  -8   5   63.59    4.80
   3  -8  -5   60.49    4.10
  -3   8   5   66.59    3.80
  -2  -8   5  410.26   19.40
   2  -8  -5  403.86   19.50
  -2  -8   5  409.66   19.50
   2  -8  -5  413.66   19.60
  -2  -8   5  422.36   20.00
   2  -8  -5  418.56   19.50
  -1  -8   5  204.18   10.80
   1  -8  -5  220.58   10.60
  -1  -8   5  203.28   10.30
   1  -8  -5  213.58   10.60
  -1  -8   5  210.78   10.40
   0  -8   5  269.17   13.20
   0  -8   5  282.47   13.60
   0  -8   5  255.17   13.10
   0  -8   5  254.87   13.10
   0  -8   5  263.27   13.80
   0  -8   5  286.47   13.00
   0  -8  -5  276.37   13.20
  -1  -8  -5  240.58   12.10
   1  -8   5  235.58   12.60
   1  -8   5  240.08   12.00
   1  -8   5  245.48   12.00
   1  -8   5  262.47   12.00
   1  -8   5  244.98   12.10
  -2  -8  -5   19.80    2.60
   2  -8   5   17.10    2.50
   2  -8   5   17.00    3.40
   2  -8   5   18.20    2.40
   2  -8   5   18.60    2.30
   2  -8   5   15.30    1.90
   3  -8   5    0.50    2.20
   3  -8   5    2.90    1.50
   3  -8   5    6.40    3.10
  -3  -8  -5   -1.70    2.60
   4  -8   5    6.60    1.70
   4  -8   5    8.30    1.70
   4  -8   5    6.20    2.10
   5  -8   5   42.10    3.00
  -5  -8  -5   39.40    2.80
   5  -8   5   37.70    4.30
   5  -8   5   36.20    3.40
  -6  -9   5  106.09    5.50
  -6  -9   5   93.49    6.10
  -6   9   5   97.89    5.50
  -5  -9   5  164.98    8.40
   5  -9  -5  150.28    8.30
  -5  -9   5  174.08    8.90
  -5   9   5  163.78    8.20
  -4  -9   5   -0.60    1.60
   4  -9  -5    2.00    1.60
  -4  -9   5   -1.90    1.40
  -4  -9   5    2.90    1.80
  -4   9   5   -1.30    1.20
  -3  -9   5   24.90    3.20
  -3  -9   5   22.80    3.00
   3  -9  -5   23.10    2.80
  -3  -9   5   22.30    2.70
  -3   9   5   26.60    2.90
  -2  -9   5   13.80    2.30
   2  -9  -5   20.60    2.30
  -2  -9   5   19.60    2.30
  -2  -9   5   20.30    2.20
  -2   9   5   21.20    2.30
  -1  -9   5   21.80    3.30
   1  -9  -5   21.30    2.40
  -1  -9   5   21.40    3.00
   0  -9   5   14.60    2.40
   0  -9  -5   18.60    2.30
   0  -9  -5   17.60    2.70
   1  -9   5  154.78    8.10
  -1  -9  -5  148.79    8.20
  -1  -9  -5  155.78    8.70
   1  -9   5  159.48    9.20
   2  -9   5  253.27   12.70
   2  -9   5  257.27   12.60
  -2  -9  -5  267.17   14.10
  -2  -9  -5  255.67   12.70
  -3  -9  -5    5.00    2.20
   3  -9   5    0.00    1.80
   3  -9   5    2.30    1.50
   4  -9   5   -0.20    1.80
   4  -9   5   -0.10    1.20
  -4  -9  -5    0.60    1.00
  -3 -10   5   63.99    4.70
  -3 -10   5   63.69    4.10
   3 -10  -5   58.19    4.20
  -3 -10   5   65.69    3.80
  -3  10   5   62.89    4.00
  -2 -10   5  919.71   41.20
  -2 -10   5  896.51   41.30
  -2 -10   5  918.41   41.70
   2 -10  -5  883.31   41.40
  -2  10   5  889.71   41.20
   1 -10  -5   16.20    2.10
  -1 -10   5   20.80    2.40
  -1  10   5   18.20    2.50
   0 -10  -5   37.30    3.70
   0 -10  -5   37.50    3.20
   0 -10   5   40.00    3.00
   1 -10   5   24.40    2.40
  -1 -10  -5   16.70    2.40
  -1 -10  -5   23.00    2.40
 -11   0   6   83.99    4.80
 -11   0   6   88.69    5.40
 -10   0   6   59.49    4.10
 -10   0   6   60.29    4.40
 -10   0   6   53.69    4.50
  10   0  -6   61.39    3.70
  10   0  -6   51.39    4.10
  -9   0   6    2.00    1.70
   9   0  -6    0.50    1.00
   9   0  -6    1.80    1.20
  -9   0   6    0.40    1.80
   8   0  -6   -0.80    1.00
  -8   0   6   -0.20    1.20
  -8   0   6    1.10    1.50
  -8   0   6   -1.70    2.60
   7   0  -6   29.40    2.20
  -7   0   6   27.20    3.50
  -7   0   6   33.50    3.10
  -6   0   6  423.46   20.00
  -6   0   6  440.06   20.30
  -5   0   6 1292.47   60.79
  -5   0   6 1356.06   60.99
   5   0  -6 1373.86   60.79
   4   0  -6  389.96   18.60
  -4   0   6  413.96   19.20
  -4   0   6  422.46   19.00
   4   0  -6  389.86   18.80
  -4   0   6  382.36   18.90
  -4   0   6  453.45   19.40
   3   0  -6 1841.12   84.99
  -3   0   6 1990.00   85.59
  -3   0   6 1893.01   85.19
  -3   0   6 1959.20   85.19
  -3   0   6 1836.42   84.99
  -3   0   6 1766.52   85.19
   2   0  -6 1963.60   87.39
  -2   0   6 1799.02   87.39
  -2   0   6 2029.80   87.79
  -2   0   6 1851.81   87.59
  -2   0   6 2020.20   87.49
  -1   0   6  666.73   32.00
   1   0  -6  694.43   31.90
  -1   0   6  730.53   31.90
  -1   0   6  704.63   32.30
   0   0   6  647.84   32.90
   0   0   6  750.22   32.80
   0   0   6  736.53   32.70
   0   0   6  744.03   33.20
   0   0   6  716.73   33.00
   1   0   6 1367.06   62.59
   1   0   6 1390.96   62.19
   1   0   6 1379.96   62.19
   1   0   6 1348.97   62.19
   2   0   6 5454.05  242.28
   2   0   6 5277.27  242.08
   3   0   6  201.58   10.80
   3   0   6  217.78   10.20
   3   0   6  195.28   10.20
   3   0   6  221.18   10.10
   3   0   6  225.58   10.20
   4   0   6  968.50   42.90
   4   0   6  909.91   42.70
   4   0   6  927.41   42.60
   5   0   6    2.70    1.40
   5   0   6    1.80    1.40
   5   0   6    1.70    0.80
   6   0   6   93.89    5.60
   6   0   6   93.89    5.70
   6   0   6  102.49    5.10
   7   0   6  199.28    9.20
   7   0   6  178.78    9.60
   8   0   6  161.48    9.00
  -8   0  -6  160.48    9.50
   8   0   6  177.78    8.40
   8   0   6  184.48    8.40
 -10  -1   6  100.19    5.60
  10  -1  -6   91.09    5.30
  10  -1  -6   90.19    5.40
 -10  -1   6  101.79    6.00
 -10   1   6  101.69    5.50
 -10   1   6   88.99    5.90
 -10   1   6   95.99    5.90
  10   1  -6   97.99    5.30
  -9  -1   6  866.91   37.50
   9  -1  -6  817.42   36.90
  -9  -1   6  727.33   37.10
   9  -1  -6  816.02   36.90
   9   1  -6  857.91   37.00
   9   1  -6  796.92   36.90
  -9   1   6  764.92   37.10
  -9   1   6  817.02   37.50
  -9   1   6  776.72   37.40
   8  -1  -6  103.29    5.30
  -8  -1   6   94.69    5.70
  -8  -1   6  105.59    6.10
  -8  -1   6   88.19    6.30
  -8   1   6   95.19    5.50
   8   1  -6  106.09    5.30
   8   1  -6  102.09    5.30
  -7  -1   6   80.99    4.90
  -7  -1   6   74.49    4.90
   7  -1  -6   77.79    4.10
  -7  -1   6   59.49    5.40
  -7   1   6   65.99    5.40
  -7   1   6   72.69    4.70
   7   1  -6   74.29    4.00
  -6  -1   6  244.48   12.10
  -6  -1   6  242.38   12.00
  -6  -1   6  248.88   12.00
  -6  -1   6  241.08   11.70
   6  -1  -6  249.08   11.60
   6   1  -6  247.08   11.50
  -6   1   6  242.08   11.60
  -5  -1   6  602.74   29.40
  -5  -1   6  598.34   29.20
  -5  -1   6  658.43   29.50
   5  -1  -6  669.03   29.20
  -5   1   6  648.14   29.30
  -5   1   6  631.64   29.10
  -5   1   6  650.03   29.30
   5   1  -6  639.84   29.10
   4  -1  -6  101.89    5.00
  -4  -1   6  107.39    5.40
  -4  -1   6  105.59    5.40
  -4  -1   6   93.89    5.20
  -4  -1   6   99.29    5.30
   4  -1  -6  106.99    5.10
  -4   1   6  115.69    5.80
  -4   1   6  103.79    5.40
  -4   1   6   98.59    5.30
   4   1  -6  108.39    5.10
  -4   1   6   98.99    5.10
  -3  -1   6  361.86   17.80
  -3  -1   6  339.27   17.60
  -3  -1   6  400.36   17.80
  -3  -1   6  397.26   17.90
  -3  -1   6  392.86   17.80
   3  -1  -6  380.96   17.60
  -3  -1   6  437.06   18.10
  -3   1   6  378.86   17.80
  -3   1   6  413.96   18.20
  -3   1   6  353.86   17.80
  -3   1   6  375.96   17.60
  -2  -1   6 2352.36  112.39
   2  -1  -6 2498.95  112.39
  -2  -1   6 2625.34  112.49
  -2  -1   6 2544.55  112.49
   2   1  -6 2485.55  112.29
  -2   1   6 2478.45  112.89
  -2   1   6 2438.56  112.19
  -2   1   6 2566.24  112.39
  -2   1   6 2391.96  112.49
   1  -1  -6  239.88   10.80
  -1  -1   6  222.08   10.90
  -1  -1   6  240.98   10.80
  -1  -1   6  238.58   11.00
  -1   1   6  234.48   11.30
  -1   1   6  239.28   10.70
  -1   1   6  206.38   10.90
   1   1  -6  222.48   11.30
   0  -1   6  390.56   17.20
   0  -1   6  385.36   17.20
   0  -1   6  367.96   17.40
   0  -1   6  348.97   17.30
   0  -1  -6  362.66   17.20
   0   1   6  369.26   17.30
   0   1   6  375.46   17.10
   0   1   6  374.26   17.70
   0   1   6  374.46   17.20
   1  -1   6 1224.58   53.39
   1  -1   6 1124.29   53.39
   1  -1   6 1229.88   53.39
  -1  -1  -6 1265.27   53.49
   1  -1   6 1202.18   53.49
   1  -1   6 1170.28   53.59
   1  -1   6 1123.59   53.19
   1  -1   6 1040.70   53.49
   1   1   6 1192.88   53.29
   1   1   6 1225.98   53.39
   1   1   6 1147.69   53.99
   1   1   6 1160.68   53.39
   2  -1   6 1090.59   47.80
   2  -1   6  981.60   47.90
   2  -1   6 1033.40   47.70
   2  -1   6 1072.59   47.80
   2  -1   6 1021.30   48.10
   2  -1   6 1049.99   47.80
   2   1   6 1083.39   47.90
   2   1   6 1069.49   47.70
   2   1   6 1100.59   47.90
   2   1   6 1004.60   48.50
   3  -1   6   86.29    4.70
   3  -1   6   78.99    5.00
   3  -1   6   90.69    4.80
   3  -1   6   87.89    4.60
   3  -1   6   87.59    4.60
   3   1   6   82.59    5.60
   3   1   6   85.79    4.60
   3   1   6   84.89    4.70
   3   1   6   87.89    4.50
   3   1   6   89.09    4.70
   4  -1   6  302.77   13.60
   4  -1   6  288.57   13.80
   4  -1   6  298.17   13.80
   4   1   6  287.47   13.90
   4   1   6  296.67   13.60
   4   1   6  272.77   15.10
   4   1   6  270.87   13.70
  -4   1  -6  303.67   14.20
   5  -1   6   87.39    4.80
  -5  -1  -6   85.89    4.90
   5  -1   6   82.89    4.40
   5  -1   6   83.29    4.90
   5   1   6   77.19    8.50
   5   1   6   78.79    4.90
   5   1   6   80.89    5.10
   5   1   6   87.89    4.50
   6  -1   6  248.48   12.40
  -6  -1  -6  252.07   12.60
   6  -1   6  253.07   12.10
   6  -1   6  256.47   12.50
   6   1   6  263.67   12.10
   6   1   6  257.07   12.50
   7  -1   6  280.07   13.70
   7  -1   6  295.37   13.30
  -7  -1  -6  286.47   13.80
   7  -1   6  245.58   13.90
   7  -1   6  271.97   13.70
   7   1   6  278.07   13.70
   7   1   6  302.37   13.20
   8  -1   6  183.08    8.60
   8  -1   6  180.88    8.60
  -8   1  -6  161.58    9.40
   8   1   6  164.88    9.00
   8   1   6  182.08    8.50
   8   1   6  184.78    8.70
 -10  -2   6  523.65   23.90
  10  -2  -6  480.15   23.30
 -10  -2   6  505.75   23.50
  10  -2  -6  469.55   23.40
  10   2  -6  525.35   23.40
 -10   2   6  536.75   23.90
 -10   2   6  516.25   23.40
 -10   2   6  474.35   23.60
   9  -2  -6  203.18   10.70
   9  -2  -6  241.88   11.20
  -9  -2   6  230.18   11.50
  -9   2   6  203.68   11.00
  -9   2   6  236.58   11.10
   9   2  -6  224.98   10.80
  -8  -2   6    2.20    1.70
   8  -2  -6    0.30    1.10
  -8  -2   6    0.80    2.00
  -8   2   6    1.00    1.50
   8   2  -6    1.80    1.40
   8   2  -6    0.90    1.10
  -8   2   6    0.30    1.20
  -7  -2   6  929.61   43.10
  -7  -2   6  920.51   42.70
   7  -2  -6  994.60   42.20
  -7  -2   6  914.71   42.30
  -7   2   6  864.81   42.30
  -7   2   6  934.11   42.20
   7   2  -6  898.11   42.00
  -6  -2   6    5.80    1.70
  -6  -2   6    4.70    1.30
  -6  -2   6    6.50    1.60
  -6  -2   6    4.20    1.60
   6  -2  -6    3.80    0.90
   6   2  -6    4.00    0.90
  -6   2   6   10.00    1.50
  -6   2   6    4.60    0.90
   5  -2  -6  717.63   31.00
  -5  -2   6  651.53   31.30
  -5  -2   6  669.23   31.20
  -5  -2   6  671.03   31.30
  -5   2   6  663.43   31.10
  -5   2   6  668.33   31.10
   5   2  -6  693.23   30.90
  -5   2   6  626.64   30.90
  -5   2   6  737.13   31.80
  -4  -2   6 1093.79   50.79
  -4  -2   6 1206.68   50.69
   4  -2  -6  979.60   50.49
  -4  -2   6 1046.30   50.79
   4  -2  -6 1152.38   50.59
  -4  -2   6 1103.39   50.69
  -4  -2   6 1190.68   50.89
   4  -2  -6 1096.59   50.49
  -4   2   6 1209.88   51.29
  -4   2   6 1113.39   50.69
  -4   2   6 1024.60   50.59
  -4   2   6 1114.79   50.49
   4   2  -6 1144.79   50.49
  -3  -2   6 1760.42   81.99
   3  -2  -6 1865.81   81.89
  -3  -2   6 1862.11   81.99
   3  -2  -6 1797.92   81.89
  -3  -2   6 1940.01   82.09
  -3  -2   6 1732.73   82.09
  -3   2   6 1709.13   81.99
  -3   2   6 1829.42   82.49
  -3   2   6 1736.33   81.99
  -3   2   6 1858.21   81.79
  -2  -2   6 1968.20   81.19
  -2  -2   6 1822.62   80.89
  -2  -2   6 1797.12   80.99
  -2  -2   6 1772.62   81.19
  -2  -2   6 1685.33   81.09
   2  -2  -6 1918.31   81.19
  -2  -2   6 1947.01   81.29
  -2   2   6 1728.53   81.19
   2   2  -6 1837.42   80.99
  -2   2   6 1765.42   80.99
  -2   2   6 1670.43   81.19
  -2   2   6 1765.32   81.69
   2   2  -6 1611.64   81.59
  -1  -2   6  119.29    5.70
  -1  -2   6  137.39    5.90
  -1  -2   6  110.59    5.90
   1  -2  -6  109.59    5.80
  -1  -2   6  118.09    5.90
  -1  -2   6  119.49    5.80
   1   2  -6  119.29    6.30
  -1   2   6  111.09    6.20
  -1   2   6  121.69    6.40
   0  -2   6 2647.64  118.49
   0  -2  -6 2750.12  118.59
   0  -2   6 2590.54  118.59
   0  -2   6 2510.25  118.59
   0  -2   6 2728.43  118.49
   0  -2   6 2739.43  118.59
   0   2   6 2492.95  119.19
   0   2   6 2497.15  118.49
   0   2   6 2553.84  118.39
   0   2   6 2702.73  118.59
  -1  -2  -6    9.90    1.40
   1  -2   6   10.50    1.50
   1  -2   6   10.90    1.40
   1  -2   6   11.90    1.40
   1  -2   6   15.00    1.10
   1  -2   6   12.50    1.50
   1  -2   6   16.00    1.60
   1  -2   6   15.00    1.40
   1   2   6   12.60    1.50
   1   2   6   15.90    1.60
   1   2   6   14.50    2.10
   1   2   6   12.60    1.50
   2  -2   6  336.77   15.70
   2  -2   6  339.07   15.60
   2  -2   6  329.37   15.50
   2  -2   6  345.57   15.70
   2  -2   6  345.37   15.80
   2  -2   6  326.17   15.50
  -2  -2  -6  334.97   15.80
   2  -2   6  300.77   15.80
   2   2   6  340.97   16.70
   2   2   6  344.67   15.80
   2   2   6  363.96   15.80
  -3  -2  -6 1651.93   74.59
   3  -2   6 1600.84   74.29
   3  -2   6 1582.44   74.19
   3  -2   6 1713.13   74.39
   3  -2   6 1789.42   74.49
   3  -2   6 1656.33   74.09
   3  -2   6 1476.55   74.39
   3   2   6 1614.34   74.39
   3   2   6 1662.83   74.49
   3   2   6 1693.63   74.09
   3   2   6 1566.34   75.39
   4  -2   6  563.04   24.60
  -4  -2  -6  540.25   25.10
   4  -2   6  522.85   24.70
   4  -2   6  497.15   24.90
   4  -2   6  570.14   25.00
   4  -2   6  549.05   24.80
   4   2   6  547.35   24.60
   4   2   6  504.25   26.30
   4   2   6  525.85   25.10
   5  -2   6  693.83   30.10
  -5  -2  -6  689.43   30.60
   5  -2   6  585.84   30.20
   5  -2   6  643.64   30.50
   5  -2   6  676.13   30.30
   5  -2   6  667.23   30.40
   5   2   6  641.74   30.50
   5   2   6  656.03   30.10
   6  -2   6  320.77   15.10
   6  -2   6  309.67   15.20
   6  -2   6  313.57   14.90
  -6  -2  -6  304.87   15.30
   6   2   6  315.97   15.40
   6   2   6  338.57   14.90
  -7  -2  -6  424.46   21.00
   7  -2   6  447.06   20.70
   7  -2   6  466.35   21.40
   7  -2   6  429.16   20.60
   7   2   6  476.35   20.60
   7   2   6  425.26   21.00
   8  -2   6    2.60    1.10
   8  -2   6    3.60    1.20
   8  -2   6    2.20    3.40
   8   2   6    2.40    1.10
   8   2   6    3.70    2.00
 -10  -3   6  291.97   14.50
 -10  -3   6  316.27   14.20
  10  -3  -6  280.87   14.00
 -10   3   6  288.97   14.40
  10   3  -6  299.17   14.00
 -10   3   6  284.97   14.30
 -10   3   6  299.17   14.00
  -9  -3   6   -0.20    1.80
   9  -3  -6    0.80    1.20
  -9  -3   6    3.20    1.70
   9  -3  -6   -0.60    1.50
   9   3  -6    1.60    1.20
  -9   3   6    0.50    1.50
  -9   3   6    1.20    1.70
   8  -3  -6  425.26   21.10
  -8  -3   6  443.26   21.40
   8  -3  -6  467.05   21.20
  -8  -3   6  471.85   21.90
  -8   3   6  470.75   21.40
  -8   3   6  446.36   21.40
   8   3  -6  464.95   21.20
   7  -3  -6 2349.06  104.39
  -7  -3   6 2342.17  104.99
  -7  -3   6 2303.97  104.49
  -7  -3   6 2136.19  104.89
  -7   3   6 2123.09  104.49
   7   3  -6 2438.96  104.39
  -7   3   6 2420.36  104.49
  -6  -3   6  143.79    7.60
   6  -3  -6  139.89    6.90
  -6  -3   6  144.29    7.20
  -6  -3   6  136.19    7.60
  -6   3   6  129.69    6.90
   6   3  -6  134.29    6.70
  -6   3   6  138.19    7.20
  -5  -3   6   36.80    2.90
  -5  -3   6   37.60    3.00
   5  -3  -6   38.90    2.60
   5  -3  -6   40.30    2.50
  -5  -3   6   36.80    3.10
  -5   3   6   36.10    2.40
   5   3  -6   36.00    2.30
  -5   3   6   35.00    3.30
  -5   3   6   36.60    3.10
  -4  -3   6   46.20    2.90
   4  -3  -6   44.30    2.70
   4  -3  -6   47.40    2.60
   4  -3  -6   46.80    2.70
  -4  -3   6   46.90    3.20
  -4  -3   6   47.00    3.00
  -4  -3   6   43.80    3.10
  -4  -3   6   49.80    3.20
   4   3  -6   43.90    2.50
  -4   3   6   41.80    3.20
  -4   3   6   44.60    2.60
  -3  -3   6 1673.33   70.79
  -3  -3   6 1554.04   70.59
  -3  -3   6 1498.95   70.59
   3  -3  -6 1627.54   70.59
   3  -3  -6 1576.04   70.59
  -3  -3   6 1573.14   70.79
  -3  -3   6 1610.34   70.79
  -3   3   6 1436.66   70.59
  -3   3   6 1490.25   70.59
  -3   3   6 1532.55   70.49
   3   3  -6 1573.24   70.39
  -3   3   6 1532.65   71.19
  -2  -3   6   31.60    1.90
  -2  -3   6   31.90    2.40
  -2  -3   6   29.30    2.10
   2  -3  -6   29.10    2.10
  -2  -3   6   29.70    2.30
  -2  -3   6   31.90    2.30
  -2  -3   6   33.50    2.50
  -2  -3   6   31.20    2.10
  -2   3   6   29.70    2.50
  -2   3   6   31.10    2.70
   2   3  -6   34.00    3.20
  -2   3   6   28.90    2.50
  -1  -3   6  281.07   14.30
  -1  -3   6  296.77   14.20
   1  -3  -6  312.07   14.20
  -1  -3   6  320.77   14.30
  -1  -3   6  306.27   14.00
  -1  -3   6  304.87   14.20
   1   3  -6  305.17   14.30
  -1   3   6  288.17   14.20
  -1   3   6  315.97   14.90
   0  -3   6 7407.56  348.17
   0  -3   6 7629.24  348.17
   0  -3   6 7954.60  348.27
   0   3   6 7881.91  348.27
   1  -3   6  317.87   15.50
   1  -3   6  327.67   15.60
   1  -3   6  327.17   15.40
   1  -3   6  348.57   15.60
   1  -3   6  329.97   15.50
   1  -3   6  328.57   15.60
  -1  -3  -6  348.27   15.70
   1   3   6  346.47   15.60
   1   3   6  333.27   16.50
   1   3   6  326.07   15.60
   2  -3   6   79.69    4.60
   2  -3   6   86.99    4.60
   2  -3   6   80.99    4.20
   2  -3   6   83.19    4.50
   2  -3   6   75.69    4.70
   2  -3   6   85.69    4.50
  -2  -3  -6   85.89    4.60
   2   3   6   90.89    4.60
   2   3   6   85.69    4.50
   2   3   6   74.89    5.50
   3  -3   6  126.19    7.00
   3  -3   6  127.89    6.30
   3  -3   6  124.59    6.60
   3  -3   6  127.99    6.60
  -3  -3  -6  134.19    6.80
   3   3   6  127.39    8.30
   3   3   6  129.39    6.70
   4  -3   6   80.39    4.50
   4  -3   6   79.89    4.50
   4  -3   6   72.09    4.40
   4  -3   6   77.29    4.10
  -4  -3  -6   77.69    4.60
   4   3   6   82.09    4.10
   4   3   6   73.09    7.60
   4   3   6   73.39    4.70
   5  -3   6  488.45   23.50
   5  -3   6  532.95   23.40
  -5  -3  -6  476.05   23.60
   5  -3   6  511.85   23.20
   5  -3   6  514.55   23.60
   5   3   6  494.25   23.10
   5   3   6  494.95   23.60
   6  -3   6   21.90    2.00
  -6  -3  -6   25.80    2.80
   6  -3   6   18.70    2.20
   6  -3   6   16.20    2.10
   6   3   6   24.10    3.00
   6   3   6   18.60    2.20
   7  -3   6 1427.16   66.19
   7  -3   6 1447.06   65.89
   7  -3   6 1457.25   65.99
  -7  -3  -6 1299.37   66.19
   7   3   6 1503.85   65.79
   7   3   6 1575.24   67.09
   8  -3   6  141.09    6.90
   8  -3   6  143.59    6.90
   8   3   6  142.39    7.50
   8   3   6  126.59    7.40
 -10  -4   6   97.89    5.40
 -10  -4   6  100.59    6.00
  10   4  -6  102.89    5.60
 -10   4   6   91.89    5.90
  -9  -4   6   65.49    4.40
   9  -4  -6   55.19    3.90
  -9  -4   6   59.49    4.60
  -9  -4   6   64.29    4.20
  -9   4   6   59.49    4.20
  -8  -4   6   56.69    4.00
  -8  -4   6   49.70    4.70
   8  -4  -6   63.99    3.70
  -8  -4   6   56.59    4.00
  -8  -4   6   61.09    4.60
  -8   4   6   54.09    3.90
   8   4  -6   62.89    3.70
  -7  -4   6   76.59    4.70
  -7  -4   6   75.49    4.70
   7  -4  -6   75.99    4.30
  -7  -4   6   73.19    5.30
  -7  -4   6   80.99    5.30
  -7   4   6   77.19    4.40
   7   4  -6   83.49    4.30
  -7   4   6   71.89    5.20
   6  -4  -6   75.19    4.10
  -6  -4   6   70.79    4.50
  -6  -4   6   73.59    5.10
  -6  -4   6   75.39    6.10
   6  -4  -6   74.09    4.50
  -6  -4   6   75.69    4.40
  -6   4   6   68.59    4.10
   6   4  -6   72.69    4.00
  -6   4   6   78.59    5.00
  -5  -4   6 3923.21  171.08
  -5  -4   6 3823.92  170.68
  -5  -4   6 3854.61  171.08
   5  -4  -6 3656.83  170.58
  -5  -4   6 3810.52  170.78
   5  -4  -6 3855.81  170.58
  -5   4   6 3458.75  170.58
  -5   4   6 3725.33  171.38
  -5   4   6 3857.71  170.58
  -4  -4   6   66.99    4.00
   4  -4  -6   67.59    3.90
   4  -4  -6   74.39    4.00
  -4  -4   6   75.69    4.50
  -4  -4   6   72.49    4.40
  -4  -4   6   74.19    4.20
   4  -4  -6   71.09    3.80
  -4  -4   6   71.69    4.20
  -4   4   6   73.39    4.90
  -4   4   6   71.39    4.40
  -4   4   6   71.09    3.80
  -3  -4   6  242.78   11.70
  -3  -4   6  278.87   12.10
  -3  -4   6  243.88   11.70
   3  -4  -6  259.77   11.60
   3  -4  -6  246.98   11.70
  -3  -4   6  224.98   11.70
  -3  -4   6  258.57   11.90
  -3  -4   6  243.88   12.00
  -3   4   6  239.98   12.50
  -3   4   6  237.88   11.80
  -3   4   6  245.48   11.60
  -2  -4   6 2080.99   99.99
  -2  -4   6 2244.08  100.19
  -2  -4   6 1863.31  100.39
  -2  -4   6 2408.96  100.29
   2  -4  -6 2375.76  100.19
  -2  -4   6 2158.98   99.99
   2  -4  -6 2287.97   99.99
  -2  -4   6 2320.37   99.89
  -2  -4   6 2356.56  100.09
  -2  -4   6 2249.68  100.09
  -2   4   6 2080.79  101.19
  -2   4   6 2124.29  100.09
  -2   4   6 2175.98   99.99
  -1  -4   6  381.66   18.30
  -1  -4   6  358.16   18.10
  -1  -4   6  435.86   18.40
   1  -4  -6  393.56   18.30
  -1  -4   6  401.36   18.10
  -1  -4   6  399.36   18.20
  -1  -4   6  393.36   18.30
  -1  -4   6  405.96   18.10
  -1  -4   6  392.66   18.20
  -1   4   6  386.86   19.40
  -1   4   6  364.66   18.20
   0  -4   6    1.10    0.90
   0  -4   6    0.40    0.80
   0  -4   6    1.60    1.00
   0  -4   6   -0.50    1.20
   0  -4  -6    1.40    0.90
   0  -4   6    2.00    1.20
   0  -4   6    0.90    1.30
   0   4   6    1.30    0.80
   0   4   6    0.10    1.60
   0   4   6    1.70    1.40
   1  -4   6    4.90    1.90
   1  -4   6    6.50    1.10
   1  -4   6    8.80    1.80
   1  -4   6    6.30    1.10
   1  -4   6    4.70    1.00
   1  -4   6    5.80    1.50
   1  -4   6    4.60    1.00
  -1  -4  -6    5.30    1.00
   1   4   6    4.70    1.00
   1   4   6   10.60    1.60
   1   4   6    7.00    2.20
   2  -4   6 2087.59   92.69
  -2  -4  -6 2127.79   92.89
   2  -4   6 2103.49   92.79
   2   4   6 1998.20   92.69
   2   4   6 1897.31   93.89
   3  -4   6  819.82   36.70
   3  -4   6  804.42   36.60
   3  -4   6  778.12   36.30
  -3  -4  -6  827.22   36.80
   3   4   6  752.72   38.30
   4  -4   6  246.98   11.30
   4  -4   6  229.28   11.40
  -4  -4  -6  234.28   11.60
   4  -4   6  240.48   11.40
   4  -4   6  225.08   11.00
   4   4   6  213.78   11.50
   4   4   6  233.58   11.00
   5  -4   6  693.63   32.10
  -5  -4  -6  688.83   32.60
   5  -4   6  729.23   32.50
   5  -4   6  749.82   32.30
   5  -4   6  684.33   32.40
   5   4   6  673.23   32.60
   5   4   6  679.73   32.00
   6  -4   6    9.70    1.70
   6  -4   6    8.90    1.50
   6  -4   6   10.60    1.40
   6  -4   6    8.40    1.70
  -6  -4  -6   15.40    2.60
   6   4   6    7.90    1.30
   6   4   6   12.50    2.10
   7  -4   6    2.40    1.20
   7  -4   6    5.70    1.80
   7  -4   6    2.50    1.30
   7   4   6    3.30    1.20
   7   4   6    0.80    1.70
   9  -5  -6  162.18    8.40
  -9  -5   6  160.68    9.40
  -9  -5   6  167.78    8.40
  -9  -5   6  164.78    8.40
  -9   5   6  166.18    8.50
   9   5  -6  169.48    8.40
   8  -5  -6  217.58   11.10
  -8  -5   6  262.97   12.10
  -8  -5   6  200.08   11.80
  -8  -5   6  239.18   11.90
  -8  -5   6  222.48   11.30
   8   5  -6  230.28   11.20
  -8   5   6  239.68   11.30
  -7  -5   6  773.22   35.60
  -7  -5   6  808.32   35.70
  -7  -5   6  797.52   36.20
  -7  -5   6  697.43   36.10
   7  -5  -6  769.42   35.40
  -7   5   6  748.33   35.50
   7   5  -6  806.22   35.40
  -6  -5   6    1.40    1.60
  -6  -5   6   -0.10    1.20
   6  -5  -6    1.40    1.40
  -6  -5   6    3.10    2.00
  -6  -5   6    0.80    1.80
   6  -5  -6    1.50    1.10
   6   5  -6    3.40    1.20
  -6   5   6    0.40    0.90
  -5  -5   6  357.46   16.10
  -5  -5   6  326.87   16.50
   5  -5  -6  310.97   16.30
   5  -5  -6  349.67   15.80
  -5  -5   6  353.26   16.80
  -5  -5   6  337.57   15.90
  -5   5   6  335.07   15.80
  -5   5   6  324.17   17.00
   4  -5  -6  610.44   27.50
  -4  -5   6  552.64   27.40
   4  -5  -6  578.74   27.50
   4  -5  -6  588.64   27.30
  -4  -5   6  597.84   28.00
  -4  -5   6  583.14   27.40
  -4  -5   6  620.84   28.00
  -4  -5   6  612.94   27.70
  -4  -5   6  548.25   27.80
   4   5  -6  629.34   27.30
  -4   5   6  585.14   28.40
  -4   5   6  638.44   27.40
  -3  -5   6    1.80    1.50
  -3  -5   6    0.10    1.30
  -3  -5   6    1.80    1.30
   3  -5  -6    1.00    0.80
  -3  -5   6    3.00    1.00
   3  -5  -6    0.30    1.00
  -3  -5   6    3.90    1.90
  -3   5   6    2.10    1.90
   2  -5  -6 1618.44   68.89
  -2  -5   6 1518.35   68.79
  -2  -5   6 1473.15   68.99
  -2  -5   6 1604.74   68.99
  -2  -5   6 1471.05   68.69
   2  -5  -6 1528.15   68.59
  -2  -5   6 1415.66   68.59
  -2   5   6 1469.75   69.69
   1  -5  -6  848.02   38.10
  -1  -5   6  805.02   38.30
   1  -5  -6  755.52   38.90
  -1  -5   6  843.22   38.40
  -1  -5   6  840.22   38.20
  -1  -5   6  822.82   38.10
  -1  -5   6  813.82   38.40
  -1  -5   6  820.52   38.20
  -1  -5   6  884.51   38.30
  -1  -5   6  945.01   38.50
  -1   5   6  811.22   39.30
   0  -5   6  795.22   38.00
   0  -5   6  888.31   37.90
   0  -5   6  839.82   38.00
   0  -5   6  808.42   37.80
   0  -5   6  805.02   37.80
   0  -5   6  868.11   38.00
   0  -5   6  817.42   37.70
   0  -5  -6  865.91   38.00
   0  -5   6  769.22   37.90
   0   5   6  808.32   39.10
   1  -5   6    1.10    1.50
   1  -5   6    4.00    1.20
  -1  -5  -6    2.60    1.20
   1  -5   6    2.20    1.10
   1  -5   6    2.80    1.10
   1   5   6   -0.10    2.50
   1   5   6    2.60    1.20
   2  -5   6  270.37   12.30
   2  -5   6  262.67   12.20
  -2  -5  -6  270.87   12.50
   2  -5   6  238.18   12.50
   2  -5   6  237.88   12.00
   2   5   6  271.17   13.10
   2   5   6  236.08   14.30
  -3  -5  -6 1055.79   49.40
   3  -5   6 1100.79   49.20
   3  -5   6 1105.09   49.30
   3  -5   6 1034.40   48.90
   3   5   6 1078.19   49.30
   4  -5   6    0.50    1.00
   4  -5   6    0.80    1.20
   4  -5   6    1.50    1.20
  -4  -5  -6   -0.30    1.70
   4  -5   6    1.50    1.40
   4   5   6   -0.70    1.40
   4   5   6    0.80    0.90
   5  -5   6  875.61   38.00
   5  -5   6  821.52   38.10
   5  -5   6  850.81   38.10
  -5  -5  -6  827.82   38.20
   5   5   6  747.83   38.20
   6  -5   6  305.17   14.70
   6  -5   6  297.47   14.50
   6  -5   6  294.37   14.40
   6   5   6  324.17   15.00
   6   5   6  307.17   14.30
   7  -5   6   62.39    3.70
   7  -5   6   67.29    3.70
   7  -5   6   62.99    4.40
  -7  -5  -6   61.79    3.80
   7   5   6   58.69    4.50
  -9  -6   6   60.59    3.80
  -9  -6   6   63.19    4.50
  -9   6   6   56.39    4.40
  -8  -6   6   18.50    2.40
   8  -6  -6   22.40    2.40
  -8  -6   6   25.40    3.10
   8   6  -6   11.50    2.40
  -8   6   6   15.80    2.00
   7  -6  -6   38.20    3.20
  -7  -6   6   44.50    4.00
  -7  -6   6   39.90    3.30
   7  -6  -6   44.40    4.30
  -7  -6   6   31.80    3.90
   7   6  -6   38.90    3.60
  -7   6   6   42.40    3.10
   6  -6  -6  283.97   13.70
  -6  -6   6  315.07   14.10
  -6  -6   6  299.57   14.60
   6  -6  -6  293.37   13.90
  -6  -6   6  246.68   14.50
   6   6  -6  285.67   13.80
  -6   6   6  295.57   13.80
   5  -6  -6  249.68   12.10
  -5  -6   6  226.08   12.70
   5  -6  -6  258.87   12.20
  -5  -6   6  248.08   12.90
  -5  -6   6  262.97   12.90
  -5  -6   6  270.47   12.50
  -5   6   6  250.67   12.10
   4  -6  -6  438.96   19.20
   4  -6  -6  423.26   19.30
  -4  -6   6  406.46   19.40
   4  -6  -6  379.66   19.00
  -4  -6   6  385.36   19.00
  -4  -6   6  416.16   19.80
  -4  -6   6  416.96   19.70
  -4   6   6  408.36   19.10
   3  -6  -6    5.90    1.40
  -3  -6   6    6.00    1.50
  -3  -6   6    4.80    1.70
  -3  -6   6    7.30    1.90
  -3  -6   6    3.60    1.30
  -3  -6   6    3.00    2.00
   3  -6  -6    3.70    1.10
   3  -6  -6    8.40    1.50
  -3   6   6   11.50    3.80
  -2  -6   6   67.99    4.70
  -2  -6   6   64.99    4.30
   2  -6  -6   59.49    3.70
  -2  -6   6   60.29    3.70
  -2  -6   6   58.79    3.80
  -2  -6   6   54.09    3.60
  -2   6   6   58.09    5.60
  -1  -6   6  285.07   13.80
  -1  -6   6  284.47   13.80
  -1  -6   6  290.97   13.70
  -1  -6   6  301.77   14.20
  -1  -6   6  296.27   14.40
  -1  -6   6  298.87   13.90
  -1  -6   6  291.07   14.20
  -1  -6   6  301.37   14.40
   1  -6  -6  298.17   13.90
  -1   6   6  263.87   15.30
   0  -6  -6  181.18    8.80
   0  -6   6  173.28    8.70
   0  -6   6  176.38    9.00
   0  -6   6  182.88    8.60
   0  -6   6  167.38    8.80
   0  -6   6  174.78    8.60
   0  -6   6  177.28    9.00
   0  -6   6  185.88    8.70
   0   6   6  154.08   10.60
  -1  -6  -6  167.88    8.30
   1  -6   6  164.28    8.10
   1  -6   6  166.38    8.20
   1  -6   6  159.68    8.20
   1  -6   6  158.68    8.50
   1  -6   6  154.68    8.10
   2  -6   6  316.87   14.70
  -2  -6  -6  296.27   14.90
   2  -6   6  300.97   14.80
   2  -6   6  335.17   15.00
   2  -6   6  297.67   14.70
   2   6   6  303.07   14.70
   3  -6   6  255.87   12.20
  -3  -6  -6  234.08   12.30
   3  -6   6  231.88   11.80
   3  -6   6  245.18   12.00
   3  -6   6  261.37   12.20
   3   6   6  258.67   12.30
   4  -6   6  165.28    8.60
   4  -6   6  170.98    8.70
  -4  -6  -6  165.38    8.90
   4   6   6  169.98    8.90
   5  -6   6   68.49    4.60
  -5  -6  -6   62.39    5.40
   5  -6   6   68.39    4.30
   5  -6   6   66.89    4.20
   5  -6   6   71.79    4.40
   5   6   6   70.39    4.80
   5   6   6   67.09    4.10
   6  -6   6    4.70    1.80
   6  -6   6    4.40    1.60
   6  -6   6    2.10    1.20
   6  -6   6    2.40    1.20
   6   6   6    3.30    2.10
  -8  -7   6   80.79    5.50
  -8  -7   6   81.99    4.70
  -8   7   6   83.79    5.00
  -7  -7   6  154.18    8.50
  -7  -7   6  151.28    7.90
   7  -7  -6  147.19    9.10
  -7   7   6  150.78    7.70
   6  -7  -6  121.79    6.80
   6  -7  -6  121.49    6.90
  -6  -7   6  128.89    6.90
  -6  -7   6  137.29    7.50
  -6  -7   6  109.99    7.40
  -6   7   6  127.69    6.50
  -5  -7   6  189.78    9.30
  -5  -7   6  191.08    9.90
  -5  -7   6  168.48    9.00
   5  -7  -6  185.68    9.10
  -5  -7   6  166.38    9.80
  -5   7   6  182.18    9.00
  -4  -7   6  156.08    8.10
  -4  -7   6  155.28    9.00
   4  -7  -6  164.88    8.30
  -4  -7   6  168.58    8.90
  -4  -7   6  158.88    8.40
  -4   7   6  167.98    8.10
  -3  -7   6  124.49    6.50
   3  -7  -6  124.39    6.70
   3  -7  -6  126.59    6.70
  -3  -7   6  125.69    6.70
  -3  -7   6  129.19    7.20
  -3  -7   6  119.59    7.50
  -3   7   6  120.59    6.40
   2  -7  -6   82.79    5.00
   2  -7  -6   87.19    5.00
  -2  -7   6   85.39    5.50
  -2  -7   6   87.09    4.80
  -2  -7   6   85.79    5.00
  -2  -7   6   83.79    4.90
  -2  -7   6   84.29    6.20
  -1  -7   6  647.14   29.70
  -1  -7   6  624.34   29.70
  -1  -7   6  638.74   29.80
   1  -7  -6  665.53   29.90
  -1  -7   6  662.33   30.20
  -1  -7   6  628.24   30.20
   0  -7   6  330.17   15.10
   0  -7   6  315.97   15.10
   0  -7  -6  336.67   15.20
   0  -7   6  302.47   15.10
   0  -7   6  303.57   15.50
   0  -7   6  306.77   15.10
   0  -7   6  306.57   15.00
   0  -7   6  329.17   15.50
   1  -7   6   82.69    4.80
   1  -7   6   81.39    4.60
  -1  -7  -6   79.49    5.00
   1  -7   6   77.89    4.80
   1  -7   6   78.89    4.80
   1  -7   6   85.39    5.60
   2  -7   6  432.56   20.40
  -2  -7  -6  428.36   20.50
   2  -7   6  419.56   20.40
   2  -7   6  431.56   20.90
   2  -7   6  456.95   20.40
   2  -7   6  428.36   20.40
   3  -7   6   18.90    2.50
   3  -7   6   26.20    2.80
  -3  -7  -6   26.40    3.50
   3  -7   6   27.70    3.40
   3  -7   6   26.40    3.10
   3   7   6   27.80    3.50
   3   7   6   28.70    2.40
   4  -7   6  256.07   13.80
   4  -7   6  312.37   13.70
   4  -7   6  260.47   12.90
   4  -7   6  258.57   13.20
  -4  -7  -6  258.67   13.20
   4  -7   6  266.37   12.90
   4   7   6  252.87   12.50
   5  -7   6   26.40    2.90
   5  -7   6   28.80    2.70
   5  -7   6   20.20    2.40
   5   7   6   20.70    3.00
  -7  -8   6   45.40    4.10
  -7  -8   6   41.20    3.10
  -7   8   6   33.90    3.30
  -6  -8   6   33.60    3.10
  -6  -8   6   36.50    4.90
  -6   8   6   30.10    2.90
  -5  -8   6  177.38    8.80
   5  -8  -6  168.08    8.70
  -5  -8   6  168.58    9.30
  -5  -8   6  158.98    8.40
  -4  -8   6  505.55   27.70
  -4  -8   6  631.54   27.50
  -4  -8   6  588.24   27.80
   4  -8  -6  589.24   27.30
  -4   8   6  616.44   27.20
  -3  -8   6  602.14   25.90
  -3  -8   6  579.34   26.20
  -3  -8   6  461.55   26.10
   3  -8  -6  553.44   25.70
  -3  -8   6  554.34   25.50
  -3   8   6  554.94   25.60
   2  -8  -6  142.69    7.40
  -2  -8   6  135.49    7.30
  -2  -8   6  132.19    7.70
  -2  -8   6  137.19    7.00
   2  -8  -6  136.59    7.30
  -1  -8   6    1.00    2.00
   1  -8  -6    1.30    1.50
   1  -8  -6   -0.30    1.30
  -1  -8   6    1.90    1.20
  -1  -8   6   -0.40    1.50
   0  -8   6    9.10    3.10
   0  -8   6    7.70    1.60
   0  -8  -6    6.00    1.80
   0  -8   6    6.50    2.00
   0  -8   6    3.60    2.00
   0  -8   6    4.90    2.30
   1  -8   6  146.19    7.20
   1  -8   6  130.69    7.30
  -1  -8  -6  137.99    7.50
   1  -8   6  136.59    7.40
   1  -8   6  139.99    7.40
   1  -8   6  133.49    8.30
   2  -8   6  246.68   12.30
   2  -8   6  249.48   13.10
   2  -8   6  254.77   12.50
  -2  -8  -6  246.88   12.40
   2  -8   6  250.07   12.40
   3  -8   6  359.06   16.50
   3  -8   6  346.97   16.30
   3  -8   6  341.37   16.30
  -3  -8  -6  315.97   16.50
   4  -8   6  319.47   15.30
   4  -8   6  327.17   15.20
   4  -8   6  309.57   15.40
  -5  -9   6   30.10    3.00
  -5  -9   6   34.70    3.80
   5  -9  -6   31.90    3.50
  -5   9   6   31.20    2.90
  -4  -9   6    3.70    1.60
  -4  -9   6    2.30    1.50
  -4  -9   6    2.80    3.10
   4  -9  -6    6.80    1.70
  -4   9   6    5.60    1.50
   3  -9  -6  143.09    7.60
  -3  -9   6  151.68    8.00
  -3  -9   6  142.29    7.60
  -3  -9   6  133.99    7.20
  -3   9   6  140.29    7.20
   2  -9  -6  271.67   13.40
  -2  -9   6  273.37   13.30
  -2  -9   6  279.77   13.80
  -2  -9   6  263.37   13.20
  -2   9   6  286.47   13.30
  -1  -9   6   79.29    5.10
  -1  -9   6   84.39    4.90
  -1  -9   6   82.09    5.70
   1  -9  -6   85.59    5.10
   1  -9  -6   81.89    5.40
   0  -9  -6  391.16   17.60
   0  -9   6  341.67   16.90
   0  -9  -6  341.07   17.20
  -1  -9  -6  719.43   35.50
   1  -9   6  809.72   35.40
  -1  -9  -6  773.62   35.50
  -2  -9  -6   36.60    3.80
   2  -9   6   34.10    3.30
   2  -9   6   40.30    3.20
   3  -9   6    0.90    1.30
   3  -9   6    4.60    2.30
  -3  -9  -6    4.00    2.50
  -3 -10   6   89.29    6.30
  -3 -10   6  103.79    5.60
  -3 -10   6  106.79    5.40
   3 -10  -6   98.39    5.80
  -3  10   6  116.99    7.30
   2 -10  -6  316.47   15.70
  -2 -10   6  329.17   15.70
  -2 -10   6  339.07   16.20
  -2 -10   6  337.97   15.50
  -2  10   6  328.27   15.60
   1 -10  -6   27.40    3.40
  -1 -10   6   33.20    2.60
  -1  10   6   28.60    3.00
   0 -10  -6    6.80    1.60
   0 -10  -6    8.50    2.10
   0 -10   6    7.80    1.40
  10   0  -7    2.70    1.90
 -10   0   7   -1.90    1.80
  10   0  -7    0.00    1.30
 -10   0   7    1.20    1.60
   9   0  -7    1.20    1.10
   9   0  -7   -0.10    1.70
  -9   0   7    1.60    1.90
  -9   0   7   -0.20    1.80
  -8   0   7    0.10    1.50
   8   0  -7    1.80    1.10
  -8   0   7   -0.60    1.30
  -8   0   7    0.10    2.50
  -8   0   7   -2.20    1.70
  -7   0   7   -0.60    1.40
   7   0  -7    0.00    0.80
  -7   0   7   -1.20    1.60
  -7   0   7    1.00    1.70
  -7   0   7    1.00    1.50
  -6   0   7    2.20    2.00
  -6   0   7   -0.30    1.40
  -6   0   7    0.80    1.10
  -6   0   7   -0.50    1.30
   6   0  -7    0.10    0.70
  -6   0   7    0.80    1.20
  -5   0   7   -0.10    0.90
  -5   0   7    1.10    1.70
  -5   0   7    1.20    1.20
  -5   0   7    1.40    2.00
   5   0  -7    0.40    0.70
  -4   0   7   -1.20    0.80
  -4   0   7    0.70    1.20
  -4   0   7    1.60    1.50
  -4   0   7   -0.40    0.90
   4   0  -7    0.10    0.60
  -4   0   7    0.30    1.10
  -4   0   7    1.60    1.10
  -3   0   7   -0.70    0.70
  -3   0   7    0.70    0.90
  -3   0   7    1.80    1.00
  -3   0   7   -0.10    1.00
  -3   0   7    0.00    0.90
   3   0  -7   -0.10    0.70
  -3   0   7   -0.60    1.40
   2   0  -7   -1.90    0.70
  -2   0   7   -2.20    0.80
  -2   0   7   -1.60    0.60
  -2   0   7   -1.20    0.90
  -2   0   7   -1.90    0.90
  -2   0   7   -1.00    2.20
  -1   0   7    0.40    0.90
   1   0  -7   -0.40    0.60
  -1   0   7    0.00    0.60
  -1   0   7   -0.40    0.90
  -1   0   7    4.90    2.10
  -1   0   7    0.10    0.90
   0   0  -7    0.30    0.70
   0   0   7   -0.10    0.90
   0   0   7    0.00    0.60
   0   0   7    2.80    1.10
   0   0   7    0.30    1.10
   1   0   7    0.10    1.30
   1   0   7    0.30    0.80
   1   0   7    0.00    0.70
   1   0   7    0.80    1.00
   2   0   7   -0.70    0.80
   2   0   7    0.40    0.80
   2   0   7    2.30    0.60
   2   0   7    1.00    1.50
   2   0   7    0.60    1.10
   3   0   7    0.00    0.90
   3   0   7    0.60    1.00
   3   0   7   -0.20    2.10
   3   0   7   -0.20    1.10
   3   0   7    0.50    0.60
   4   0   7    0.20    1.50
   4   0   7    0.50    1.50
   4   0   7    0.40    0.70
   5   0   7   -0.70    1.70
   5   0   7   -0.80    0.80
   5   0   7   -0.10    1.30
   6   0   7    0.10    1.50
   6   0   7    0.70    1.00
  -6   0  -7    1.80    1.60
   7   0   7    0.40    1.10
   7   0   7   -1.00    1.90
   7   0   7   -1.20    1.20
  -7   0  -7   -0.60    1.90
   8   0   7    1.30    1.20
   8   0   7   -0.20    0.90
  10  -1  -7    1.90    1.30
 -10  -1   7    0.10    1.90
 -10  -1   7    1.30    1.80
  10  -1  -7   -0.40    1.80
 -10   1   7    3.00    1.80
  10   1  -7   -0.40    1.20
 -10   1   7    0.00    1.90
 -10   1   7   -1.50    2.80
   9  -1  -7   -0.10    1.10
  -9  -1   7   -0.70    1.90
  -9  -1   7    0.40    1.60
  -9  -1   7    0.90    2.40
  -9   1   7   -1.30    1.60
  -9   1   7    2.00    1.50
   9   1  -7    1.50    1.20
   9   1  -7    1.20    1.70
  -9   1   7    0.10    1.70
  -8  -1   7  169.98    8.80
  -8  -1   7  163.78    8.50
  -8  -1   7  158.88    9.00
  -8  -1   7  150.98    8.50
   8  -1  -7  166.98    8.10
  -8   1   7  170.28    8.80
   8   1  -7  162.58    8.10
  -8   1   7  163.88    8.50
  -8   1   7  166.38    8.40
   7  -1  -7  146.99    7.40
  -7  -1   7  152.58    8.40
  -7  -1   7  158.28    7.80
  -7  -1   7  148.39    8.00
  -7  -1   7  150.48    8.00
  -7  -1   7  135.09    8.30
   7   1  -7  147.39    7.30
  -7   1   7  156.08    7.80
  -7   1   7  152.88    7.50
  -7   1   7  136.89    8.20
  -6  -1   7  284.17   13.90
  -6  -1   7  295.37   14.10
  -6  -1   7  296.97   14.10
  -6  -1   7  268.67   13.70
  -6  -1   7  302.17   14.10
   6  -1  -7  287.77   13.60
  -6   1   7  288.07   13.70
  -6   1   7  290.27   13.90
   6   1  -7  289.57   13.60
  -6   1   7  296.87   14.10
  -5  -1   7    1.50    1.60
  -5  -1   7    0.50    1.20
   5  -1  -7    1.10    0.70
  -5  -1   7    0.10    1.10
  -5  -1   7    0.20    1.10
  -5  -1   7   -0.80    1.70
  -5   1   7    0.80    0.80
   5   1  -7    0.60    0.70
  -5   1   7   -0.90    1.50
  -5   1   7    7.60    2.10
  -4  -1   7  830.82   39.40
   4  -1  -7  836.82   39.00
   4  -1  -7  885.01   39.20
  -4  -1   7  879.61   39.30
  -4  -1   7  889.41   39.30
  -4  -1   7  850.11   39.30
  -4   1   7  832.82   39.20
   4   1  -7  896.71   39.10
  -4   1   7  768.72   39.50
  -4   1   7  851.41   39.00
  -4   1   7  895.81   39.80
  -4   1   7  890.71   39.30
  -3  -1   7  218.58   11.00
   3  -1  -7  223.78   10.60
  -3  -1   7  235.78   10.70
  -3  -1   7  219.68   10.70
  -3  -1   7  242.48   10.80
  -3  -1   7  218.08   10.70
  -3  -1   7  236.38   11.00
  -3   1   7  233.18   11.20
  -3   1   7  220.88   11.10
  -3   1   7  213.68   10.50
  -3   1   7  214.68   10.70
  -3   1   7  229.38   10.80
  -2  -1   7   -0.20    1.10
  -2  -1   7   -0.40    1.20
  -2  -1   7   -0.50    0.80
  -2  -1   7    0.20    0.90
   2  -1  -7   -0.90    0.60
  -2  -1   7    1.30    1.00
  -2  -1   7   -0.80    0.60
  -2   1   7   -1.60    0.90
  -2   1   7    0.40    1.00
  -2   1   7   -0.50    1.00
  -2   1   7   -1.10    0.60
   2   1  -7    0.10    0.80
  -1  -1   7  337.17   15.00
   1  -1  -7  333.37   15.00
  -1  -1   7  282.67   15.20
  -1  -1   7  342.77   15.20
  -1  -1   7  323.67   15.10
  -1  -1   7  322.67   15.00
   1   1  -7  335.77   14.90
  -1   1   7  297.97   15.10
  -1   1   7  324.17   14.90
  -1   1   7  320.17   15.60
  -1   1   7  328.27   15.00
   0  -1   7   23.80    2.10
   0  -1   7   26.00    2.70
   0  -1  -7   25.40    1.80
   0  -1   7   25.30    2.00
   0  -1   7   22.30    2.00
   0  -1   7   24.70    1.80
   0   1   7   23.50    2.40
   0   1   7   24.10    2.10
   0   1   7   25.00    1.80
  -1  -1  -7   93.89    4.90
   1  -1   7   88.09    5.00
   1  -1   7   93.29    5.00
   1  -1   7   92.89    4.60
   1  -1   7   96.59    4.80
   1  -1   7   87.99    4.80
   1   1   7   93.19    4.80
   1   1   7   94.59    4.70
   1   1   7   90.09    5.50
   1   1   7   96.39    4.90
   2  -1   7  139.29    6.80
  -2  -1  -7  136.79    7.00
   2  -1   7  133.69    7.20
   2  -1   7  132.59    7.10
   2  -1   7  148.79    6.90
   2  -1   7  135.79    6.80
   2  -1   7  128.59    6.60
   2   1   7  132.49    7.70
   2   1   7  136.09    6.90
   2   1   7  143.09    6.90
   2   1   7  136.49    6.70
   3  -1   7  347.97   16.80
   3  -1   7  336.37   17.00
  -3  -1  -7  338.67   17.00
   3  -1   7  371.36   16.60
   3  -1   7  375.06   16.80
   3  -1   7  361.96   16.80
   3   1   7  366.66   16.60
   3   1   7  355.26   16.90
   3   1   7  326.77   17.80
   3   1   7  375.26   16.80
   3   1   7  380.26   16.90
  -4  -1  -7   67.09    4.10
   4  -1   7   65.59    3.90
   4  -1   7   57.59    4.10
   4  -1   7   63.49    4.40
   4  -1   7   64.59    3.40
   4   1   7   58.19    3.40
   4   1   7   63.29    4.00
   4   1   7   54.09    4.20
   4   1   7   50.89    6.60
   5  -1   7   16.70    2.10
   5  -1   7   23.30    3.60
   5  -1   7   23.30    2.90
   5  -1   7   25.00    2.00
  -5  -1  -7   24.60    2.90
   5   1   7   20.80    2.70
   5   1   7   25.00    2.10
   6  -1   7  127.79    6.90
   6  -1   7  120.39    6.90
  -6  -1  -7  127.09    6.90
   6  -1   7  123.89    6.50
   6   1   7  118.89    6.80
  -7  -1  -7   26.10    3.50
   7  -1   7   21.40    2.60
   7  -1   7   23.50    2.30
  -7   1  -7   25.50    3.50
   7   1   7   25.10    2.30
   7   1   7   21.80    2.50
   8  -1   7   76.79    4.10
   8  -1   7   78.19    4.20
   8   1   7   74.39    4.00
   8   1   7   74.89    4.20
  10  -2  -7  503.05   24.20
  10  -2  -7  491.95   24.30
 -10  -2   7  529.85   24.40
 -10   2   7  570.14   25.30
  10   2  -7  548.05   24.30
 -10   2   7  496.75   24.60
 -10   2   7  535.55   24.40
   9  -2  -7   -0.10    1.30
   9  -2  -7    0.60    1.20
  -9  -2   7    0.90    2.00
  -9  -2   7    0.30    1.70
  -9  -2   7    3.80    2.10
  -9   2   7    2.20    1.70
  -9   2   7    3.30    1.60
   9   2  -7    0.20    1.10
  -9   2   7    1.60    1.80
  -8  -2   7  155.08    8.20
  -8  -2   7  135.99    8.20
  -8  -2   7  138.69    7.90
  -8  -2   7  148.89    7.70
   8  -2  -7  142.49    7.40
  -8   2   7  151.88    7.70
  -8   2   7  141.49    7.60
   8   2  -7  154.78    7.40
   8   2  -7  142.59    7.40
  -7  -2   7   36.60    3.60
  -7  -2   7   42.80    3.70
   7  -2  -7   38.40    2.80
  -7  -2   7   34.30    3.60
  -7  -2   7   40.60    3.20
  -7   2   7   39.60    2.90
  -7   2   7   45.50    3.30
   7   2  -7   37.50    2.70
   6  -2  -7  317.37   14.70
  -6  -2   7  318.17   15.20
  -6  -2   7  303.87   14.90
  -6  -2   7  319.57   15.20
  -6  -2   7  316.77   15.10
  -6   2   7  315.37   14.90
  -6   2   7  307.27   14.70
   6   2  -7  299.57   14.50
  -5  -2   7  311.67   15.30
   5  -2  -7  324.27   15.00
  -5  -2   7  316.87   15.20
   5  -2  -7  305.87   14.90
  -5  -2   7  313.17   15.40
  -5  -2   7  336.37   15.40
  -5   2   7  337.47   15.80
  -5   2   7  327.77   15.20
   5   2  -7  330.67   14.90
  -5   2   7  304.77   14.90
   4  -2  -7   63.19    3.60
  -4  -2   7   69.99    3.80
   4  -2  -7   66.09    3.50
  -4  -2   7   70.69    3.90
  -4  -2   7   65.79    3.80
  -4  -2   7   69.19    4.00
   4  -2  -7   67.19    3.60
  -4  -2   7   63.29    4.10
   4   2  -7   66.19    3.50
  -4   2   7   63.19    3.90
  -4   2   7   71.69    4.40
  -4   2   7   63.69    3.90
  -4   2   7   62.49    3.50
  -3  -2   7 1501.75   68.39
  -3  -2   7 1484.75   68.59
  -3  -2   7 1486.75   68.39
   3  -2  -7 1513.45   68.29
  -3  -2   7 1423.26   68.59
  -3  -2   7 1610.44   68.49
  -3   2   7 1519.95   68.19
  -3   2   7 1537.65   68.99
  -3   2   7 1511.45   68.49
  -3   2   7 1480.45   68.39
  -2  -2   7  148.19    7.30
  -2  -2   7  160.58    7.40
  -2  -2   7  140.79    7.30
  -2  -2   7  158.48    7.30
   2  -2  -7  150.18    7.30
  -2  -2   7  143.49    7.50
  -2   2   7  141.09    7.40
  -2   2   7  158.08    8.00
  -2   2   7  142.99    7.30
  -2   2   7  142.89    7.00
  -1  -2   7  448.06   19.00
  -1  -2   7  391.36   18.80
  -1  -2   7  405.96   18.90
  -1  -2   7  385.06   19.00
  -1  -2   7  423.16   19.00
   1  -2  -7  403.56   18.90
  -1   2   7  388.76   19.00
  -1   2   7  411.26   18.80
  -1   2   7  399.26   18.90
  -1   2   7  420.96   19.60
   0  -2   7   90.59    4.40
   0  -2   7   84.39    4.60
   0  -2  -7   90.59    4.50
   0  -2   7   82.69    4.50
   0  -2   7   79.59    4.50
   0  -2   7   77.89    4.40
   0  -2   7   74.79    4.80
   0  -2   7   89.39    4.50
   0  -2   7   88.19    4.40
   0   2   7   88.39    4.50
   0   2   7   89.49    4.50
   0   2   7   86.09    4.30
   0   2   7   85.49    5.30
   1  -2   7 1208.38   52.49
   1  -2   7 1169.08   52.29
   1  -2   7 1128.49   52.29
   1  -2   7 1095.79   52.69
   1  -2   7 1065.89   52.39
   1  -2   7 1207.48   52.39
  -1  -2  -7 1131.69   52.49
   1  -2   7 1038.40   52.49
   1  -2   7 1136.59   52.19
   1   2   7 1200.68   52.39
   1   2   7 1199.18   52.39
   1   2   7 1192.48   52.19
   1   2   7 1181.58   53.29
   2  -2   7  580.64   27.50
   2  -2   7  585.94   27.30
   2  -2   7  615.54   27.50
  -2  -2  -7  637.54   27.60
   2  -2   7  617.34   27.40
   2  -2   7  586.14   27.30
   2   2   7  570.64   27.40
   2   2   7  568.54   27.80
   2   2   7  601.54   27.60
   2   2   7  575.84   28.40
   3  -2   7   16.00    2.00
   3  -2   7   16.70    1.80
   3  -2   7   12.30    1.70
   3  -2   7   15.20    2.10
   3  -2   7   14.20    1.60
   3  -2   7   15.50    1.70
  -3  -2  -7   14.20    2.00
   3  -2   7   16.30    1.80
   3   2   7   17.00    2.10
   3   2   7   16.20    1.50
   3   2   7   14.40    1.80
   3   2   7   10.60    3.20
   4  -2   7   14.70    1.70
   4  -2   7   12.90    1.60
   4  -2   7    9.80    1.50
   4  -2   7    9.80    1.80
  -4  -2  -7    9.10    1.70
   4  -2   7   12.20    2.30
   4  -2   7   14.60    1.70
   4   2   7   13.60    1.80
   4   2   7    9.90    4.40
   4   2   7   13.60    1.70
   5  -2   7    3.00    1.20
   5  -2   7    1.20    1.80
  -5  -2  -7   -1.00    1.40
   5  -2   7    1.80    0.90
   5  -2   7    2.50    1.50
   5   2   7    1.40    1.50
   5   2   7    2.90    1.00
   6  -2   7    0.30    1.70
   6  -2   7    0.60    1.00
   6  -2   7   -1.10    1.30
  -6  -2  -7   -0.50    1.90
   6   2   7    0.40    0.90
   6   2   7    1.00    1.40
   7  -2   7   12.30    2.30
   7  -2   7   11.80    1.60
   7  -2   7    6.00    1.20
  -7  -2  -7   11.60    2.70
   7   2   7    7.30    1.20
   7   2   7    6.10    1.80
  10  -3  -7   42.30    5.10
 -10  -3   7   46.50    3.40
 -10  -3   7   42.70    3.90
 -10   3   7   30.70    4.20
  10   3  -7   45.20    3.30
 -10   3   7   45.40    3.50
 -10   3   7   41.90    3.70
  -9  -3   7   25.40    3.60
  -9  -3   7   32.70    3.40
   9  -3  -7   33.40    2.90
  -9  -3   7   32.40    3.70
  -9   3   7   34.80    3.30
  -9   3   7   46.50    4.80
   9   3  -7   33.50    2.70
   8  -3  -7   -0.40    1.00
  -8  -3   7    1.70    1.70
  -8  -3   7    4.90    2.20
  -8  -3   7    2.00    1.40
  -8  -3   7    0.20    1.80
  -8   3   7    3.30    1.50
   8   3  -7    3.40    1.10
  -8   3   7    2.90    1.80
  -7  -3   7    5.60    1.60
  -7  -3   7    7.40    2.10
   7  -3  -7    6.50    1.30
  -7  -3   7    6.40    2.10
  -7  -3   7    6.80    1.70
  -7   3   7    7.00    1.30
  -7   3   7    8.00    2.10
  -6  -3   7   12.50    1.80
  -6  -3   7   18.10    2.40
  -6  -3   7   17.00    2.40
   6  -3  -7   16.80    1.80
  -6  -3   7   16.50    2.00
  -6   3   7   16.60    2.20
   6   3  -7   12.70    1.90
  -6   3   7   16.50    2.10
  -5  -3   7  692.83   30.10
  -5  -3   7  649.34   29.80
   5  -3  -7  635.54   29.60
   5  -3  -7  609.24   29.50
  -5  -3   7  673.13   30.10
   5  -3  -7  680.73   29.60
  -5   3   7  632.44   29.60
   5   3  -7  637.24   29.40
  -5   3   7  635.64   29.80
  -5   3   7  609.84   30.40
  -4  -3   7  131.19    6.70
  -4  -3   7  142.59    7.00
   4  -3  -7  130.29    6.60
  -4  -3   7  128.59    6.90
  -4  -3   7  140.19    7.00
  -4  -3   7  129.69    6.80
   4  -3  -7  136.19    6.60
   4  -3  -7  124.19    6.50
  -4   3   7  134.89    6.50
  -4   3   7  126.59    6.80
   4   3  -7  136.69    6.40
  -4   3   7  137.39    7.50
  -4   3   7  135.49    6.90
  -3  -3   7   84.99    4.40
   3  -3  -7   77.99    4.10
  -3  -3   7   80.09    4.20
   3  -3  -7   77.79    4.10
  -3  -3   7   73.19    4.30
  -3  -3   7   75.29    4.40
  -3  -3   7   91.89    4.30
  -3   3   7   74.99    3.90
  -3   3   7   70.59    4.40
  -3   3   7   75.19    4.90
  -3   3   7   74.99    4.30
  -2  -3   7  171.98    7.90
  -2  -3   7  162.78    7.90
  -2  -3   7  158.68    7.60
  -2  -3   7  155.98    8.00
   2  -3  -7  169.28    7.90
  -2  -3   7  162.18    7.80
  -2  -3   7  157.78    7.80
  -2   3   7  156.88    8.00
  -2   3   7  142.09    9.60
  -2   3   7  165.38    7.90
  -1  -3   7  783.32   36.10
  -1  -3   7  839.22   36.20
  -1  -3   7  751.92   36.10
  -1  -3   7  817.62   36.00
  -1  -3   7  743.53   36.00
  -1  -3   7  798.62   36.10
   1  -3  -7  753.82   36.20
  -1  -3   7  733.13   36.20
  -1   3   7  821.82   36.10
  -1   3   7  857.61   37.20
   0  -3   7  101.49    5.40
   0  -3   7   96.49    5.60
   0  -3   7  106.19    5.30
   0  -3   7  104.69    5.40
   0  -3   7  103.29    5.30
   0  -3   7  107.49    5.40
   0  -3  -7  109.09    5.50
   0   3   7  109.39    5.40
   0   3   7  106.29    5.40
   0   3   7   97.69    6.50
   1  -3   7   18.70    2.20
  -1  -3  -7   19.30    2.00
   1  -3   7   16.20    2.10
   1  -3   7   18.60    1.80
   1  -3   7   24.20    2.00
   1  -3   7   15.60    1.70
   1  -3   7   17.70    2.20
   1  -3   7   16.00    1.90
   1   3   7   17.20    2.10
   1   3   7   14.90    3.00
   1   3   7   14.60    1.80
   2  -3   7  219.28   10.80
   2  -3   7  214.48   10.80
  -2  -3  -7  223.98   10.90
   2  -3   7  227.38   10.40
   2  -3   7  228.58   10.80
   2  -3   7  211.08   10.80
   2   3   7  214.38   10.80
   2   3   7  239.28   10.80
   2   3   7  218.98   12.10
   3  -3   7  261.67   12.60
  -3  -3  -7  261.77   12.80
   3  -3   7  257.17   12.50
   3  -3   7  257.57   13.20
   3  -3   7  264.17   12.20
   3   3   7  278.07   12.20
   3   3   7  259.87   12.70
   3   3   7  237.88   14.40
  -4  -3  -7   75.99    4.80
   4  -3   7   72.19    4.50
   4  -3   7   71.49    4.00
   4  -3   7   77.99    4.40
   4  -3   7   74.29    4.50
   4   3   7   71.49    4.60
   4   3   7   74.09    4.00
   5  -3   7  131.99    6.80
   5  -3   7  135.49    7.30
  -5  -3  -7  140.89    7.50
   5  -3   7  144.19    7.10
   5   3   7  131.69    7.40
   5   3   7  135.49    6.80
   6  -3   7  395.46   18.40
  -6  -3  -7  389.56   18.60
   6  -3   7  373.66   18.00
   6   3   7  386.26   17.90
   6   3   7  384.56   18.40
   7  -3   7  133.59    6.50
   7  -3   7  128.49    6.60
   7  -3   7  118.89    7.00
   7   3   7  134.49    6.40
   7   3   7  128.09    7.10
 -10  -4   7   -2.00    1.80
 -10  -4   7    2.50    1.50
 -10   4   7    3.10    2.00
  10   4  -7   -0.20    1.80
  -9  -4   7  143.89    7.30
  -9  -4   7  144.39    7.80
   9  -4  -7  136.59    7.10
  -9  -4   7  116.29    7.70
  -9  -4   7  133.99    7.40
  -9   4   7  141.89    7.30
   9   4  -7  141.29    7.10
  -8  -4   7    4.00    2.00
  -8  -4   7    7.00    1.60
   8  -4  -7    4.40    1.60
  -8  -4   7    4.70    1.70
   8  -4  -7    9.20    1.60
  -8  -4   7    5.40    2.00
  -8   4   7    6.10    2.40
   8   4  -7    8.40    1.40
  -8   4   7    8.40    1.60
  -7  -4   7   32.60    3.60
  -7  -4   7   27.50    2.90
   7  -4  -7   31.90    2.60
  -7  -4   7   29.80    3.60
  -7  -4   7   33.10    3.00
  -7   4   7   30.30    3.70
  -7   4   7   30.10    2.60
   7   4  -7   33.50    2.60
  -6  -4   7   -0.90    1.70
  -6  -4   7    0.60    1.60
   6  -4  -7    0.60    1.00
  -6  -4   7    1.10    1.90
  -6  -4   7   -0.50    1.20
  -6   4   7   -0.20    0.90
  -6   4   7    3.10    1.90
  -5  -4   7  945.41   41.80
   5  -4  -7  874.41   41.20
  -5  -4   7  954.20   41.60
   5  -4  -7  893.01   41.30
  -5  -4   7  880.81   41.70
   5  -4  -7  964.80   41.20
  -5  -4   7  899.91   41.30
  -5   4   7  887.81   41.30
  -5   4   7  859.61   42.20
  -5   4   7  857.01   41.30
  -4  -4   7    4.70    1.40
  -4  -4   7    4.70    1.30
  -4  -4   7    4.30    1.20
  -4  -4   7    7.10    1.80
  -4  -4   7    8.30    1.60
   4  -4  -7    6.50    1.00
   4  -4  -7    6.20    1.20
   4  -4  -7    4.90    1.10
  -4   4   7    4.00    0.90
  -4   4   7    4.70    1.60
  -4   4   7   10.10    2.70
   3  -4  -7    0.40    0.90
  -3  -4   7    0.00    1.30
  -3  -4   7    0.90    0.90
  -3  -4   7    0.90    1.00
  -3  -4   7    0.00    1.40
  -3  -4   7    1.40    1.30
   3  -4  -7    1.40    0.80
  -3   4   7    1.50    1.80
  -3   4   7    1.00    0.70
  -3   4   7    1.30    1.90
   3   4  -7    1.90    1.00
  -3   4   7   -2.50    2.70
  -2  -4   7   94.59    5.20
  -2  -4   7   96.69    5.30
  -2  -4   7  108.69    5.40
  -2  -4   7   96.59    4.90
  -2  -4   7   95.89    5.20
   2  -4  -7   96.69    4.90
  -2  -4   7   92.09    5.10
  -2  -4   7   97.49    5.20
  -2  -4   7   97.59    5.10
   2  -4  -7  101.49    5.10
  -2   4   7   91.79    5.30
  -2   4   7   89.69    5.10
  -2   4   7   97.99    6.10
  -1  -4   7  105.89    5.30
  -1  -4   7  103.19    5.60
  -1  -4   7   99.59    5.60
  -1  -4   7  112.69    5.50
  -1  -4   7  115.69    5.70
  -1  -4   7  104.49    5.40
   1  -4  -7  108.29    5.60
  -1  -4   7  104.49    5.70
  -1  -4   7  105.99    5.60
  -1  -4   7  107.19    5.40
  -1   4   7  104.79    6.70
  -1   4   7  105.79    5.50
   0  -4   7   18.10    2.50
   0  -4   7   15.90    1.90
   0  -4   7   15.80    1.90
   0  -4   7   14.60    1.80
   0  -4   7   19.10    2.10
   0  -4   7   15.90    1.80
   0  -4   7   14.60    2.30
   0   4   7   19.40    2.00
   0   4   7   15.70    2.80
  -1  -4  -7   14.50    1.80
   1  -4   7   11.10    2.00
   1  -4   7   14.50    1.90
   1  -4   7   19.00    2.10
   1  -4   7   16.60    2.10
   1  -4   7   20.80    2.10
   1  -4   7   17.70    1.80
   1  -4   7   16.40    2.60
   1   4   7   18.60    1.90
   1   4   7   20.70    2.60
   1   4   7   16.00    3.10
  -2  -4  -7  532.25   23.90
   2  -4   7  528.55   23.60
   2  -4   7  496.15   23.40
   2  -4   7  533.95   23.80
   2  -4   7  470.15   23.60
   2  -4   7  509.45   23.80
   2   4   7  494.15   25.40
   2   4   7  513.35   23.60
   3  -4   7  138.79    7.40
   3  -4   7  138.09    7.40
   3  -4   7  141.89    7.00
  -3  -4  -7  146.09    7.70
   3  -4   7  142.69    7.30
   3   4   7  151.28    7.60
   4  -4   7   -0.40    1.10
   4  -4   7   -0.10    1.20
   4  -4   7   -0.80    0.80
  -4  -4  -7   -0.10    1.60
   4  -4   7   -1.30    1.20
   4   4   7   -0.30    1.30
   4   4   7    0.50    0.80
   5  -4   7    1.30    1.50
  -5  -4  -7   -1.80    2.00
   5  -4   7    1.10    1.20
   5  -4   7    0.70    1.20
   5   4   7   -0.80    1.40
   6  -4   7   30.00    3.40
   6  -4   7   34.90    3.00
   6  -4   7   27.90    2.70
  -6  -4  -7   30.20    3.40
   6   4   7   32.60    2.40
   6   4   7   32.00    3.60
   7  -4   7   -0.40    1.10
   7  -4   7    0.30    1.80
   7  -4   7   -1.20    1.00
   7   4   7   -0.50    1.80
   7   4   7   -1.10    1.10
   9  -5  -7   24.30    2.80
  -9  -5   7   30.90    3.10
  -9  -5   7   31.90    3.60
  -9  -5   7   29.50    3.00
  -9   5   7   24.20    2.60
   9   5  -7   22.30    2.40
   8  -5  -7  158.18    8.00
  -8  -5   7  163.08    8.20
  -8  -5   7  166.38    8.20
  -8  -5   7  169.48    8.90
  -8  -5   7  140.09    8.70
   8   5  -7  153.68    8.70
  -7  -5   7   -0.60    1.20
   7  -5  -7   -0.20    1.20
  -7  -5   7    3.90    2.10
  -7  -5   7    0.50    2.00
  -7  -5   7    0.30    2.00
   7   5  -7   -2.10    1.30
  -7   5   7   -0.40    1.10
  -6  -5   7   25.20    3.20
  -6  -5   7   26.90    3.30
   6  -5  -7   25.30    3.00
  -6  -5   7   24.10    2.90
  -6  -5   7   21.60    2.60
   6  -5  -7   21.30    2.30
  -6   5   7   22.70    2.40
   6   5  -7   21.90    2.30
   5  -5  -7  147.09    7.40
   5  -5  -7  144.09    7.50
  -5  -5   7  148.59    8.20
  -5  -5   7  155.18    8.20
  -5  -5   7  148.99    7.60
  -5  -5   7  145.29    7.70
  -5   5   7  146.29    7.30
   5   5  -7  144.19    7.30
  -4  -5   7   58.59    3.90
   4  -5  -7   60.09    3.60
  -4  -5   7   60.19    4.30
  -4  -5   7   58.99    3.70
  -4  -5   7   57.29    4.20
   4  -5  -7   59.59    3.40
  -4  -5   7   53.49    4.00
  -4   5   7   62.09    5.90
  -4   5   7   59.49    3.40
  -3  -5   7  428.86   19.80
  -3  -5   7  448.56   20.20
  -3  -5   7  439.06   20.00
   3  -5  -7  417.56   19.60
  -3  -5   7  389.66   19.70
   3  -5  -7  436.56   19.90
  -3  -5   7  433.46   20.20
  -3   5   7  403.76   19.60
  -2  -5   7   37.90    2.80
   2  -5  -7   40.30    2.80
  -2  -5   7   38.00    2.90
  -2  -5   7   39.90    3.30
  -2  -5   7   38.60    3.00
  -2  -5   7   36.90    3.30
  -2   5   7   35.30    3.70
  -2   5   7   41.70    4.40
  -1  -5   7  158.58    7.80
  -1  -5   7  148.99    7.40
   1  -5  -7  148.09    7.20
  -1  -5   7  146.09    7.60
  -1  -5   7  136.29    7.40
   1  -5  -7  149.19    7.50
  -1  -5   7  147.59    7.20
  -1  -5   7  146.89    7.30
  -1  -5   7  147.79    7.70
  -1   5   7  142.29    9.00
   0  -5   7   -0.10    1.00
   0  -5   7   -0.60    1.00
   0  -5  -7   -0.80    1.10
   0  -5   7   -1.20    1.40
   0  -5   7    1.30    1.50
   0  -5   7   -0.50    1.70
   0  -5   7   -1.40    1.10
   0  -5   7    0.80    1.70
   0   5   7   -1.50    2.80
   0   5   7    0.20    2.70
   1  -5   7  580.04   29.40
  -1  -5  -7  664.83   29.60
   1  -5   7  664.33   29.30
   1  -5   7  643.04   29.40
   1  -5   7  655.03   29.40
   1   5   7  604.14   31.10
   1   5   7  590.24   29.20
   1   5   7  681.03   29.70
   2  -5   7  659.23   30.70
   2  -5   7  583.64   30.30
  -2  -5  -7  693.23   30.90
   2  -5   7  673.43   30.60
   2  -5   7  681.03   30.70
   2   5   7  687.83   30.70
   3  -5   7  193.98    9.60
   3  -5   7  188.58    9.60
   3  -5   7  182.68    9.30
   3  -5   7  194.78    9.70
  -3  -5  -7  189.18    9.90
   3   5   7  204.78    9.80
   4  -5   7  222.98   11.40
  -4  -5  -7  226.18   11.60
   4  -5   7  226.68   10.90
   4  -5   7  231.28   11.20
   4  -5   7  235.38   11.30
   4   5   7  219.38   11.50
   4   5   7  234.68   10.80
   5  -5   7   20.90    2.40
   5  -5   7   22.70    2.30
  -5  -5  -7   15.60    2.90
   5  -5   7   13.50    1.70
   5   5   7   19.40    2.00
   5   5   7   12.20    2.20
   6  -5   7  128.79    6.50
   6  -5   7  121.89    6.40
   6  -5   7  126.59    6.90
   6   5   7  125.19    7.00
   6   5   7  130.19    6.30
  -8  -6   7  171.18    8.10
   8  -6  -7  144.29    8.10
  -8  -6   7  145.09    8.60
  -8   6   7  171.28    8.20
  -7  -6   7  193.78   10.10
  -7  -6   7  195.88   10.00
  -7  -6   7  179.58   10.10
   7  -6  -7  184.28    9.30
  -7   6   7  191.58    9.40
   6  -6  -7   12.40    1.70
  -6  -6   7   11.00    1.70
  -6  -6   7   10.90    2.20
  -6  -6   7   11.00    2.30
   6  -6  -7   15.40    2.10
  -6   6   7   17.00    2.20
  -5  -6   7    8.20    2.30
  -5  -6   7    5.70    2.00
   5  -6  -7    5.40    1.40
   5  -6  -7    6.80    1.60
  -5  -6   7    7.20    1.70
  -5   6   7    5.10    1.20
  -4  -6   7    5.90    1.70
  -4  -6   7    6.70    2.30
   4  -6  -7    7.70    1.40
  -4  -6   7    6.40    1.60
  -4  -6   7    6.40    2.10
   4  -6  -7    7.70    1.50
   4  -6  -7    5.00    1.60
  -4   6   7    6.70    1.30
  -3  -6   7   89.89    5.10
   3  -6  -7   97.19    5.30
   3  -6  -7   94.69    5.20
   3  -6  -7   88.69    4.90
  -3  -6   7   93.49    5.30
  -3  -6   7   90.99    5.10
  -3  -6   7   95.29    5.90
  -3  -6   7   98.19    5.80
  -3   6   7   89.79    4.90
  -2  -6   7    2.40    2.00
  -2  -6   7    0.60    1.20
   2  -6  -7    0.70    1.20
   2  -6  -7    1.80    1.20
  -2  -6   7    0.90    1.20
  -2  -6   7    0.80    1.10
  -2  -6   7    0.60    1.70
  -1  -6   7  136.79    6.60
  -1  -6   7  118.09    6.50
  -1  -6   7  126.89    7.20
  -1  -6   7  123.89    6.80
   1  -6  -7  130.59    6.70
  -1  -6   7  132.89    7.10
  -1  -6   7  125.29    6.60
  -1  -6   7  127.49    7.50
  -1   6   7  122.59    7.20
   0  -6   7  189.58   10.10
   0  -6  -7  208.98   10.20
   0  -6   7  199.78   10.00
   0  -6   7  205.28   10.00
   0  -6   7  201.68    9.90
   0  -6   7  207.48   10.40
   0  -6   7  208.48   10.10
   0  -6   7  210.58   10.40
   1  -6   7   11.50    1.60
   1  -6   7   12.20    1.60
   1  -6   7   13.10    1.60
  -1  -6  -7   16.00    2.00
   1  -6   7   12.60    1.80
   1  -6   7   15.10    2.30
   2  -6   7   -0.20    1.30
   2  -6   7    3.50    2.40
   2  -6   7    0.60    1.30
   2  -6   7    0.50    1.20
   2  -6   7    0.10    1.70
  -2  -6  -7   -1.80    1.60
   2   6   7    2.80    1.50
   3  -6   7   25.30    2.50
  -3  -6  -7   22.00    2.60
   3  -6   7   14.50    2.00
   3  -6   7   18.50    2.10
   3  -6   7   20.70    2.60
   3   6   7   18.90    1.90
   3   6   7   26.50    3.10
  -4  -6  -7   43.90    4.40
   4  -6   7   44.90    3.20
   4  -6   7   43.30    3.60
   4  -6   7   43.10    3.50
   4  -6   7   42.90    3.40
   4   6   7   45.80    4.00
   4   6   7   43.30    2.90
   5  -6   7   -0.90    1.70
   5  -6   7    1.70    1.50
  -5  -6  -7   -1.60    3.20
   5  -6   7   -0.30    1.40
   5  -6   7    1.50    1.40
   5   6   7    1.10    1.30
   5   6   7    1.50    2.10
   6  -6   7   -1.10    1.10
   6  -6   7    3.80    1.80
   6  -6   7   -1.10    1.00
   6   6   7   -3.80    2.40
  -8  -7   7    0.70    2.20
  -8  -7   7   -1.00    1.20
  -7  -7   7  100.19    6.50
  -7  -7   7  118.49    6.20
  -7   7   7  113.19    6.00
  -6  -7   7   32.60    3.80
  -6  -7   7   34.30    3.40
  -6  -7   7   41.10    4.20
  -6   7   7   40.70    4.00
  -5  -7   7   13.70    2.50
  -5  -7   7   19.80    2.80
   5  -7  -7   22.60    2.90
  -5  -7   7   21.00    2.70
  -5   7   7   20.20    2.30
  -4  -7   7   96.59    5.60
   4  -7  -7   94.79    5.40
  -4  -7   7   88.49    5.30
  -4  -7   7   88.29    6.20
  -4  -7   7  101.19    6.20
  -4   7   7   99.69    5.20
   3  -7  -7  256.77   12.10
  -3  -7   7  255.17   12.10
   3  -7  -7  248.88   12.00
  -3  -7   7  231.68   12.70
  -3  -7   7  219.38   11.90
  -3  -7   7  242.68   11.80
  -3  -7   7  255.97   12.50
  -3   7   7  246.78   11.80
  -2  -7   7    6.30    2.80
  -2  -7   7    3.70    2.00
  -2  -7   7    1.70    1.50
   2  -7  -7    2.00    1.30
  -2  -7   7    3.00    1.20
   2  -7  -7    2.50    1.40
  -2  -7   7    3.20    1.60
  -1  -7   7   47.00    4.10
  -1  -7   7   48.10    3.60
  -1  -7   7   46.00    3.20
  -1  -7   7   45.10    3.70
   1  -7  -7   50.09    3.60
   0  -7   7   38.60    3.70
   0  -7   7   39.20    3.00
   0  -7  -7   46.20    3.50
   0  -7   7   45.10    4.20
   0  -7   7   40.60    4.90
   0  -7   7   40.50    3.50
   0  -7   7   30.50    3.70
   0  -7   7   39.70    3.30
   1  -7   7   20.80    2.20
   1  -7   7   11.00    1.90
   1  -7   7   19.40    2.40
   1  -7   7   18.80    3.00
  -1  -7  -7   16.10    2.20
   1  -7   7   10.80    1.60
   2  -7   7  217.48   10.30
   2  -7   7  206.08   10.40
   2  -7   7  202.58   11.20
   2  -7   7  201.98   10.50
   2  -7   7  215.18   10.50
  -2  -7  -7  206.68   10.60
   3  -7   7  220.88   12.20
   3  -7   7  235.08   11.30
   3  -7   7  222.08   11.50
  -3  -7  -7  225.38   11.60
   3  -7   7  228.68   11.40
   3   7   7  235.58   10.80
   4  -7   7  156.38    7.90
   4  -7   7  151.58    7.70
  -4  -7  -7  144.89    8.60
   4  -7   7  154.58    8.00
   4   7   7  143.19    7.40
   5  -7   7    2.70    1.20
   5  -7   7    3.60    1.70
   5  -7   7    3.30    2.00
  -6  -8   7   79.89    5.50
   6  -8  -7   73.99    5.30
  -6  -8   7   80.09    4.80
  -6   8   7   70.79    4.60
  -5  -8   7  233.28   11.40
  -5  -8   7  224.58   10.90
  -5  -8   7  192.18   11.20
   5  -8  -7  215.18   10.80
  -5   8   7  215.78   10.50
  -4  -8   7   58.99    5.00
  -4  -8   7   63.39    3.90
  -4  -8   7   52.69    5.40
  -4  -8   7   61.79    4.40
   4  -8  -7   61.19    4.10
  -4   8   7   61.59    4.00
  -3  -8   7   -2.10    2.10
  -3  -8   7    0.50    1.50
  -3  -8   7   -0.50    3.10
   3  -8  -7   -0.30    1.40
  -3   8   7   -0.80    1.10
   2  -8  -7   62.49    4.10
  -2  -8   7   56.79    3.80
   2  -8  -7   64.19    4.30
  -2  -8   7   54.89    4.10
  -2  -8   7   60.69    4.60
  -2   8   7   52.39    3.60
  -1  -8   7  125.29    7.30
   1  -8  -7  124.39    6.70
  -1  -8   7  120.89    6.40
   1  -8  -7  119.89    6.70
  -1  -8   7  112.69    6.80
   0  -8  -7   11.80    2.50
   0  -8   7    4.60    1.50
   0  -8   7    7.80    2.10
  -1  -8  -7  151.28    8.10
   1  -8   7  157.48    8.10
   1  -8   7  135.19    8.10
   1  -8   7  156.08    9.20
  -2  -8  -7    2.60    2.40
   2  -8   7    2.20    1.60
   2  -8   7    0.10    1.90
   2  -8   7    1.50    1.80
   3  -8   7    5.20    2.10
   3  -8   7    3.60    1.50
   3  -8   7    4.20    2.00
   3   8   7    4.30    1.50
   4  -8   7    1.80    1.30
   4  -8   7    2.00    2.20
  -5  -9   7  350.06   15.80
  -5  -9   7  319.37   16.10
   5  -9  -7  322.47   16.00
  -4  -9   7   45.10    3.40
   4  -9  -7   46.80    3.80
  -4  -9   7   44.90    4.30
  -4  -9   7   51.89    3.60
  -4   9   7   40.60    3.40
  -3  -9   7    1.30    1.50
   3  -9  -7    2.30    1.40
  -3  -9   7    2.30    2.20
  -3  -9   7    2.00    1.40
  -3   9   7   -0.10    1.40
   2  -9  -7   59.59    4.10
  -2  -9   7   58.99    5.20
  -2  -9   7   57.79    4.20
  -2  -9   7   59.59    3.90
  -2   9   7   60.89    3.80
  -1  -9   7   49.99    4.70
   1  -9  -7   55.39    4.50
  -1  -9   7   58.79    3.80
   1  -9  -7   60.49    4.10
   0  -9   7   14.80    1.90
   0  -9  -7   15.70    2.30
   0  -9  -7   14.80    2.80
   1  -9   7  270.17   12.60
  -1  -9  -7  253.67   12.90
  -2  -9  -7   90.69    5.90
   2  -9   7   99.99    5.30
  10   0  -8    4.40    1.30
 -10   0   8    8.00    2.00
 -10   0   8   10.20    2.40
  -9   0   8  465.65   24.10
   9   0  -8  504.45   23.80
   9   0  -8  526.45   23.90
  -9   0   8  563.44   24.30
  -9   0   8  513.05   24.40
  -8   0   8  834.42   40.00
   8   0  -8  868.61   39.80
  -8   0   8  931.31   40.40
  -8   0   8  830.82   40.40
  -8   0   8  883.51   40.20
  -7   0   8  240.58   12.30
   7   0  -8  249.58   11.80
  -7   0   8  232.88   12.00
  -7   0   8  259.37   12.40
  -7   0   8  252.97   12.20
  -6   0   8   21.00    2.80
  -6   0   8   20.90    2.60
  -6   0   8   22.50    2.50
  -6   0   8   20.60    2.10
   6   0  -8   20.80    1.80
  -6   0   8   18.70    2.60
  -5   0   8   10.10    1.90
  -5   0   8   14.80    1.70
   5   0  -8   13.10    1.40
  -5   0   8    8.70    1.70
  -5   0   8   13.30    1.70
  -4   0   8  834.92   37.70
  -4   0   8  758.92   37.20
  -4   0   8  775.32   37.40
  -4   0   8  787.12   37.10
  -4   0   8  858.31   37.20
   4   0  -8  845.22   37.00
  -3   0   8  724.33   30.90
  -3   0   8  653.13   30.90
  -3   0   8  709.73   31.40
  -3   0   8  679.93   31.00
   3   0  -8  668.73   30.70
  -3   0   8  634.04   30.80
  -3   0   8  642.94   31.10
   2   0  -8 1751.72   80.89
  -2   0   8 1622.64   81.19
  -2   0   8 1828.02   80.99
  -2   0   8 1846.62   80.99
  -2   0   8 1882.41   81.49
  -1   0   8 6406.26  279.37
  -1   0   8 5970.90  279.57
   0   0   8   29.10    2.00
   0   0   8   27.20    2.70
   0   0  -8   28.90    2.10
   0   0   8   26.40    2.20
   0   0   8   24.70    2.30
   1   0   8   86.49    5.00
   1   0   8   87.59    4.70
   1   0   8   83.69    5.40
  -1   0  -8   97.09    4.90
   2   0   8  165.98    8.20
   2   0   8  156.18    9.00
   2   0   8  162.78    8.10
  -2   0  -8  168.38    8.30
   2   0   8  160.48    8.10
   2   0   8  167.58    7.80
   3   0   8  113.39    5.90
   3   0   8  124.79    6.30
   3   0   8  120.79    6.30
   4   0   8    1.60    0.90
   4   0   8    3.10    1.30
  -4   0  -8    2.60    1.40
   4   0   8    1.00    1.50
   5   0   8  204.38   10.80
   5   0   8  209.28   10.90
  -5   0  -8  232.68   11.10
   5   0   8  220.68   10.40
   6   0   8 1665.13   70.99
  -6   0  -8 1556.84   71.39
   6   0   8 1520.45   71.19
   6   0   8 1507.25   71.29
  -7   0  -8    6.50    2.40
   7   0   8    4.20    1.30
   7   0   8    4.70    1.20
   7   0   8    5.50    2.80
  10  -1  -8    2.70    1.40
 -10  -1   8    1.90    1.80
  10  -1  -8    1.90    1.80
 -10  -1   8    2.90    2.00
  10   1  -8   -0.40    1.20
 -10   1   8    1.50    1.60
 -10   1   8    3.80    2.00
   9  -1  -8    0.60    1.10
  -9  -1   8    3.30    2.00
   9  -1  -8    2.40    1.40
  -9  -1   8   -0.70    2.30
  -9  -1   8    0.40    1.80
  -9   1   8    4.00    2.20
   9   1  -8    2.70    1.10
  -9   1   8    1.30    1.80
   9   1  -8    2.10    1.90
  -9   1   8   -0.50    1.80
  -8  -1   8   52.29    4.40
   8  -1  -8   52.79    3.40
  -8  -1   8   56.09    3.90
  -8   1   8   53.09    4.00
   8   1  -8   57.59    3.50
  -8   1   8   55.69    4.10
  -8   1   8   50.69    4.30
  -7  -1   8  187.78    9.90
  -7  -1   8  183.08    9.80
  -7  -1   8  200.88   10.00
   7  -1  -8  190.68    9.30
  -7  -1   8  204.88    9.70
  -7   1   8  179.28    9.90
   7   1  -8  184.58    9.20
  -7   1   8  204.18    9.70
  -7   1   8  181.58    9.40
  -6  -1   8  446.76   20.70
  -6  -1   8  429.96   20.70
   6  -1  -8  422.46   20.30
  -6  -1   8  442.56   20.70
  -6  -1   8  442.56   20.50
   6   1  -8  430.56   20.20
  -6   1   8  432.66   20.30
  -6   1   8  453.95   20.60
  -6   1   8  431.56   20.50
  -5  -1   8  758.42   36.50
  -5  -1   8  796.22   36.30
  -5  -1   8  793.82   36.40
  -5  -1   8  833.02   36.40
   5  -1  -8  816.42   36.10
  -5   1   8  747.53   36.00
  -5   1   8  782.92   36.30
  -5   1   8  802.32   36.30
   5   1  -8  869.91   36.70
  -5   1   8  706.83   36.50
  -5   1   8  785.32   37.00
  -4  -1   8  968.30   41.30
   4  -1  -8  902.11   41.10
  -4  -1   8  870.11   41.20
  -4  -1   8  917.21   41.40
  -4  -1   8  917.91   41.20
   4  -1  -8  901.81   40.90
  -4   1   8  856.51   41.40
  -4   1   8  926.21   41.80
  -4   1   8  915.21   41.20
  -4   1   8  783.82   41.40
   4   1  -8  937.11   41.00
   3  -1  -8  460.15   21.10
  -3  -1   8  487.25   21.60
  -3  -1   8  469.35   21.20
  -3  -1   8  489.55   21.30
  -3  -1   8  448.16   21.20
  -3  -1   8  448.36   21.20
  -3  -1   8  456.15   21.50
  -3   1   8  397.26   21.40
  -3   1   8  475.95   21.20
  -3   1   8  451.15   21.20
  -3   1   8  449.86   22.50
  -2  -1   8    0.00    1.10
  -2  -1   8    1.00    1.00
  -2  -1   8    3.60    1.30
   2  -1  -8    1.00    0.80
  -2  -1   8    2.10    1.00
  -2  -1   8    1.20    0.90
  -2   1   8    1.10    0.90
  -2   1   8    3.00    1.40
   2   1  -8    1.70    0.90
  -2   1   8    1.20    0.90
  -1  -1   8  344.57   16.10
  -1  -1   8  362.96   16.10
   1  -1  -8  335.77   16.10
  -1  -1   8  351.26   16.30
  -1  -1   8  318.27   16.30
  -1   1   8  335.47   16.00
  -1   1   8  353.96   16.10
   1   1  -8  347.87   16.00
  -1   1   8  339.67   16.40
  -1   1   8  353.06   16.70
   0  -1   8  440.46   20.50
   0  -1  -8  464.65   20.80
   0  -1   8  452.75   20.70
   0  -1   8  454.55   21.00
   0  -1   8  475.15   20.80
   0  -1   8  406.76   20.90
   0  -1   8  443.96   21.00
   0   1   8  446.66   20.60
   0   1   8  453.05   20.70
   0   1   8  444.06   21.00
   0   1   8  444.26   21.50
   1  -1   8  240.98   11.50
  -1  -1  -8  257.27   11.50
   1  -1   8  229.98   11.60
   1  -1   8  238.58   11.10
   1  -1   8  235.88   11.30
   1   1   8  209.28   13.30
   1   1   8  247.08   11.20
   1   1   8  214.28   11.60
   1   1   8  251.07   11.40
   2  -1   8  527.05   22.90
   2  -1   8  477.35   23.00
   2  -1   8  464.25   22.60
  -2  -1  -8  505.85   23.10
   2  -1   8  501.45   22.80
   2   1   8  508.95   22.90
   2   1   8  483.95   22.70
   2   1   8  505.75   22.60
   2   1   8  448.76   23.70
   2   1   8  494.05   22.90
   3  -1   8  888.01   40.10
  -3  -1  -8  794.82   40.30
   3  -1   8  874.01   40.00
   3  -1   8  871.31   40.30
   3  -1   8  891.51   40.10
   3  -1   8  854.81   39.80
   3   1   8  940.21   39.80
   3   1   8  928.61   40.10
   3   1   8  860.41   40.00
   3   1   8  922.11   40.20
   3   1   8  775.52   41.20
   4  -1   8  702.93   33.10
   4  -1   8  683.03   32.90
   4  -1   8  678.53   32.90
  -4  -1  -8  735.73   33.30
   4  -1   8  740.63   32.60
   4   1   8  719.83   32.70
   4   1   8  727.03   33.00
  -5  -1  -8    6.30    1.80
   5  -1   8    1.40    0.80
   5  -1   8    2.20    1.80
   5  -1   8    0.20    1.70
   5  -1   8    1.90    1.20
   5   1   8    0.60    1.00
   5   1   8    2.70    1.50
   6  -1   8   22.10    2.50
   6  -1   8   23.10    2.90
  -6  -1  -8   18.10    2.50
   6  -1   8   20.50    2.20
  -6   1  -8   26.60    2.90
   6   1   8   17.10    2.00
   6   1   8   12.80    2.10
   7  -1   8    0.80    1.20
   7  -1   8    0.40    0.90
   7   1   8    7.40    4.10
   7   1   8   -0.80    1.00
   7   1   8    0.00    2.30
   7   1   8    0.70    1.20
  -7   1  -8   -0.20    2.40
  10  -2  -8  182.68    9.70
 -10  -2   8  199.48   10.30
 -10  -2   8  213.48   10.00
 -10   2   8  195.78   10.20
 -10   2   8  200.98    9.80
  10   2  -8  203.38    9.70
   9  -2  -8  100.99    5.50
   9  -2  -8  103.29    5.70
  -9  -2   8   91.59    6.40
  -9  -2   8  113.29    6.20
  -9  -2   8  107.69    6.50
  -9   2   8  107.09    5.90
   9   2  -8  109.09    5.60
  -9   2   8  103.69    6.30
   8  -2  -8  416.76   19.30
  -8  -2   8  421.46   19.50
  -8  -2   8  396.86   19.50
  -8  -2   8  396.16   19.80
  -8  -2   8  445.76   20.00
   8   2  -8  397.96   19.20
  -8   2   8  392.16   19.30
  -8   2   8  424.26   19.60
  -7  -2   8  347.47   16.30
  -7  -2   8  346.07   16.40
  -7  -2   8  356.56   16.70
   7  -2  -8  336.87   16.10
  -7  -2   8  327.57   16.60
   7   2  -8  327.57   15.90
  -7   2   8  354.36   16.40
  -7   2   8  332.27   16.10
  -6  -2   8  573.84   26.30
  -6  -2   8  546.15   26.30
   6  -2  -8  587.14   25.90
  -6  -2   8  567.04   26.10
  -6  -2   8  582.54   26.40
  -6   2   8  550.54   26.20
   6   2  -8  562.24   25.80
  -6   2   8  523.35   25.80
  -6   2   8  556.24   26.10
  -5  -2   8  196.68    9.80
   5  -2  -8  189.38    9.30
   5  -2  -8  187.98    9.30
  -5  -2   8  196.38    9.60
  -5  -2   8  196.78   10.20
  -5  -2   8  214.78    9.80
  -5   2   8  196.68    9.60
  -5   2   8  183.28    9.30
  -5   2   8  203.38   10.50
  -5   2   8  181.68   10.30
  -4  -2   8  629.54   26.80
  -4  -2   8  573.04   26.60
   4  -2  -8  569.64   26.40
  -4  -2   8  588.94   26.90
   4  -2  -8  568.74   26.50
  -4  -2   8  584.24   26.70
  -4  -2   8  548.45   26.60
  -4   2   8  586.84   26.60
  -4   2   8  606.14   27.40
  -4   2   8  539.25   26.30
   4   2  -8  578.74   26.40
  -4   2   8  536.75   26.90
  -3  -2   8  677.93   31.50
  -3  -2   8  700.83   31.30
   3  -2  -8  699.73   31.20
  -3  -2   8  735.43   31.40
  -3  -2   8  690.03   31.30
  -3  -2   8  654.83   31.20
  -3   2   8  647.94   31.20
  -3   2   8  671.13   31.90
  -3   2   8  647.04   31.40
  -2  -2   8  362.76   17.60
  -2  -2   8  357.76   17.40
   2  -2  -8  377.06   17.40
  -2  -2   8  392.66   17.50
  -2  -2   8  396.86   17.60
   2   2  -8  377.16   17.20
  -2   2   8  367.36   17.40
  -2   2   8  355.66   17.60
  -2   2   8  375.36   18.20
  -1  -2   8 1029.70   44.80
  -1  -2   8  968.60   44.80
  -1  -2   8 1021.10   44.70
  -1  -2   8  846.42   44.50
  -1  -2   8  961.10   44.60
   1  -2  -8  975.20   44.70
  -1  -2   8  879.51   44.80
  -1   2   8 1005.40   44.70
  -1   2   8  930.01   44.80
  -1   2   8 1004.00   44.60
   1   2  -8 1004.40   44.60
  -1   2   8 1128.29   47.20
   0  -2   8  750.52   37.40
   0  -2  -8  873.71   37.40
   0  -2   8  752.02   37.00
   0  -2   8  844.02   37.40
   0  -2   8  866.61   37.30
   0  -2   8  724.13   37.20
   0  -2   8  819.12   37.20
   0  -2   8  815.42   37.10
   0   2   8  845.32   37.30
   0   2   8  820.72   38.20
   0   2   8  848.72   37.10
   1  -2   8  696.53   33.00
   1  -2   8  630.44   33.60
   1  -2   8  719.53   32.90
   1  -2   8  717.63   33.20
   1  -2   8  745.33   33.00
   1   2   8  736.33   32.90
   1   2   8  773.12   33.10
   1   2   8  740.13   33.00
   1   2   8  703.03   34.00
  -2  -2  -8   23.40    2.50
   2  -2   8   25.40    1.90
   2  -2   8   23.00    2.30
   2  -2   8   26.50    2.30
   2  -2   8   28.70    2.40
   2  -2   8   21.00    2.70
   2   2   8   26.40    2.40
   2   2   8   22.50    2.30
   2   2   8   25.20    4.40
   3  -2   8  503.05   23.00
   3  -2   8  496.75   22.80
   3  -2   8  466.95   23.10
  -3  -2  -8  473.35   23.20
   3  -2   8  510.95   22.80
   3  -2   8  489.75   22.60
   3   2   8  436.16   24.60
   3   2   8  524.85   22.60
   3   2   8  483.45   23.00
   3   2   8  522.85   23.00
   4  -2   8   82.79    5.00
   4  -2   8   78.29    5.40
   4  -2   8   88.39    4.80
  -4  -2  -8   84.79    5.20
   4  -2   8   79.89    4.30
   4   2   8   77.29    5.00
   4   2   8   83.19    4.40
   5  -2   8  289.97   14.20
   5  -2   8  291.47   13.80
  -5  -2  -8  303.67   14.50
   5  -2   8  307.67   14.10
   5   2   8  280.97   14.30
   5   2   8  287.07   13.80
   6  -2   8  248.78   11.80
   6  -2   8  249.38   11.60
   6  -2   8  235.48   12.00
  -6  -2  -8  242.38   12.10
   6   2   8  244.88   11.50
   6   2   8  235.28   12.00
   7  -2   8  199.58    9.60
   7  -2   8  212.18    9.70
   7   2   8  193.58   10.30
   7   2   8  189.78   10.10
   7   2   8  207.28    9.50
 -10  -3   8  190.38    9.50
 -10  -3   8  195.68   10.00
 -10   3   8  185.88    9.80
 -10   3   8  197.28    9.70
  10   3  -8  193.08    9.50
  -9  -3   8   91.69    5.30
  -9  -3   8   76.09    5.50
   9  -3  -8   79.09    4.80
  -9  -3   8   85.59    5.60
   9  -3  -8   83.69    4.80
  -9   3   8   80.19    5.40
  -9   3   8   79.69    5.30
   9   3  -8   92.89    5.80
  -9   3   8   83.09    5.00
  -8  -3   8   -0.80    1.80
   8  -3  -8   -0.50    1.10
  -8  -3   8   -0.10    1.60
  -8  -3   8    1.90    1.90
  -8   3   8   -1.70    1.40
   8   3  -8    1.20    1.10
  -7  -3   8    1.50    1.90
   7  -3  -8    0.10    1.10
  -7  -3   8    1.40    1.80
  -7  -3   8   -1.10    1.60
  -7  -3   8   -0.70    1.50
  -7   3   8    2.20    1.80
  -7   3   8   -0.40    1.20
  -6  -3   8  990.70   43.50
  -6  -3   8  947.91   43.80
   6  -3  -8  962.50   43.30
  -6  -3   8  970.50   43.70
  -6   3   8  948.01   43.50
  -6   3   8  924.31   43.20
   6   3  -8  884.21   43.10
  -5  -3   8    4.20    1.60
  -5  -3   8    5.00    1.60
  -5  -3   8    5.30    1.80
   5  -3  -8    5.70    1.30
  -5  -3   8    5.90    1.30
   5  -3  -8    6.90    1.10
  -5   3   8    7.20    1.20
  -5   3   8    3.50    3.00
  -5   3   8    5.80    1.60
  -4  -3   8 1444.96   66.09
  -4  -3   8 1553.74   66.19
  -4  -3   8 1429.06   66.29
  -4  -3   8 1458.55   66.29
   4  -3  -8 1481.45   65.99
  -4  -3   8 1511.65   66.29
   4  -3  -8 1415.66   65.99
   4   3  -8 1442.56   65.89
  -4   3   8 1453.55   66.89
  -4   3   8 1405.06   65.99
  -4   3   8 1371.66   65.79
  -4   3   8 1461.35   66.09
  -3  -3   8  263.77   13.00
  -3  -3   8  287.27   12.80
   3  -3  -8  257.57   12.50
  -3  -3   8  276.87   12.60
  -3  -3   8  266.57   12.80
  -3  -3   8  255.87   12.70
   3  -3  -8  276.57   12.70
  -3   3   8  252.57   12.60
  -3   3   8  259.67   13.50
  -3   3   8  252.97   12.30
  -3   3   8  252.57   12.60
  -2  -3   8 1607.54   67.39
  -2  -3   8 1308.37   67.19
  -2  -3   8 1396.46   67.29
  -2  -3   8 1646.14   67.49
  -2  -3   8 1510.45   67.49
   2  -3  -8 1510.65   67.39
  -2  -3   8 1496.85   67.29
  -2   3   8 1379.86   67.09
  -2   3   8 1480.25   67.29
  -2   3   8 1511.85   68.29
  -2   3   8 1454.15   67.49
  -1  -3   8   15.40    1.80
  -1  -3   8   19.70    1.90
  -1  -3   8   18.80    2.00
   1  -3  -8   14.50    1.80
  -1  -3   8   16.50    1.80
  -1  -3   8   14.20    1.60
  -1  -3   8   16.80    2.30
  -1  -3   8   13.30    1.70
  -1   3   8   16.40    2.10
  -1   3   8   10.40    1.50
  -1   3   8   16.00    3.10
   0  -3   8  154.28    7.40
   0  -3  -8  147.89    8.00
   0  -3   8  156.58    7.50
   0  -3   8  145.59    7.20
   0  -3   8  144.29    7.30
   0  -3   8  147.19    7.40
   0  -3   8  142.99    7.60
   0   3   8  141.39    8.60
   0   3   8  148.99    7.80
  -1  -3  -8 1144.09   53.29
   1  -3   8 1147.19   53.19
   1  -3   8 1243.68   53.19
   1  -3   8 1174.18   53.19
   1  -3   8 1052.79   53.19
   1  -3   8 1188.98   52.89
   1  -3   8 1167.28   52.99
   1  -3   8 1207.68   53.19
   1   3   8 1178.68   53.09
   1   3   8 1193.88   53.19
   1   3   8 1108.89   54.29
   2  -3   8    6.30    1.70
   2  -3   8    7.00    1.40
   2  -3   8    3.50    1.10
   2  -3   8    5.70    1.00
  -2  -3  -8    3.20    1.30
   2  -3   8    5.10    1.50
   2   3   8   10.70    4.10
   2   3   8    8.00    1.60
   3  -3   8 1180.08   52.99
   3  -3   8 1136.29   53.19
   3  -3   8 1190.08   52.69
  -3  -3  -8 1083.59   53.29
   3  -3   8 1070.79   52.99
   3  -3   8 1178.38   53.09
   3   3   8 1183.58   53.19
   3   3   8 1256.17   52.79
   4  -3   8   43.70    3.70
   4  -3   8   50.29    3.40
  -4  -3  -8   52.39    4.00
   4  -3   8   45.60    2.90
   4   3   8   46.40    3.70
   4   3   8   46.20    2.90
   5  -3   8  770.02   34.60
  -5  -3  -8  777.12   35.30
   5  -3   8  762.42   34.90
   5  -3   8  746.33   35.00
   5   3   8  770.52   34.60
   5   3   8  713.33   35.10
   6  -3   8   63.59    4.60
   6  -3   8   69.39    3.90
   6  -3   8   70.29    4.20
  -6  -3  -8   67.39    5.20
   6   3   8   63.69    4.60
   6   3   8   67.89    3.80
   7  -3   8   12.00    1.30
   7  -3   8   10.00    1.40
   7   3   8    9.50    1.20
   7   3   8    8.50    2.00
  -9  -4   8  139.69    8.00
   9  -4  -8  143.19    7.40
  -9  -4   8  142.19    7.60
  -9  -4   8  148.89    7.60
   9   4  -8  153.88    7.40
  -9   4   8  141.19    7.90
  -8  -4   8  254.47   12.60
  -8  -4   8  230.78   12.40
  -8  -4   8  252.17   12.00
   8  -4  -8  252.47   11.80
  -8  -4   8  215.08   12.50
  -8   4   8  239.88   11.90
   8   4  -8  250.97   11.70
  -8   4   8  258.07   12.20
  -7  -4   8   24.70    3.60
   7  -4  -8   28.30    2.50
  -7  -4   8   29.40    2.90
  -7  -4   8   29.20    3.60
  -7  -4   8   26.60    3.00
   7   4  -8   29.50    2.50
  -7   4   8   29.60    2.90
  -7   4   8   29.10    2.80
  -6  -4   8 1694.13   73.89
  -6  -4   8 1604.64   74.29
  -6  -4   8 1633.64   74.09
   6  -4  -8 1667.53   73.79
  -6  -4   8 1613.44   74.29
  -6   4   8 1488.45   73.59
  -6   4   8 1652.93   73.89
  -5  -4   8  234.58   11.10
  -5  -4   8  235.18   11.50
  -5  -4   8  227.68   11.50
   5  -4  -8  227.88   11.00
  -5  -4   8  230.48   11.30
   5  -4  -8  219.58   10.90
   5  -4  -8  230.18   10.90
  -5   4   8  225.78   11.10
  -5   4   8  210.78   10.80
  -4  -4   8  167.28    8.40
   4  -4  -8  162.08    7.90
   4  -4  -8  163.58    8.00
  -4  -4   8  166.78    8.40
  -4  -4   8  164.68    8.10
  -4  -4   8  163.08    8.40
  -4  -4   8  161.68    8.10
   4  -4  -8  146.89    8.00
  -4   4   8  160.48    8.10
  -4   4   8  161.08    9.40
  -4   4   8  155.28    7.80
   3  -4  -8  885.51   39.80
  -3  -4   8  836.12   40.00
  -3  -4   8  957.70   40.20
  -3  -4   8  847.82   39.80
   3  -4  -8  840.22   39.90
  -3  -4   8  912.21   40.10
  -3  -4   8  886.01   40.00
  -3   4   8  878.31   40.00
  -3   4   8  852.71   40.90
  -3   4   8  855.41   39.60
   3   4  -8  856.01   39.60
  -3   4   8  839.42   39.80
  -2  -4   8  178.98    8.70
  -2  -4   8  191.78    8.90
  -2  -4   8  169.98    8.50
   2  -4  -8  169.68    8.40
  -2  -4   8  168.78    8.80
  -2  -4   8  165.68    9.40
   2  -4  -8  174.08    8.70
  -2  -4   8  176.88    8.80
  -2   4   8  175.08    9.90
  -2   4   8  173.98    8.80
  -1  -4   8  163.78    8.20
  -1  -4   8  165.78    8.60
  -1  -4   8  171.88    8.30
  -1  -4   8  176.78    8.40
  -1  -4   8  165.68    8.20
   1  -4  -8  171.18    8.50
  -1  -4   8  186.18    8.60
  -1   4   8  166.18    8.30
  -1   4   8  162.68    8.50
  -1   4   8  155.68    9.70
   0  -4   8   80.49    4.70
   0  -4   8   70.89    5.50
   0  -4  -8   80.89    4.60
   0  -4   8   78.99    5.10
   0  -4   8   81.89    4.40
   0  -4   8   77.59    4.30
   0   4   8   72.09    6.30
   0   4   8   81.69    4.60
   1  -4   8 2482.35  119.19
   1  -4   8 2775.72  119.39
   1  -4   8 2432.46  118.99
  -1  -4  -8 2800.42  119.59
   1  -4   8 2576.74  119.39
   1  -4   8 2649.73  119.29
   1  -4   8 2773.02  119.39
   1   4   8 2702.43  119.49
   1   4   8 2742.03  119.29
   1   4   8 2398.36  120.69
  -2  -4  -8  144.49    7.70
   2  -4   8  154.88    7.50
   2  -4   8  129.29    7.30
   2  -4   8  138.69    7.00
   2  -4   8  138.89    7.40
   2  -4   8  143.49    7.30
   2   4   8  139.99    7.40
   2   4   8  157.08    7.60
   3  -4   8  130.09    6.90
   3  -4   8  132.49    7.10
   3  -4   8  130.29    6.60
  -3  -4  -8  132.09    7.40
   3  -4   8  132.29    7.10
   3   4   8  140.29    6.60
   3   4   8  131.59    7.20
   4  -4   8   60.79    3.50
   4  -4   8   60.39    4.20
   4  -4   8   63.69    3.90
   4  -4   8   59.79    4.10
  -4  -4  -8   60.89    4.60
   4   4   8   55.09    4.30
   4   4   8   62.79    3.50
   5  -4   8  114.99    6.20
   5  -4   8  121.09    6.70
   5  -4   8  140.89    7.50
  -5  -4  -8  122.99    7.10
   5   4   8  108.09    6.70
   5   4   8  122.19    6.10
   6  -4   8   57.49    3.50
   6  -4   8   53.59    4.40
   6  -4   8   58.79    3.80
   6   4   8   61.29    4.30
   6   4   8   57.89    3.40
  -9  -5   8   99.79    5.80
  -9  -5   8   82.99    4.90
  -9  -5   8   85.69    5.00
   9   5  -8   76.19    5.60
  -8  -5   8   35.90    3.80
  -8  -5   8   39.00    3.50
  -8  -5   8   42.80    4.10
  -8  -5   8   40.70    3.20
   8  -5  -8   38.30    3.20
  -8   5   8   36.50    3.60
   8   5  -8   36.90    3.30
  -7  -5   8  685.23   30.90
  -7  -5   8  637.44   30.30
  -7  -5   8  611.04   30.80
  -7  -5   8  690.63   30.50
   7   5  -8  671.63   30.10
  -7   5   8  631.54   30.20
   6  -5  -8   30.00    2.90
  -6  -5   8   33.70    3.20
  -6  -5   8   36.60    3.30
  -6  -5   8   42.30    3.90
  -6   5   8   36.70    2.90
   6   5  -8   38.20    2.90
  -5  -5   8  677.63   30.20
   5  -5  -8  643.94   29.70
  -5  -5   8  654.23   30.40
  -5  -5   8  655.83   29.80
   5  -5  -8  644.94   29.70
   5  -5  -8  616.94   29.80
  -5  -5   8  658.23   30.30
   5   5  -8  642.24   29.60
  -5   5   8  613.74   29.60
   4  -5  -8 1154.68   52.79
  -4  -5   8 1179.88   52.89
  -4  -5   8 1181.18   53.19
   4  -5  -8 1150.78   52.69
   4  -5  -8 1179.68   52.89
  -4  -5   8 1081.39   52.79
  -4  -5   8 1196.88   53.29
  -4   5   8 1136.69   52.69
   3  -5  -8   70.59    3.90
  -3  -5   8   66.69    4.40
   3  -5  -8   71.89    4.20
  -3  -5   8   68.59    4.70
  -3  -5   8   69.99    4.20
  -3  -5   8   73.19    4.60
  -3  -5   8   70.49    4.30
  -3   5   8   70.89    4.60
  -2  -5   8   21.00    2.50
  -2  -5   8   23.80    2.90
   2  -5  -8   22.80    2.30
  -2  -5   8   21.90    2.30
  -2  -5   8   21.60    2.30
  -2  -5   8   17.00    2.50
   2  -5  -8   23.20    2.00
  -2   5   8   25.70    4.50
  -2   5   8   26.00    3.30
  -1  -5   8  115.29    6.40
  -1  -5   8  117.29    6.60
  -1  -5   8  117.49    6.60
   1  -5  -8  117.09    6.30
  -1  -5   8  114.69    6.10
   1  -5  -8  113.69    5.90
  -1  -5   8  127.79    6.60
  -1  -5   8  110.99    6.00
  -1  -5   8  123.19    6.20
  -1   5   8  114.69    6.50
  -1   5   8  118.49    9.30
  -1   5   8  115.09    6.30
   0  -5   8  811.32   38.10
   0  -5   8  851.81   38.40
   0  -5   8  781.12   38.30
   0  -5   8  823.62   38.10
   0  -5   8  873.11   38.30
   0  -5   8  867.41   38.40
   0  -5   8  853.11   38.20
   0  -5  -8  869.11   38.40
   0   5   8  761.42   38.10
   1  -5   8    6.80    1.40
  -1  -5  -8    5.00    1.50
   1  -5   8    3.10    1.30
   1  -5   8    4.50    1.20
   1  -5   8    7.40    2.10
   1   5   8    4.00    1.70
   2  -5   8  642.34   29.50
   2  -5   8  555.44   29.00
   2  -5   8  631.14   29.40
   2  -5   8  657.43   29.30
  -2  -5  -8  646.44   29.70
   2   5   8  672.63   29.60
   3  -5   8  599.54   27.30
  -3  -5  -8  571.24   27.50
   3  -5   8  585.04   27.10
   3  -5   8  543.85   26.80
   3  -5   8  582.34   27.30
   3   5   8  589.94   26.80
   3   5   8  620.34   27.50
   4  -5   8   62.79    4.30
  -4  -5  -8   80.69    7.20
   4  -5   8   61.59    4.00
   4  -5   8   60.39    4.20
   4  -5   8   59.59    3.70
   4   5   8   60.29    4.40
   4   5   8   62.59    3.60
   5  -5   8  111.19    5.90
   5  -5   8  108.49    6.40
  -5  -5  -8  120.39    7.30
   5  -5   8  126.09    6.20
   5   5   8  115.79    5.80
   5   5   8  110.89    6.70
   6  -5   8  173.98    9.20
   6  -5   8  173.68    8.70
   6  -5   8  197.48    8.90
   6   5   8  180.38    8.80
   6   5   8  177.68    9.30
  -8  -6   8    1.00    1.80
  -8  -6   8    0.70    1.30
  -8  -6   8    2.40    2.30
  -8   6   8    2.60    2.00
  -7  -6   8  563.94   28.20
  -7  -6   8  622.34   27.90
   7  -6  -8  577.34   27.60
  -7  -6   8  620.34   28.30
  -7   6   8  601.74   27.60
  -6  -6   8   14.70    2.60
  -6  -6   8   11.50    2.20
  -6  -6   8   14.00    2.00
   6  -6  -8   18.80    2.30
   6  -6  -8   19.30    2.50
  -6   6   8   14.20    1.80
  -5  -6   8   29.80    3.70
  -5  -6   8   26.60    2.90
  -5  -6   8   28.10    3.60
   5  -6  -8   23.40    3.00
   5  -6  -8   23.10    2.70
  -5   6   8   31.10    2.60
  -4  -6   8   88.19    5.30
   4  -6  -8   87.29    5.10
  -4  -6   8   87.09    5.20
  -4  -6   8   96.39    5.80
  -4  -6   8   83.09    5.70
   4  -6  -8   88.29    4.90
   4  -6  -8   87.69    5.10
  -4   6   8   85.09    4.80
  -3  -6   8    0.50    1.90
   3  -6  -8    1.20    1.20
   3  -6  -8    1.50    1.30
   3  -6  -8    2.60    1.40
  -3  -6   8   -0.90    1.30
  -3  -6   8    0.60    1.90
  -3  -6   8   -1.20    1.40
  -3  -6   8   -0.20    1.20
  -3   6   8   -0.90    1.00
  -2  -6   8 1252.07   56.49
   2  -6  -8 1198.58   56.09
  -2  -6   8 1202.68   56.59
  -2  -6   8 1253.07   56.69
  -2  -6   8 1255.67   56.29
   2  -6  -8 1289.17   56.39
  -2  -6   8 1184.08   56.19
  -1  -6   8  143.69    7.40
  -1  -6   8  141.69    7.40
   1  -6  -8  146.99    7.50
  -1  -6   8  140.19    7.20
  -1  -6   8  141.89    8.00
  -1  -6   8  143.09    8.20
  -1  -6   8  145.69    7.60
  -1  -6   8  143.19    7.90
  -1   6   8  137.09    7.70
   0  -6  -8  670.63   29.30
   0  -6   8  589.64   29.00
   0  -6   8  588.34   29.10
   0  -6   8  619.94   29.00
   0  -6   8  620.64   29.40
   0  -6   8  675.23   29.20
   0  -6   8  629.94   29.00
  -1  -6  -8  290.67   13.40
   1  -6   8  269.77   13.20
   1  -6   8  270.97   13.10
   1  -6   8  254.47   13.60
   1  -6   8  268.17   13.00
   1  -6   8  271.27   13.20
   2  -6   8    7.80    1.70
  -2  -6  -8    9.30    2.30
   2  -6   8   10.90    2.90
   2  -6   8    9.20    1.80
   2  -6   8    9.90    2.10
   2  -6   8   10.40    1.60
   3  -6   8   94.59    5.50
   3  -6   8   88.29    5.90
   3  -6   8   99.19    5.70
   3  -6   8   97.39    5.70
   3   6   8  103.89    5.10
   4  -6   8    1.70    1.50
   4  -6   8    0.30    1.90
  -4  -6  -8    0.10    2.50
   4  -6   8    0.00    1.40
   4  -6   8    0.40    1.60
   4   6   8    2.20    1.90
   4   6   8    2.10    1.10
   5  -6   8  216.78    9.90
   5  -6   8  191.78    9.80
   5  -6   8  190.18   10.20
   5   6   8  215.88    9.90
  -7  -7   8  112.39    6.50
  -7  -7   8   93.19    6.10
  -7  -7   8  111.19    5.80
  -7   7   8   92.19    5.90
  -6  -7   8  206.88   10.50
   6  -7  -8  193.98   10.20
  -6  -7   8  210.68   10.10
  -6  -7   8  175.58   10.30
  -6   7   8  192.28    9.70
  -5  -7   8  111.49    6.70
  -5  -7   8   94.39    6.40
   5  -7  -8  107.09    5.90
  -5   7   8  102.59    5.60
  -4  -7   8  477.65   21.70
  -4  -7   8  436.46   21.90
   4  -7  -8  443.36   21.40
   4  -7  -8  464.45   21.60
  -4  -7   8  488.35   22.00
  -4  -7   8  440.96   21.90
  -4   7   8  449.26   21.30
  -3  -7   8  621.54   28.20
  -3  -7   8  611.54   27.90
   3  -7  -8  606.04   27.80
  -3  -7   8  585.54   27.70
  -3  -7   8  568.54   28.20
   3  -7  -8  614.34   27.80
  -3  -7   8  583.04   27.50
  -3   7   8  584.54   27.50
  -2  -7   8  167.78    8.30
  -2  -7   8  161.48    8.70
  -2  -7   8  159.58    8.10
   2  -7  -8  160.08    8.20
  -2  -7   8  157.08    7.90
  -2  -7   8  150.18    9.00
  -2   7   8  145.79    7.80
   1  -7  -8  294.97   13.90
  -1  -7   8  281.07   13.80
  -1  -7   8  280.17   14.30
  -1  -7   8  283.47   13.80
  -1  -7   8  287.17   13.60
   0  -7  -8   76.39    4.80
   0  -7   8   70.79    6.00
   0  -7   8   71.19    4.20
   0  -7   8   74.49    4.50
   0  -7   8   64.79    4.90
   0  -7   8   67.29    4.80
   0   7   8   67.59    5.10
   1  -7   8  290.97   15.30
   1  -7   8  310.57   14.40
   1  -7   8  291.67   14.60
   1  -7   8  310.07   14.50
  -1  -7  -8  319.57   14.70
   1  -7   8  278.87   14.50
   2  -7   8  104.19    6.00
  -2  -7  -8  103.99    6.50
   2  -7   8   95.09    7.40
   2  -7   8  101.09    6.40
   2  -7   8  106.59    6.20
   2  -7   8  118.39    6.10
   3  -7   8  220.38   10.50
  -3  -7  -8  205.48   10.90
   3  -7   8  208.88   10.60
   3  -7   8  205.08   10.60
   3   7   8  216.78   10.10
   4  -7   8  580.74   28.00
   4  -7   8  575.74   28.00
   4  -7   8  656.33   27.90
   4   7   8  600.24   27.60
  -6  -8   8  237.58   12.10
  -6  -8   8  232.38   12.60
  -6   8   8  283.77   13.60
  -5  -8   8  108.39    6.90
  -5  -8   8   95.09    6.60
   5  -8  -8  108.59    6.30
  -5  -8   8  119.49    6.20
  -5   8   8  102.59    5.90
   4  -8  -8   23.00    3.00
  -4  -8   8   22.70    2.30
  -4  -8   8   16.50    3.20
  -4  -8   8   21.80    3.20
  -4  -8   8   23.30    3.10
  -4   8   8   19.30    2.60
  -3  -8   8    7.20    1.90
   3  -8  -8   10.60    1.80
  -3  -8   8   10.80    1.80
   3  -8  -8   11.00    2.20
  -3  -8   8   11.50    2.50
  -3   8   8   12.00    1.80
   2  -8  -8  213.78   10.70
   2  -8  -8  214.48   10.80
  -2  -8   8  217.38   10.50
  -2  -8   8  223.38   11.30
  -2  -8   8  210.08   10.80
  -1  -8   8  294.57   13.80
  -1  -8   8  286.47   14.00
  -1  -8   8  272.57   14.20
   1  -8  -8  292.17   14.10
   1  -8  -8  300.87   14.10
   0  -8   8   65.49    4.80
   0  -8   8   64.39    4.20
   0  -8  -8   66.89    4.70
   1  -8   8  248.38   11.50
  -1  -8  -8  236.68   11.90
   1  -8   8  223.88   11.70
  -2  -8  -8  222.08   12.00
   2  -8   8  257.87   11.50
   2  -8   8  223.18   12.80
   2  -8   8  220.98   11.70
   2   8   8  242.78   12.00
   2   8   8  246.58   11.10
   3  -8   8    2.70    1.30
   3   8   8    5.50    2.30
   3   8   8    5.10    1.50
  -4  -9   8   29.40    3.40
   4  -9  -8   27.30    3.50
   3  -9  -8   65.29    4.40
  -3  -9   8   70.49    4.40
  -3  -9   8   67.39    5.60
  -3  -9   8   68.39    4.00
  -3   9   8   64.39    4.60
   2  -9  -8  800.12   36.70
  -2  -9   8  804.02   37.10
  -2  -9   8  795.12   36.60
  -2  -9   8  805.02   36.50
  -2   9   8  782.22   36.60
  -1  -9   8   13.50    1.70
   1  -9  -8   17.10    2.90
   1  -9  -8   11.20    2.00
  -1   9   8    8.80    2.20
   0  -9   8    0.80    1.30
   0  -9  -8    1.70    1.80
   1  -9   8   85.69    4.60
  -1  -9  -8   75.39    5.20
   1   9   8   77.49    4.30
 -10   0   9   -0.20    2.00
 -10   0   9    0.50    1.50
  10   0  -9    0.60    1.20
   9   0  -9   -2.30    1.50
  -9   0   9   -2.60    2.00
  -9   0   9    1.50    2.10
   9   0  -9    0.30    1.10
  -8   0   9    1.30    1.60
  -8   0   9    3.70    2.20
   8   0  -9   -0.60    1.20
  -8   0   9   -0.90    2.10
  -7   0   9    0.50    2.20
  -7   0   9    1.20    1.90
   7   0  -9    2.20    1.00
  -7   0   9   -1.50    1.50
  -7   0   9    0.00    1.70
  -6   0   9    1.00    1.30
  -6   0   9    4.30    1.90
   6   0  -9    1.70    1.00
  -6   0   9    1.80    1.40
  -6   0   9    0.00    1.70
  -5   0   9    3.00    1.70
   5   0  -9   -0.60    0.70
  -5   0   9    0.00    1.20
  -5   0   9    1.40    1.60
  -5   0   9    0.40    1.30
  -4   0   9   -0.10    1.90
  -4   0   9    0.80    1.00
  -4   0   9    0.50    1.70
   4   0  -9    1.40    0.90
  -4   0   9   -0.30    1.40
  -4   0   9   -0.80    1.00
  -3   0   9   -0.30    1.70
  -3   0   9   -0.20    1.10
   3   0  -9    0.80    1.10
  -3   0   9    1.30    1.40
  -3   0   9    0.60    1.00
  -3   0   9   -1.20    0.80
  -2   0   9   -0.80    1.00
  -2   0   9    2.00    1.50
  -2   0   9    0.40    0.90
  -2   0   9    1.50    1.10
   2   0  -9    0.90    1.00
  -1   0   9    1.40    1.50
   1   0  -9    2.30    1.00
  -1   0   9    1.40    0.90
  -1   0   9    0.70    1.10
   0   0  -9    0.80    1.00
   0   0   9   -0.40    1.00
   0   0   9    1.90    1.90
   0   0   9    0.00    1.10
   0   0   9   -1.60    0.80
   1   0   9    1.20    2.50
   1   0   9    1.40    1.10
   1   0   9    0.70    0.70
   1   0   9   -0.20    1.20
  -1   0  -9   -0.80    1.10
   1   0   9   -0.20    1.10
   2   0   9   -0.40    0.80
   2   0   9   -0.80    1.40
  -2   0  -9    1.70    1.30
   2   0   9    0.20    1.20
  -3   0  -9    0.00    1.30
   3   0   9   -0.70    1.60
   3   0   9    0.60    1.30
   3   0   9   -0.50    1.30
   3   0   9   -1.30    0.80
   3   0   9   -1.00    1.50
   4   0   9    0.90    0.90
   4   0   9    1.60    2.00
   4   0   9    0.70    1.80
   4   0   9   -1.70    1.50
  -4   0  -9   -1.00    1.60
  -5   0  -9    1.80    1.90
   5   0   9    2.10    1.90
   5   0   9    0.10    1.70
   5   0   9    0.40    1.00
   6   0   9   -0.60    2.10
   6   0   9    1.40    1.10
   6   0   9    1.50    1.50
  -6   0  -9   -1.60    2.00
 -10  -1   9   96.19    5.40
  10  -1  -9   89.99    5.00
 -10  -1   9   95.09    5.90
 -10   1   9   99.39    5.30
  10   1  -9   89.09    5.00
 -10   1   9   84.99    5.80
   9  -1  -9    8.40    1.70
   9  -1  -9    6.50    1.30
  -9  -1   9    8.40    2.20
  -9  -1   9    7.40    2.50
  -9  -1   9    4.80    2.10
   9   1  -9    4.00    1.10
  -9   1   9    8.70    2.10
  -9   1   9    8.90    2.20
   9   1  -9    8.00    2.00
   8  -1  -9   73.69    4.40
  -8  -1   9   79.39    5.30
  -8  -1   9   78.39    4.90
  -8  -1   9   67.59    5.00
  -8   1   9   75.19    4.80
  -8   1   9   74.89    5.10
   8   1  -9   72.19    4.40
   7  -1  -9   23.90    2.30
  -7  -1   9   26.80    2.90
  -7  -1   9   26.60    3.50
  -7  -1   9   25.00    3.10
  -7  -1   9   29.20    3.40
  -7   1   9   24.10    3.60
  -7   1   9   24.60    2.90
   7   1  -9   27.40    2.40
  -7   1   9   25.50    3.30
  -6  -1   9  117.99    6.40
  -6  -1   9  112.99    6.70
   6  -1  -9  118.09    6.10
  -6  -1   9  122.79    6.60
  -6  -1   9  114.09    6.70
  -6   1   9  113.59    6.70
  -6   1   9  123.99    6.50
   6   1  -9  120.59    6.00
  -6   1   9  117.29    6.50
  -5  -1   9   66.39    4.60
   5  -1  -9   62.09    3.70
  -5  -1   9   72.69    4.30
  -5  -1   9   66.99    4.10
  -5  -1   9   65.39    4.40
  -5   1   9   67.69    4.10
  -5   1   9   72.79    4.20
  -5   1   9   62.59    4.40
   5   1  -9   66.09    3.70
  -5   1   9   63.99    5.20
  -4  -1   9  272.47   13.40
  -4  -1   9  311.17   13.50
  -4  -1   9  279.67   13.40
  -4  -1   9  278.17   13.30
   4  -1  -9  265.97   13.20
   4  -1  -9  272.97   13.10
  -4   1   9  276.87   14.10
  -4   1   9  266.67   13.30
   4   1  -9  278.57   13.20
  -4   1   9  293.77   13.40
   3  -1  -9  276.27   13.30
  -3  -1   9  283.37   13.40
  -3  -1   9  279.97   13.70
  -3  -1   9  288.97   13.40
  -3  -1   9  302.37   13.60
  -3  -1   9  289.87   13.90
  -3   1   9  287.97   13.50
  -3   1   9  264.47   14.00
  -3   1   9  266.87   13.40
  -2  -1   9  287.07   13.90
  -2  -1   9  305.37   13.90
   2  -1  -9  288.37   13.80
  -2  -1   9  293.87   14.30
  -2  -1   9  306.57   14.10
  -2  -1   9  281.17   14.10
  -2   1   9  290.67   14.60
  -2   1   9  293.37   13.80
  -2   1   9  298.67   14.10
   2   1  -9  285.67   13.80
  -2   1   9  295.77   13.90
  -1  -1   9  101.49    5.30
  -1  -1   9   92.09    5.30
  -1  -1   9   98.09    5.60
  -1  -1   9   85.29    5.60
  -1  -1   9   99.39    5.20
   1  -1  -9  105.69    5.30
  -1  -1   9  100.29    5.40
  -1  -1   9   98.89    4.90
  -1   1   9   96.89    5.50
   1   1  -9   99.39    5.20
  -1   1   9  100.49    6.10
  -1   1   9  106.49    5.20
  -1   1   9  104.69    5.30
   0  -1   9  561.54   25.60
   0  -1   9  547.45   25.20
   0  -1   9  551.64   25.30
   0  -1   9  524.95   25.60
   0  -1   9  543.85   25.30
   0   1   9  561.94   25.40
   0   1   9  533.25   26.20
   0   1   9  557.44   25.30
   0   1  -9  581.74   25.40
   0   1   9  518.35   25.60
   1  -1   9  561.64   25.90
   1  -1   9  548.75   25.60
   1  -1   9  520.05   25.30
   1  -1   9  565.54   25.60
  -1  -1  -9  577.34   25.80
   1   1   9  516.25   26.60
  -1   1  -9  579.94   25.80
   1   1   9  540.15   25.90
   1   1   9  563.14   25.60
   1   1   9  559.54   25.50
   2  -1   9   22.00    2.50
   2  -1   9   22.10    2.00
   2  -1   9   24.00    2.30
  -2  -1  -9   19.40    2.50
   2  -1   9   21.40    2.90
   2   1   9   27.20    4.80
   2   1   9   23.40    1.90
   2   1   9   22.60    2.30
   2   1   9   23.50    2.50
   2   1   9   22.90    2.40
  -3  -1  -9    8.80    2.00
   3  -1   9    3.70    1.40
   3  -1   9    7.60    2.10
   3  -1   9    3.70    1.00
   3  -1   9    6.60    1.60
   3   1   9    4.40    1.40
   3   1   9    2.70    1.40
   3   1   9    7.30    1.20
   4  -1   9    2.60    1.20
   4  -1   9   -1.20    1.60
  -4  -1  -9    3.60    1.90
   4  -1   9    0.90    0.80
   4  -1   9    1.30    2.10
  -4   1  -9    2.30    1.60
   4   1   9    2.20    1.60
   4   1   9    1.20    1.00
   5  -1   9   89.69    5.00
   5  -1   9   89.59    4.60
   5  -1   9   83.09    5.60
   5  -1   9   86.29    5.60
  -5   1  -9   61.39    6.60
   5   1   9   88.39    4.60
   5   1   9   88.19    5.40
   5   1   9   77.79    5.20
  -6  -1  -9   40.70    4.20
   6  -1   9   45.40    3.30
   6  -1   9   45.40    3.00
  -6   1  -9   44.20    4.00
   6   1   9   43.30    3.70
   6   1   9   43.10    3.90
   6   1   9   41.50    2.90
 -10  -2   9    3.20    1.50
  10  -2  -9    1.10    2.10
 -10  -2   9    0.20    2.20
 -10   2   9    1.00    1.50
 -10   2   9    1.90    2.40
  10   2  -9    2.40    1.30
  -9  -2   9  119.79    7.80
  -9  -2   9  148.29    8.00
   9  -2  -9  139.09    7.20
  -9  -2   9  152.48    7.60
   9  -2  -9  132.29    7.10
   9   2  -9  143.39    7.90
  -9   2   9  135.59    7.70
  -9   2   9  146.99    7.40
   8  -2  -9    0.10    1.20
  -8  -2   9   -1.00    2.00
  -8  -2   9    1.90    1.90
  -8  -2   9    1.90    1.80
  -8   2   9    1.70    2.10
  -7  -2   9  348.57   16.70
  -7  -2   9  344.77   17.00
  -7  -2   9  346.07   17.00
   7  -2  -9  348.67   16.50
  -7  -2   9  359.86   16.90
  -7   2   9  367.96   16.80
   7   2  -9  332.07   16.40
  -6  -2   9   90.59    5.50
  -6  -2   9   85.89    5.50
  -6  -2   9   87.39    5.20
   6  -2  -9   93.09    4.90
  -6   2   9   95.99    5.30
   6   2  -9   92.39    4.80
  -6   2   9   89.79    5.60
  -5  -2   9   68.39    4.10
  -5  -2   9   66.39    4.50
  -5  -2   9   67.49    4.30
   5  -2  -9   63.39    4.00
   5  -2  -9   67.09    3.70
  -5  -2   9   68.09    4.50
  -5   2   9   60.19    5.50
  -5   2   9   67.89    4.20
  -5   2   9   64.89    4.10
   5   2  -9   62.89    3.70
  -4  -2   9   85.09    4.70
  -4  -2   9   76.49    4.80
  -4  -2   9   80.19    4.90
  -4  -2   9   77.89    4.40
   4  -2  -9   75.69    4.20
   4  -2  -9   77.49    4.30
  -4   2   9   75.79    5.60
   4   2  -9   75.59    4.20
  -4   2   9   74.09    4.40
  -4   2   9   81.29    4.60
  -3  -2   9   23.90    2.20
  -3  -2   9   25.30    2.40
   3  -2  -9   25.40    2.20
  -3  -2   9   20.50    2.20
  -3   2   9   19.00    2.20
  -3   2   9   26.80    3.30
  -3   2   9   20.20    2.40
  -2  -2   9  555.44   27.50
  -2  -2   9  625.44   27.30
  -2  -2   9  641.64   27.50
  -2  -2   9  574.84   27.20
   2  -2  -9  551.84   27.20
  -2   2   9  599.04   28.20
  -2   2   9  580.24   27.40
  -2   2   9  597.04   27.30
  -1  -2   9   31.40    2.50
  -1  -2   9   34.60    2.50
  -1  -2   9   37.40    2.80
  -1  -2   9   32.00    2.90
  -1  -2   9   27.10    2.70
  -1   2   9   34.30    2.60
   1   2  -9   35.10    2.70
  -1   2   9   32.50    2.70
  -1   2   9   34.00    3.90
  -1   2   9   33.70    2.60
   0  -2   9  420.16   18.90
   0  -2   9  354.46   19.20
   0  -2   9  413.16   18.80
   0  -2   9  394.86   18.70
   0  -2  -9  410.46   19.00
   0  -2   9  434.86   19.10
   0   2   9  425.36   18.80
   0   2   9  409.06   18.90
   0   2   9  378.16   19.10
   0   2   9  397.46   20.00
  -1  -2  -9  132.49    6.70
   1  -2   9  123.09    6.50
   1  -2   9  124.49    6.40
   1  -2   9  120.89    6.70
   1  -2   9  128.09    6.40
   1  -2   9  115.79    6.10
   1   2   9  119.99    8.20
   1   2   9  131.29    6.50
   2  -2   9   30.70    2.70
   2  -2   9   34.20    2.70
   2  -2   9   32.90    3.20
  -2  -2  -9   34.80    3.10
   2  -2   9   34.00    2.70
   2   2   9   29.50    2.90
   2   2   9   30.20    2.20
   2   2   9   35.10    2.80
   2   2   9   26.70    5.10
  -3  -2  -9  701.63   34.60
   3  -2   9  693.33   34.20
   3  -2   9  729.23   34.40
   3  -2   9  784.72   34.30
   3  -2   9  720.13   33.90
   3  -2   9  744.63   34.30
   3   2   9  759.52   34.50
   3   2   9  783.02   34.00
   3   2   9  767.92   34.30
  -4  -2  -9   18.10    2.50
   4  -2   9   17.90    1.90
   4  -2   9   16.60    3.00
   4  -2   9   28.00    2.60
   4  -2   9   21.90    2.40
   4   2   9   18.30    2.00
   4   2   9   22.30    2.50
   5  -2   9    0.10    1.90
   5  -2   9    2.40    1.20
  -5  -2  -9    1.20    2.10
   5   2   9    1.00    1.10
   5   2   9    0.80    1.70
   6  -2   9    8.10    1.50
   6  -2   9    7.90    2.60
  -6  -2  -9   11.80    2.70
   6  -2   9   11.10    1.30
  -6   2  -9   15.50    2.60
   6   2   9    9.80    1.30
   6   2   9    8.00    2.00
   6   2   9   10.90    2.10
   9  -3  -9    1.40    1.40
  -9  -3   9    4.10    1.80
  -9  -3   9    3.60    2.00
  -9  -3   9    3.10    3.60
  -9  -3   9    6.40    3.60
   9  -3  -9    1.70    1.60
   9   3  -9    1.50    1.40
  -9   3   9    3.60    3.10
  -9   3   9    4.90    1.80
  -8  -3   9   71.79    5.20
  -8  -3   9   68.89    4.70
  -8  -3   9   62.59    4.80
   8  -3  -9   69.09    4.20
   8   3  -9   68.39    4.00
  -8   3   9   70.29    4.60
  -8   3   9   71.19    5.10
  -7  -3   9  227.78   11.60
  -7  -3   9  219.18   12.00
  -7  -3   9  231.18   11.10
   7  -3  -9  229.08   10.90
  -7  -3   9  229.78   11.30
  -7   3   9  223.98   11.20
  -7   3   9  207.98   11.00
  -6  -3   9    5.00    1.60
   6  -3  -9    5.40    1.10
  -6  -3   9    9.50    2.20
  -6  -3   9    4.80    1.70
  -6  -3   9    4.30    1.60
  -6   3   9    7.10    1.80
  -6   3   9    2.00    1.40
   6   3  -9    3.30    1.60
   5  -3  -9  723.23   35.00
  -5  -3   9  763.92   35.50
  -5  -3   9  731.43   35.10
  -5  -3   9  732.53   35.40
  -5  -3   9  828.32   35.50
   5  -3  -9  786.02   35.00
  -5   3   9  796.92   35.20
   5   3  -9  743.43   34.90
  -5   3   9  764.32   35.20
   4  -3  -9  573.44   27.60
  -4  -3   9  611.64   28.10
  -4  -3   9  607.94   27.80
  -4  -3   9  649.54   28.00
  -4  -3   9  585.24   27.90
   4  -3  -9  631.64   27.70
  -4  -3   9  584.54   27.70
  -4   3   9  608.24   27.80
  -4   3   9  566.04   28.70
   4   3  -9  593.64   27.50
  -4   3   9  578.64   27.70
  -3  -3   9   70.89    4.10
  -3  -3   9   63.19    3.90
   3  -3  -9   66.39    3.90
   3  -3  -9   61.09    3.70
  -3  -3   9   71.09    4.30
  -3  -3   9   62.19    4.20
  -3  -3   9   61.19    4.40
  -3   3   9   68.69    4.20
  -3   3   9   66.69    3.90
  -3   3   9   62.19    5.20
   2  -3  -9  112.39    6.10
  -2  -3   9  129.49    6.40
  -2  -3   9  119.49    6.10
  -2  -3   9  117.09    6.40
  -2   3   9  108.29    7.40
  -2   3   9  115.59    6.40
  -2   3   9  123.49    6.20
  -1  -3   9    0.90    1.20
  -1  -3   9    3.20    1.30
  -1  -3   9    0.50    1.30
   1  -3  -9    2.30    1.10
  -1  -3   9    2.90    1.30
  -1   3   9    2.90    1.20
  -1   3   9    0.80    2.40
   1   3  -9    1.80    1.50
  -1   3   9    2.20    1.20
   0  -3   9   67.39    3.90
   0  -3   9   64.39    3.70
   0  -3  -9   66.19    4.00
   0  -3   9   59.49    4.30
   0  -3   9   65.29    3.90
   0  -3   9   66.39    4.10
   0   3   9   66.09    3.90
   0   3   9   66.89    6.10
   0   3   9   63.99    4.20
  -1  -3  -9   12.90    1.80
   1  -3   9   13.90    1.70
   1  -3   9   18.50    1.80
   1  -3   9   10.60    1.60
   1  -3   9   12.80    1.50
   1  -3   9   11.60    1.80
   1   3   9   15.60    4.20
   1   3   9   13.90    1.70
   2  -3   9  413.76   19.70
   2  -3   9  411.96   19.50
   2  -3   9  422.16   19.70
  -2  -3  -9  432.96   20.00
   2  -3   9  397.76   19.50
   2  -3   9  404.96   19.20
   2   3   9  418.36   19.60
   2   3   9  431.36   19.80
   3  -3   9  256.17   12.10
  -3  -3  -9  250.17   13.00
   3  -3   9  259.37   12.40
   3  -3   9  246.38   12.60
   3   3   9  269.17   12.80
   3   3   9  264.47   12.20
   4  -3   9   17.40    1.90
  -4  -3  -9   27.80    3.40
   4  -3   9   16.60    2.10
   4  -3   9   12.90    1.60
   4   3   9   15.20    2.00
   4   3   9   13.70    2.10
   5  -3   9    5.80    1.70
   5  -3   9    8.70    2.00
   5  -3   9    9.70    1.30
  -5  -3  -9    7.30    2.40
   5   3   9    9.80    1.40
   5   3   9   11.50    2.20
   6  -3   9    6.90    1.30
   6  -3   9    7.60    2.50
   6  -3   9    8.40    1.50
  -6   3  -9    8.50    2.90
   6   3   9    4.60    1.70
   6   3   9    6.70    1.20
   6   3   9   10.10    1.90
   9  -4  -9    3.90    1.70
  -9  -4   9    1.50    1.60
  -9  -4   9    1.60    1.70
  -9  -4   9    4.70    2.30
  -9  -4   9    0.50    1.80
  -9   4   9    1.40    2.20
   9   4  -9   -1.20    1.50
  -8  -4   9    8.30    1.70
  -8  -4   9   10.20    2.50
  -8  -4   9    8.80    2.20
   8  -4  -9    6.00    1.50
  -8  -4   9    8.60    2.00
  -8   4   9    7.10    2.20
  -8   4   9    5.40    2.30
  -7  -4   9  152.58    8.80
   7  -4  -9  166.08    8.10
  -7  -4   9  167.68    8.80
  -7  -4   9  172.88    8.40
  -7  -4   9  129.59    9.10
  -7   4   9  153.18    9.40
  -7   4   9  151.08    8.10
   7   4  -9  165.88    7.90
  -6  -4   9   59.19    4.50
  -6  -4   9   56.09    3.70
  -6  -4   9   50.69    4.00
   6  -4  -9   56.19    3.50
  -6  -4   9   49.40    4.20
  -6   4   9   50.09    4.00
  -6   4   9   47.90    3.60
  -5  -4   9  281.67   13.90
   5  -4  -9  285.97   13.40
  -5  -4   9  297.97   13.60
  -5  -4   9  295.47   14.00
  -5  -4   9  286.67   14.00
   5  -4  -9  280.37   13.50
  -5   4   9  248.78   13.30
  -5   4   9  285.87   13.60
  -4  -4   9  467.35   21.90
   4  -4  -9  475.35   21.80
  -4  -4   9  497.65   22.00
   4  -4  -9  458.05   21.50
  -4  -4   9  461.45   21.70
   4  -4  -9  458.65   21.50
  -4  -4   9  454.95   21.60
  -4  -4   9  447.86   21.80
  -4   4   9  439.66   21.50
  -3  -4   9    1.00    1.30
   3  -4  -9    0.10    1.20
  -3  -4   9    1.60    1.40
  -3  -4   9    0.80    1.30
  -3  -4   9    5.80    2.10
   3  -4  -9    2.80    1.10
  -3  -4   9   -0.60    1.10
  -3   4   9    4.70    1.80
   3   4  -9    0.30    1.30
  -3   4   9    2.00    1.40
  -2  -4   9  214.78   10.60
  -2  -4   9  242.58   10.70
  -2  -4   9  228.88   10.50
   2  -4  -9  199.78   10.20
  -2  -4   9  196.98   10.20
   2  -4  -9  209.38   10.40
  -2  -4   9  211.78   10.30
  -2   4   9  204.58   12.10
  -2   4   9  211.58   10.60
  -2   4   9  205.98   10.30
  -1  -4   9    7.20    1.50
  -1  -4   9    9.30    1.70
  -1  -4   9   13.30    1.60
  -1  -4   9    8.60    1.40
  -1  -4   9    8.80    1.60
   1  -4  -9    9.40    1.60
  -1   4   9   10.50    1.80
  -1   4   9   10.00    1.70
  -1   4   9   15.30    4.00
   0  -4   9  508.75   21.80
   0  -4   9  447.66   21.60
   0  -4   9  448.46   21.40
   0  -4   9  476.25   21.60
   0  -4   9  422.06   21.70
   0  -4   9  448.86   21.40
   0  -4   9  455.85   21.40
   0  -4  -9  473.45   21.80
   0   4   9  465.95   21.50
   0   4   9  464.85   21.80
   1  -4   9    0.00    1.10
   1  -4   9    0.50    1.60
   1  -4   9   -0.40    1.10
  -1  -4  -9    0.80    1.30
   1  -4   9    0.60    1.40
   1  -4   9   -1.50    1.70
   1   4   9   -0.80    1.30
   2  -4   9   87.19    5.10
  -2  -4  -9   83.19    5.40
   2  -4   9   90.19    4.90
   2  -4   9   83.19    4.60
   2   4   9   86.19    4.90
   3  -4   9  129.89    6.50
   3  -4   9  122.39    7.00
  -3  -4  -9  122.99    7.30
   3  -4   9  136.09    6.80
   3   4   9  132.99    6.50
   3   4   9  135.09    7.20
  -4  -4  -9    3.50    2.20
   4  -4   9    6.30    1.70
   4  -4   9    5.50    1.20
   4  -4   9    2.90    1.80
   4   4   9    3.00    1.70
   4   4   9    2.90    1.00
   5  -4   9   72.49    4.50
   5  -4   9   74.19    4.20
  -5  -4  -9   68.59    5.50
   5  -4   9   75.19    4.90
   5   4   9   76.89    4.10
   5   4   9   75.79    4.90
   6  -4   9   13.00    1.50
   6  -4   9   12.70    1.40
   6   4   9   13.10    1.40
   6   4   9   16.50    2.50
  -9  -5   9   30.00    2.80
  -9  -5   9   27.80    3.90
  -9  -5   9   24.30    3.20
  -9  -5   9   31.80    3.10
  -9   5   9   23.20    3.30
   8  -5  -9   50.09    3.80
  -8  -5   9   52.99    4.20
  -8  -5   9   53.79    3.80
  -8  -5   9   56.79    4.10
  -8  -5   9   65.69    5.30
   8   5  -9   50.19    4.00
   7  -5  -9   97.79    5.70
  -7  -5   9  100.09    6.50
  -7  -5   9  111.69    6.30
  -7  -5   9   99.69    6.30
  -7  -5   9  103.69    5.90
   7   5  -9  103.09    6.50
  -7   5   9  104.59    7.10
  -6  -5   9    4.70    2.30
  -6  -5   9    2.80    2.00
   6  -5  -9    1.00    1.30
  -6  -5   9    1.00    1.50
   6   5  -9    4.20    1.50
  -6   5   9    2.90    1.40
   5  -5  -9  284.27   14.00
  -5  -5   9  303.27   14.60
  -5  -5   9  304.17   14.00
   5  -5  -9  297.57   14.10
  -5  -5   9  298.47   14.40
  -5  -5   9  289.87   15.60
   5  -5  -9  295.17   13.90
  -5   5   9  276.57   13.80
   5   5  -9  284.57   13.80
  -4  -5   9  194.38    9.60
  -4  -5   9  185.58    9.60
  -4  -5   9  180.68    9.20
  -4  -5   9  183.78    9.70
   4  -5  -9  183.58    8.90
  -4  -5   9  189.38    9.30
   4  -5  -9  186.38    9.20
   4  -5  -9  172.18    9.10
  -4   5   9  173.58    8.90
  -3  -5   9  113.29    7.50
  -3  -5   9  124.99    6.70
  -3  -5   9  107.49    6.30
  -3  -5   9  120.39    6.30
   3  -5  -9  116.79    6.30
   3  -5  -9  115.59    6.00
  -3  -5   9  118.09    6.50
  -3   5   9  134.19    7.30
  -3   5   9  106.59    6.00
   2  -5  -9   16.20    1.70
  -2  -5   9   15.30    2.20
  -2  -5   9   10.30    1.80
   2  -5  -9   17.80    2.10
  -2  -5   9   13.30    1.70
  -2  -5   9   17.60    1.90
  -2   5   9   17.80    2.30
  -2   5   9   14.60    2.30
   1  -5  -9  272.57   12.90
   1  -5  -9  269.47   13.10
  -1  -5   9  264.97   12.90
  -1  -5   9  263.77   13.20
  -1  -5   9  282.97   13.10
  -1  -5   9  293.77   13.40
  -1   5   9  254.97   13.20
  -1   5   9  260.77   13.00
   0  -5   9   77.69    4.60
   0  -5   9   79.19    4.40
   0  -5   9   81.69    5.50
   0  -5   9   76.29    4.70
   0  -5  -9   80.59    4.80
   0  -5   9   77.59    5.00
   0  -5   9   74.99    4.70
   0  -5   9   74.29    4.90
   0   5   9   68.19    4.60
   0   5   9   74.09    4.90
   1  -5   9   42.70    4.60
   1  -5   9   43.80    3.90
  -1  -5  -9   50.39    3.90
   1  -5   9   49.99    3.70
   1  -5   9   45.10    3.50
   1  -5   9   51.19    3.30
   2  -5   9  282.67   13.90
  -2  -5  -9  291.07   14.20
   2  -5   9  292.07   13.70
   2  -5   9  276.27   13.90
   3  -5   9    2.50    1.30
  -3  -5  -9   -2.30    3.00
   3  -5   9    1.10    1.40
   3  -5   9    0.80    1.30
   3   5   9    0.70    0.90
  -4  -5  -9   -1.10    2.50
   4  -5   9    2.20    1.50
   4  -5   9    1.10    1.40
   4  -5   9    0.10    1.30
   4   5   9    1.50    1.00
   5  -5   9  104.69    5.50
   5  -5   9  101.99    6.00
   5  -5   9   98.29    5.30
   5   5   9  106.29    5.30
  -8  -6   9    6.90    2.50
  -8  -6   9    5.90    1.80
  -8  -6   9    3.40    1.40
  -7  -6   9    6.50    1.90
   7  -6  -9    5.10    1.90
  -7  -6   9    7.10    1.90
  -7  -6   9   10.20    4.40
  -7   6   9    7.60    2.30
  -6  -6   9  227.08   11.70
  -6  -6   9  216.38   11.70
   6  -6  -9  221.88   11.20
  -6  -6   9  238.88   11.80
  -6   6   9  232.08   11.30
  -5  -6   9   21.40    3.00
  -5  -6   9   24.90    3.10
  -5  -6   9   22.80    3.40
   5  -6  -9   21.40    2.40
   5  -6  -9    9.80    3.30
  -5   6   9   15.60    1.90
  -4  -6   9    8.10    1.80
   4  -6  -9   13.20    2.00
  -4  -6   9    5.80    2.10
  -4  -6   9    8.20    2.60
   4  -6  -9   10.30    1.80
   4  -6  -9    9.90    1.80
  -4  -6   9    9.90    1.90
  -4   6   9    8.40    1.50
  -3  -6   9    7.60    1.80
   3  -6  -9   13.50    1.90
   3  -6  -9   11.20    1.80
  -3  -6   9    7.50    2.60
   3  -6  -9    5.80    1.60
  -3  -6   9    8.10    1.60
  -3  -6   9   10.10    1.70
  -3   6   9    9.90    1.60
  -2  -6   9  127.09    6.70
  -2  -6   9  129.99    7.10
  -2  -6   9  133.39    7.60
  -2  -6   9  125.79    7.50
   2  -6  -9  134.49    7.00
   2  -6  -9  125.09    6.70
  -2  -6   9  134.59    6.90
  -2   6   9  124.99    6.60
  -1  -6   9   36.30    2.80
  -1  -6   9   33.30    3.10
  -1  -6   9   30.00    3.30
  -1  -6   9   30.70    4.20
   1  -6  -9   36.30    3.20
  -1   6   9   35.00    3.90
   0  -6   9   22.00    3.30
   0  -6  -9   20.70    2.80
   0  -6   9   15.50    1.90
   0  -6   9   20.10    2.30
   0   6   9   24.60    3.30
   1  -6   9  150.48    8.50
   1  -6   9  158.98    9.50
  -1  -6  -9  183.08    8.80
   1  -6   9  154.88    8.60
   1  -6   9  166.98    8.40
   2  -6   9   42.10    3.40
   2  -6   9   47.30    4.30
   2  -6   9   38.90    4.50
   2  -6   9   36.30    4.50
  -2  -6  -9   44.80    4.50
   2  -6   9   37.00    3.80
  -3  -6  -9  103.19    6.50
   3  -6   9   99.29    5.70
   3  -6   9   98.09    5.90
   3   6   9  104.79    5.20
   4  -6   9    0.10    1.20
   4  -6   9   -2.80    1.80
   4   6   9   -0.70    1.00
  -7  -7   9   -3.90    2.50
  -7  -7   9    2.00    1.90
  -7  -7   9    1.10    1.30
  -6  -7   9  780.92   32.90
  -6  -7   9  765.82   33.20
  -6  -7   9  661.93   33.00
  -6   7   9  624.74   32.50
  -5  -7   9    0.60    2.80
   5  -7  -9   -0.30    2.10
  -5  -7   9   -0.10    1.80
  -5  -7   9    2.20    2.00
  -5   7   9   -1.70    1.70
  -4  -7   9   37.80    4.30
  -4  -7   9   36.80    3.80
   4  -7  -9   29.00    3.30
   4  -7  -9   33.80    3.40
  -4  -7   9   32.20    4.10
  -4   7   9   31.10    4.30
  -3  -7   9  284.87   14.80
  -3  -7   9  312.57   14.60
   3  -7  -9  292.47   14.30
  -3  -7   9  299.97   14.80
  -3  -7   9  303.97   14.10
  -3  -7   9  306.47   14.40
  -3   7   9  279.17   14.10
  -2  -7   9   46.50    3.50
  -2  -7   9   38.30    5.00
  -2  -7   9   39.90    3.60
   2  -7  -9   51.69    4.50
  -2  -7   9   28.40    3.90
  -2   7   9   41.10    3.30
  -1  -7   9   14.20    2.10
  -1  -7   9   21.50    2.30
   1  -7  -9   27.20    4.40
  -1   7   9   14.40    2.10
   0  -7   9   20.60    3.00
   0  -7  -9   27.80    3.30
   0  -7   9   16.80    2.20
   0   7   9   20.10    2.80
  -1  -7  -9  606.44   27.50
   1  -7   9  585.44   27.20
   1  -7   9  574.04   28.20
   1   7   9  578.14   27.50
   2  -7   9    1.00    1.40
   2  -7   9   -0.10    1.60
  -2  -7  -9   -0.40    2.40
   2   7   9    0.20    0.90
   2   7   9   -2.60    1.90
   3  -7   9    0.10    1.90
   3  -7   9    1.30    1.40
   3   7   9    1.20    1.70
   3   7   9   -0.70    1.00
   5  -8  -9    0.90    3.30
  -5  -8   9    0.60    1.50
  -5  -8   9    6.20    3.10
  -4  -8   9  122.49    6.60
   4  -8  -9  114.19    6.40
  -4  -8   9  102.99    7.40
  -4  -8   9  125.19    7.40
  -4   8   9  122.29    8.10
  -3  -8   9   68.69    6.00
  -3  -8   9   70.69    4.30
   3  -8  -9   69.49    4.90
  -3  -8   9   71.29    4.80
   3  -8  -9   75.09    4.70
  -3   8   9   73.19    5.10
   2  -8  -9   34.20    3.50
  -2  -8   9   30.20    3.40
  -2  -8   9   29.30    2.90
   2  -8  -9   32.70    3.20
   1  -8  -9   50.69    3.80
  -1  -8   9   48.90    3.50
   1  -8  -9   46.80    4.00
  -1  -8   9   49.10    4.60
  -1  -8   9   46.00    4.10
   0  -8   9    0.90    1.30
   0  -8   9   -0.60    2.30
   0  -8  -9    5.00    2.30
  -1  -8  -9  174.38    9.60
   1  -8   9  176.18    9.40
   1  -8   9  188.38    8.90
   2  -8   9  103.29    5.50
   2   8   9  108.29    5.50
   2   8   9  100.19    6.70
   2  -9  -9   14.90    2.20
  -2  -9   9   11.20    2.90
  -2  -9   9   14.10    1.60
 -10   0  10  369.46   16.80
  10   0 -10  360.66   16.60
 -10   0  10  336.07   17.10
   9   0 -10    1.70    1.70
  -9   0  10    6.20    2.10
   8   0 -10  773.92   32.20
  -8   0  10  625.64   32.10
  -8   0  10  651.63   32.20
  -8   0  10  707.23   32.10
  -7   0  10   79.49    5.80
  -7   0  10   85.39    5.30
   7   0 -10   88.09    4.90
  -7   0  10   98.09    5.90
  -6   0  10    2.80    2.70
  -6   0  10    1.90    1.50
   6   0 -10    0.10    0.90
  -6   0  10    0.40    1.90
  -6   0  10    2.60    1.60
  -5   0  10  810.22   39.60
   5   0 -10  845.22   39.10
  -5   0  10  848.52   39.30
  -5   0  10  910.71   39.40
   4   0 -10 1842.02   83.89
  -4   0  10 1875.81   83.99
  -4   0  10 1811.22   84.69
  -4   0  10 1761.52   84.29
  -4   0  10 1944.11   84.09
  -3   0  10  813.62   38.90
  -3   0  10  844.52   39.60
  -3   0  10  922.11   39.10
   3   0 -10  829.52   38.70
  -3   0  10  825.52   39.30
   2   0 -10    6.70    1.40
  -2   0  10    6.60    1.30
  -2   0  10    6.20    1.40
  -2   0  10    7.20    1.30
  -2   0  10    4.90    2.10
   1   0 -10  177.08    9.30
  -1   0  10  192.48    9.20
  -1   0  10  185.18   10.10
  -1   0  10  192.38    9.50
  -1   0  10  191.98    9.30
   0   0  10  125.59    7.10
   0   0 -10  136.49    6.90
   0   0  10  133.89    6.80
   0   0  10  129.99    7.90
   0   0  10  129.59    6.40
   1   0  10   97.39    5.00
   1   0  10   97.29    5.40
   1   0  10   97.39    5.80
  -1   0 -10  100.89    5.60
   1   0  10   96.79    5.40
   2   0  10  565.04   26.80
   2   0  10  602.94   27.50
   2   0  10  569.04   27.10
  -2   0 -10  594.94   27.50
   2   0  10  587.24   27.10
   3   0  10  913.21   37.90
   3   0  10  759.52   38.50
  -3   0 -10  844.82   38.30
   3   0  10  735.23   37.80
   3   0  10  857.81   37.60
   4   0  10  496.85   24.70
   4   0  10  521.75   24.10
  -4   0 -10  553.14   24.90
   5   0  10  146.99    8.20
   5   0  10  158.28    7.90
  -5   0 -10  161.08    8.50
   5   0  10  153.18    7.60
   6   0  10   21.40    2.00
   6   0  10   23.30    2.30
 -10  -1  10  216.18   11.50
 -10  -1  10  237.48   11.00
  10  -1 -10  217.28   10.90
 -10   1  10  240.88   11.00
 -10   1  10  216.38   11.50
  10   1 -10  227.78   10.90
  -9  -1  10  124.19    6.60
   9  -1 -10  108.69    6.20
  -9  -1  10  103.49    6.90
  -9   1  10  122.59    6.50
  -9   1  10  113.99    8.60
   9   1 -10  118.29    6.00
  -8  -1  10   97.59    5.80
  -8  -1  10   93.49    6.20
   8  -1 -10   96.39    5.60
  -8  -1  10   83.69    5.80
  -8   1  10   89.79    6.00
   8   1 -10   92.09    5.40
  -8   1  10  102.79    5.70
  -7  -1  10  969.40   42.20
  -7  -1  10  893.01   42.20
  -7  -1  10  894.71   42.20
   7  -1 -10  919.21   41.80
   7   1 -10  894.31   41.80
  -7   1  10  873.81   42.10
  -7   1  10  948.51   42.10
  -6  -1  10   32.70    3.80
  -6  -1  10   35.90    3.20
   6  -1 -10   32.90    2.60
  -6  -1  10   32.00    3.70
  -6  -1  10   34.40    3.00
  -6   1  10   33.70    3.20
  -6   1  10   37.30    3.20
   6   1 -10   34.20    2.60
  -6   1  10   32.00    3.80
  -5  -1  10  204.88   10.30
   5  -1 -10  202.18   10.10
  -5  -1  10  195.68   10.70
  -5  -1  10  219.28   10.50
  -5   1  10  214.78   10.30
   5   1 -10  214.48   10.00
  -5   1  10  197.78   10.20
  -4  -1  10  408.66   19.60
  -4  -1  10  405.06   19.90
   4  -1 -10  399.96   19.40
  -4  -1  10  406.46   19.50
  -4  -1  10  464.75   19.70
  -4   1  10  387.76   20.40
   4   1 -10  411.76   19.40
  -4   1  10  437.66   19.60
  -4   1  10  414.26   19.50
   3  -1 -10  650.53   29.40
  -3  -1  10  644.24   30.10
  -3  -1  10  636.64   29.60
  -3  -1  10  612.34   29.90
  -3  -1  10  650.03   29.60
  -3  -1  10  669.33   29.70
  -3   1  10  610.94   30.30
  -3   1  10  612.84   29.50
  -3   1  10  665.23   29.70
  -2  -1  10  148.29    8.60
   2  -1 -10  171.58    8.80
  -2  -1  10  177.58    8.30
  -2  -1  10  178.48    8.50
  -2  -1  10  156.68    9.00
  -2   1  10  168.88    8.30
  -2   1  10  169.18    8.50
  -2   1  10  163.18    8.30
  -2   1  10  163.28    9.30
   2   1 -10  164.88    8.30
  -1  -1  10  192.48    9.70
  -1  -1  10  165.18    8.70
  -1  -1  10  178.28    8.80
   1  -1 -10  178.68    8.90
  -1  -1  10  184.68    9.10
  -1  -1  10  169.68    8.50
  -1   1  10  181.18    8.80
  -1   1  10  173.38   10.00
  -1   1  10  183.58    8.90
  -1   1  10  176.68    9.10
   0  -1  10 1829.02   83.99
   0  -1 -10 1952.20   84.49
   0  -1  10 1886.31   84.29
   0  -1  10 1841.32   84.09
   0  -1  10 1833.12   84.29
   0  -1  10 1839.92   84.59
   0   1  10 1884.61   84.59
   0   1  10 1966.80   84.39
   0   1 -10 1802.62   84.39
   0   1  10 1665.23   85.19
   0   1  10 1911.81   84.29
   1  -1  10  433.96   19.90
   1  -1  10  429.16   19.80
   1  -1  10  389.06   19.60
   1  -1  10  430.76   19.90
  -1  -1 -10  447.46   20.20
   1  -1  10  431.26   20.20
   1   1  10  426.26   19.60
   1   1  10  443.96   20.00
  -1   1 -10  439.26   20.10
   1   1  10  423.46   19.90
   1   1  10  384.16   21.40
   1   1  10  417.96   20.30
   2  -1  10   40.00    3.00
   2  -1  10   41.40    3.10
  -2  -1 -10   34.40    3.30
   2  -1  10   34.60    2.50
   2  -1  10   36.10    3.50
   2  -1  10   35.20    2.80
   2   1  10   35.90    3.00
   2   1  10   35.30    3.40
   2   1  10   34.00    3.70
  -2   1 -10   31.70    3.30
   2   1  10   35.20    2.40
  -3  -1 -10  126.49    7.50
   3  -1  10  134.29    7.00
   3  -1  10  137.49    6.70
   3  -1  10  146.49    7.00
   3  -1  10  120.89    7.20
   3  -1  10  125.29    8.70
   3   1  10  128.49    6.70
   3   1  10  146.99    7.10
  -3   1 -10  134.29    7.50
   4  -1  10  101.59    6.30
   4  -1  10  116.19    6.00
   4  -1  10   93.39    6.30
   4  -1  10  105.19    5.60
  -4  -1 -10  108.59    7.00
   4   1  10  112.39    5.70
   4   1  10  105.69    6.30
  -4   1 -10  128.59    7.00
  -5  -1 -10   48.50    4.40
   5  -1  10   50.99    3.70
   5  -1  10   52.59    3.20
   5  -1  10   48.10    4.20
  -5   1 -10   54.19    4.20
   5   1  10   45.20    3.90
   5   1  10   51.19    3.20
   6  -1  10  222.48   10.50
   6  -1  10  227.58   10.40
   6   1  10  221.28   10.40
   6   1  10  205.48   10.80
   6   1  10  223.68   10.50
  -9  -2  10   27.60    2.80
  -9  -2  10   29.80    3.80
  -9  -2  10   23.50    3.50
   9  -2 -10   25.20    3.00
  -9   2  10   21.00    3.00
   9   2 -10   23.40    2.50
  -9   2  10   27.80    3.10
  -8  -2  10   10.40    2.10
  -8  -2  10    8.60    2.50
  -8  -2  10    7.10    2.00
  -8  -2  10    8.80    2.20
   8  -2 -10    8.50    1.60
  -8   2  10    8.40    2.00
  -8   2  10    9.00    2.40
  -7  -2  10   -0.70    2.20
  -7  -2  10    2.70    1.70
  -7  -2  10    2.00    1.70
  -7  -2  10   -0.20    1.50
   7  -2 -10    2.00    1.20
   7   2 -10    1.40    1.50
  -7   2  10    1.70    2.30
  -7   2  10    2.90    1.60
  -6  -2  10  845.92   38.50
  -6  -2  10  836.42   38.70
  -6  -2  10  770.12   38.60
  -6  -2  10  840.22   38.80
   6  -2 -10  856.81   38.30
  -6   2  10  852.21   38.50
   6   2 -10  817.52   38.20
  -6   2  10  855.81   38.50
   5  -2 -10  491.05   22.10
  -5  -2  10  489.85   22.50
  -5  -2  10  494.45   22.30
  -5  -2  10  440.96   22.40
  -5  -2  10  469.05   22.60
  -5   2  10  454.25   22.20
   5   2 -10  470.85   22.00
  -5   2  10  491.95   22.30
   4  -2 -10    4.60    1.40
   4  -2 -10    3.70    1.00
  -4  -2  10    3.10    1.20
  -4  -2  10    5.20    1.70
  -4  -2  10    6.30    1.70
  -4  -2  10    4.20    1.40
   4   2 -10    4.80    1.10
  -4   2  10    2.00    4.60
  -4   2  10    3.50    1.30
  -4   2  10    5.60    1.60
   3  -2 -10  390.46   18.80
  -3  -2  10  396.26   19.20
  -3  -2  10  396.26   18.90
  -3  -2  10  443.36   19.10
  -3  -2  10  396.36   18.90
  -3   2  10  418.66   19.10
  -3   2  10  403.76   18.90
  -3   2  10  373.96   19.90
   2  -2 -10  319.57   15.20
  -2  -2  10  310.77   15.10
  -2  -2  10  325.27   15.20
  -2  -2  10  306.37   15.50
  -2  -2  10  336.67   15.40
  -2   2  10  326.97   15.20
  -2   2  10  306.17   16.30
  -2   2  10  326.67   15.40
   1  -2 -10    0.10    1.20
  -1  -2  10   -2.90    1.30
  -1  -2  10    0.90    1.40
  -1  -2  10    0.20    1.20
  -1  -2  10    3.90    1.30
  -1   2  10    2.10    1.20
  -1   2  10    3.70    3.10
  -1   2  10    0.20    1.40
  -1   2  10    0.80    1.30
   0  -2  10   15.00    1.80
   0  -2  10   13.20    2.00
   0  -2  10    9.80    1.30
   0  -2  10   12.20    1.60
   0  -2 -10   11.40    1.70
   0  -2  10    9.10    1.40
   0   2 -10   16.30    2.00
   0   2  10   12.40    3.70
   0   2  10   10.30    2.10
   0   2  10    8.10    1.60
   0   2  10   11.80    1.80
   1  -2  10  728.43   35.60
   1  -2  10  770.52   35.80
   1  -2  10  772.52   35.90
   1  -2  10  804.12   36.20
   1  -2  10  775.42   36.00
  -1  -2 -10  761.82   36.20
   1   2  10  805.82   36.00
  -1   2 -10  817.52   36.10
   1   2  10  785.42   36.30
   2  -2  10  407.56   19.00
   2  -2  10  413.06   19.40
   2  -2  10  401.56   19.20
   2  -2  10  419.66   19.20
  -2  -2 -10  410.86   19.70
   2  -2  10  408.36   19.50
   2   2  10  437.46   19.40
  -2   2 -10  389.06   19.50
   2   2  10  417.86   19.00
   2   2  10  390.96   19.70
   3  -2  10    6.20    2.00
  -3  -2 -10    8.40    2.20
   3  -2  10    6.00    1.60
   3  -2  10    9.30    1.90
   3  -2  10    5.20    1.00
  -3   2 -10    9.20    2.00
   3   2  10    3.50    1.70
   3   2  10    6.50    1.10
   4  -2  10  278.67   13.00
   4  -2  10  256.77   13.40
   4  -2  10  258.87   14.00
  -4  -2 -10  307.27   14.00
   4   2  10  256.67   13.60
  -4   2 -10  284.47   13.80
   4   2  10  283.97   13.10
   5  -2  10  251.47   11.30
   5  -2  10  231.48   11.00
   5  -2  10  211.68   11.50
  -5  -2 -10  236.88   11.90
  -5   2 -10  243.08   11.80
   5   2  10  230.58   11.00
   5   2  10  212.58   11.50
   6  -2  10   26.60    2.30
   6   2  10   26.00    2.20
   9  -3 -10  299.27   14.40
  -9  -3  10  306.67   14.70
  -9  -3  10  304.67   14.40
  -9  -3  10  272.67   14.70
   9  -3 -10  270.87   14.20
  -9  -3  10  311.97   14.90
  -9   3  10  325.47   14.40
  -9   3  10  295.77   14.80
   9   3 -10  322.47   14.30
  -8  -3  10  373.96   18.30
  -8  -3  10  366.26   18.30
  -8  -3  10  356.66   18.60
   8  -3 -10  382.46   18.10
  -8  -3  10  390.26   18.70
  -8   3  10  385.36   18.50
   8   3 -10  442.06   18.20
  -8   3  10  388.76   18.30
  -7  -3  10   25.40    3.10
  -7  -3  10   29.60    3.90
  -7  -3  10   22.70    3.20
   7  -3 -10   27.70    2.50
  -7   3  10   23.50    3.10
  -6  -3  10   33.60    3.50
  -6  -3  10   34.20    3.80
  -6  -3  10   37.00    3.10
   6  -3 -10   37.90    2.80
  -6  -3  10   43.30    4.00
  -6   3  10   39.10    3.20
  -5  -3  10  479.85   23.60
  -5  -3  10  548.35   23.80
   5  -3 -10  522.05   23.30
   5  -3 -10  470.45   23.30
  -5  -3  10  493.85   23.80
  -5  -3  10  484.15   23.40
   5   3 -10  483.95   23.10
  -5   3  10  511.05   23.50
  -5   3  10  521.25   23.50
   4  -3 -10  157.78    8.30
  -4  -3  10  160.38    8.40
  -4  -3  10  168.78    8.40
  -4  -3  10  179.88    8.70
  -4  -3  10  162.48    8.80
   4  -3 -10  165.38    8.30
   4   3 -10  165.88    8.20
  -4   3  10  161.68    8.40
  -4   3  10  170.58    8.50
  -3  -3  10    0.70    1.20
   3  -3 -10    0.90    1.20
  -3  -3  10    2.40    1.60
   3  -3 -10    1.90    1.00
  -3  -3  10    1.30    1.30
  -3  -3  10    0.90    1.30
  -3   3  10    3.20    1.60
  -3   3  10    1.60    1.30
  -2  -3  10  555.34   26.20
  -2  -3  10  549.65   26.40
  -2  -3  10  613.34   26.40
  -2  -3  10  537.45   26.10
   2  -3 -10  546.25   26.20
  -2   3  10  574.74   26.20
  -2   3  10  572.34   26.40
  -1  -3  10  720.13   34.40
  -1  -3  10  829.02   34.90
  -1  -3  10  751.22   34.50
  -1  -3  10  757.12   34.70
  -1  -3  10  702.73   34.80
   1  -3 -10  713.73   34.70
  -1   3  10  768.52   34.60
  -1   3  10  768.92   34.90
   0  -3 -10   57.49    3.90
   0  -3  10   56.59    3.60
   0  -3  10   57.99    3.70
   0  -3  10   57.09    3.80
   0  -3  10   56.59    4.00
   0   3 -10   56.79    3.90
   0   3  10   55.99    4.10
   0   3  10   56.19    3.70
   1  -3  10   44.90    3.20
   1  -3  10   49.20    3.40
   1  -3  10   52.89    3.80
  -1  -3 -10   41.80    3.60
   1  -3  10   42.90    3.00
   1  -3  10   51.99    3.40
   1   3  10   50.19    3.40
   1   3  10   42.30    3.80
   2  -3  10 1165.48   55.49
   2  -3  10 1212.28   55.29
   2  -3  10 1197.28   55.79
   2  -3  10 1237.68   55.79
   2  -3  10 1251.27   55.59
  -2  -3 -10 1175.48   56.09
   2   3  10 1181.98   56.19
   2   3  10 1282.17   55.39
   2   3  10 1258.37   55.69
   3  -3  10   54.19    4.00
   3  -3  10   54.59    3.40
   3  -3  10   54.19    3.70
  -3  -3 -10   58.09    4.50
   4  -3  10    5.40    1.70
  -4  -3 -10    4.00    2.50
   4  -3  10    4.00    1.20
   4   3  10    2.40    1.60
  -4   3 -10    4.90    2.30
   4   3  10    7.10    1.40
   5  -3  10  211.18   11.20
   5  -3  10  233.28   10.90
  -5  -3 -10  233.18   11.70
   5  -3  10  219.68   10.70
  -5   3 -10  236.68   11.60
   5   3  10  224.98   10.70
   5   3  10  221.18   11.30
  -9  -4  10   18.90    2.20
  -9  -4  10   18.70    3.30
  -9  -4  10   20.90    2.60
  -9  -4  10   22.40    2.90
   9   4 -10   24.50    2.80
  -9   4  10   28.30    4.50
  -8  -4  10  126.59    6.90
  -8  -4  10  143.49    9.90
  -8  -4  10  132.19    6.90
  -8  -4  10  121.69    7.20
   8  -4 -10  123.39    6.70
   8   4 -10  135.19    6.60
  -8   4  10  114.09    7.70
  -8   4  10  131.09    7.10
  -7  -4  10   38.90    4.30
  -7  -4  10   32.20    3.60
   7  -4 -10   30.80    2.90
  -7  -4  10   31.40    3.30
  -7   4  10   35.80    3.60
   7   4 -10   36.10    2.80
  -6  -4  10  708.93   32.10
  -6  -4  10  676.33   32.40
   6  -4 -10  682.13   31.90
  -6  -4  10  678.13   32.50
  -6  -4  10  684.53   32.30
  -6   4  10  724.53   32.10
  -5  -4  10   26.30    3.10
  -5  -4  10   19.80    2.90
  -5  -4  10   22.30    2.60
   5  -4 -10   19.60    2.00
   5  -4 -10   20.80    2.40
  -5  -4  10   21.40    2.50
  -5   4  10   22.30    2.80
   4  -4 -10  561.04   25.90
  -4  -4  10  541.45   26.10
  -4  -4  10  583.94   26.40
   4  -4 -10  565.54   25.90
   4  -4 -10  519.55   25.80
  -4  -4  10  546.45   25.90
  -4  -4  10  598.04   26.40
  -4   4  10  580.84   26.10
  -4   4  10  532.85   25.90
  -3  -4  10  362.76   17.40
  -3  -4  10  368.76   17.20
  -3  -4  10  389.56   17.40
  -3  -4  10  357.16   17.00
   3  -4 -10  365.06   17.00
   3  -4 -10  351.36   17.10
  -3   4  10  358.76   17.20
  -3   4  10  353.46   17.00
   3   4 -10  342.07   17.10
  -2  -4  10   10.80    1.70
  -2  -4  10   11.50    1.80
   2  -4 -10    8.30    1.60
  -2  -4  10    8.40    1.60
   2  -4 -10   12.50    1.60
  -2  -4  10    7.40    1.40
  -2  -4  10   11.50    2.00
  -2   4  10   11.80    2.00
  -2   4  10   10.20    1.80
  -1  -4  10    8.00    1.60
  -1  -4  10    5.30    1.50
   1  -4 -10    8.80    1.90
  -1  -4  10    6.10    1.70
  -1  -4  10    6.30    1.50
  -1  -4  10    7.60    1.70
  -1   4  10    8.00    1.80
  -1   4  10    7.10    1.70
   0  -4  10   38.10    3.10
   0  -4  10   38.60    3.40
   0  -4 -10   39.30    3.30
   0  -4  10   40.30    3.20
   0  -4  10   35.30    2.90
   0  -4  10   39.30    3.80
   0   4 -10   36.80    4.10
   0   4  10   38.50    3.40
   0   4  10   35.70    3.10
   1  -4  10  317.37   16.10
   1  -4  10  346.37   16.40
   1  -4  10  348.67   16.50
   1  -4  10  348.57   16.20
  -1  -4 -10  362.66   16.70
   1   4  10  324.17   16.70
   1   4  10  350.36   16.20
   2  -4  10  162.18    8.70
   2  -4  10  171.08    8.50
  -2  -4 -10  173.38    9.10
   2   4  10  171.88    8.40
  -3  -4 -10  402.36   19.40
   3  -4  10  386.36   18.90
   3  -4  10  399.66   18.50
   3   4  10  406.36   18.50
   4  -4  10  312.27   14.70
   4  -4  10  299.87   15.20
   4  -4  10  338.57   15.10
  -4  -4 -10  326.67   15.60
   4   4  10  310.67   15.40
   4   4  10  305.67   14.80
   5  -4  10    4.60    1.20
   5  -4  10    2.30    1.30
   5  -4  10    6.00    2.00
   5   4  10    2.40    1.00
   5   4  10    3.10    1.50
  -8  -5  10  692.93   32.20
  -8  -5  10  696.33   31.80
  -8  -5  10  730.33   31.70
  -8  -5  10  632.54   32.10
  -7  -5  10  428.36   19.90
   7  -5 -10  414.46   19.80
  -7  -5  10  412.96   20.10
  -7  -5  10  458.35   21.60
  -7  -5  10  411.16   20.40
  -6  -5  10    2.90    2.60
  -6  -5  10    0.30    1.70
  -6  -5  10    0.50    1.80
  -6  -5  10    0.80    1.70
   6  -5 -10   -0.80    1.40
  -5  -5  10   10.10    2.10
   5  -5 -10   10.70    1.50
  -5  -5  10    9.00    2.80
  -5  -5  10    8.20    1.80
   5  -5 -10   13.90    2.20
   4  -5 -10   10.30    1.50
  -4  -5  10   13.20    2.00
  -4  -5  10    9.50    3.00
  -4  -5  10   10.10    1.90
  -4  -5  10    9.80    2.10
   4  -5 -10    6.70    1.90
   4  -5 -10    9.80    1.80
  -4  -5  10   11.40    1.80
  -4   5  10   10.40    2.90
   3  -5 -10   18.50    2.50
   3  -5 -10   13.70    1.70
  -3  -5  10   19.60    2.20
  -3  -5  10   18.40    2.70
  -3  -5  10   15.30    2.00
  -3  -5  10   20.90    3.00
  -3   5  10   13.60    2.30
  -3   5  10   17.10    2.60
  -2  -5  10  340.77   15.90
   2  -5 -10  326.17   15.90
  -2  -5  10  357.86   16.20
  -2  -5  10  327.97   16.10
   2  -5 -10  329.37   15.70
  -2  -5  10  314.67   15.60
  -2   5  10  337.17   16.00
  -2   5  10  322.47   15.80
  -1  -5  10 1600.34   69.49
  -1  -5  10 1377.16   69.39
  -1  -5  10 1633.84   69.59
  -1  -5  10 1525.35   69.19
   1  -5 -10 1478.05   69.19
   1  -5 -10 1580.54   69.49
  -1   5  10 1514.05   69.49
  -1   5  10 1464.15   69.19
   0  -5  10  310.27   14.00
   0  -5 -10  288.97   14.00
   0  -5 -10  309.37   14.40
   0  -5  10  273.77   14.30
   0  -5  10  304.37   14.20
   0   5  10  285.67   14.00
   0   5  10  282.27   14.70
   1  -5  10   41.50    3.50
   1  -5  10   43.30    3.20
  -1  -5 -10   47.90    4.10
   1   5  10   47.60    3.90
  -2  -5 -10   20.90    3.60
   2  -5  10   13.30    2.10
   2  -5  10   14.10    2.00
   2   5  10    8.70    1.30
   2   5  10   10.50    2.00
  -3  -5 -10   12.00    2.70
   3  -5  10   14.70    2.00
   3  -5  10   10.40    1.90
   3   5  10   13.10    2.30
   3   5  10    8.20    1.30
   4  -5  10   27.50    3.30
   4  -5  10   33.20    2.70
  -4  -5 -10   31.10    4.20
   4  -5  10   29.60    3.60
   4   5  10   34.90    3.20
   4   5  10   31.20    2.40
  -7  -6  10   24.70    3.20
  -7  -6  10   26.40    2.90
  -7  -6  10   32.30    4.40
  -6  -6  10  448.36   20.00
  -6  -6  10  376.26   18.50
   6  -6 -10  353.46   18.20
  -6  -6  10  377.16   18.70
  -5  -6  10  416.16   20.50
  -5  -6  10  423.86   20.60
  -5  -6  10  468.95   20.80
   5  -6 -10  396.36   19.90
  -4  -6  10  215.78   10.40
   4  -6 -10  194.18   10.00
  -4  -6  10  193.68   10.40
  -4  -6  10  204.68   10.10
   4  -6 -10  189.38    9.80
  -4  -6  10  201.58   10.90
  -3  -6  10  484.15   22.20
  -3  -6  10  478.05   22.60
  -3  -6  10  470.35   22.40
   3  -6 -10  469.25   22.20
   3  -6 -10  464.05   22.20
   2  -6 -10   57.19    3.80
  -2  -6  10   47.30    3.70
  -2  -6  10   48.70    4.40
  -2  -6  10   49.40    3.50
  -2  -6  10   52.19    4.00
  -1  -6  10    3.90    2.60
  -1  -6  10    0.90    1.60
   1  -6 -10   -0.10    1.70
  -1  -6  10    3.10    1.50
  -1  -6  10    2.70    1.40
  -1   6  10    2.30    1.90
   0  -6  10   80.09    7.50
   0  -6  10   89.69    5.20
   0  -6  10   84.79    5.10
   0   6  10   87.99    5.50
  -1  -6 -10  355.86   17.00
   1  -6  10  359.16   16.60
   1  -6  10  349.37   16.70
   1   6  10  336.97   16.90
  -2  -6 -10  186.48   10.10
   2  -6  10  192.48    9.50
   2  -6  10  184.88    9.60
   2   6  10  203.78    9.20
   2   6  10  183.38    9.90
   3  -6  10  348.87   16.90
  -3  -6 -10  352.16   17.30
   3   6  10  343.97   17.10
   3   6  10  376.26   16.50
  -6  -7  10   58.79    6.40
  -6  -7  10   63.69    4.60
  -6  -7  10   63.99    4.20
  -5  -7  10   14.50    2.50
  -5  -7  10    9.40    1.90
  -5  -7  10   18.80    3.80
   4  -7 -10   -1.00    1.80
  -4  -7  10   -1.00    1.60
  -4  -7  10    1.70    2.20
   4  -7 -10   -1.40    2.10
   3  -7 -10  195.88    9.80
  -3  -7  10  191.68   10.40
   3  -7 -10  203.08   10.40
  -3  -7  10  188.98   10.00
  -3  -7  10  193.88   10.10
   2  -7 -10  269.27   13.50
   2  -7 -10  308.77   14.30
  -2  -7  10  266.17   13.50
  -2  -7  10  279.57   13.30
  -2  -7  10  276.87   13.70
   1  -7 -10  302.37   14.40
  -1  -7  10  282.67   14.40
  -1  -7  10  296.77   14.10
  -1  -7  10  306.97   14.40
   0  -7 -10   71.69    4.90
   0  -7  10   68.09    4.70
   0  -7  10   69.59    4.20
   0   7  10   66.29    5.00
   1  -7  10  243.48   12.20
  -1  -7 -10  246.28   12.50
   1  -7  10  252.37   12.00
   1   7  10  255.27   12.50
   2  -7  10   30.60    3.40
   2  -7  10   26.30    2.60
   2   7  10   31.80    2.30
   2   7  10   24.90    3.80
  -4  -8  10   36.70    3.20
  -3  -8  10   63.19    4.20
   3  -8 -10   58.19    4.40
   2  -8 -10   47.60    3.90
  -2  -8  10   52.79    3.40
  -2  -8  10   41.80    3.70
   2  -8 -10   50.29    4.40
   1  -8 -10    6.70    3.30
  -1  -8  10    5.30    1.50
   1  -8 -10    4.30    1.90
   0  -8 -10    7.00    2.10
   0  -8  10    9.30    1.50
  -9   0  11    1.80    3.10
  -9   0  11    0.30    1.70
  -8   0  11   -2.90    1.80
  -8   0  11    0.40    2.10
  -8   0  11   -1.50    2.80
   8   0 -11   -2.80    1.50
  -7   0  11   -0.60    3.10
   7   0 -11    2.70    1.40
  -7   0  11    0.10    1.70
  -7   0  11   -0.60    1.80
  -6   0  11    2.30    1.40
   6   0 -11   -0.10    1.10
  -6   0  11    1.60    1.60
  -5   0  11    1.60    1.30
   5   0 -11   -0.80    1.00
  -5   0  11    1.20    1.40
  -4   0  11    0.50    1.30
   4   0 -11    0.00    1.00
  -4   0  11   -0.20    1.20
  -3   0  11   -0.30    1.10
  -3   0  11   -0.20    1.20
  -3   0  11    0.10    1.40
  -2   0  11   -0.50    1.30
  -2   0  11    0.60    1.30
  -2   0  11    0.50    1.20
   2   0 -11    1.90    1.60
  -2   0  11   -5.90    3.40
   1   0 -11    1.50    1.50
  -1   0  11   -1.10    1.30
  -1   0  11   -0.30    1.30
  -1   0  11    0.00    1.30
  -1   0  11   -0.70    0.90
   0   0  11   -0.50    1.40
   0   0  11    2.00    1.40
   0   0 -11   -0.20    1.50
   0   0  11   -0.10    1.20
   0   0  11   -0.70    0.80
   0   0  11    1.50    1.20
   1   0  11   -0.60    1.10
   1   0  11   -0.60    1.60
  -1   0 -11   -4.00    1.70
   1   0  11    1.30    1.60
   1   0  11    1.00    1.20
   1   0  11    0.80    0.90
   2   0  11    1.50    1.20
   2   0  11    0.10    1.20
   2   0  11   -1.10    1.80
   2   0  11    0.50    2.40
  -2   0 -11    2.50    1.80
   2   0  11    0.00    0.90
   3   0  11   -0.90    1.20
  -3   0 -11   -1.40    2.30
   3   0  11   -0.70    1.00
   3   0  11   -1.50    1.60
   4   0  11   -0.50    1.40
   4   0  11   -2.00    1.70
   4   0  11   -0.20    1.00
  -4   0 -11   -1.80    2.20
   5   0  11   -0.10    1.30
   5   0  11    0.50    0.90
   5   0  11    0.80    2.20
  -9  -1  11   15.80    2.80
  -9  -1  11   17.90    2.20
  -9  -1  11   23.80    3.50
  -9   1  11   24.60    2.90
   9   1 -11   20.40    2.40
  -9   1  11   16.80    3.80
   8  -1 -11   44.60    3.50
  -8  -1  11   49.50    4.90
  -8  -1  11   48.40    4.00
  -8  -1  11   39.10    4.10
  -8   1  11   49.70    4.10
  -8   1  11   40.00    5.80
   8   1 -11   47.20    3.90
  -7  -1  11    3.80    2.80
  -7  -1  11    3.10    1.90
  -7  -1  11    4.90    1.80
   7  -1 -11    6.10    1.40
   7   1 -11    4.60    1.60
  -7   1  11    5.10    2.00
  -6  -1  11   70.79    4.40
  -6  -1  11   57.09    5.60
  -6  -1  11   66.19    4.80
   6  -1 -11   67.39    4.00
  -6   1  11   64.69    4.40
  -6   1  11   67.59    5.10
   6   1 -11   65.79    4.00
  -5  -1  11  140.69    7.40
  -5  -1  11  146.29    7.60
  -5  -1  11  127.99    7.80
   5  -1 -11  138.99    7.10
  -5   1  11  138.19    7.30
   5   1 -11  139.29    7.10
  -5   1  11  143.39    7.40
  -4  -1  11  381.86   19.70
   4  -1 -11  410.86   19.20
  -4  -1  11  405.46   19.30
  -4  -1  11  409.96   19.30
  -4  -1  11  420.66   19.50
  -4   1  11  403.56   19.30
  -4   1  11  433.76   19.40
   4   1 -11  400.26   19.10
   3  -1 -11  188.08    9.70
  -3  -1  11  209.38   10.00
  -3  -1  11  194.18   10.40
  -3  -1  11  199.08    9.90
  -3  -1  11  200.38    9.80
  -3   1  11  201.78   10.00
  -3   1  11  190.48    9.80
   2  -1 -11  365.16   17.80
  -2  -1  11  373.26   17.90
  -2  -1  11  411.96   18.20
  -2  -1  11  384.96   17.90
  -2   1  11  381.26   17.90
  -2   1  11  361.56   17.80
  -2   1  11  370.26   18.10
  -1  -1  11  103.09    5.70
  -1  -1  11  112.69    6.00
  -1  -1  11  117.29    6.10
   1  -1 -11  107.99    6.10
  -1  -1  11  116.69    6.40
   1   1 -11  113.79    6.10
  -1   1  11  112.19    6.10
  -1   1  11  116.29    6.40
  -1   1  11  114.19    6.10
   0  -1  11   23.90    2.20
   0  -1  11   20.70    2.50
   0  -1  11   19.10    2.40
   0  -1  11   19.40    2.70
   0  -1  11   17.40    2.10
   0  -1 -11   21.60    2.70
   0   1  11   19.70    2.30
   0   1  11   20.80    2.80
   0   1  11   20.70    2.40
   0   1 -11   22.10    2.80
   1  -1  11  141.59    7.30
  -1  -1 -11  149.09    7.80
   1  -1  11  145.49    7.50
   1  -1  11  139.19    7.70
   1  -1  11  135.69    7.00
   1  -1  11  142.79    7.30
  -1   1 -11  144.39    7.70
   1   1  11  134.39    7.80
   1   1  11  131.29    7.60
   1   1  11  147.89    7.00
   1   1  11  148.69    7.40
   2  -1  11  418.16   20.50
   2  -1  11  446.66   20.40
   2  -1  11  439.76   20.20
   2  -1  11  440.06   20.90
  -2  -1 -11  431.56   20.90
   2  -1  11  439.76   20.50
  -2   1 -11  425.76   20.80
   2   1  11  433.46   20.90
   2   1  11  443.86   20.20
   2   1  11  432.76   20.50
   3  -1  11  330.97   15.80
   3  -1  11  287.07   15.60
   3  -1  11  345.67   15.50
   3  -1  11  330.67   15.20
  -3  -1 -11  309.17   17.50
   3   1  11  337.27   16.00
   3   1  11  333.97   15.30
   4  -1  11   40.60    3.30
   4  -1  11   42.40    2.90
  -4  -1 -11   43.50    4.30
   4  -1  11   41.80    3.80
   4   1  11   44.60    3.70
  -4   1 -11   45.20    4.30
   4   1  11   40.30    2.90
   4   1  11   45.20    3.20
   5  -1  11  116.49    5.70
   5  -1  11  120.69    5.90
   5   1  11  117.89    5.90
   5   1  11   96.19    6.30
   5   1  11  115.49    5.70
  -9  -2  11    9.70    1.80
  -9  -2  11    6.50    3.30
  -9  -2  11   10.60    2.30
  -9   2  11    8.90    1.80
   9   2 -11    6.90    1.50
   8  -2 -11   16.50    2.00
  -8  -2  11   19.90    2.70
  -8  -2  11   19.70    2.60
  -8  -2  11   18.40    2.40
  -8   2  11   16.20    2.20
  -7  -2  11   10.50    2.00
  -7  -2  11   12.30    2.00
   7  -2 -11    9.70    2.30
  -7  -2  11   17.20    2.30
  -7  -2  11   15.30    3.10
  -7   2  11   16.30    2.20
   7   2 -11   14.80    2.10
   6  -2 -11  167.08    8.40
  -6  -2  11  172.68    8.60
  -6  -2  11  165.28    9.00
  -6  -2  11  157.98    8.80
  -6   2  11  165.88    8.90
  -6   2  11  172.78    8.60
   6   2 -11  165.28    8.30
  -5  -2  11  107.69    6.80
   5  -2 -11  120.09    6.20
  -5  -2  11  115.99    6.40
  -5  -2  11  123.39    6.70
  -5   2  11  123.99    6.60
  -5   2  11  119.49    6.40
   5   2 -11  115.09    6.20
  -4  -2  11    6.60    1.60
  -4  -2  11    4.50    1.50
   4  -2 -11    7.40    1.40
  -4  -2  11    3.40    1.70
  -4  -2  11    5.60    1.60
   4  -2 -11    7.00    1.90
   4   2 -11    6.20    1.50
  -4   2  11    5.90    1.50
  -4   2  11    4.50    1.50
  -3  -2  11  104.19    5.80
  -3  -2  11   98.49    6.30
   3  -2 -11  101.09    5.80
  -3  -2  11  114.99    6.10
  -3  -2  11  104.69    5.80
  -3   2  11  110.09    5.80
  -3   2  11  108.19    6.00
  -2  -2  11   12.70    2.00
  -2  -2  11   14.90    1.90
  -2  -2  11   18.90    2.00
  -2  -2  11    7.50    2.10
   2  -2 -11   10.40    1.80
  -2   2  11   14.40    2.10
  -2   2  11   19.00    2.10
  -1  -2  11   51.69    3.80
  -1  -2  11   48.40    3.50
   1  -2 -11   49.20    3.60
  -1  -2  11   49.20    3.60
  -1  -2  11   50.29    3.50
  -1   2  11   51.89    3.60
   1   2 -11   52.29    4.00
  -1   2  11   48.10    3.80
   0  -2  11  169.68    8.70
   0  -2  11  180.18    9.00
   0  -2 -11  180.38    9.10
   0  -2  11  190.58    9.20
   0  -2  11  166.68    8.60
   0  -2  11  172.58    8.90
   0   2 -11  173.38    9.10
   0   2  11  180.28    8.90
   0   2  11  176.98    9.30
   1  -2  11   57.49    3.80
   1  -2  11   58.09    4.00
   1  -2  11   60.89    3.80
   1  -2  11   57.19    3.50
  -1  -2 -11   60.09    4.40
   1  -2  11   60.89    4.30
  -1   2 -11   60.39    4.50
   1   2  11   59.69    4.30
   1   2  11   61.39    3.90
   1   2  11   58.19    3.40
   2  -2  11   44.90    3.20
   2  -2  11   43.10    3.80
  -2  -2 -11   44.20    4.10
   2  -2  11   44.10    3.70
   2  -2  11   44.20    3.30
   2   2  11   46.40    3.00
  -2   2 -11   43.70    4.00
   2   2  11   45.80    3.40
   2   2  11   39.90    3.70
   3  -2  11    0.90    1.10
   3  -2  11    1.60    1.90
   3  -2  11    2.40    2.30
  -3  -2 -11    1.30    2.00
   3  -2  11    3.90    1.80
   3   2  11    0.30    1.60
   3   2  11    0.90    1.10
  -3   2 -11    3.20    2.10
   4  -2  11   38.80    4.10
   4  -2  11   37.60    2.60
   4  -2  11   32.00    3.10
  -4  -2 -11   34.80    4.10
  -4   2 -11   36.40    4.00
   4   2  11   32.90    3.40
   4   2  11   39.20    2.70
   5  -2  11   30.30    2.60
   5  -2  11   32.50    2.30
   5   2  11   30.70    2.30
   5   2  11   32.70    3.30
   5   2  11   32.90    2.50
  -9  -3  11    2.10    3.80
  -9  -3  11    4.00    2.20
  -9  -3  11   -3.70    1.40
  -9   3  11   -1.90    1.70
   9   3 -11    1.60    1.70
  -8  -3  11    5.80    1.80
  -8  -3  11    5.50    2.10
   8  -3 -11    8.50    1.90
  -8  -3  11    6.10    1.70
  -8  -3  11    8.60    3.20
  -8   3  11    7.00    1.80
   8   3 -11    5.00    1.40
   7  -3 -11   30.00    2.90
  -7  -3  11   30.40    3.80
  -7  -3  11   32.10    3.50
  -7  -3  11   37.30    3.40
  -7  -3  11   32.70    3.80
  -7   3  11   32.30    3.20
   6  -3 -11   43.20    3.10
  -6  -3  11   44.10    4.50
  -6  -3  11   39.90    3.70
  -6  -3  11   43.50    3.80
  -6   3  11   47.70    4.50
  -5  -3  11  167.78    9.00
  -5  -3  11  169.08    8.60
   5  -3 -11  169.78    8.40
   5   3 -11  161.58    8.40
  -5   3  11  170.68    8.60
   4  -3 -11  130.49    7.30
  -4  -3  11  150.38    7.70
  -4  -3  11  140.59    7.90
   4  -3 -11  147.29    7.30
  -4  -3  11  146.49    7.60
  -4  -3  11  141.79    7.40
   4   3 -11  138.19    7.30
  -4   3  11  142.59    7.40
  -4   3  11  144.09    7.60
  -3  -3  11    2.60    1.40
   3  -3 -11    1.60    1.50
  -3  -3  11    0.10    1.40
  -3  -3  11    0.60    1.40
  -3  -3  11    0.40    1.20
   3  -3 -11   -0.50    1.00
  -3   3  11    1.10    1.40
  -3   3  11   -0.40    1.30
  -2  -3  11   52.79    4.30
  -2  -3  11   56.79    3.90
  -2  -3  11   64.29    3.80
   2  -3 -11   56.19    3.90
  -2  -3  11   62.59    4.10
  -2   3  11   58.39    3.80
  -2   3  11   53.99    4.00
  -1  -3  11   10.60    2.00
  -1  -3  11    4.60    1.60
  -1  -3  11    9.30    1.80
  -1  -3  11    8.90    1.70
   1  -3 -11   11.80    2.00
  -1  -3  11    7.90    1.60
  -1   3  11    7.90    1.80
  -1   3  11    8.30    1.70
   0  -3  11    7.20    1.50
   0  -3  11    5.50    1.50
   0  -3  11    8.90    1.70
   0  -3  11    6.30    1.70
   0  -3 -11    8.50    2.00
   0   3  11    6.80    1.60
   0   3  11    2.70    1.70
   0   3 -11    9.50    2.20
   1  -3  11  101.99    5.50
   1  -3  11  108.19    5.70
   1  -3  11  115.49    6.30
  -1  -3 -11  115.79    6.40
   1  -3  11  107.59    6.00
   1  -3  11  103.69    5.90
  -1   3 -11  103.49    6.40
   1   3  11   97.19    6.20
   1   3  11  109.09    5.90
   2  -3  11   31.00    2.90
   2  -3  11   34.80    2.60
   2  -3  11   28.00    3.20
   2  -3  11   30.50    3.40
   2  -3  11   28.10    2.80
  -2  -3 -11   30.00    3.70
   2   3  11   33.20    3.20
  -2   3 -11   29.00    3.50
   2   3  11   31.40    2.40
   2   3  11   29.00    3.30
  -3  -3 -11  180.78    9.90
   3  -3  11  186.68    9.20
   3  -3  11  173.18    9.70
   3  -3  11  186.08    8.90
  -3   3 -11  190.88    9.80
   3   3  11  184.18    9.60
   3   3  11  178.38    8.90
   4  -3  11   12.10    2.10
  -4  -3 -11   10.10    2.80
   4  -3  11    9.30    1.30
   4  -3  11    8.60    1.60
  -4   3 -11   12.00    2.80
   4   3  11   11.10    1.40
   4   3  11    7.00    1.80
  -8  -4  11   95.59    5.20
  -8  -4  11   86.69    5.20
  -8  -4  11   82.59    6.90
  -8  -4  11   85.29    5.50
   8  -4 -11   96.09    5.40
   8   4 -11   87.59    5.10
  -8   4  11   87.59    5.60
  -7  -4  11   10.00    4.00
  -7  -4  11    6.40    1.90
   7  -4 -11    7.70    1.80
  -7  -4  11   10.50    2.20
  -7  -4  11   10.00    1.90
  -7   4  11    5.90    2.00
   7   4 -11    8.90    1.70
  -6  -4  11   35.30    3.30
  -6  -4  11   29.60    3.40
  -6  -4  11   33.10    3.60
   6  -4 -11   31.60    2.90
  -6   4  11   30.80    3.30
  -5  -4  11    3.40    1.70
   5  -4 -11    3.80    1.40
  -5  -4  11    4.30    1.80
   5  -4 -11    7.70    2.30
  -4  -4  11  414.26   19.30
  -4  -4  11  417.86   19.80
  -4  -4  11  408.76   19.50
   4  -4 -11  405.66   19.40
  -4  -4  11  452.35   19.80
   4  -4 -11  402.56   19.30
  -4   4  11  393.36   19.60
  -4   4  11  396.56   19.30
  -3  -4  11  192.68    9.30
   3  -4 -11  187.98    9.40
  -3  -4  11  166.88   10.60
  -3  -4  11  186.18    9.50
  -3  -4  11  200.68    9.90
   3  -4 -11  184.28    9.30
  -3   4  11  192.78   10.10
  -3   4  11  189.08    9.40
   2  -4 -11   42.30    3.30
  -2  -4  11   37.20    3.20
  -2  -4  11   38.90    3.20
  -2  -4  11   36.60    3.50
  -2  -4  11   42.80    3.50
   2  -4 -11   36.50    2.90
  -2   4  11   38.50    3.40
  -2   4  11   40.80    3.20
  -1  -4  11    5.50    1.60
  -1  -4  11    7.60    2.80
  -1  -4  11    5.70    1.50
  -1  -4  11    2.90    1.60
   1  -4 -11    5.50    1.70
  -1   4  11    4.10    1.50
   0  -4  11   -0.60    1.20
   0  -4 -11   -1.30    1.70
   0  -4  11    2.90    1.30
   0  -4  11    1.40    1.70
   0  -4  11    0.00    1.60
   0   4  11   -0.70    1.50
   0   4  11   -0.20    1.40
  -1  -4 -11   14.30    2.40
   1  -4  11   16.20    2.10
   1  -4  11   16.50    2.10
   1  -4  11   15.20    2.30
   1  -4  11    9.70    1.60
   1   4  11   11.90    2.10
   1   4  11   14.70    2.70
  -2  -4 -11    1.10    2.10
   2  -4  11   -0.40    1.50
   2  -4  11    1.00    1.40
   2   4  11   -0.10    1.50
   2   4  11    0.70    1.10
  -2   4 -11   -0.70    2.60
   3  -4  11   98.49    5.80
  -3  -4 -11  102.89    6.60
   3  -4  11   99.99    5.30
   3   4  11  100.09    6.00
  -3   4 -11   98.59    6.60
   3   4  11   97.69    5.20
   4  -4  11   29.00    3.60
   4  -4  11   29.50    2.50
   4   4  11   25.80    2.90
   4   4  11   25.10    2.20
  -8  -5  11    1.90    1.90
  -8  -5  11    3.40    1.70
  -8  -5  11    3.50    1.40
  -7  -5  11  185.08    9.10
  -7  -5  11  174.28    9.40
  -7  -5  11  194.68   12.20
   7  -5 -11  168.78    9.10
  -7  -5  11  181.38    9.20
  -6  -5  11   34.10    3.50
   6  -5 -11   37.00    3.30
  -6  -5  11   34.40    3.80
  -6  -5  11   42.20    3.80
   5  -5 -11   10.80    1.70
  -5  -5  11   10.00    2.00
  -5  -5  11    7.80    3.10
  -5  -5  11    9.10    2.10
  -4  -5  11   23.80    3.10
  -4  -5  11   23.80    3.20
   4  -5 -11   22.60    3.40
   4  -5 -11   22.20    3.00
  -4  -5  11   24.50    2.50
  -4  -5  11   22.40    2.50
  -4   5  11   23.00    2.80
  -3  -5  11  293.77   14.40
   3  -5 -11  297.67   14.20
  -3  -5  11  311.37   14.70
  -3  -5  11  311.67   14.70
   3  -5 -11  303.17   14.30
  -3  -5  11  273.47   14.30
  -3   5  11  292.57   14.60
  -3   5  11  297.07   14.40
   2  -5 -11  300.77   14.60
  -2  -5  11  289.77   14.70
  -2  -5  11  307.07   14.60
  -2  -5  11  327.17   14.80
   2  -5 -11  291.67   14.40
  -2   5  11  295.07   14.60
  -1  -5  11   23.60    3.20
  -1  -5  11   17.30    2.10
  -1  -5  11   15.90    2.30
  -1  -5  11   23.10    2.10
   1  -5 -11   25.60    3.00
  -1   5  11   21.80    2.90
  -1   5  11   15.50    2.40
   0  -5  11  126.49    6.80
   0  -5 -11  121.89    6.90
   0  -5  11  134.99    7.50
   0  -5  11  126.89    7.20
   0   5  11  123.79    7.00
   0   5  11  119.79    6.70
  -1  -5 -11  117.39    6.80
   1  -5  11  108.69    6.20
   1  -5  11  111.39    6.10
   1   5  11  115.59    6.60
   2  -5  11    2.30    1.70
   2  -5  11    7.70    1.60
  -2  -5 -11    3.90    2.70
   2   5  11    5.00    1.10
   2   5  11    5.30    1.90
   3  -5  11    8.90    1.50
   3  -5  11    3.20    1.80
  -3  -5 -11   13.00    3.60
   3   5  11    7.60    1.80
   3   5  11    6.20    1.20
  -7  -6  11  167.78    8.20
  -7  -6  11  150.38    8.40
  -6  -6  11  326.77   16.40
  -6  -6  11  347.67   16.30
   5  -6 -11  252.97   13.40
  -5  -6  11  284.77   13.80
  -5  -6  11  290.17   13.70
   4  -6 -11    0.30    1.90
  -4  -6  11    0.00    1.80
  -4  -6  11   -2.40    1.90
   4  -6 -11   -2.10    2.20
   4  -6 -11   -3.00    2.20
   3  -6 -11   12.20    3.50
  -3  -6  11    6.20    1.90
   3  -6 -11   12.40    2.10
  -3  -6  11   12.90    2.40
  -3  -6  11    4.40    2.50
  -2  -6  11    0.30    1.80
  -2  -6  11   -1.90    2.20
   2  -6 -11   -1.10    1.60
  -2  -6  11    1.30    2.20
  -2  -6  11    2.20    1.70
  -1  -6  11   18.90    2.50
  -1  -6  11   13.40    2.70
   1  -6 -11   24.80    2.70
  -1  -6  11   21.90    2.20
  -1   6  11   21.50    2.60
   0  -6 -11  268.67   12.90
   0  -6  11  251.27   12.60
   0  -6  11  257.27   12.40
   0   6  11  258.27   12.80
   1  -6  11  244.58   12.60
  -1  -6 -11  248.88   12.90
   1  -6  11  272.77   12.40
   1   6  11  266.07   12.80
   2  -6  11  315.77   15.20
   2  -6  11  304.17   15.40
  -2  -6 -11  356.16   17.60
   2   6  11  331.87   15.00
   2   6  11  310.97   15.60
  -5  -7  11  127.19    7.10
  -5  -7  11  136.09    8.60
  -4  -7  11    1.50    2.30
  -4  -7  11    0.90    1.70
  -3  -7  11    6.00    1.80
  -3  -7  11    8.70    2.50
   3  -7 -11    3.30    2.10
  -3  -7  11   10.80    2.90
   3  -7 -11    6.00    2.00
   2  -7 -11  241.78   11.90
  -2  -7  11  256.37   11.60
   2  -7 -11  235.88   11.90
  -2  -7  11  234.28   11.90
  -2  -7  11  233.88   11.90
   1  -7 -11   54.89    4.40
  -1  -7  11   54.79    3.70
  -1  -7  11   60.59    4.30
   0  -7  11  417.76   20.20
   0  -7 -11  422.56   20.40
   0  -7  11  445.46   19.90
   1  -7  11   36.90    4.00
   1  -7  11   28.30    2.60
   1   7  11   30.50    2.30
   1   7  11   27.60    3.80
  -9   0  12  256.87   12.40
  -8   0  12  109.69    6.60
   8   0 -12  106.69    6.30
  -8   0  12  123.19    6.50
   7   0 -12  533.95   24.60
  -7   0  12  536.25   24.80
  -7   0  12  516.05   24.90
  -6   0  12    3.20    1.60
  -6   0  12    2.50    2.40
   6   0 -12    0.00    1.30
  -5   0  12   34.80    3.40
  -5   0  12   33.50    3.00
   5   0 -12   30.60    2.80
  -4   0  12  391.96   18.10
  -4   0  12  359.16   17.90
   4   0 -12  381.56   17.90
  -3   0  12  955.30   42.50
  -3   0  12  904.31   42.30
  -3   0  12  897.51   42.20
   2   0 -12  942.51   46.60
  -2   0  12 1065.09   46.90
  -2   0  12 1011.60   46.70
  -2   0  12 1025.90   46.20
  -2   0  12 1038.70   46.70
  -1   0  12  270.47   12.90
  -1   0  12  264.67   12.50
  -1   0  12  260.17   12.90
   1   0 -12  253.37   12.90
  -1   0  12  275.57   13.20
   0   0  12  113.69    5.80
   0   0  12  114.29    6.20
   0   0 -12  120.59    6.60
   0   0  12  110.39    6.10
   0   0  12  112.09    6.40
   1   0  12  490.25   22.30
   1   0  12  495.75   22.70
   1   0  12  431.06   22.30
  -1   0 -12  485.35   22.60
   1   0  12  474.55   22.10
   2   0  12   40.20    4.50
   2   0  12   49.40    3.10
   2   0  12   49.99    3.80
   2   0  12   46.60    3.70
  -2   0 -12   44.00    4.40
   3   0  12  269.87   13.10
   3   0  12  265.07   12.50
   3   0  12  270.67   12.80
  -3   0 -12  258.87   13.40
   4   0  12  302.87   14.80
   4   0  12  311.77   14.40
   4   0  12  303.87   14.30
  -9  -1  12  128.79    6.20
  -9  -1  12   97.89    6.80
   9   1 -12  111.89    6.00
  -9   1  12  122.59    6.20
   8  -1 -12    2.80    1.70
  -8  -1  12    4.20    2.00
  -8  -1  12    2.60    1.70
  -8   1  12    3.40    1.80
  -7  -1  12  491.05   23.10
   7  -1 -12  503.75   22.80
  -7  -1  12  490.15   23.00
   7   1 -12  484.25   22.70
  -7   1  12  503.55   23.00
  -7   1  12  458.95   23.00
  -6  -1  12    1.10    1.50
   6  -1 -12    0.40    1.40
  -6   1  12    0.50    1.50
   6   1 -12    1.60    1.40
   5  -1 -12 1601.74   73.69
  -5  -1  12 1557.54   73.79
  -5  -1  12 1647.24   73.99
   5   1 -12 1643.34   73.59
  -5   1  12 1570.04   73.79
  -5   1  12 1690.93   73.89
  -4  -1  12   14.10    2.20
  -4  -1  12   12.00    1.90
   4  -1 -12    8.50    1.50
   4   1 -12   14.50    1.80
  -4   1  12    9.60    1.70
  -4   1  12   12.30    2.00
  -3  -1  12  331.97   16.00
  -3  -1  12  318.77   16.10
  -3  -1  12  350.36   16.30
  -3   1  12  347.87   16.30
  -3   1  12  332.47   16.10
  -2  -1  12  317.97   15.70
  -2  -1  12  326.17   15.70
   2  -1 -12  307.47   15.70
  -2  -1  12  358.26   16.00
  -2   1  12  327.27   15.70
  -2   1  12  330.47   15.90
  -1  -1  12   41.30    3.50
  -1  -1  12   38.90    3.00
  -1  -1  12   39.50    3.20
  -1  -1  12   38.60    3.40
   1  -1 -12   48.30    3.60
   1   1 -12   38.50    3.90
  -1   1  12   40.40    3.20
  -1   1  12   45.50    3.80
  -1   1  12   42.20    3.50
   0  -1  12  758.52   34.20
   0  -1 -12  748.83   34.30
   0  -1  12  734.83   33.80
   0  -1  12  718.73   33.90
   0  -1  12  722.63   34.10
   0   1 -12  733.03   34.30
   0   1  12  776.82   33.80
   0   1  12  702.03   34.10
   0   1  12  789.12   35.70
   0   1  12  734.33   34.10
   0   1  12  709.83   33.80
  -1  -1 -12   56.09    4.50
   1  -1  12   54.49    4.10
   1  -1  12   57.19    3.50
   1  -1  12   54.39    4.10
   1  -1  12   55.09    3.80
   1  -1  12   50.09    3.70
   1   1  12   51.99    4.10
   1   1  12   50.29    3.50
  -1   1 -12   58.29    4.60
   1   1  12   56.49    3.80
   2  -1  12 1041.80   45.20
   2  -1  12  892.91   46.00
   2  -1  12 1050.99   45.80
   2  -1  12 1021.10   45.50
  -2  -1 -12 1001.20   45.90
   2  -1  12  961.00   45.40
   2   1  12  949.11   45.30
   2   1  12 1031.50   45.50
  -2   1 -12  959.10   45.80
   2   1  12  986.70   45.80
   2   1  12 1002.30   45.20
  -3  -1 -12  250.37   13.10
   3  -1  12  258.87   12.30
   3  -1  12  257.37   12.10
   3  -1  12  256.97   12.60
   3   1  12  255.87   12.30
   3   1  12  251.37   12.70
  -3   1 -12  251.87   13.00
   3   1  12  261.87   12.10
   4  -1  12  106.29    5.50
   4  -1  12  114.69    5.80
   4  -1  12  107.49    6.20
   4   1  12  110.89    5.80
   4   1  12  109.19    6.10
   4   1  12  110.29    5.50
  -8  -2  12  213.18   11.60
  -8  -2  12  240.38   11.50
   8  -2 -12  229.78   11.40
  -8   2  12  247.88   11.50
  -7  -2  12  238.68   11.90
   7  -2 -12  246.08   11.50
  -7  -2  12  234.48   11.70
  -7  -2  12  214.48   11.80
  -7   2  12  248.68   11.70
  -6  -2  12   17.20    2.60
  -6  -2  12   18.10    2.70
  -6  -2  12   16.30    2.20
   6  -2 -12   27.00    2.70
   6   2 -12   16.10    2.10
  -6   2  12   18.00    2.50
  -6   2  12   24.30    2.80
  -5  -2  12  246.48   12.10
  -5  -2  12  207.48   12.30
   5  -2 -12  249.18   11.80
  -5  -2  12  241.98   11.90
   5   2 -12  237.88   11.70
  -5   2  12  251.37   11.90
  -5   2  12  258.97   12.00
  -4  -2  12   49.99    3.70
   4  -2 -12   53.79    3.40
  -4  -2  12   38.20    4.20
  -4  -2  12   46.90    3.50
  -4   2  12   52.79    3.60
   4   2 -12   49.30    3.50
   3  -2 -12  182.98    9.20
  -3  -2  12  181.98    9.40
  -3  -2  12  205.98   10.00
  -3  -2  12  183.08    9.30
   3  -2 -12  166.18    9.40
  -3  -2  12  196.68    9.70
  -3   2  12  177.08    9.30
  -3   2  12  194.38    9.80
  -2  -2  12  364.26   16.50
  -2  -2  12  333.77   16.20
   2  -2 -12  324.17   16.20
  -2  -2  12  335.37   16.30
  -2   2  12  340.67   16.50
  -2   2  12  341.87   16.20
   1  -2 -12  239.98   11.80
  -1  -2  12  234.78   11.60
  -1  -2  12  239.88   11.70
  -1   2  12  236.88   11.60
   0  -2 -12  600.54   27.50
   0  -2  12  583.84   27.30
   0  -2  12  635.14   27.60
   0  -2  12  579.34   27.20
   0  -2  12  566.64   27.00
   0   2  12  593.94   26.90
   0   2  12  590.24   27.30
   0   2  12  575.94   27.60
   0   2 -12  547.65   27.40
   1  -2  12   31.40    3.20
   1  -2  12   30.70    3.20
   1  -2  12   30.20    3.00
   1  -2  12   30.70    2.90
  -1  -2 -12   31.60    3.80
   1  -2  12   32.20    2.50
   1   2  12   33.70    4.00
   1   2  12   29.90    3.30
   1   2  12   31.00    2.40
  -2  -2 -12   83.89    5.90
   2  -2  12   84.49    4.60
   2  -2  12   90.29    5.40
   2  -2  12   93.39    5.10
   2  -2  12   83.69    5.10
   2   2  12   86.89    5.30
  -2   2 -12   85.19    5.90
   2   2  12   81.19    5.30
   2   2  12   85.29    4.70
   3  -2  12   66.09    5.20
   3  -2  12   76.59    4.80
   3  -2  12   77.69    4.40
   3  -2  12   76.99    4.00
  -3  -2 -12   61.89    5.50
   3   2  12   74.19    4.10
   3   2  12   68.59    4.70
  -3   2 -12   63.69    5.70
   4  -2  12   90.79    4.70
   4  -2  12   94.49    4.90
   4   2  12   89.49    4.90
   4   2  12   92.69    5.30
   4   2  12   89.69    4.70
  -8  -3  12   59.89    4.30
  -8  -3  12   64.89    4.00
  -8  -3  12   44.80    4.00
   8   3 -12   56.19    3.80
  -8   3  12   63.79    4.10
  -7  -3  12    0.60    1.70
  -7  -3  12    0.90    1.70
  -7  -3  12    0.00    1.60
   7  -3 -12    0.60    1.50
  -7   3  12   -0.10    1.70
  -6  -3  12  424.16   19.30
  -6  -3  12  407.36   19.60
   6  -3 -12  419.06   19.20
  -6  -3  12  363.46   20.00
  -6   3  12  425.06   19.30
  -5  -3  12   32.40    3.20
  -5  -3  12   25.90    3.60
  -5  -3  12   31.90    3.10
   5  -3 -12   36.40    3.50
  -5   3  12   35.60    3.40
  -5   3  12   36.20    3.10
  -4  -3  12  917.01   40.40
  -4  -3  12  890.01   40.00
   4  -3 -12  874.81   40.00
  -4  -3  12  833.92   40.10
   4  -3 -12  861.61   40.30
  -4  -3  12  854.31   40.50
  -4   3  12  885.71   40.10
  -4   3  12  868.01   40.00
   4   3 -12  845.02   39.90
  -3  -3  12   -0.10    1.60
   3  -3 -12    4.50    1.80
  -3  -3  12    1.30    1.40
  -3  -3  12    5.00    1.50
  -3  -3  12    4.40    1.80
   3  -3 -12    1.70    1.20
  -3   3  12    6.40    1.60
  -3   3  12    6.40    1.70
  -2  -3  12    3.40    1.50
   2  -3 -12    4.20    1.70
  -2  -3  12    2.30    1.30
  -2  -3  12    6.20    1.60
  -2   3  12    4.40    1.40
  -2   3  12    3.80    1.60
  -1  -3  12   74.49    4.70
   1  -3 -12   66.69    4.60
  -1  -3  12   73.19    4.40
  -1  -3  12   69.59    4.50
  -1   3  12   66.89    4.30
  -1   3  12   74.59    4.80
   0  -3  12   49.40    3.90
   0  -3  12   58.39    4.10
   0  -3 -12   57.99    4.30
   0  -3  12   49.60    3.60
   0  -3  12   51.59    4.10
   0   3  12   54.69    4.00
   1  -3  12  586.14   28.10
   1  -3  12  600.94   27.90
   1  -3  12  592.94   28.10
  -1  -3 -12  635.64   28.40
   1  -3  12  611.34   27.90
   1   3  12  614.94   27.70
   1   3  12  608.04   28.00
   1   3  12  566.84   28.30
  -1   3 -12  607.64   28.40
   2  -3  12   95.99    5.40
  -2  -3 -12   91.99    6.30
   2  -3  12   94.99    5.70
   2  -3  12  102.19    5.80
   2  -3  12   93.19    5.10
   2   3  12   93.69    5.10
   2   3  12   95.19    5.80
  -2   3 -12   94.49    6.60
  -3  -3 -12  196.78   10.30
   3  -3  12  184.58    9.00
   3  -3  12  178.68    9.60
   3  -3  12  197.28    9.30
   3   3  12  188.18    9.10
   3   3  12  187.78    9.70
  -8  -4  12  103.49    5.80
  -8  -4  12  106.69    6.20
  -8  -4  12  112.39    5.90
  -7  -4  12    1.20    1.50
  -7  -4  12   -0.20    1.60
   7  -4 -12   -2.40    1.80
  -7  -4  12    0.90    3.00
  -7   4  12    0.40    2.10
   7   4 -12    1.60    1.90
   6  -4 -12  208.08   10.30
  -6  -4  12  206.18   10.80
  -6  -4  12  217.08   10.40
  -6  -4  12  202.48   10.70
  -6   4  12  215.88   10.50
  -5  -4  12   50.19    4.00
  -5  -4  12   46.40    3.70
  -5  -4  12   48.90    4.80
   5  -4 -12   45.00    3.50
  -5   4  12   49.10    3.70
  -4  -4  12  294.67   13.70
   4  -4 -12  268.47   13.80
   4  -4 -12  280.07   13.60
  -4  -4  12  283.47   13.80
  -4  -4  12  279.87   14.20
  -4  -4  12  307.37   14.10
  -4   4  12  277.07   13.70
  -4   4  12  282.07   13.70
   3  -4 -12  211.78   11.60
  -3  -4  12  193.98   11.00
  -3  -4  12  221.08   10.80
  -3  -4  12  235.48   11.00
  -3  -4  12  211.58   10.60
  -3   4  12  215.68   10.70
  -3   4  12  220.28   10.60
  -2  -4  12   34.80    3.70
  -2  -4  12   37.90    3.40
  -2  -4  12   37.00    3.20
   2  -4 -12   35.10    4.00
  -2  -4  12   37.60    3.20
   2  -4 -12   36.70    3.60
  -2   4  12   38.30    3.10
  -2   4  12   33.30    3.30
   1  -4 -12  433.66   20.60
  -1  -4  12  478.25   20.80
  -1  -4  12  426.06   20.80
  -1  -4  12  417.06   20.60
  -1  -4  12  430.86   20.40
  -1   4  12  436.76   20.50
  -1   4  12  437.16   20.80
   0  -4  12  119.69    6.50
   0  -4  12  118.19    6.60
   0  -4 -12  129.09    7.10
   0  -4  12  126.69    6.90
   0  -4  12  127.19    6.80
   0   4  12  127.39    7.00
   0   4  12  119.79    6.50
   1  -4  12   67.49    4.60
   1  -4  12   68.69    4.90
   1  -4  12   68.39    4.30
  -1  -4 -12   76.99    5.30
   1   4  12   67.79    4.70
   1   4  12   70.29    4.00
   2  -4  12  134.39    7.70
   2  -4  12  152.78    7.40
  -2  -4 -12  143.59    8.30
   2   4  12  144.59    7.80
   2   4  12  145.69    7.10
   3  -4  12  126.39    7.40
   3  -4  12  134.69    6.90
   3   4  12  142.29    7.30
   3   4  12  140.89    6.70
  -7  -5  12  119.29    6.30
  -7  -5  12  109.09    6.50
  -7  -5  12  114.99    6.30
  -6  -5  12   16.60    2.40
   6  -5 -12   18.80    3.00
  -6  -5  12   17.00    2.30
  -6  -5  12   23.00    2.40
  -5  -5  12  532.75   24.90
   5  -5 -12  497.25   24.30
  -5  -5  12  549.35   24.90
  -5  -5  12  522.85   24.40
   4  -5 -12   56.59    4.40
   4  -5 -12   51.59    3.90
  -4  -5  12   59.39    4.10
  -4  -5  12   53.69    4.30
  -4  -5  12   55.79    4.60
  -4   5  12   58.39    5.60
   3  -5 -12  372.96   17.80
  -3  -5  12  431.46   18.60
  -3  -5  12  368.36   18.20
   3  -5 -12  354.46   17.90
  -3  -5  12  384.46   18.20
  -3   5  12  369.16   17.80
  -3   5  12  368.56   17.90
  -2  -5  12  145.09    7.50
  -2  -5  12  142.59    7.50
  -2  -5  12  115.89    7.50
   2  -5 -12  131.29    7.30
   2  -5 -12  137.39    7.20
  -2   5  12  130.89    7.10
  -2   5  12  135.69    7.20
   1  -5 -12   13.30    2.50
  -1  -5  12   12.90    2.30
  -1  -5  12   11.10    1.90
   1  -5 -12   11.90    2.20
  -1  -5  12    9.80    3.30
  -1   5  12   10.50    1.90
  -1   5  12   11.20    2.00
   0  -5  12  238.38   12.00
   0  -5  12  204.58   10.50
   0  -5  12  202.78   10.20
   0  -5 -12  203.08   10.80
   0   5  12  207.18   10.70
   1  -5  12   30.50    2.70
  -1  -5 -12   33.60    4.20
   1  -5  12   37.00    3.40
   1   5  12   29.10    3.10
   1   5  12   33.00    2.40
   2  -5  12  351.46   17.70
   2  -5  12  378.46   17.40
   2   5  12  377.66   17.90
   2   5  12  384.06   17.30
  -6  -6  12  191.88   10.00
  -6  -6  12  210.58   10.80
  -5  -6  12    1.50    2.00
  -5  -6  12    0.30    1.50
  -4  -6  12   38.90    3.90
  -4  -6  12   39.10    3.60
   3  -6 -12  175.38    9.00
  -3  -6  12  172.28    9.00
   3  -6 -12  162.08    9.20
  -3  -6  12  174.38    9.20
  -3  -6  12  180.48    9.00
  -2  -6  12   50.59    4.70
  -2  -6  12   59.39    4.20
   2  -6 -12   54.49    4.30
  -2  -6  12   61.59    4.40
  -1  -6  12   22.40    2.80
   1  -6 -12   21.50    2.70
  -1  -6  12   23.60    3.00
  -1   6  12   22.60    3.30
   0  -6  12  855.01   37.70
   0  -6 -12  831.92   38.10
   0  -6  12  776.42   37.90
   0   6  12  833.12   38.00
   1  -6  12  532.35   23.20
   1  -6  12  471.55   23.50
   1   6  12  523.05   23.10
   1   6  12  482.85   24.10
  -3  -7  12  147.89    7.70
  -8   0  13    2.30    1.60
  -8   0  13   -3.50    2.30
  -7   0  13   -1.20    1.60
  -7   0  13    0.40    1.70
   7   0 -13   -2.70    1.90
  -6   0  13   -1.50    1.50
   6   0 -13    1.30    1.50
  -6   0  13   -2.60    1.80
  -5   0  13   -2.20    1.60
   5   0 -13    1.00    1.40
  -5   0  13   -1.00    1.40
   4   0 -13    1.60    1.30
  -4   0  13    1.20    1.40
  -3   0  13    1.20    1.50
  -3   0  13    2.30    1.50
  -2   0  13    2.10    1.40
  -2   0  13    1.10    1.60
  -2   0  13    0.10    1.50
  -2   0  13    0.00    1.70
  -1   0  13   -1.40    1.40
   1   0 -13   -3.90    2.80
  -1   0  13    2.00    1.90
  -1   0  13    0.10    1.20
   0   0  13   -1.30    1.50
   0   0  13    1.10    2.30
   0   0  13    0.20    1.10
   0   0 -13   -2.30    2.40
   0   0  13   -0.10    1.60
   1   0  13    0.40    1.60
  -1   0 -13    3.50    2.70
   1   0  13    2.10    1.80
   1   0  13   -1.00    1.50
   1   0  13    0.80    1.10
   2   0  13   -0.20    1.10
   2   0  13    1.00    1.60
   2   0  13    0.20    1.40
  -2   0 -13    3.40    2.80
   3   0  13   -0.20    1.30
   3   0  13    0.40    1.00
   3   0  13   -1.60    1.60
  -8  -1  13  209.58   10.20
  -8  -1  13  186.98   10.70
  -8   1  13  224.58   10.30
  -7  -1  13  137.19    6.90
  -7  -1  13  125.09    6.90
   7  -1 -13  122.59    6.70
  -7   1  13  123.89    7.00
   7   1 -13  116.89    7.00
  -7   1  13  126.69    6.90
   6  -1 -13   45.00    3.40
  -6  -1  13   41.60    3.70
  -6  -1  13   42.80    3.50
  -6   1  13   41.00    3.70
   6   1 -13   41.00    3.60
  -6   1  13   38.60    3.50
  -5  -1  13    3.60    1.90
   5  -1 -13    9.00    1.60
  -5  -1  13    6.50    1.70
  -5   1  13    5.30    1.90
   5   1 -13    3.30    1.60
  -5   1  13    4.30    1.60
  -4  -1  13  835.02   37.60
   4  -1 -13  732.83   37.30
  -4  -1  13  829.62   38.50
   4   1 -13  870.61   37.50
  -4   1  13  785.82   37.50
  -3  -1  13    1.30    1.50
  -3  -1  13    3.80    1.70
  -3  -1  13    5.70    1.70
   3  -1 -13    2.00    1.20
  -3   1  13    3.20    1.50
  -3   1  13    4.90    2.00
  -2  -1  13    3.30    1.80
  -2  -1  13    5.90    1.60
  -2  -1  13    4.60    1.70
  -2   1  13    3.30    1.50
  -2   1  13    2.20    1.60
  -2   1  13    5.30    1.20
  -1  -1  13   79.49    5.00
   1  -1 -13   89.79    7.00
  -1  -1  13   75.89    5.00
  -1  -1  13   81.89    5.30
  -1   1  13   73.69    4.20
  -1   1  13   78.89    4.90
  -1   1  13   76.49    5.70
   0  -1  13   55.59    3.90
   0  -1 -13   59.69    4.60
   0  -1  13   47.30    3.30
   0  -1  13   49.20    4.20
   0  -1  13   49.00    3.70
   0   1  13   48.40    3.80
   0   1  13   47.60    3.20
   0   1 -13   52.69    5.20
   0   1  13   52.89    3.80
   1  -1  13   58.69    3.40
   1  -1  13   55.29    3.70
  -1  -1 -13   51.79    4.70
   1  -1  13   57.49    4.00
   1  -1  13   55.39    3.90
   1  -1  13   42.40    4.50
   1   1  13   48.40    3.90
   1   1  13   50.39    3.70
   1   1  13   50.39    3.90
   1   1  13   54.89    3.40
  -1   1 -13   54.09    5.30
   2  -1  13    7.30    1.80
   2  -1  13    5.40    1.50
  -2  -1 -13    0.40    2.80
   2  -1  13    6.50    1.20
   2   1  13    3.80    1.20
   2   1  13    6.00    1.60
  -2   1 -13    6.10    3.10
   2   1  13    6.30    1.80
   3  -1  13  252.97   11.90
   3  -1  13  242.88   11.80
   3  -1  13  248.28   12.20
   3   1  13  255.97   11.80
   3   1  13  256.57   12.30
   3   1  13  254.97   11.90
  -8  -2  13   58.49    4.00
  -8  -2  13   64.89    4.90
  -8   2  13   63.89    4.00
   7  -2 -13  151.88    7.90
  -7  -2  13  151.88    7.90
  -7  -2  13  147.89    8.10
  -7   2  13  159.28    8.00
   6  -2 -13   22.80    2.30
  -6  -2  13   14.10    2.20
  -6  -2  13   17.00    2.30
  -6   2  13   21.90    2.50
   6   2 -13   26.50    3.10
  -6   2  13   22.40    2.60
  -5  -2  13    6.90    2.10
  -5  -2  13    9.30    1.90
   5  -2 -13    8.60    1.60
   5   2 -13    9.70    1.90
  -5   2  13    7.40    1.90
  -5   2  13    8.90    1.80
  -4  -2  13    1.90    1.70
   4  -2 -13    1.30    1.50
  -4  -2  13    2.20    1.50
   4   2 -13    1.00    1.60
  -4   2  13    1.30    1.40
  -4   2  13   -1.30    1.50
  -3  -2  13   47.20    3.70
  -3  -2  13   50.09    3.70
   3  -2 -13   43.70    4.00
  -3  -2  13   42.40    3.60
  -3   2  13   44.60    3.50
  -3   2  13   48.90    3.60
  -2  -2  13   51.49    3.90
  -2  -2  13   53.89    4.00
  -2  -2  13   64.39    4.10
  -2   2  13   54.49    3.90
  -2   2  13   54.79    3.90
   1  -2 -13    2.90    2.10
  -1  -2  13    2.60    1.60
  -1  -2  13    4.00    1.70
  -1  -2  13    0.70    1.50
  -1   2  13    1.70    1.50
  -1   2  13    3.50    1.60
  -1   2  13    1.00    1.00
   0  -2  13  471.55   20.70
   0  -2  13  436.46   20.40
   0  -2 -13  441.26   20.80
   0  -2  13  417.66   20.60
   0  -2  13  406.66   20.10
   0   2  13  433.76   20.10
   0   2  13  423.76   20.40
   0   2  13  445.46   20.70
   1  -2  13    7.90    2.20
   1  -2  13    8.60    1.50
   1  -2  13    9.50    2.00
   1  -2  13    9.30    1.80
   1  -2  13   11.30    1.90
  -1  -2 -13   12.70    2.90
   1   2  13    9.80    1.80
   1   2  13   12.40    2.00
   1   2  13    9.70    1.30
   1   2  13    7.70    1.70
   2  -2  13   77.09    5.80
   2  -2  13   88.09    4.90
  -2  -2 -13   88.49    6.40
   2  -2  13   94.19    5.20
   2  -2  13   83.09    4.60
   2   2  13   83.39    5.20
   2   2  13   83.49    4.80
   2   2  13   87.29    4.60
   3  -2  13   -1.20    1.20
   3  -2  13   -1.80    1.10
   3   2  13    0.20    0.90
   3   2  13   -1.80    1.20
   3   2  13    1.00    1.50
  -7  -3  13  102.69    5.50
  -7  -3  13   95.69    5.80
  -7   3  13   91.49    5.30
  -6  -3  13    1.30    1.60
  -6  -3  13   -0.60    1.80
   6  -3 -13    0.20    1.50
  -6  -3  13   -1.10    1.50
  -6   3  13   -1.40    1.60
  -5  -3  13   40.20    3.40
  -5  -3  13   27.60    4.10
   5  -3 -13   42.00    3.20
  -5  -3  13   39.40    3.40
  -5   3  13   41.80    3.30
  -5   3  13   39.80    3.70
  -4  -3  13    8.40    1.80
   4  -3 -13    4.40    1.50
  -4  -3  13    7.70    1.90
  -4   3  13    8.80    1.90
  -4   3  13    5.10    1.50
   3  -3 -13   16.30    1.90
  -3  -3  13   16.40    2.20
  -3  -3  13   12.10    1.90
   3  -3 -13   10.80    2.40
  -3  -3  13   21.60    2.80
  -3   3  13   13.70    1.90
  -3   3  13   13.50    2.00
   3   3 -13   15.60    2.30
   2  -3 -13    9.20    2.40
   2  -3 -13    8.10    1.60
  -2  -3  13   10.70    1.90
  -2  -3  13   12.60    2.00
  -2  -3  13    9.00    1.80
  -2   3  13   11.90    2.00
  -2   3  13   12.90    1.80
   1  -3 -13  103.59    6.30
  -1  -3  13   99.69    5.90
  -1  -3  13   99.19    5.80
  -1  -3  13  116.59    6.10
  -1   3  13   98.99    5.70
  -1   3  13  105.09    6.00
   0  -3  13   37.90    3.50
   0  -3  13   37.50    3.30
   0  -3 -13   41.00    4.00
   0  -3  13   38.80    3.40
   0  -3  13   41.90    3.50
   0   3  13   37.90    2.80
   0   3  13   40.00    3.50
   0   3  13   38.30    3.20
   1  -3  13   28.50    3.20
  -1  -3 -13   22.90    3.20
   1  -3  13   22.10    2.80
   1  -3  13   23.40    2.70
   1  -3  13   26.30    2.70
   1   3  13   26.20    2.20
   1   3  13   24.00    2.80
   1   3  13   22.90    2.90
   1   3  13   27.70    3.10
   2  -3  13   11.90    1.60
   2  -3  13   14.20    2.50
   2   3  13   13.90    2.00
   2   3  13   15.00    1.80
   2   3  13   11.70    1.70
  -7  -4  13  243.48   12.20
  -7  -4  13  251.37   11.90
  -7  -4  13  242.58   12.10
  -7   4  13  251.97   12.10
   6  -4 -13   16.50    3.10
  -6  -4  13   13.80    2.20
  -6  -4  13   11.00    1.90
  -6   4  13   14.70    2.20
   5  -4 -13    3.70    1.70
  -5  -4  13   -1.40    1.80
  -5  -4  13    2.50    1.70
  -5  -4  13    5.40    1.80
  -5   4  13    3.10    1.80
   4  -4 -13   61.69    4.00
  -4  -4  13   45.40    4.60
  -4  -4  13   66.19    4.30
  -4  -4  13   62.79    4.00
  -4   4  13   59.89    4.00
  -4   4  13   53.99    4.30
  -3  -4  13   11.40    1.90
  -3  -4  13    6.10    1.70
   3  -4 -13    3.20    2.30
   3  -4 -13   10.50    1.90
  -3  -4  13    7.60    1.80
  -3   4  13    9.80    1.80
  -3   4  13    9.40    1.90
  -2  -4  13   -0.10    1.50
   2  -4 -13    3.20    2.10
   2  -4 -13    0.20    1.70
  -2  -4  13    0.20    1.60
  -2  -4  13    2.00    1.70
  -2   4  13    0.40    1.50
  -2   4  13   -1.50    1.40
  -1  -4  13    5.50    1.90
   1  -4 -13    1.00    2.10
   1  -4 -13   -0.50    2.20
  -1  -4  13    1.70    1.70
  -1  -4  13   -0.90    1.40
  -1   4  13    1.40    1.60
  -1   4  13    0.20    1.40
   0  -4 -13  139.69    8.50
   0  -4  13  153.18    8.00
   0  -4 -13  161.28    8.70
   0  -4  13  155.08    7.90
   0  -4  13  152.38    8.20
   0  -4  13  165.78    8.40
   0   4  13  168.08    8.40
   0   4  13  155.78    8.00
   0   4  13  173.28    7.80
   1  -4  13    0.70    1.80
   1  -4  13    3.40    1.40
  -1  -4 -13    5.00    3.30
   1   4  13    3.80    1.00
   1   4  13    4.70    1.60
  -6  -5  13   -1.60    1.50
  -6  -5  13    2.00    1.60
  -5  -5  13   82.69    5.40
  -5  -5  13   93.89    5.50
  -4  -5  13   21.60    2.70
  -4  -5  13   27.60    3.10
  -3  -5  13   27.20    3.30
   3  -5 -13   31.80    4.60
  -3  -5  13   27.90    2.80
  -3   5  13   27.70    3.10
  -2  -5  13  107.49    6.30
   2  -5 -13   98.99    6.30
  -2  -5  13  111.69    6.20
  -2   5  13  106.69    6.10
  -2   5  13  113.19    6.10
  -1  -5  13    3.50    1.70
   1  -5 -13    0.30    2.50
  -1  -5  13   -4.00    2.40
  -1   5  13    1.90    1.70
   0  -5  13   16.00    2.00
   0  -5  13   14.80    2.10
   0   5  13   16.70    2.20
   0   5  13   15.50    1.90
  -3  -6  13   -1.60    2.30
  -2  -6  13    6.10    2.50
  -7   0  14   98.39    5.30
  -7   0  14   83.29    5.80
  -6   0  14  126.39    6.90
  -6   0  14  132.19    7.00
   6   0 -14  126.39    7.00
  -5   0  14   19.80    2.50
   5   0 -14   24.20    3.00
  -5   0  14   22.00    2.70
  -4   0  14 1150.98   53.19
  -4   0  14 1207.38   53.29
   4   0 -14 1126.49   53.09
  -3   0  14   11.60    2.10
  -3   0  14   15.20    2.10
   3   0 -14   14.80    2.00
  -2   0  14   74.19    4.70
  -2   0  14   74.39    4.70
  -1   0  14   91.49    5.30
  -1   0  14   81.89    4.90
  -1   0  14   95.09    5.50
   0   0  14  138.19    7.10
   0   0  14  142.79    7.50
   0   0  14  147.39    7.60
   1   0  14  209.68   10.50
   1   0  14  215.28   10.70
   1   0  14  214.18   10.10
   2   0  14  117.69    8.30
   2   0  14  153.28    7.10
  -7  -1  14   97.29    5.50
  -7  -1  14   98.89    5.70
  -7   1  14   91.99    5.90
  -7   1  14  100.09    5.50
  -6  -1  14  278.77   13.90
   6  -1 -14  279.97   13.70
  -6  -1  14  289.17   13.80
  -6   1  14  276.27   13.80
  -6   1  14  302.57   13.80
   5  -1 -14    8.60    1.80
  -5  -1  14    6.10    1.80
  -5  -1  14    8.20    1.70
  -5   1  14    5.50    1.90
   5   1 -14    7.10    2.00
  -5   1  14    8.30    1.80
  -4  -1  14   96.29    5.70
   4  -1 -14   94.69    5.40
  -4  -1  14   98.79    5.70
  -4   1  14   97.19    5.60
   4   1 -14   91.19    5.50
  -4   1  14   97.39    5.70
  -3  -1  14   76.49    5.00
  -3  -1  14   87.19    5.00
   3  -1 -14   77.49    4.80
   3   1 -14   75.09    4.90
  -3   1  14   82.39    5.00
  -3   1  14   81.89    5.10
  -2  -1  14   70.79    4.90
  -2  -1  14   75.99    4.70
  -2  -1  14   74.49    4.60
  -2   1  14   72.79    4.60
  -2   1  14   73.69    4.60
  -2   1  14   61.99    4.10
  -1  -1  14  222.88   10.50
  -1  -1  14  206.48   10.50
  -1  -1  14  198.08   10.20
  -1   1  14  204.38   10.30
  -1   1  14  201.88   10.20
  -1   1  14  193.48    9.80
   0  -1  14  209.98    9.90
   0  -1 -14  184.78   10.60
   0  -1  14  173.98   10.20
   0  -1  14  197.18    9.70
   0   1  14  188.78    9.30
   0   1  14  192.38    9.70
   0   1  14  209.88   10.00
   1  -1  14  372.16   16.80
   1  -1  14  351.16   17.00
   1  -1  14  372.86   17.20
   1  -1  14  352.46   17.30
   1   1  14  354.16   17.00
   1   1  14  364.76   17.30
   1   1  14  359.96   16.70
  -7  -2  14   10.60    1.90
  -7  -2  14    7.80    1.60
  -7   2  14   11.10    1.80
   6  -2 -14  238.18   11.80
  -6  -2  14  245.08   11.80
  -6  -2  14  241.18   12.00
  -6   2  14  256.87   11.80
  -6   2  14  223.68   13.30
  -5  -2  14  315.17   14.90
   5  -2 -14  296.47   14.80
  -5  -2  14  325.77   15.10
  -5   2  14  298.47   14.90
  -5   2  14  319.87   14.90
  -4  -2  14  266.57   12.80
  -4  -2  14  285.27   13.00
   4  -2 -14  253.47   12.70
   4   2 -14  230.18   12.70
  -4   2  14  271.47   12.80
  -4   2  14  269.77   12.80
  -3  -2  14   23.70    2.90
  -3  -2  14   25.10    3.00
   3  -2 -14   24.40    2.90
  -3   2  14   26.60    2.40
   3   2 -14   16.60    2.40
  -3   2  14   28.30    2.90
  -3   2  14   23.60    2.80
  -2  -2  14   30.10    3.00
  -2  -2  14   25.60    2.60
  -2  -2  14   26.90    3.00
   2  -2 -14   24.00    2.90
  -2   2  14   28.40    2.90
  -2   2  14   28.20    2.90
  -2   2  14   21.00    2.30
  -1  -2  14   39.40    3.20
  -1  -2  14   45.70    3.50
   1  -2 -14   38.00    5.00
  -1  -2  14   37.90    3.90
  -1   2  14   42.60    2.80
  -1   2  14   38.60    3.40
  -1   2  14   40.70    3.30
   0  -2 -14    8.30    3.50
   0  -2  14    9.90    1.80
   0  -2  14    5.40    1.70
   0  -2  14    8.70    2.30
   0   2  14    6.60    1.20
   0   2  14    4.40    1.60
   0   2  14    8.00    1.70
   1  -2  14  271.77   13.40
   1  -2  14  292.97   13.60
   1   2  14  267.97   13.00
   1   2  14  285.07   13.60
  -6  -3  14   68.19    4.10
  -6  -3  14   63.29    4.30
  -6   3  14   62.59    4.10
   5  -3 -14   58.49    4.30
  -5  -3  14   63.89    4.30
  -5  -3  14   66.49    4.20
  -5   3  14   69.39    4.10
  -4  -3  14  156.78    7.90
  -4  -3  14  167.88    8.20
   4  -3 -14  140.49    8.00
  -4   3  14  161.28    7.90
  -4   3  14  151.48    8.00
   3  -3 -14    0.00    1.50
  -3  -3  14    2.00    1.60
  -3  -3  14    0.40    1.60
  -3  -3  14    2.70    1.50
  -3   3  14    1.20    1.40
  -3   3  14   -2.90    1.40
  -2  -3  14  946.11   40.60
  -2  -3  14  837.82   40.40
  -2  -3  14  873.51   40.30
   2  -3 -14  863.21   40.40
  -2   3  14  818.12   40.30
  -2   3  14  912.31   40.00
  -2   3  14  898.71   40.50
  -1  -3  14  333.47   15.20
  -1  -3  14  318.97   14.90
   1  -3 -14  295.07   15.10
  -1  -3  14  302.97   15.10
  -1   3  14  308.87   14.60
  -1   3  14  319.07   15.10
  -1   3  14  317.87   14.90
   0  -3  14   28.70    2.90
   0  -3  14   31.60    3.20
   0  -3  14   25.40    2.80
   0   3  14   28.90    2.70
   0   3  14   29.80    2.30
   0   3  14   30.20    2.90
   1  -3  14   45.20    3.60
   1  -3  14   51.49    3.90
   1   3  14   46.70    3.50
   1   3  14   47.50    2.90
  -5  -4  14    6.40    1.80
  -5  -4  14    6.90    1.80
  -5   4  14    7.60    2.60
  -4  -4  14  622.34   28.90
  -4  -4  14  617.04   28.50
  -4   4  14  618.14   28.50
  -3  -4  14  108.29    5.80
  -3  -4  14  111.29    6.00
  -3  -4  14   94.29    6.00
  -3   4  14  111.29    6.00
  -3   4  14  101.29    5.70
  -2  -4  14    2.00    1.60
  -2  -4  14    2.90    1.80
  -2  -4  14    3.80    1.80
  -2   4  14    4.00    1.60
  -2   4  14    2.60    1.50
  -1  -4  14    3.30    1.90
  -1   4  14    2.00    1.50
  -1   4  14    0.60    1.50
  -1   4  14   -0.50    0.80
   0  -4  14   71.39    5.20
   0   4  14   79.39    5.40
   0   4  14   76.49    4.00
  -6   0  15   -1.70    1.40
  -6   0  15   -1.50    2.10
  -5   0  15    0.40    1.40
  -5   0  15   -0.40    1.50
  -4   0  15   -1.00    1.40
  -4   0  15    2.90    1.70
   4   0 -15   -3.40    3.50
   3   0 -15   -1.60    1.60
  -3   0  15    0.70    1.40
  -3   0  15    0.80    1.40
  -2   0  15    0.30    1.40
  -2   0  15   -0.20    1.30
   2   0 -15   -1.00    2.10
  -1   0  15   -1.20    1.30
  -1   0  15   -0.60    1.30
   0   0  15   -2.50    1.20
   0   0  15    0.90    1.50
  -5  -1  15  292.87   14.10
  -5  -1  15  301.77   14.00
  -5   1  15  281.37   14.00
  -5   1  15  295.37   14.00
   4  -1 -15    2.30    2.90
  -4  -1  15    3.90    1.50
  -4  -1  15    4.70    1.70
  -4   1  15    1.90    1.60
  -4   1  15    4.60    1.50
  -3  -1  15    1.10    1.30
   3  -1 -15   -1.30    1.80
  -3  -1  15   -0.30    1.30
  -3   1  15   -1.10    1.40
  -3   1  15    0.30    1.40
   2  -1 -15   41.80    3.80
  -2  -1  15   46.80    3.30
  -2  -1  15   43.90    3.40
  -2   1  15   47.30    3.40
  -2   1  15   41.10    3.30
  -1  -1  15  158.98    7.90
  -1  -1  15  167.18    8.10
  -1   1  15  154.68    7.90
  -1   1  15  168.28    8.10
  -1   1  15  128.79    8.20
   0  -1  15   29.10    2.60
   0  -1  15   28.90    3.70
   0   1  15   27.10    2.60
   0   1  15   26.90    2.40
   0   1  15   28.10    2.80
  -5  -2  15   12.10    1.90
  -5  -2  15   12.20    1.80
  -5   2  15   14.70    1.90
  -5   2  15   13.60    2.00
  -4  -2  15  263.67   12.40
  -4  -2  15  251.77   12.20
  -4   2  15  247.58   12.20
  -4   2  15  250.37   12.30
  -3  -2  15   31.20    2.90
  -3  -2  15   31.00    2.90
  -3   2  15   28.30    2.70
  -3   2  15   30.80    2.80
  -2  -2  15  200.08   10.30
  -2  -2  15  233.78   10.60
  -2   2  15  198.58   10.30
  -2   2  15  212.68   10.40
  -1  -2  15    3.00    1.50
  -1  -2  15    3.70    1.60
  -1   2  15    4.70    1.40
  -1   2  15    2.10    1.40
  -1   2  15    2.10    1.90
  -4  -3  15    0.80    1.50
  -4  -3  15   -0.50    1.50
  -4   3  15    0.30    1.40
  -4   3  15   -1.20    1.70
  -3  -3  15    2.20    1.50
  -3  -3  15    2.80    1.60
  -3   3  15    0.10    1.20
  -3   3  15    0.00    1.60
  -3   3  15    2.40    1.40
  -2  -3  15   42.80    3.20
  -2  -3  15   31.30    4.40
  -2   3  15   35.40    2.90

_computing_structure_solution     'SHELXT 2014/4 (Sheldrick, 2014)'
;
_shelx_hkl_checksum              74822
_shelx_shelxl_version_number     2014/7
_olex2_submission_original_sample_id DNITCL
_olex2_submission_special_instructions 'No special instructions were received'
loop_
_space_group_symop_operation_xyz
'x, y, z'
'-x, y+1/2, -z+1/2'
'-x, -y, -z'
'x, -y-1/2, z-1/2'
loop_
_atom_site_label
_atom_site_type_symbol
_atom_site_fract_x
_atom_site_fract_y
_atom_site_fract_z
_atom_site_U_iso_or_equiv
_atom_site_adp_type
_atom_site_occupancy
_atom_site_site_symmetry_order
_atom_site_calc_flag
_atom_site_refinement_flags_posn
_atom_site_refinement_flags_adp
_atom_site_refinement_flags_occupancy
_atom_site_disorder_assembly
_atom_site_disorder_group
Cl1 Cl 0.06693(3) 0.25685(3) 0.38088(2) 0.02099(11) Uani 1 1 d . . . . .
O4 O 0.67131(10) 0.40121(9) 0.30144(7) 0.01854(18) Uani 1 1 d . . . . .
O2 O 0.47744(11) 0.90997(10) 0.59603(7) 0.02149(19) Uani 1 1 d . . . . .
O3 O 0.75548(10) 0.64169(10) 0.34135(7) 0.02020(19) Uani 1 1 d . . . . .
O1 O 0.21440(11) 0.92872(10) 0.52277(8) 0.0241(2) Uani 1 1 d . . . . .
N2 N 0.65333(11) 0.53665(11) 0.33116(8) 0.01416(19) Uani 1 1 d . . . . .
N1 N 0.34689(12) 0.86769(11) 0.52919(8) 0.0166(2) Uani 1 1 d . . . . .
C4 C 0.49943(13) 0.70348(13) 0.42918(9) 0.0136(2) Uani 1 1 d . . . . .
C3 C 0.35201(14) 0.73513(12) 0.45207(9) 0.0135(2) Uani 1 1 d . . . . .
C5 C 0.49963(12) 0.57584(12) 0.35792(9) 0.0126(2) Uani 1 1 d . . . . .
C2 C 0.21113(13) 0.64776(13) 0.40690(9) 0.0140(2) Uani 1 1 d . . . . .
C1 C 0.21728(12) 0.51999(12) 0.33568(9) 0.0135(2) Uani 1 1 d . . . . .
C6 C 0.36369(13) 0.48303(13) 0.31136(9) 0.0135(2) Uani 1 1 d . . . . .
C7 C 0.06875(13) 0.42062(13) 0.28614(10) 0.0162(2) Uani 1 1 d . . . . .
H6 H 0.3711(18) 0.3979(18) 0.2645(13) 0.020(4) Uiso 1 1 d . . . . .
H7A H -0.0295(19) 0.4757(18) 0.2790(13) 0.020(4) Uiso 1 1 d . . . . .
H2 H 0.1162(18) 0.6734(17) 0.4266(12) 0.016(3) Uiso 1 1 d . . . . .
H7B H 0.0709(18) 0.3790(17) 0.2128(13) 0.018(3) Uiso 1 1 d . . . . .
H4 H 0.5908(19) 0.7657(17) 0.4590(14) 0.019(4) Uiso 1 1 d . . . . .
loop_
_atom_site_aniso_label
_atom_site_aniso_U_11
_atom_site_aniso_U_22
_atom_site_aniso_U_33
_atom_site_aniso_U_23
_atom_site_aniso_U_13
_atom_site_aniso_U_12
Cl1 0.02072(16) 0.01904(17) 0.02194(17) 0.00179(10) 0.00379(11) -0.00545(9)
O4 0.0187(4) 0.0161(4) 0.0220(4) -0.0009(3) 0.0075(3) 0.0033(3)
O2 0.0279(4) 0.0214(4) 0.0159(4) -0.0049(3) 0.0073(3) -0.0068(3)
O3 0.0166(4) 0.0211(4) 0.0247(4) -0.0006(3) 0.0089(3) -0.0043(3)
O1 0.0278(5) 0.0180(4) 0.0301(5) -0.0024(3) 0.0141(4) 0.0055(3)
N2 0.0139(4) 0.0165(5) 0.0123(4) 0.0017(3) 0.0041(3) 0.0010(3)
N1 0.0244(5) 0.0130(4) 0.0150(4) 0.0006(3) 0.0096(4) -0.0012(4)
C4 0.0156(5) 0.0134(5) 0.0117(5) 0.0017(4) 0.0032(4) -0.0009(4)
C3 0.0189(5) 0.0111(5) 0.0110(5) 0.0007(4) 0.0051(4) 0.0019(4)
C5 0.0132(5) 0.0134(5) 0.0118(4) 0.0026(4) 0.0046(4) 0.0022(4)
C2 0.0145(5) 0.0147(5) 0.0135(5) 0.0028(4) 0.0050(4) 0.0032(4)
C1 0.0140(5) 0.0135(5) 0.0124(4) 0.0021(4) 0.0027(4) 0.0004(4)
C6 0.0160(5) 0.0127(5) 0.0118(4) 0.0008(4) 0.0039(4) 0.0010(4)
C7 0.0138(5) 0.0172(5) 0.0170(5) 0.0007(4) 0.0033(4) -0.0010(4)
loop_
_atom_type_symbol
_atom_type_description
_atom_type_scat_dispersion_real
_atom_type_scat_dispersion_imag
_atom_type_scat_source
C C 0.0140 0.0070 'International Tables Vol C Tables 4.2.6.8 and 6.1.1.4'
H H 0.0000 0.0000 'International Tables Vol C Tables 4.2.6.8 and 6.1.1.4'
N N 0.0250 0.0140 'International Tables Vol C Tables 4.2.6.8 and 6.1.1.4'
O O 0.0390 0.0250 'International Tables Vol C Tables 4.2.6.8 and 6.1.1.4'
Cl Cl 0.3290 0.5400 'International Tables Vol C Tables 4.2.6.8 and 6.1.1.4'
loop_
_geom_angle_atom_site_label_1
_geom_angle_atom_site_label_2
_geom_angle_atom_site_label_3
_geom_angle
_geom_angle_site_symmetry_1
_geom_angle_site_symmetry_3
O4 N2 O3 124.60(9) . .
O4 N2 C5 117.86(9) . .
O3 N2 C5 117.54(9) . .
O2 N1 C3 117.28(9) . .
O1 N1 O2 124.47(10) . .
O1 N1 C3 118.25(9) . .
C3 C4 H4 121.4(10) . .
C5 C4 C3 115.72(10) . .
C5 C4 H4 122.9(10) . .
C4 C3 N1 117.61(10) . .
C4 C3 C2 123.41(10) . .
C2 C3 N1 118.98(10) . .
C4 C5 N2 117.94(9) . .
C6 C5 N2 118.48(9) . .
C6 C5 C4 123.58(10) . .
C3 C2 C1 118.83(10) . .
C3 C2 H2 119.5(9) . .
C1 C2 H2 121.6(9) . .
C2 C1 C7 120.79(10) . .
C6 C1 C2 119.62(10) . .
C6 C1 C7 119.59(10) . .
C5 C6 C1 118.84(10) . .
C5 C6 H6 119.9(9) . .
C1 C6 H6 121.2(9) . .
Cl1 C7 H7A 106.1(10) . .
Cl1 C7 H7B 107.9(9) . .
C1 C7 Cl1 109.62(7) . .
C1 C7 H7A 112.7(9) . .
C1 C7 H7B 110.2(9) . .
H7A C7 H7B 110.1(13) . .
loop_
_geom_bond_atom_site_label_1
_geom_bond_atom_site_label_2
_geom_bond_distance
_geom_bond_site_symmetry_2
Cl1 C7 1.8043(12) .
O4 N2 1.2275(12) .
O2 N1 1.2322(13) .
O3 N2 1.2283(12) .
O1 N1 1.2246(13) .
N2 C5 1.4710(13) .
N1 C3 1.4698(14) .
C4 C3 1.3850(15) .
C4 C5 1.3848(15) .
C4 H4 0.927(16) .
C3 C2 1.3873(15) .
C5 C6 1.3844(15) .
C2 C1 1.3951(15) .
C2 H2 0.930(15) .
C1 C6 1.3940(15) .
C1 C7 1.5001(14) .
C6 H6 0.931(16) .
C7 H7A 0.941(16) .
C7 H7B 0.959(15) .
loop_
_geom_torsion_atom_site_label_1
_geom_torsion_atom_site_label_2
_geom_torsion_atom_site_label_3
_geom_torsion_atom_site_label_4
_geom_torsion
_geom_torsion_site_symmetry_1
_geom_torsion_site_symmetry_2
_geom_torsion_site_symmetry_3
_geom_torsion_site_symmetry_4
O4 N2 C5 C4 156.94(10) . . . .
O4 N2 C5 C6 -22.65(14) . . . .
O2 N1 C3 C4 -22.42(14) . . . .
O2 N1 C3 C2 157.06(10) . . . .
O3 N2 C5 C4 -22.31(14) . . . .
O3 N2 C5 C6 158.09(9) . . . .
O1 N1 C3 C4 157.42(10) . . . .
O1 N1 C3 C2 -23.10(14) . . . .
N2 C5 C6 C1 -179.58(9) . . . .
N1 C3 C2 C1 -178.67(9) . . . .
C4 C3 C2 C1 0.78(16) . . . .
C4 C5 C6 C1 0.85(16) . . . .
C3 C4 C5 N2 -179.77(9) . . . .
C3 C4 C5 C6 -0.20(15) . . . .
C3 C2 C1 C6 -0.09(15) . . . .
C3 C2 C1 C7 179.13(9) . . . .
C5 C4 C3 N1 178.82(9) . . . .
C5 C4 C3 C2 -0.63(15) . . . .
C2 C1 C6 C5 -0.68(15) . . . .
C2 C1 C7 Cl1 -92.02(11) . . . .
C6 C1 C7 Cl1 87.20(11) . . . .
C7 C1 C6 C5 -179.91(9) . . . .
