#------------------------------------------------------------------------------
#$Date: 2016-02-14 06:40:26 +0200 (Sun, 14 Feb 2016) $
#$Revision: 176432 $
#$URL: svn://www.crystallography.net/cod/cif/4/00/07/4000741.cif $
#------------------------------------------------------------------------------
#
# This file is available in the Crystallography Open Database (COD),
# http://www.crystallography.net/
#
# All data on this site have been placed in the public domain by the
# contributors.
#
data_4000741
loop_
_publ_author_name
'Laumann, Andreas'
'Boysen, Hans'
'Bremholm, Martin'
'Fehr, K. Thomas'
'Hoelzel, Markus'
'Holzapfel, Michael'
_publ_section_title
;
 Lithium Migration at High Temperatures in Li4Ti5O12Studied by Neutron
 Diffraction
;
_journal_issue                   11
_journal_name_full               'Chemistry of Materials'
_journal_page_first              2753
_journal_paper_doi               10.1021/cm103332y
_journal_volume                  23
_journal_year                    2011
_chemical_formula_sum            'Li0.056 O0.165 Ti0.069'
_chemical_formula_weight         6.3
_chemical_name_systematic        ' ?'
_space_group_IT_number           227
_symmetry_cell_setting           cubic
_symmetry_space_group_name_Hall  '-F 4vw 2vw 3'
_symmetry_space_group_name_H-M   'F d -3 m :2'
_cell_angle_alpha                90
_cell_angle_beta                 90
_cell_angle_gamma                90
_cell_formula_units_Z            192
_cell_length_a                   8.48212(10)
_cell_length_b                   8.48212(10)
_cell_length_c                   8.48212(10)
_cell_volume                     610.258(12)
_computing_publication_material
'Jana2006 (Petricek, Dusek & Palatinus, 2006)'
_computing_structure_refinement
'Jana2006 (Petricek, Dusek & Palatinus, 2006)'
_diffrn_ambient_temperature      1173
_diffrn_radiation_probe          neutron
_diffrn_radiation_type           neutron
_diffrn_radiation_wavelength     1.5483
_exptl_absorpt_coefficient_mu    0.118
_exptl_crystal_density_diffrn    3.3071
_exptl_crystal_F_000             0
_pd_instr_location               ' ?'
_pd_meas_2theta_range_inc        0.05
_pd_meas_2theta_range_max        157.900
_pd_meas_2theta_range_min        0.950
_pd_meas_number_of_points        3140
_pd_proc_2theta_range_inc        0.05
_pd_proc_2theta_range_max        157.9
_pd_proc_2theta_range_min        11.95
_pd_proc_ls_background_function  '9 Legendre polynoms'
_pd_proc_ls_pref_orient_corr     none
_pd_proc_ls_profile_function     Pseudo-Voigt
_pd_proc_ls_prof_R_factor        0.0438
_pd_proc_ls_prof_wR_expected     0.0358
_pd_proc_ls_prof_wR_factor       0.0558
_refine_ls_number_constraints    2
_refine_ls_number_parameters     33
_refine_ls_number_restraints     0
_refine_ls_shift/su_max          0.0408
_refine_ls_shift/su_mean         0.0042
_refine_ls_weighting_scheme      sigma
_cod_data_source_file            cm103332y_si_006.cif
_cod_data_source_block           Li4Ti5O12
_cod_original_cell_volume        610.258(13)
_cod_original_sg_symbol_Hall     '-F 4abvw;2abvw;3'
_cod_original_sg_symbol_H-M      'F d -3 m'
_cod_database_code               4000741
loop_
_symmetry_equiv_pos_site_id
_symmetry_equiv_pos_as_xyz
1 x,y,z
2 -x+1/4,-y+1/4,z
3 -x+1/4,y,-z+1/4
4 x,-y+1/4,-z+1/4
5 z,x,y
6 z,-x+1/4,-y+1/4
7 -z+1/4,-x+1/4,y
8 -z+1/4,x,-y+1/4
9 y,z,x
10 -y+1/4,z,-x+1/4
11 y,-z+1/4,-x+1/4
12 -y+1/4,-z+1/4,x
13 y+3/4,x+3/4,-z
14 -y,-x,-z
15 y+3/4,-x,z+3/4
16 -y,x+3/4,z+3/4
17 x+3/4,z+3/4,-y
18 -x,z+3/4,y+3/4
19 -x,-z,-y
20 x+3/4,-z,y+3/4
21 z+3/4,y+3/4,-x
22 z+3/4,-y,x+3/4
23 -z,y+3/4,x+3/4
24 -z,-y,-x
25 -x,-y,-z
26 x+3/4,y+3/4,-z
27 x+3/4,-y,z+3/4
28 -x,y+3/4,z+3/4
29 -z,-x,-y
30 -z,x+3/4,y+3/4
31 z+3/4,x+3/4,-y
32 z+3/4,-x,y+3/4
33 -y,-z,-x
34 y+3/4,-z,x+3/4
35 -y,z+3/4,x+3/4
36 y+3/4,z+3/4,-x
37 -y+1/4,-x+1/4,z
38 y,x,z
39 -y+1/4,x,-z+1/4
40 y,-x+1/4,-z+1/4
41 -x+1/4,-z+1/4,y
42 x,-z+1/4,-y+1/4
43 x,z,y
44 -x+1/4,z,-y+1/4
45 -z+1/4,-y+1/4,x
46 -z+1/4,y,-x+1/4
47 z,-y+1/4,-x+1/4
48 z,y,x
49 x,y+1/2,z+1/2
50 -x+1/4,-y+3/4,z+1/2
51 -x+1/4,y+1/2,-z+3/4
52 x,-y+3/4,-z+3/4
53 z,x+1/2,y+1/2
54 z,-x+3/4,-y+3/4
55 -z+1/4,-x+3/4,y+1/2
56 -z+1/4,x+1/2,-y+3/4
57 y,z+1/2,x+1/2
58 -y+1/4,z+1/2,-x+3/4
59 y,-z+3/4,-x+3/4
60 -y+1/4,-z+3/4,x+1/2
61 y+3/4,x+1/4,-z+1/2
62 -y,-x+1/2,-z+1/2
63 y+3/4,-x+1/2,z+1/4
64 -y,x+1/4,z+1/4
65 x+3/4,z+1/4,-y+1/2
66 -x,z+1/4,y+1/4
67 -x,-z+1/2,-y+1/2
68 x+3/4,-z+1/2,y+1/4
69 z+3/4,y+1/4,-x+1/2
70 z+3/4,-y+1/2,x+1/4
71 -z,y+1/4,x+1/4
72 -z,-y+1/2,-x+1/2
73 -x,-y+1/2,-z+1/2
74 x+3/4,y+1/4,-z+1/2
75 x+3/4,-y+1/2,z+1/4
76 -x,y+1/4,z+1/4
77 -z,-x+1/2,-y+1/2
78 -z,x+1/4,y+1/4
79 z+3/4,x+1/4,-y+1/2
80 z+3/4,-x+1/2,y+1/4
81 -y,-z+1/2,-x+1/2
82 y+3/4,-z+1/2,x+1/4
83 -y,z+1/4,x+1/4
84 y+3/4,z+1/4,-x+1/2
85 -y+1/4,-x+3/4,z+1/2
86 y,x+1/2,z+1/2
87 -y+1/4,x+1/2,-z+3/4
88 y,-x+3/4,-z+3/4
89 -x+1/4,-z+3/4,y+1/2
90 x,-z+3/4,-y+3/4
91 x,z+1/2,y+1/2
92 -x+1/4,z+1/2,-y+3/4
93 -z+1/4,-y+3/4,x+1/2
94 -z+1/4,y+1/2,-x+3/4
95 z,-y+3/4,-x+3/4
96 z,y+1/2,x+1/2
97 x+1/2,y,z+1/2
98 -x+3/4,-y+1/4,z+1/2
99 -x+3/4,y,-z+3/4
100 x+1/2,-y+1/4,-z+3/4
101 z+1/2,x,y+1/2
102 z+1/2,-x+1/4,-y+3/4
103 -z+3/4,-x+1/4,y+1/2
104 -z+3/4,x,-y+3/4
105 y+1/2,z,x+1/2
106 -y+3/4,z,-x+3/4
107 y+1/2,-z+1/4,-x+3/4
108 -y+3/4,-z+1/4,x+1/2
109 y+1/4,x+3/4,-z+1/2
110 -y+1/2,-x,-z+1/2
111 y+1/4,-x,z+1/4
112 -y+1/2,x+3/4,z+1/4
113 x+1/4,z+3/4,-y+1/2
114 -x+1/2,z+3/4,y+1/4
115 -x+1/2,-z,-y+1/2
116 x+1/4,-z,y+1/4
117 z+1/4,y+3/4,-x+1/2
118 z+1/4,-y,x+1/4
119 -z+1/2,y+3/4,x+1/4
120 -z+1/2,-y,-x+1/2
121 -x+1/2,-y,-z+1/2
122 x+1/4,y+3/4,-z+1/2
123 x+1/4,-y,z+1/4
124 -x+1/2,y+3/4,z+1/4
125 -z+1/2,-x,-y+1/2
126 -z+1/2,x+3/4,y+1/4
127 z+1/4,x+3/4,-y+1/2
128 z+1/4,-x,y+1/4
129 -y+1/2,-z,-x+1/2
130 y+1/4,-z,x+1/4
131 -y+1/2,z+3/4,x+1/4
132 y+1/4,z+3/4,-x+1/2
133 -y+3/4,-x+1/4,z+1/2
134 y+1/2,x,z+1/2
135 -y+3/4,x,-z+3/4
136 y+1/2,-x+1/4,-z+3/4
137 -x+3/4,-z+1/4,y+1/2
138 x+1/2,-z+1/4,-y+3/4
139 x+1/2,z,y+1/2
140 -x+3/4,z,-y+3/4
141 -z+3/4,-y+1/4,x+1/2
142 -z+3/4,y,-x+3/4
143 z+1/2,-y+1/4,-x+3/4
144 z+1/2,y,x+1/2
145 x+1/2,y+1/2,z
146 -x+3/4,-y+3/4,z
147 -x+3/4,y+1/2,-z+1/4
148 x+1/2,-y+3/4,-z+1/4
149 z+1/2,x+1/2,y
150 z+1/2,-x+3/4,-y+1/4
151 -z+3/4,-x+3/4,y
152 -z+3/4,x+1/2,-y+1/4
153 y+1/2,z+1/2,x
154 -y+3/4,z+1/2,-x+1/4
155 y+1/2,-z+3/4,-x+1/4
156 -y+3/4,-z+3/4,x
157 y+1/4,x+1/4,-z
158 -y+1/2,-x+1/2,-z
159 y+1/4,-x+1/2,z+3/4
160 -y+1/2,x+1/4,z+3/4
161 x+1/4,z+1/4,-y
162 -x+1/2,z+1/4,y+3/4
163 -x+1/2,-z+1/2,-y
164 x+1/4,-z+1/2,y+3/4
165 z+1/4,y+1/4,-x
166 z+1/4,-y+1/2,x+3/4
167 -z+1/2,y+1/4,x+3/4
168 -z+1/2,-y+1/2,-x
169 -x+1/2,-y+1/2,-z
170 x+1/4,y+1/4,-z
171 x+1/4,-y+1/2,z+3/4
172 -x+1/2,y+1/4,z+3/4
173 -z+1/2,-x+1/2,-y
174 -z+1/2,x+1/4,y+3/4
175 z+1/4,x+1/4,-y
176 z+1/4,-x+1/2,y+3/4
177 -y+1/2,-z+1/2,-x
178 y+1/4,-z+1/2,x+3/4
179 -y+1/2,z+1/4,x+3/4
180 y+1/4,z+1/4,-x
181 -y+3/4,-x+3/4,z
182 y+1/2,x+1/2,z
183 -y+3/4,x+1/2,-z+1/4
184 y+1/2,-x+3/4,-z+1/4
185 -x+3/4,-z+3/4,y
186 x+1/2,-z+3/4,-y+1/4
187 x+1/2,z+1/2,y
188 -x+3/4,z+1/2,-y+1/4
189 -z+3/4,-y+3/4,x
190 -z+3/4,y+1/2,-x+1/4
191 z+1/2,-y+3/4,-x+1/4
192 z+1/2,y+1/2,x
loop_
_atom_site_label
_atom_site_type_symbol
_atom_site_fract_x
_atom_site_fract_y
_atom_site_fract_z
_atom_site_adp_type
_atom_site_U_iso_or_equiv
_atom_site_symmetry_multiplicity
_atom_site_occupancy
_atom_site_calc_flag
Li1 Li 0.125 0.125 0.125 Uani 0.0368(15) 8 0.86(2) d
Li2 Li 0.5 0.5 0.5 Uiso 0.0271(5) 16 0.1667 d
Ti1 Ti 0.5 0.5 0.5 Uiso 0.0271(5) 16 0.8333 d
O1 O 0.26299(5) 0.26299(5) 0.26299(5) Uani 0.02787(13) 32 1 d
Li Li 0.043(8) 0.043(8) 0.043(8) Uiso 0.036756(9) 32 0.034(6) d
loop_
_atom_site_aniso_label
_atom_site_aniso_type_symbol
_atom_site_aniso_U_11
_atom_site_aniso_U_22
_atom_site_aniso_U_33
_atom_site_aniso_U_12
_atom_site_aniso_U_13
_atom_site_aniso_U_23
Li1 Li 0.037(3) 0.037(3) 0.037(3) 0 0 0
O1 O 0.0279(2) 0.0279(2) 0.0279(2) -0.0044(2) -0.0044(2) -0.0044(2)
loop_
_atom_type_symbol
_atom_type_scat_length_neutron
_atom_type_scat_source
Li -1.900 International_Tables_Vol_C
Ti -3.438 International_Tables_Vol_C
O 5.803 International_Tables_Vol_C
loop_
_geom_bond_atom_site_label_1
_geom_bond_atom_site_label_2
_geom_bond_site_symmetry_2
_geom_bond_distance
_geom_bond_publ_flag
Li1 O1 . 2.0272(5) yes
Li1 O1 2_555 2.0272(5) yes
Li1 O1 3_555 2.0272(5) yes
Li1 O1 4_555 2.0272(5) yes
Li1 Li . 1.20(7) yes
Li1 Li 2_555 1.20(7) yes
Li1 Li 3_555 1.20(7) yes
Li1 Li 4_555 1.20(7) yes
Li1 Li 157_555 2.47(7) yes
Li1 Li 14_555 2.47(7) yes
Li1 Li 111_555 2.47(7) yes
Li1 Li 64_555 2.47(7) yes
Li2 Ti1 . 0 yes
Li2 O1 146_555 2.0164(5) yes
Li2 O1 99_555 2.0164(5) yes
Li2 O1 52_555 2.0164(5) yes
Li2 O1 157_556 2.0164(5) yes
Li2 O1 111_565 2.0164(5) yes
Li2 O1 64_655 2.0164(5) yes
Ti1 O1 146_555 2.0164(5) yes
Ti1 O1 99_555 2.0164(5) yes
Ti1 O1 52_555 2.0164(5) yes
Ti1 O1 157_556 2.0164(5) yes
Ti1 O1 111_565 2.0164(5) yes
Ti1 O1 64_655 2.0164(5) yes
O1 O1 146_555 2.6873(6) yes
O1 O1 99_555 2.6873(6) yes
O1 O1 52_555 2.6873(6) yes
O1 Li 2_555 1.98(7) yes
O1 Li 3_555 1.98(7) yes
O1 Li 4_555 1.98(7) yes
O1 Li 157_555 2.62(7) yes
O1 Li 111_555 2.62(7) yes
O1 Li 64_555 2.62(7) yes
Li Li 2_555 1.96(10) yes
Li Li 3_555 1.96(10) yes
Li Li 4_555 1.96(10) yes
Li Li 14_555 1.28(10) yes
loop_
_pd_proc_point_id
_pd_proc_2theta_corrected
_pd_proc_intensity_net
_pd_calc_intensity_net
_pd_proc_ls_weight
1 0.9600 3110.00 3110.00 480.00
2 1.0100 3240.00 3240.00 486.00
3 1.0600 2966.00 2966.00 462.00
4 1.1100 3075.00 3075.00 467.00
5 1.1600 2877.00 2877.00 449.00
6 1.2100 2671.00 2671.00 429.00
7 1.2600 2686.00 2686.00 427.00
8 1.3100 2325.00 2325.00 395.00
9 1.3600 2260.00 2260.00 387.00
10 1.4100 2464.00 2464.00 401.00
11 1.4600 2254.00 2254.00 381.00
12 1.5100 2107.00 2107.00 366.00
13 1.5600 2267.00 2267.00 377.00
14 1.6100 2059.00 2059.00 357.00
15 1.6600 2201.00 2201.00 366.00
16 1.7100 1907.00 1907.00 339.00
17 1.7600 1908.00 1908.00 337.00
18 1.8100 2064.00 2064.00 348.00
19 1.8600 1806.00 1806.00 323.00
20 1.9100 1778.00 1778.00 319.00
21 1.9600 1896.00 1896.00 327.00
22 2.0100 1940.00 1940.00 329.00
23 2.0600 2130.00 2130.00 342.00
24 2.1100 2053.00 2053.00 334.00
25 2.1600 1942.00 1942.00 323.00
26 2.2100 1858.00 1858.00 314.00
27 2.2600 1946.00 1946.00 319.00
28 2.3100 1790.00 1790.00 304.00
29 2.3600 1396.00 1396.00 267.00
30 2.4100 1355.00 1355.00 261.00
31 2.4600 1207.00 1207.00 245.00
32 2.5100 1306.00 1306.00 254.00
33 2.5600 1173.00 1173.00 239.00
34 2.6100 1178.00 1178.00 238.00
35 2.6600 1219.00 1219.00 241.00
36 2.7100 1255.00 1255.00 243.00
37 2.7600 982.00 982.00 213.00
38 2.8100 1002.00 1002.00 214.00
39 2.8600 895.00 895.00 201.00
40 2.9100 996.00 996.00 211.00
41 2.9600 1057.00 1057.00 217.00
42 3.0100 1062.00 1062.00 216.00
43 3.0600 946.00 946.00 202.00
44 3.1100 814.00 814.00 187.00
45 3.1600 928.00 928.00 198.00
46 3.2100 928.00 928.00 197.00
47 3.2600 1210.00 1210.00 224.00
48 3.3100 994.00 994.00 202.00
49 3.3600 1019.00 1019.00 203.00
50 3.4100 1039.00 1039.00 204.00
51 3.4600 1045.00 1045.00 204.00
52 3.5100 1078.00 1078.00 206.00
53 3.5600 1139.00 1139.00 210.00
54 3.6100 1033.00 1033.00 199.00
55 3.6600 1082.00 1082.00 203.00
56 3.7100 1119.00 1119.00 205.00
57 3.7600 1077.00 1077.00 200.00
58 3.8100 1001.00 1001.00 192.00
59 3.8600 1050.00 1050.00 196.00
60 3.9100 1176.00 1176.00 206.00
61 3.9600 1094.00 1094.00 198.00
62 4.0100 1047.00 1047.00 193.00
63 4.0600 1118.00 1118.00 198.00
64 4.1100 1029.00 1029.00 189.00
65 4.1600 1154.00 1154.00 199.00
66 4.2100 1186.00 1186.00 201.00
67 4.2600 1291.00 1291.00 209.00
68 4.3100 1140.00 1140.00 195.00
69 4.3600 1142.00 1142.00 194.00
70 4.4100 1155.00 1155.00 194.00
71 4.4600 1177.00 1177.00 195.00
72 4.5100 1215.00 1215.00 197.00
73 4.5600 1100.00 1100.00 187.00
74 4.6100 1045.00 1045.00 181.00
75 4.6600 1158.00 1158.00 190.00
76 4.7100 1100.00 1100.00 184.00
77 4.7600 1127.00 1127.00 186.00
78 4.8100 1097.00 1097.00 182.00
79 4.8600 1162.00 1162.00 187.00
80 4.9100 1070.00 1070.00 178.00
81 4.9600 864.00 864.00 159.00
82 5.0100 1003.00 1003.00 171.00
83 5.0600 1009.00 1009.00 171.00
84 5.1100 1001.00 1001.00 169.00
85 5.1600 854.00 854.00 156.00
86 5.2100 993.00 993.00 167.00
87 5.2600 838.00 838.00 153.00
88 5.3100 882.00 882.00 156.00
89 5.3600 892.00 892.00 156.00
90 5.4100 863.00 863.00 153.00
91 5.4600 1007.00 1007.00 164.00
92 5.5100 1022.00 1022.00 165.00
93 5.5600 1047.00 1047.00 166.00
94 5.6100 898.00 898.00 153.00
95 5.6600 839.00 839.00 148.00
96 5.7100 887.00 887.00 151.00
97 5.7600 937.00 937.00 155.00
98 5.8100 874.00 874.00 149.00
99 5.8600 999.00 999.00 158.00
100 5.9100 1032.00 1032.00 160.00
101 5.9600 898.00 898.00 149.00
102 6.0100 812.00 812.00 141.00
103 6.0600 952.00 952.00 152.00
104 6.1100 956.00 956.00 152.00
105 6.1600 970.00 970.00 152.00
106 6.2100 832.00 832.00 140.00
107 6.2600 877.00 877.00 143.00
108 6.3100 951.00 951.00 149.00
109 6.3600 888.00 888.00 143.00
110 6.4100 836.00 836.00 138.00
111 6.4600 871.00 871.00 140.00
112 6.5100 918.00 918.00 144.00
113 6.5600 887.00 887.00 141.00
114 6.6100 860.00 860.00 138.00
115 6.6600 858.00 858.00 137.00
116 6.7100 1007.00 1007.00 148.00
117 6.7600 810.00 810.00 132.00
118 6.8100 805.00 805.00 131.00
119 6.8600 786.00 786.00 129.00
120 6.9100 718.00 718.00 123.00
121 6.9600 748.00 748.00 125.00
122 7.0100 717.00 717.00 122.00
123 7.0600 904.00 904.00 136.00
124 7.1100 859.00 859.00 132.00
125 7.1600 803.00 803.00 127.00
126 7.2100 804.00 804.00 127.00
127 7.2600 788.00 788.00 125.00
128 7.3100 789.00 789.00 125.00
129 7.3600 782.00 782.00 124.00
130 7.4100 776.00 776.00 123.00
131 7.4600 799.00 799.00 124.00
132 7.5100 832.00 832.00 126.00
133 7.5600 887.00 887.00 130.00
134 7.6100 860.00 860.00 128.00
135 7.6600 769.00 769.00 120.00
136 7.7100 842.00 842.00 125.00
137 7.7600 748.00 748.00 118.00
138 7.8100 701.00 701.00 113.00
139 7.8600 734.00 734.00 116.00
140 7.9100 772.00 772.00 118.00
141 7.9600 668.00 668.00 109.00
142 8.0100 723.00 723.00 113.00
143 8.0600 797.00 797.00 119.00
144 8.1100 779.00 779.00 117.00
145 8.1600 929.00 929.00 127.00
146 8.2100 850.00 850.00 121.00
147 8.2600 710.00 710.00 110.00
148 8.3100 706.00 706.00 110.00
149 8.3600 775.00 775.00 115.00
150 8.4100 762.00 762.00 113.00
151 8.4600 719.00 719.00 110.00
152 8.5100 782.00 782.00 114.00
153 8.5600 708.00 708.00 108.00
154 8.6100 747.00 747.00 110.00
155 8.6600 821.00 821.00 115.00
156 8.7100 767.00 767.00 111.00
157 8.7600 631.00 631.00 100.00
158 8.8100 714.00 714.00 106.00
159 8.8600 661.00 661.00 102.00
160 8.9100 702.00 702.00 105.00
161 8.9600 673.00 673.00 102.00
162 9.0100 655.00 655.00 101.00
163 9.0600 644.00 644.00 99.00
164 9.1100 669.00 669.00 101.00
165 9.1600 521.00 521.00 89.00
166 9.2100 607.00 607.00 95.00
167 9.2600 657.00 657.00 99.00
168 9.3100 638.00 638.00 97.00
169 9.3600 684.00 684.00 100.00
170 9.4100 655.00 655.00 98.00
171 9.4600 607.00 607.00 94.00
172 9.5100 608.00 608.00 94.00
173 9.5600 658.00 658.00 97.00
174 9.6100 656.00 656.00 97.00
175 9.6600 592.00 592.00 92.00
176 9.7100 564.00 564.00 89.00
177 9.7600 667.00 667.00 97.00
178 9.8100 715.00 715.00 100.00
179 9.8600 698.00 698.00 98.00
180 9.9100 608.00 608.00 91.00
181 9.9600 639.00 639.00 93.00
182 10.0100 680.00 680.00 96.00
183 10.0600 653.00 653.00 94.00
184 10.1100 658.00 658.00 94.00
185 10.1600 686.00 686.00 95.00
186 10.2100 729.00 729.00 98.00
187 10.2600 707.00 707.00 96.00
188 10.3100 669.00 669.00 93.00
189 10.3600 699.00 699.00 95.00
190 10.4100 699.00 699.00 95.00
191 10.4600 680.00 680.00 93.00
192 10.5100 675.00 675.00 93.00
193 10.5600 631.00 631.00 89.00
194 10.6100 691.00 691.00 93.00
195 10.6600 689.00 689.00 93.00
196 10.7100 672.00 672.00 91.00
197 10.7600 677.00 677.00 91.00
198 10.8100 628.00 628.00 88.00
199 10.8600 560.00 560.00 82.00
200 10.9100 619.00 619.00 86.00
201 10.9600 584.00 584.00 84.00
202 11.0100 677.00 677.00 90.00
203 11.0600 627.00 627.00 86.00
204 11.1100 578.00 578.00 82.00
205 11.1600 633.00 633.00 86.00
206 11.2100 745.00 745.00 93.00
207 11.2600 681.00 681.00 89.00
208 11.3100 606.00 606.00 83.00
209 11.3600 585.00 585.00 82.00
210 11.4100 569.00 569.00 80.00
211 11.4600 601.00 601.00 82.00
212 11.5100 595.00 595.00 82.00
213 11.5600 611.00 611.00 83.00
214 11.6100 608.00 608.00 82.00
215 11.6600 618.00 618.00 83.00
216 11.7100 626.00 626.00 83.00
217 11.7600 588.00 588.00 80.00
218 11.8100 481.00 481.00 72.00
219 11.8600 491.00 491.00 73.00
220 11.9100 577.00 577.00 79.00
221 11.9600 583.00 560.86 79.00
222 12.0100 557.00 559.58 77.00
223 12.0600 515.00 558.32 74.00
224 12.1100 575.00 557.07 78.00
225 12.1600 632.00 555.84 81.00
226 12.2100 561.00 554.63 76.00
227 12.2600 522.00 553.43 73.00
228 12.3100 571.00 552.25 76.00
229 12.3600 540.00 551.09 74.00
230 12.4100 405.00 549.94 64.00
231 12.4600 528.00 548.81 73.00
232 12.5100 566.00 547.69 75.00
233 12.5600 516.00 546.59 72.00
234 12.6100 550.00 545.50 74.00
235 12.6600 571.00 544.43 75.00
236 12.7100 542.00 543.37 73.00
237 12.7600 503.00 542.33 70.00
238 12.8100 551.00 541.30 73.00
239 12.8600 528.00 540.29 71.00
240 12.9100 515.00 539.29 70.00
241 12.9600 448.00 538.31 65.00
242 13.0100 564.00 537.34 73.00
243 13.0600 553.00 536.39 72.00
244 13.1100 539.00 535.45 71.00
245 13.1600 505.00 534.52 68.00
246 13.2100 619.00 533.61 76.00
247 13.2600 553.00 532.71 71.00
248 13.3100 489.00 531.83 67.00
249 13.3600 474.00 530.96 66.00
250 13.4100 466.00 530.10 65.00
251 13.4600 475.00 529.25 65.00
252 13.5100 551.00 528.42 70.00
253 13.5600 554.00 527.60 70.00
254 13.6100 564.00 526.79 71.00
255 13.6600 554.00 526.00 70.00
256 13.7100 514.00 525.22 67.00
257 13.7600 477.00 524.45 64.00
258 13.8100 485.00 523.70 65.00
259 13.8600 580.00 522.95 71.00
260 13.9100 615.00 522.22 73.00
261 13.9600 582.00 521.50 70.00
262 14.0100 510.00 520.79 66.00
263 14.0600 450.00 520.10 62.00
264 14.1100 546.00 519.41 68.00
265 14.1600 507.00 518.74 65.00
266 14.2100 482.00 518.08 63.00
267 14.2600 542.00 517.43 67.00
268 14.3100 671.00 516.79 74.00
269 14.3600 572.00 516.17 68.00
270 14.4100 598.00 515.55 70.00
271 14.4600 581.00 514.95 69.00
272 14.5100 502.00 514.36 64.00
273 14.5600 663.00 513.77 73.00
274 14.6100 550.00 513.20 66.00
275 14.6600 521.00 512.64 64.00
276 14.7100 561.00 512.09 66.00
277 14.7600 550.00 511.55 66.00
278 14.8100 514.00 511.02 63.00
279 14.8600 560.00 510.50 66.00
280 14.9100 605.00 509.99 68.00
281 14.9600 592.00 509.49 67.00
282 15.0100 461.00 509.00 59.00
283 15.0600 551.00 508.52 65.00
284 15.1100 555.00 508.05 65.00
285 15.1600 476.00 507.59 60.00
286 15.2100 547.00 507.14 64.00
287 15.2600 535.00 506.70 63.00
288 15.3100 526.00 506.26 62.00
289 15.3600 518.00 505.84 62.00
290 15.4100 492.00 505.44 60.00
291 15.4600 521.00 505.03 62.00
292 15.5100 509.00 504.64 61.00
293 15.5600 568.00 504.25 64.00
294 15.6100 586.00 503.87 65.00
295 15.6600 538.00 503.50 62.00
296 15.7100 516.00 503.14 61.00
297 15.7600 536.00 502.79 62.00
298 15.8100 585.00 502.45 64.00
299 15.8600 561.00 502.11 63.00
300 15.9100 538.00 501.79 61.00
301 15.9600 604.00 501.47 65.00
302 16.0100 534.00 501.16 61.00
303 16.0600 536.00 500.86 61.00
304 16.1100 481.00 500.56 57.00
305 16.1600 533.00 500.27 60.00
306 16.2100 513.00 500.00 59.00
307 16.2600 464.00 499.73 56.00
308 16.3100 532.00 499.46 60.00
309 16.3600 547.00 499.21 60.00
310 16.4100 564.00 498.96 61.00
311 16.4600 543.00 498.72 60.00
312 16.5100 535.00 498.48 59.00
313 16.5600 525.00 498.26 59.00
314 16.6100 590.00 498.04 62.00
315 16.6600 545.00 497.83 59.00
316 16.7100 485.00 497.62 56.00
317 16.7600 538.00 497.43 59.00
318 16.8100 518.00 497.24 58.00
319 16.8600 549.00 497.05 59.00
320 16.9100 584.00 496.88 61.00
321 16.9600 513.00 496.71 57.00
322 17.0100 522.00 496.55 57.00
323 17.0600 491.00 496.39 55.00
324 17.1100 500.00 496.24 56.00
325 17.1600 494.00 496.10 55.00
326 17.2100 481.00 495.97 54.00
327 17.2600 442.00 495.85 52.00
328 17.3100 486.00 495.73 54.00
329 17.3600 493.00 495.62 55.00
330 17.4100 508.00 495.52 55.00
331 17.4600 561.00 495.44 58.00
332 17.5100 539.00 495.38 57.00
333 17.5600 561.00 495.33 58.00
334 17.6100 484.00 495.35 54.00
335 17.6600 460.00 495.49 52.00
336 17.7100 477.00 496.00 53.00
337 17.7600 447.00 497.45 51.00
338 17.8100 480.00 500.93 53.00
339 17.8600 530.00 508.16 55.00
340 17.9100 516.00 520.90 55.00
341 17.9600 601.00 539.91 59.00
342 18.0100 602.00 563.88 59.00
343 18.0600 665.00 589.37 62.00
344 18.1100 681.00 611.70 62.00
345 18.1600 665.00 625.93 61.00
346 18.2100 636.00 627.70 60.00
347 18.2600 597.00 614.94 58.00
348 18.3100 588.00 590.20 57.00
349 18.3600 581.00 560.47 57.00
350 18.4100 563.00 533.67 56.00
351 18.4600 602.00 514.56 58.00
352 18.5100 489.00 503.49 52.00
353 18.5600 507.00 498.12 53.00
354 18.6100 508.00 495.83 52.00
355 18.6600 545.00 494.91 54.00
356 18.7100 528.00 494.54 53.00
357 18.7600 492.00 494.40 51.00
358 18.8100 493.00 494.36 51.00
359 18.8600 471.00 494.36 50.00
360 18.9100 463.00 494.38 49.00
361 18.9600 501.00 494.40 51.00
362 19.0100 496.00 494.42 51.00
363 19.0600 479.00 494.45 50.00
364 19.1100 519.00 494.48 52.00
365 19.1600 561.00 494.52 54.00
366 19.2100 533.00 494.56 52.00
367 19.2600 491.00 494.61 50.00
368 19.3100 531.00 494.66 52.00
369 19.3600 471.00 494.71 49.00
370 19.4100 537.00 494.77 52.00
371 19.4600 520.00 494.83 51.00
372 19.5100 488.00 494.89 49.00
373 19.5600 478.00 494.96 49.00
374 19.6100 521.00 495.04 51.00
375 19.6600 470.00 495.11 48.00
376 19.7100 534.00 495.19 51.00
377 19.7600 549.00 495.28 52.00
378 19.8100 489.00 495.36 49.00
379 19.8600 477.00 495.45 48.00
380 19.9100 464.00 495.54 47.00
381 19.9600 482.00 495.64 48.00
382 20.0100 435.00 495.74 46.00
383 20.0600 471.00 495.84 47.00
384 20.1100 524.00 495.94 50.00
385 20.1600 549.00 496.05 51.00
386 20.2100 564.00 496.16 52.00
387 20.2600 549.00 496.27 51.00
388 20.3100 509.00 496.39 49.00
389 20.3600 546.00 496.50 50.00
390 20.4100 586.00 496.62 52.00
391 20.4600 519.00 496.75 49.00
392 20.5100 500.00 496.87 48.00
393 20.5600 492.00 497.00 47.00
394 20.6100 508.00 497.13 48.00
395 20.6600 495.00 497.26 47.00
396 20.7100 492.00 497.39 47.00
397 20.7600 532.00 497.53 49.00
398 20.8100 471.00 497.66 46.00
399 20.8600 448.00 497.80 45.00
400 20.9100 443.00 497.95 44.00
401 20.9600 479.00 498.09 46.00
402 21.0100 527.00 498.23 48.00
403 21.0600 456.00 498.37 45.00
404 21.1100 443.00 498.52 44.00
405 21.1600 529.00 498.67 48.00
406 21.2100 557.00 498.82 49.00
407 21.2600 541.00 498.98 48.00
408 21.3100 490.00 499.14 46.00
409 21.3600 526.00 499.29 47.00
410 21.4100 476.00 499.45 45.00
411 21.4600 472.00 499.61 45.00
412 21.5100 484.00 499.77 45.00
413 21.5600 512.00 499.94 46.00
414 21.6100 477.00 500.11 45.00
415 21.6600 488.00 500.27 45.00
416 21.7100 452.00 500.44 43.00
417 21.7600 446.00 500.61 43.00
418 21.8100 497.00 500.78 45.00
419 21.8600 490.00 500.95 45.00
420 21.9100 458.00 501.12 43.00
421 21.9600 453.00 501.30 43.00
422 22.0100 509.00 501.47 45.00
423 22.0600 554.00 501.65 47.00
424 22.1100 533.00 501.83 46.00
425 22.1600 495.00 502.01 45.00
426 22.2100 541.00 502.18 47.00
427 22.2600 545.00 502.36 47.00
428 22.3100 529.00 502.55 46.00
429 22.3600 501.00 502.73 44.00
430 22.4100 447.00 502.91 42.00
431 22.4600 556.00 503.09 47.00
432 22.5100 480.00 503.28 43.00
433 22.5600 510.00 503.46 45.00
434 22.6100 523.00 503.65 45.00
435 22.6600 522.00 503.84 45.00
436 22.7100 574.00 504.02 47.00
437 22.7600 548.00 504.21 46.00
438 22.8100 527.00 504.40 45.00
439 22.8600 486.00 504.59 43.00
440 22.9100 523.00 504.78 44.00
441 22.9600 539.00 504.97 45.00
442 23.0100 493.00 505.16 43.00
443 23.0600 515.00 505.35 44.00
444 23.1100 494.00 505.54 43.00
445 23.1600 461.00 505.73 41.00
446 23.2100 454.00 505.93 41.00
447 23.2600 490.00 506.12 42.00
448 23.3100 481.00 506.31 42.00
449 23.3600 545.00 506.50 45.00
450 23.4100 516.00 506.70 43.00
451 23.4600 492.00 506.89 42.00
452 23.5100 498.00 507.08 42.00
453 23.5600 519.00 507.28 43.00
454 23.6100 498.00 507.47 42.00
455 23.6600 457.00 507.67 40.00
456 23.7100 452.00 507.86 40.00
457 23.7600 425.00 508.06 39.00
458 23.8100 424.00 508.25 39.00
459 23.8600 495.00 508.45 42.00
460 23.9100 495.00 508.64 42.00
461 23.9600 521.00 508.83 43.00
462 24.0100 490.00 509.03 41.00
463 24.0600 484.00 509.22 41.00
464 24.1100 483.00 509.42 41.00
465 24.1600 442.00 509.61 39.00
466 24.2100 480.00 509.81 40.00
467 24.2600 523.00 510.00 42.00
468 24.3100 525.00 510.20 42.00
469 24.3600 555.00 510.39 43.00
470 24.4100 545.00 510.58 43.00
471 24.4600 468.00 510.78 40.00
472 24.5100 474.00 510.97 40.00
473 24.5600 496.00 511.16 41.00
474 24.6100 538.00 511.35 42.00
475 24.6600 457.00 511.55 39.00
476 24.7100 479.00 511.74 40.00
477 24.7600 482.00 511.93 40.00
478 24.8100 442.00 512.12 38.00
479 24.8600 472.00 512.31 39.00
480 24.9100 512.00 512.50 41.00
481 24.9600 469.00 512.69 39.00
482 25.0100 492.00 512.88 40.00
483 25.0600 477.00 513.07 39.00
484 25.1100 439.00 513.26 37.00
485 25.1600 497.00 513.45 40.00
486 25.2100 537.00 513.63 41.00
487 25.2600 481.00 513.82 39.00
488 25.3100 444.00 514.01 37.00
489 25.3600 525.00 514.19 41.00
490 25.4100 489.00 514.38 39.00
491 25.4600 501.00 514.56 39.00
492 25.5100 499.00 514.74 39.00
493 25.5600 519.00 514.93 40.00
494 25.6100 451.00 515.11 37.00
495 25.6600 467.00 515.29 38.00
496 25.7100 426.00 515.47 36.00
497 25.7600 455.00 515.65 37.00
498 25.8100 516.00 515.83 40.00
499 25.8600 502.00 516.01 39.00
500 25.9100 495.00 516.19 39.00
501 25.9600 505.00 516.37 39.00
502 26.0100 482.00 516.54 38.00
503 26.0600 458.00 516.72 37.00
504 26.1100 451.00 516.90 37.00
505 26.1600 483.00 517.07 38.00
506 26.2100 466.00 517.24 37.00
507 26.2600 455.00 517.42 36.00
508 26.3100 484.00 517.59 38.00
509 26.3600 490.00 517.76 38.00
510 26.4100 476.00 517.93 37.00
511 26.4600 453.00 518.10 36.00
512 26.5100 479.00 518.27 37.00
513 26.5600 475.00 518.43 37.00
514 26.6100 524.00 518.60 39.00
515 26.6600 491.00 518.77 37.00
516 26.7100 505.00 518.93 38.00
517 26.7600 484.00 519.09 37.00
518 26.8100 473.00 519.26 36.00
519 26.8600 490.00 519.42 37.00
520 26.9100 531.00 519.58 39.00
521 26.9600 533.00 519.74 39.00
522 27.0100 457.00 519.90 36.00
523 27.0600 482.00 520.06 36.00
524 27.1100 494.00 520.21 37.00
525 27.1600 456.00 520.37 35.00
526 27.2100 517.00 520.54 38.00
527 27.2600 499.00 520.70 37.00
528 27.3100 437.00 520.85 34.00
529 27.3600 409.00 521.00 33.00
530 27.4100 443.00 521.16 34.00
531 27.4600 452.00 521.31 35.00
532 27.5100 492.00 521.46 36.00
533 27.5600 481.00 521.60 36.00
534 27.6100 456.00 521.75 35.00
535 27.6600 483.00 521.90 36.00
536 27.7100 445.00 522.04 34.00
537 27.7600 509.00 522.18 37.00
538 27.8100 537.00 522.33 37.00
539 27.8600 462.00 522.47 35.00
540 27.9100 413.00 522.61 33.00
541 27.9600 473.00 522.75 35.00
542 28.0100 451.00 522.89 34.00
543 28.0600 485.00 523.03 35.00
544 28.1100 485.00 523.16 35.00
545 28.1600 496.00 523.30 36.00
546 28.2100 506.00 523.43 36.00
547 28.2600 488.00 523.57 35.00
548 28.3100 532.00 523.70 37.00
549 28.3600 496.00 523.83 35.00
550 28.4100 540.00 523.96 37.00
551 28.4600 463.00 524.09 34.00
552 28.5100 445.00 524.22 33.00
553 28.5600 500.00 524.35 35.00
554 28.6100 505.00 524.48 35.00
555 28.6600 532.00 524.61 36.00
556 28.7100 526.00 524.73 36.00
557 28.7600 515.00 524.86 35.00
558 28.8100 467.00 524.99 34.00
559 28.8600 465.00 525.11 34.00
560 28.9100 501.00 525.24 35.00
561 28.9600 489.00 525.37 34.00
562 29.0100 501.00 525.50 35.00
563 29.0600 512.00 525.63 35.00
564 29.1100 497.00 525.77 34.00
565 29.1600 453.00 525.91 33.00
566 29.2100 461.00 526.06 33.00
567 29.2600 469.00 526.23 33.00
568 29.3100 495.00 526.41 34.00
569 29.3600 485.00 526.65 34.00
570 29.4100 519.00 527.02 35.00
571 29.4600 517.00 527.76 35.00
572 29.5100 485.00 529.42 34.00
573 29.5600 489.00 533.12 34.00
574 29.6100 478.00 540.55 33.00
575 29.6600 546.00 553.49 35.00
576 29.7100 576.00 572.85 36.00
577 29.7600 578.00 597.44 36.00
578 29.8100 595.00 623.77 37.00
579 29.8600 614.00 646.49 37.00
580 29.9100 658.00 659.56 39.00
581 29.9600 663.00 658.17 39.00
582 30.0100 608.00 641.70 37.00
583 30.0600 584.00 615.07 36.00
584 30.1100 572.00 586.28 36.00
585 30.1600 511.00 562.24 34.00
586 30.2100 512.00 545.87 34.00
587 30.2600 527.00 536.48 34.00
588 30.3100 471.00 531.79 32.00
589 30.3600 491.00 529.70 33.00
590 30.4100 488.00 528.84 33.00
591 30.4600 489.00 528.54 33.00
592 30.5100 598.00 528.46 36.00
593 30.5600 547.00 528.47 34.00
594 30.6100 527.00 528.50 34.00
595 30.6600 511.00 528.54 33.00
596 30.7100 468.00 528.59 32.00
597 30.7600 467.00 528.63 31.00
598 30.8100 553.00 528.67 34.00
599 30.8600 469.00 528.72 31.00
600 30.9100 509.00 528.76 33.00
601 30.9600 509.00 528.81 33.00
602 31.0100 482.00 528.85 32.00
603 31.0600 492.00 528.90 32.00
604 31.1100 468.00 528.95 31.00
605 31.1600 487.00 528.99 32.00
606 31.2100 503.00 529.04 32.00
607 31.2600 445.00 529.08 30.00
608 31.3100 507.00 529.13 32.00
609 31.3600 467.00 529.17 31.00
610 31.4100 553.00 529.21 34.00
611 31.4600 507.00 529.26 32.00
612 31.5100 483.00 529.30 31.00
613 31.5600 535.00 529.34 33.00
614 31.6100 495.00 529.38 32.00
615 31.6600 510.00 529.42 32.00
616 31.7100 521.00 529.45 32.00
617 31.7600 521.00 529.49 32.00
618 31.8100 514.00 529.53 32.00
619 31.8600 490.00 529.56 31.00
620 31.9100 441.00 529.59 29.00
621 31.9600 520.00 529.62 32.00
622 32.0100 536.00 529.66 32.00
623 32.0600 511.00 529.68 32.00
624 32.1100 566.00 529.71 33.00
625 32.1600 569.00 529.74 33.00
626 32.2100 536.00 529.77 32.00
627 32.2600 569.00 529.79 33.00
628 32.3100 531.00 529.82 32.00
629 32.3600 522.00 529.84 32.00
630 32.4100 601.00 529.86 34.00
631 32.4600 573.00 529.88 33.00
632 32.5100 561.00 529.90 33.00
633 32.5600 558.00 530.52 32.00
634 32.6100 560.00 530.56 32.00
635 32.6600 569.00 530.60 33.00
636 32.7100 566.00 530.62 32.00
637 32.7600 536.00 530.66 32.00
638 32.8100 571.00 530.70 33.00
639 32.8600 557.00 530.74 32.00
640 32.9100 601.00 530.78 33.00
641 32.9600 552.00 530.83 32.00
642 33.0100 532.00 530.87 31.00
643 33.0600 548.00 530.92 32.00
644 33.1100 550.00 530.97 32.00
645 33.1600 558.00 531.02 32.00
646 33.2100 583.00 531.07 32.00
647 33.2600 606.00 531.12 33.00
648 33.3100 574.00 531.18 32.00
649 33.3600 513.00 531.24 30.00
650 33.4100 522.00 531.30 30.00
651 33.4600 556.00 531.37 31.00
652 33.5100 606.00 531.44 33.00
653 33.5600 573.00 531.52 32.00
654 33.6100 586.00 531.61 32.00
655 33.6600 582.00 531.70 32.00
656 33.7100 552.00 531.80 31.00
657 33.7600 583.00 531.91 32.00
658 33.8100 573.00 532.03 32.00
659 33.8600 531.00 532.17 30.00
660 33.9100 542.00 532.32 31.00
661 33.9600 577.00 532.49 31.00
662 34.0100 580.00 532.68 31.00
663 34.0600 575.00 532.89 31.00
664 34.1100 515.00 533.14 30.00
665 34.1600 582.00 533.41 31.00
666 34.2100 550.00 539.72 30.00
667 34.2600 579.00 540.33 31.00
668 34.3100 588.00 541.01 31.00
669 34.3600 601.00 541.79 32.00
670 34.4100 573.00 542.70 31.00
671 34.4600 603.00 543.78 32.00
672 34.5100 592.00 545.10 31.00
673 34.5600 573.00 546.74 31.00
674 34.6100 583.00 548.87 31.00
675 34.6600 603.00 551.86 31.00
676 34.7100 565.00 556.76 30.00
677 34.7600 653.00 566.70 33.00
678 34.8100 655.00 589.98 33.00
679 34.8600 723.00 645.07 34.00
680 34.9100 874.00 764.89 38.00
681 34.9600 1053.00 993.36 41.00
682 35.0100 1468.00 1367.81 49.00
683 35.0600 1978.00 1890.59 57.00
684 35.1100 2637.00 2507.49 65.00
685 35.1600 3370.00 3107.93 74.00
686 35.2100 3869.00 3544.86 79.00
687 35.2600 3963.00 3675.55 80.00
688 35.3100 3617.00 3431.95 76.00
689 35.3600 3012.00 2882.30 69.00
690 35.4100 2268.00 2202.94 60.00
691 35.4600 1733.00 1579.28 52.00
692 35.5100 1257.00 1121.44 44.00
693 35.5600 914.00 839.22 38.00
694 35.6100 737.00 689.99 34.00
695 35.6600 661.00 620.32 32.00
696 35.7100 644.00 591.39 31.00
697 35.7600 647.00 581.25 31.00
698 35.8100 685.00 579.20 32.00
699 35.8600 679.00 580.55 32.00
700 35.9100 733.00 583.52 33.00
701 35.9600 739.00 587.56 33.00
702 36.0100 721.00 592.71 33.00
703 36.0600 726.00 599.24 33.00
704 36.1100 698.00 607.63 32.00
705 36.1600 660.00 618.58 31.00
706 36.2100 659.00 633.20 31.00
707 36.2600 711.00 653.70 32.00
708 36.3100 732.00 685.87 33.00
709 36.3600 868.00 747.02 36.00
710 36.4100 1012.00 886.14 39.00
711 36.4600 1417.00 1222.87 46.00
712 36.5100 2227.00 1996.69 57.00
713 36.5600 3787.00 3580.58 75.00
714 36.6100 6201.00 6384.44 96.00
715 36.6600 10544.00 10624.40 125.00
716 36.7100 15966.00 16062.20 153.00
717 36.7600 21956.00 21896.60 180.00
718 36.8100 27054.00 26863.60 199.00
719 36.8600 29609.00 29525.40 208.00
720 36.9100 28304.00 28821.00 203.00
721 36.9600 24506.00 24796.60 189.00
722 37.0100 18538.00 18759.90 164.00
723 37.0600 12652.00 12533.60 135.00
724 37.1100 7660.00 7508.61 105.00
725 37.1600 4296.00 4172.05 78.00
726 37.2100 2432.00 2285.27 59.00
727 37.2600 1415.00 1346.75 44.00
728 37.3100 1034.00 923.67 38.00
729 37.3600 871.00 746.50 35.00
730 37.4100 763.00 675.71 32.00
731 37.4600 753.00 647.06 32.00
732 37.5100 719.00 633.75 31.00
733 37.5600 689.00 625.84 31.00
734 37.6100 683.00 620.15 30.00
735 37.6600 669.00 615.98 30.00
736 37.7100 643.00 613.42 29.00
737 37.7600 615.00 612.96 29.00
738 37.8100 684.00 615.88 30.00
739 37.8600 697.00 625.46 31.00
740 37.9100 692.00 649.84 30.00
741 37.9600 773.00 706.86 32.00
742 38.0100 862.00 828.85 34.00
743 38.0600 1146.00 1066.24 39.00
744 38.1100 1576.00 1473.75 46.00
745 38.1600 2265.00 2088.73 55.00
746 38.2100 3049.00 2900.12 64.00
747 38.2600 4037.00 3829.55 73.00
748 38.3100 4937.00 4733.19 81.00
749 38.3600 5524.00 5421.77 85.00
750 38.4100 5680.00 5702.91 86.00
751 38.4600 5270.00 5462.55 83.00
752 38.5100 4386.00 4750.10 76.00
753 38.5600 3394.00 3766.48 66.00
754 38.6100 2365.00 2759.64 55.00
755 38.6600 1681.00 1918.82 46.00
756 38.7100 1275.00 1322.80 40.00
757 38.7600 937.00 954.31 34.00
758 38.8100 754.00 750.51 31.00
759 38.8600 653.00 647.15 29.00
760 38.9100 604.00 597.87 27.00
761 38.9600 610.00 575.15 28.00
762 39.0100 622.00 564.51 28.00
763 39.0600 578.00 558.98 27.00
764 39.1100 678.00 555.49 29.00
765 39.1600 681.00 552.80 29.00
766 39.2100 568.00 550.45 26.00
767 39.2600 599.00 548.31 27.00
768 39.3100 554.00 546.34 26.00
769 39.3600 529.00 544.53 25.00
770 39.4100 598.00 542.89 27.00
771 39.4600 599.00 541.40 27.00
772 39.5100 556.00 540.05 26.00
773 39.5600 527.00 538.83 25.00
774 39.6100 522.00 531.94 25.00
775 39.6600 562.00 531.14 26.00
776 39.7100 603.00 530.41 27.00
777 39.7600 602.00 529.75 27.00
778 39.8100 618.00 529.15 27.00
779 39.8600 593.00 528.60 26.00
780 39.9100 543.00 528.10 25.00
781 39.9600 590.00 527.63 26.00
782 40.0100 621.00 527.19 27.00
783 40.0600 588.00 526.79 26.00
784 40.1100 582.00 526.41 26.00
785 40.1600 538.00 526.05 25.00
786 40.2100 570.00 527.09 26.00
787 40.2600 598.00 526.82 26.00
788 40.3100 575.00 526.58 26.00
789 40.3600 580.00 526.36 26.00
790 40.4100 545.00 526.15 25.00
791 40.4600 565.00 525.96 25.00
792 40.5100 537.00 525.78 25.00
793 40.5600 514.00 525.63 24.00
794 40.6100 535.00 525.48 24.00
795 40.6600 545.00 525.35 25.00
796 40.7100 573.00 525.23 25.00
797 40.7600 562.00 525.12 25.00
798 40.8100 570.00 525.03 25.00
799 40.8600 565.00 524.96 25.00
800 40.9100 591.00 524.90 25.00
801 40.9600 589.00 524.85 25.00
802 41.0100 600.00 524.82 26.00
803 41.0600 563.00 524.80 25.00
804 41.1100 605.00 524.81 26.00
805 41.1600 619.00 524.83 26.00
806 41.2100 606.00 524.87 26.00
807 41.2600 559.00 524.94 24.00
808 41.3100 516.00 525.03 23.00
809 41.3600 526.00 525.14 24.00
810 41.4100 519.00 523.82 23.00
811 41.4600 488.00 524.04 23.00
812 41.5100 505.00 524.31 23.00
813 41.5600 554.00 524.62 24.00
814 41.6100 536.00 524.98 24.00
815 41.6600 520.00 525.40 23.00
816 41.7100 518.00 525.88 23.00
817 41.7600 493.00 526.45 23.00
818 41.8100 538.00 527.11 24.00
819 41.8600 491.00 527.90 22.00
820 41.9100 540.00 528.83 24.00
821 41.9600 562.00 529.96 24.00
822 42.0100 526.00 531.34 23.00
823 42.0600 525.00 533.07 23.00
824 42.1100 525.00 535.27 23.00
825 42.1600 523.00 538.13 23.00
826 42.2100 536.00 541.98 23.00
827 42.2600 547.00 547.56 23.00
828 42.3100 546.00 557.01 23.00
829 42.3600 587.00 576.54 24.00
830 42.4100 597.00 622.53 24.00
831 42.4600 732.00 731.01 27.00
832 42.5100 971.00 965.00 31.00
833 42.5600 1336.00 1406.34 36.00
834 42.6100 2014.00 2119.85 45.00
835 42.6600 2962.00 3099.20 54.00
836 42.7100 4079.00 4226.95 64.00
837 42.7600 5193.00 5276.06 72.00
838 42.8100 5732.00 5955.66 75.00
839 42.8600 5810.00 6012.06 76.00
840 42.9100 5350.00 5386.32 73.00
841 42.9600 4307.00 4289.10 65.00
842 43.0100 3233.00 3074.64 56.00
843 43.0600 2216.00 2044.50 47.00
844 43.1100 1485.00 1332.21 38.00
845 43.1600 1023.00 915.77 31.00
846 43.2100 740.00 703.29 27.00
847 43.2600 640.00 605.85 25.00
848 43.3100 583.00 564.52 24.00
849 43.3600 548.00 547.63 23.00
850 43.4100 540.00 540.41 23.00
851 43.4600 524.00 536.67 22.00
852 43.5100 546.00 534.14 23.00
853 43.5600 530.00 532.07 23.00
854 43.6100 535.00 530.25 23.00
855 43.6600 501.00 528.61 22.00
856 43.7100 511.00 527.16 22.00
857 43.7600 567.00 525.86 23.00
858 43.8100 537.00 524.72 23.00
859 43.8600 559.00 523.71 23.00
860 43.9100 560.00 522.82 23.00
861 43.9600 538.00 522.03 23.00
862 44.0100 552.00 521.32 23.00
863 44.0600 541.00 520.69 23.00
864 44.1100 516.00 520.12 22.00
865 44.1600 557.00 519.60 23.00
866 44.2100 520.00 519.13 22.00
867 44.2600 525.00 518.70 22.00
868 44.3100 512.00 519.07 22.00
869 44.3600 528.00 518.73 22.00
870 44.4100 544.00 518.42 23.00
871 44.4600 497.00 518.15 22.00
872 44.5100 541.00 517.89 23.00
873 44.5600 517.00 517.65 22.00
874 44.6100 476.00 517.43 21.00
875 44.6600 514.00 517.23 22.00
876 44.7100 556.00 517.05 23.00
877 44.7600 512.00 516.88 22.00
878 44.8100 533.00 516.73 23.00
879 44.8600 540.00 516.59 23.00
880 44.9100 504.00 516.47 22.00
881 44.9600 540.00 516.35 23.00
882 45.0100 543.00 516.25 23.00
883 45.0600 557.00 516.17 23.00
884 45.1100 517.00 516.09 22.00
885 45.1600 502.00 516.03 22.00
886 45.2100 498.00 515.98 22.00
887 45.2600 504.00 515.95 22.00
888 45.3100 559.00 515.93 23.00
889 45.3600 535.00 515.93 23.00
890 45.4100 556.00 515.95 23.00
891 45.4600 539.00 515.98 23.00
892 45.5100 548.00 514.70 23.00
893 45.5600 485.00 514.82 22.00
894 45.6100 470.00 514.97 21.00
895 45.6600 488.00 515.15 22.00
896 45.7100 469.00 515.35 21.00
897 45.7600 524.00 515.60 22.00
898 45.8100 487.00 515.88 22.00
899 45.8600 497.00 516.22 22.00
900 45.9100 514.00 516.62 22.00
901 45.9600 501.00 517.10 22.00
902 46.0100 513.00 517.67 22.00
903 46.0600 537.00 518.37 23.00
904 46.1100 492.00 519.24 22.00
905 46.1600 480.00 520.35 21.00
906 46.2100 498.00 521.77 22.00
907 46.2600 485.00 523.64 22.00
908 46.3100 520.00 526.26 22.00
909 46.3600 545.00 530.36 23.00
910 46.4100 523.00 538.14 22.00
911 46.4600 528.00 555.67 22.00
912 46.5100 609.00 597.25 24.00
913 46.5600 660.00 690.18 25.00
914 46.6100 814.00 874.09 28.00
915 46.6600 1154.00 1187.56 33.00
916 46.7100 1572.00 1641.75 39.00
917 46.7600 2071.00 2195.03 45.00
918 46.8100 2660.00 2745.69 51.00
919 46.8600 3008.00 3148.51 54.00
920 46.9100 3223.00 3260.11 56.00
921 46.9600 2971.00 3020.10 54.00
922 47.0100 2640.00 2509.36 51.00
923 47.0600 1944.00 1901.76 44.00
924 47.1100 1411.00 1361.69 37.00
925 47.1600 1004.00 974.28 31.00
926 47.2100 790.00 741.04 28.00
927 47.2600 607.00 619.38 24.00
928 47.3100 561.00 562.74 23.00
929 47.3600 531.00 538.49 23.00
930 47.4100 550.00 528.53 23.00
931 47.4600 523.00 524.25 22.00
932 47.5100 513.00 522.04 22.00
933 47.5600 498.00 520.56 22.00
934 47.6100 502.00 519.37 22.00
935 47.6600 479.00 518.33 21.00
936 47.7100 520.00 517.41 22.00
937 47.7600 514.00 516.60 22.00
938 47.8100 487.00 515.88 22.00
939 47.8600 485.00 515.26 22.00
940 47.9100 515.00 514.71 22.00
941 47.9600 478.00 514.22 21.00
942 48.0100 480.00 513.80 21.00
943 48.0600 491.00 513.42 22.00
944 48.1100 508.00 513.09 22.00
945 48.1600 514.00 512.80 22.00
946 48.2100 518.00 512.53 22.00
947 48.2600 490.00 512.29 22.00
948 48.3100 462.00 512.08 21.00
949 48.3600 511.00 511.88 22.00
950 48.4100 523.00 511.70 22.00
951 48.4600 544.00 511.54 23.00
952 48.5100 528.00 511.39 22.00
953 48.5600 521.00 511.26 22.00
954 48.6100 491.00 511.13 22.00
955 48.6600 496.00 511.02 22.00
956 48.7100 516.00 510.91 22.00
957 48.7600 515.00 510.81 22.00
958 48.8100 483.00 510.72 21.00
959 48.8600 519.00 510.64 22.00
960 48.9100 519.00 510.56 22.00
961 48.9600 502.00 510.49 22.00
962 49.0100 477.00 510.43 21.00
963 49.0600 476.00 510.36 21.00
964 49.1100 485.00 510.31 22.00
965 49.1600 490.00 510.26 22.00
966 49.2100 500.00 510.21 22.00
967 49.2600 497.00 510.16 22.00
968 49.3100 466.00 510.12 21.00
969 49.3600 497.00 510.09 22.00
970 49.4100 503.00 510.05 22.00
971 49.4600 515.00 510.02 22.00
972 49.5100 491.00 509.99 22.00
973 49.5600 500.00 509.23 22.00
974 49.6100 528.00 509.24 22.00
975 49.6600 470.00 509.24 21.00
976 49.7100 491.00 509.25 22.00
977 49.7600 526.00 509.26 22.00
978 49.8100 499.00 509.26 22.00
979 49.8600 496.00 509.27 22.00
980 49.9100 539.00 509.28 23.00
981 49.9600 495.00 509.29 22.00
982 50.0100 460.00 509.31 21.00
983 50.0600 460.00 509.32 21.00
984 50.1100 491.00 509.33 22.00
985 50.1600 522.00 509.35 22.00
986 50.2100 509.00 509.37 22.00
987 50.2600 476.00 509.39 21.00
988 50.3100 507.00 509.40 22.00
989 50.3600 464.00 509.43 21.00
990 50.4100 506.00 509.45 22.00
991 50.4600 467.00 509.47 21.00
992 50.5100 451.00 509.49 21.00
993 50.5600 467.00 509.58 21.00
994 50.6100 467.00 509.60 21.00
995 50.6600 473.00 509.63 21.00
996 50.7100 505.00 509.66 22.00
997 50.7600 506.00 509.70 22.00
998 50.8100 513.00 509.73 22.00
999 50.8600 500.00 509.76 22.00
1000 50.9100 522.00 509.80 22.00
1001 50.9600 518.00 509.84 22.00
1002 51.0100 510.00 509.88 22.00
1003 51.0600 480.00 509.92 21.00
1004 51.1100 522.00 509.96 22.00
1005 51.1600 501.00 510.00 22.00
1006 51.2100 499.00 510.05 22.00
1007 51.2600 503.00 510.09 22.00
1008 51.3100 498.00 510.14 22.00
1009 51.3600 488.00 510.19 22.00
1010 51.4100 486.00 510.24 22.00
1011 51.4600 469.00 510.30 21.00
1012 51.5100 489.00 510.35 22.00
1013 51.5600 492.00 510.41 22.00
1014 51.6100 470.00 510.47 21.00
1015 51.6600 486.00 510.53 22.00
1016 51.7100 488.00 510.59 22.00
1017 51.7600 506.00 510.66 22.00
1018 51.8100 445.00 510.73 21.00
1019 51.8600 463.00 510.80 21.00
1020 51.9100 499.00 510.87 22.00
1021 51.9600 481.00 510.95 21.00
1022 52.0100 482.00 511.03 21.00
1023 52.0600 496.00 511.12 22.00
1024 52.1100 491.00 511.21 22.00
1025 52.1600 493.00 511.31 22.00
1026 52.2100 495.00 511.42 22.00
1027 52.2600 478.00 511.53 21.00
1028 52.3100 483.00 511.65 21.00
1029 52.3600 484.00 511.80 22.00
1030 52.4100 513.00 511.95 22.00
1031 52.4600 521.00 512.14 22.00
1032 52.5100 520.00 512.36 22.00
1033 52.5600 515.00 512.64 22.00
1034 52.6100 506.00 513.03 22.00
1035 52.6600 467.00 513.72 21.00
1036 52.7100 508.00 515.75 22.00
1037 52.7600 471.00 519.05 21.00
1038 52.8100 506.00 526.16 22.00
1039 52.8600 514.00 539.84 22.00
1040 52.9100 559.00 562.46 23.00
1041 52.9600 572.00 594.21 23.00
1042 53.0100 557.00 631.35 23.00
1043 53.0600 629.00 666.06 25.00
1044 53.1100 671.00 687.97 25.00
1045 53.1600 670.00 688.23 25.00
1046 53.2100 615.00 665.75 24.00
1047 53.2600 619.00 628.97 24.00
1048 53.3100 517.00 590.11 22.00
1049 53.3600 522.00 558.44 22.00
1050 53.4100 499.00 537.36 22.00
1051 53.4600 504.00 525.49 22.00
1052 53.5100 529.00 519.69 23.00
1053 53.5600 495.00 517.20 22.00
1054 53.6100 527.00 516.25 22.00
1055 53.6600 512.00 515.96 22.00
1056 53.7100 520.00 515.92 22.00
1057 53.7600 524.00 515.97 22.00
1058 53.8100 533.00 516.07 23.00
1059 53.8600 521.00 516.19 22.00
1060 53.9100 480.00 516.33 21.00
1061 53.9600 517.00 516.50 22.00
1062 54.0100 476.00 516.69 21.00
1063 54.0600 490.00 516.90 22.00
1064 54.1100 465.00 517.95 21.00
1065 54.1600 487.00 518.25 22.00
1066 54.2100 502.00 518.58 22.00
1067 54.2600 492.00 518.93 22.00
1068 54.3100 495.00 519.33 22.00
1069 54.3600 482.00 519.78 21.00
1070 54.4100 528.00 520.27 22.00
1071 54.4600 553.00 520.82 23.00
1072 54.5100 522.00 521.45 22.00
1073 54.5600 499.00 522.17 22.00
1074 54.6100 477.00 523.01 21.00
1075 54.6600 525.00 524.01 22.00
1076 54.7100 546.00 525.21 23.00
1077 54.7600 522.00 526.70 22.00
1078 54.8100 512.00 528.58 22.00
1079 54.8600 551.00 531.10 23.00
1080 54.9100 530.00 534.87 23.00
1081 54.9600 523.00 541.42 22.00
1082 55.0100 524.00 554.41 22.00
1083 55.0600 544.00 581.24 23.00
1084 55.1100 584.00 634.10 24.00
1085 55.1600 636.00 728.30 25.00
1086 55.2100 754.00 876.19 27.00
1087 55.2600 933.00 1077.88 30.00
1088 55.3100 1157.00 1313.51 34.00
1089 55.3600 1462.00 1541.45 38.00
1090 55.4100 1691.00 1703.69 41.00
1091 55.4600 1675.00 1743.30 40.00
1092 55.5100 1591.00 1639.03 39.00
1093 55.5600 1458.00 1426.55 38.00
1094 55.6100 1178.00 1174.04 34.00
1095 55.6600 908.00 943.83 30.00
1096 55.7100 737.00 770.63 27.00
1097 55.7600 625.00 659.29 25.00
1098 55.8100 554.00 596.72 23.00
1099 55.8600 536.00 565.40 23.00
1100 55.9100 541.00 551.36 23.00
1101 55.9600 525.00 545.96 22.00
1102 56.0100 507.00 544.71 22.00
1103 56.0600 558.00 545.71 23.00
1104 56.1100 556.00 548.73 23.00
1105 56.1600 521.00 555.36 22.00
1106 56.2100 567.00 570.91 23.00
1107 56.2600 571.00 608.19 23.00
1108 56.3100 665.00 691.76 25.00
1109 56.3600 770.00 857.08 27.00
1110 56.4100 972.00 1137.68 31.00
1111 56.4600 1388.00 1540.31 37.00
1112 56.5100 1839.00 2021.44 42.00
1113 56.5600 2298.00 2480.85 47.00
1114 56.6100 2561.00 2780.63 50.00
1115 56.6600 2646.00 2798.36 51.00
1116 56.7100 2408.00 2513.42 49.00
1117 56.7600 1947.00 2035.43 44.00
1118 56.8100 1474.00 1526.39 38.00
1119 56.8600 1009.00 1110.07 31.00
1120 56.9100 736.00 831.89 27.00
1121 56.9600 593.00 674.56 24.00
1122 57.0100 547.00 596.90 23.00
1123 57.0600 529.00 562.39 23.00
1124 57.1100 513.00 548.02 22.00
1125 57.1600 503.00 541.97 22.00
1126 57.2100 531.00 539.06 23.00
1127 57.2600 533.00 537.29 23.00
1128 57.3100 545.00 535.97 23.00
1129 57.3600 529.00 534.88 23.00
1130 57.4100 539.00 533.97 23.00
1131 57.4600 525.00 533.20 22.00
1132 57.5100 486.00 532.56 22.00
1133 57.5600 525.00 532.03 22.00
1134 57.6100 539.00 531.59 23.00
1135 57.6600 489.00 531.23 22.00
1136 57.7100 504.00 530.95 22.00
1137 57.7600 507.00 530.73 22.00
1138 57.8100 498.00 530.55 22.00
1139 57.8600 545.00 530.42 23.00
1140 57.9100 508.00 530.33 22.00
1141 57.9600 512.00 530.27 22.00
1142 58.0100 539.00 530.24 23.00
1143 58.0600 513.00 530.23 22.00
1144 58.1100 516.00 530.24 22.00
1145 58.1600 512.00 530.28 22.00
1146 58.2100 517.00 530.32 22.00
1147 58.2600 546.00 529.82 23.00
1148 58.3100 563.00 529.92 23.00
1149 58.3600 576.00 530.03 24.00
1150 58.4100 539.00 530.15 23.00
1151 58.4600 529.00 530.27 23.00
1152 58.5100 532.00 530.41 23.00
1153 58.5600 530.00 530.55 23.00
1154 58.6100 526.00 530.70 22.00
1155 58.6600 533.00 530.86 23.00
1156 58.7100 501.00 531.02 22.00
1157 58.7600 536.00 531.19 23.00
1158 58.8100 543.00 531.36 23.00
1159 58.8600 506.00 531.54 22.00
1160 58.9100 525.00 531.72 22.00
1161 58.9600 538.00 531.90 23.00
1162 59.0100 507.00 532.09 22.00
1163 59.0600 513.00 532.28 22.00
1164 59.1100 519.00 532.48 22.00
1165 59.1600 516.00 532.68 22.00
1166 59.2100 519.00 532.09 22.00
1167 59.2600 554.00 532.32 23.00
1168 59.3100 501.00 532.56 22.00
1169 59.3600 554.00 532.80 23.00
1170 59.4100 517.00 533.04 22.00
1171 59.4600 503.00 533.28 22.00
1172 59.5100 542.00 533.52 23.00
1173 59.5600 552.00 533.76 23.00
1174 59.6100 562.00 534.00 23.00
1175 59.6600 526.00 534.25 22.00
1176 59.7100 512.00 535.61 22.00
1177 59.7600 518.00 535.90 22.00
1178 59.8100 526.00 536.20 22.00
1179 59.8600 557.00 536.50 23.00
1180 59.9100 577.00 536.80 24.00
1181 59.9600 535.00 537.11 23.00
1182 60.0100 540.00 537.43 23.00
1183 60.0600 537.00 537.75 23.00
1184 60.1100 502.00 538.08 22.00
1185 60.1600 542.00 538.41 23.00
1186 60.2100 565.00 538.75 23.00
1187 60.2600 573.00 539.10 23.00
1188 60.3100 548.00 539.46 23.00
1189 60.3600 552.00 539.82 23.00
1190 60.4100 542.00 540.20 23.00
1191 60.4600 528.00 540.59 22.00
1192 60.5100 545.00 540.98 23.00
1193 60.5600 557.00 541.40 23.00
1194 60.6100 549.00 541.82 23.00
1195 60.6600 543.00 542.27 23.00
1196 60.7100 552.00 542.73 23.00
1197 60.7600 558.00 543.22 23.00
1198 60.8100 535.00 543.73 23.00
1199 60.8600 533.00 544.27 23.00
1200 60.9100 554.00 544.84 23.00
1201 60.9600 568.00 545.45 23.00
1202 61.0100 569.00 546.10 23.00
1203 61.0600 583.00 546.80 24.00
1204 61.1100 579.00 547.57 24.00
1205 61.1600 566.00 548.41 23.00
1206 61.2100 555.00 549.33 23.00
1207 61.2600 600.00 550.36 24.00
1208 61.3100 550.00 551.53 23.00
1209 61.3600 535.00 552.87 23.00
1210 61.4100 565.00 554.43 23.00
1211 61.4600 567.00 556.30 23.00
1212 61.5100 592.00 558.59 24.00
1213 61.5600 578.00 561.46 24.00
1214 61.6100 597.00 565.23 24.00
1215 61.6600 549.00 570.63 23.00
1216 61.7100 579.00 579.80 24.00
1217 61.7600 575.00 598.74 23.00
1218 61.8100 688.00 642.06 26.00
1219 61.8600 786.00 738.50 28.00
1220 61.9100 932.00 930.89 30.00
1221 61.9600 1294.00 1261.42 35.00
1222 62.0100 1769.00 1741.36 42.00
1223 62.0600 2396.00 2320.04 48.00
1224 62.1100 2958.00 2874.22 54.00
1225 62.1600 3292.00 3231.21 57.00
1226 62.2100 3229.00 3238.72 56.00
1227 62.2600 3013.00 2878.94 54.00
1228 62.3100 2320.00 2297.14 48.00
1229 62.3600 1658.00 1692.72 40.00
1230 62.4100 1140.00 1209.02 33.00
1231 62.4600 838.00 892.57 28.00
1232 62.5100 673.00 717.15 25.00
1233 62.5600 581.00 632.24 24.00
1234 62.6100 566.00 595.14 23.00
1235 62.6600 548.00 579.78 23.00
1236 62.7100 563.00 573.18 23.00
1237 62.7600 554.00 569.84 23.00
1238 62.8100 559.00 567.71 23.00
1239 62.8600 561.00 566.09 23.00
1240 62.9100 549.00 564.78 23.00
1241 62.9600 573.00 563.70 23.00
1242 63.0100 567.00 562.80 23.00
1243 63.0600 576.00 562.08 24.00
1244 63.1100 598.00 561.50 24.00
1245 63.1600 562.00 561.05 23.00
1246 63.2100 562.00 560.70 23.00
1247 63.2600 562.00 560.43 23.00
1248 63.3100 518.00 560.24 22.00
1249 63.3600 527.00 560.11 22.00
1250 63.4100 543.00 560.04 23.00
1251 63.4600 576.00 560.01 24.00
1252 63.5100 572.00 560.02 23.00
1253 63.5600 572.00 560.07 23.00
1254 63.6100 544.00 560.14 23.00
1255 63.6600 541.00 560.24 23.00
1256 63.7100 591.00 560.36 24.00
1257 63.7600 558.00 560.50 23.00
1258 63.8100 618.00 560.65 24.00
1259 63.8600 591.00 560.83 24.00
1260 63.9100 580.00 561.01 24.00
1261 63.9600 539.00 561.26 23.00
1262 64.0100 521.00 561.47 22.00
1263 64.0600 553.00 561.69 23.00
1264 64.1100 588.00 561.92 24.00
1265 64.1600 549.00 562.16 23.00
1266 64.2100 541.00 562.41 23.00
1267 64.2600 568.00 562.67 23.00
1268 64.3100 572.00 562.93 23.00
1269 64.3600 552.00 563.20 23.00
1270 64.4100 575.00 563.47 23.00
1271 64.4600 567.00 563.76 23.00
1272 64.5100 516.00 564.04 22.00
1273 64.5600 541.00 564.33 23.00
1274 64.6100 525.00 564.63 22.00
1275 64.6600 577.00 564.94 24.00
1276 64.7100 561.00 565.25 23.00
1277 64.7600 598.00 564.52 24.00
1278 64.8100 577.00 564.89 24.00
1279 64.8600 546.00 565.27 23.00
1280 64.9100 554.00 565.67 23.00
1281 64.9600 565.00 566.14 23.00
1282 65.0100 531.00 566.76 23.00
1283 65.0600 567.00 567.71 23.00
1284 65.1100 570.00 569.26 23.00
1285 65.1600 513.00 571.65 22.00
1286 65.2100 563.00 574.93 23.00
1287 65.2600 582.00 578.75 24.00
1288 65.3100 617.00 582.32 24.00
1289 65.3600 581.00 584.59 24.00
1290 65.4100 608.00 584.68 24.00
1291 65.4600 587.00 582.66 24.00
1292 65.5100 605.00 579.49 24.00
1293 65.5600 597.00 576.37 24.00
1294 65.6100 544.00 574.06 23.00
1295 65.6600 533.00 572.75 23.00
1296 65.7100 543.00 572.24 23.00
1297 65.7600 531.00 572.23 23.00
1298 65.8100 557.00 572.50 23.00
1299 65.8600 537.00 572.91 23.00
1300 65.9100 587.00 573.44 24.00
1301 65.9600 585.00 574.14 24.00
1302 66.0100 605.00 575.24 24.00
1303 66.0600 610.00 577.36 24.00
1304 66.1100 558.00 581.61 23.00
1305 66.1600 569.00 589.63 23.00
1306 66.2100 560.00 602.93 23.00
1307 66.2600 587.00 621.64 24.00
1308 66.3100 632.00 643.44 25.00
1309 66.3600 693.00 663.27 26.00
1310 66.4100 732.00 674.47 27.00
1311 66.4600 679.00 671.97 26.00
1312 66.5100 673.00 656.62 25.00
1313 66.5600 646.00 634.85 25.00
1314 66.6100 641.00 613.86 25.00
1315 66.6600 620.00 598.10 24.00
1316 66.7100 584.00 588.41 24.00
1317 66.7600 635.00 583.43 25.00
1318 66.8100 626.00 581.29 25.00
1319 66.8600 616.00 582.65 24.00
1320 66.9100 617.00 582.63 24.00
1321 66.9600 578.00 582.87 24.00
1322 67.0100 593.00 583.20 24.00
1323 67.0600 585.00 583.57 24.00
1324 67.1100 595.00 583.96 24.00
1325 67.1600 607.00 584.37 24.00
1326 67.2100 631.00 584.80 25.00
1327 67.2600 624.00 585.25 24.00
1328 67.3100 593.00 585.71 24.00
1329 67.3600 602.00 586.18 24.00
1330 67.4100 631.00 586.68 25.00
1331 67.4600 598.00 587.18 24.00
1332 67.5100 571.00 587.71 23.00
1333 67.5600 614.00 588.25 24.00
1334 67.6100 601.00 588.81 24.00
1335 67.6600 574.00 589.39 23.00
1336 67.7100 622.00 589.99 24.00
1337 67.7600 607.00 590.62 24.00
1338 67.8100 551.00 591.27 23.00
1339 67.8600 600.00 591.95 24.00
1340 67.9100 635.00 592.65 25.00
1341 67.9600 614.00 593.40 24.00
1342 68.0100 598.00 594.19 24.00
1343 68.0600 605.00 595.02 24.00
1344 68.1100 632.00 595.99 25.00
1345 68.1600 621.00 596.94 24.00
1346 68.2100 616.00 597.96 24.00
1347 68.2600 620.00 599.06 24.00
1348 68.3100 620.00 600.25 24.00
1349 68.3600 600.00 601.56 24.00
1350 68.4100 636.00 603.00 25.00
1351 68.4600 635.00 604.60 25.00
1352 68.5100 632.00 606.40 25.00
1353 68.5600 631.00 608.43 25.00
1354 68.6100 678.00 610.78 26.00
1355 68.6600 671.00 613.53 25.00
1356 68.7100 636.00 616.82 25.00
1357 68.7600 639.00 620.80 25.00
1358 68.8100 670.00 625.76 25.00
1359 68.8600 653.00 632.09 25.00
1360 68.9100 656.00 640.59 25.00
1361 68.9600 653.00 653.18 25.00
1362 69.0100 723.00 674.93 26.00
1363 69.0600 726.00 717.60 26.00
1364 69.1100 816.00 804.62 28.00
1365 69.1600 969.00 973.25 31.00
1366 69.2100 1370.00 1266.54 37.00
1367 69.2600 1950.00 1711.70 44.00
1368 69.3100 2637.00 2290.48 51.00
1369 69.3600 3387.00 2918.64 58.00
1370 69.4100 4022.00 3445.69 63.00
1371 69.4600 4252.00 3686.39 65.00
1372 69.5100 3953.00 3522.96 62.00
1373 69.5600 3207.00 3017.94 56.00
1374 69.6100 2567.00 2363.66 50.00
1375 69.6600 1872.00 1747.05 43.00
1376 69.7100 1368.00 1276.29 36.00
1377 69.7600 981.00 972.19 31.00
1378 69.8100 838.00 801.11 28.00
1379 69.8600 711.00 714.77 26.00
1380 69.9100 647.00 674.16 25.00
1381 69.9600 618.00 655.32 24.00
1382 70.0100 624.00 645.97 24.00
1383 70.0600 660.00 640.72 25.00
1384 70.1100 680.00 637.72 26.00
1385 70.1600 690.00 636.99 26.00
1386 70.2100 705.00 639.96 26.00
1387 70.2600 708.00 649.16 26.00
1388 70.3100 729.00 667.27 27.00
1389 70.3600 747.00 695.10 27.00
1390 70.4100 802.00 729.46 28.00
1391 70.4600 849.00 762.33 29.00
1392 70.5100 864.00 782.33 29.00
1393 70.5600 840.00 779.76 28.00
1394 70.6100 828.00 754.70 28.00
1395 70.6600 785.00 717.57 28.00
1396 70.7100 799.00 680.91 28.00
1397 70.7600 723.00 652.77 26.00
1398 70.8100 628.00 635.00 25.00
1399 70.8600 673.00 625.45 25.00
1400 70.9100 665.00 620.93 25.00
1401 70.9600 650.00 618.97 25.00
1402 71.0100 686.00 618.14 26.00
1403 71.0600 668.00 617.77 25.00
1404 71.1100 635.00 617.93 25.00
1405 71.1600 643.00 617.86 25.00
1406 71.2100 634.00 617.85 25.00
1407 71.2600 642.00 617.88 25.00
1408 71.3100 683.00 617.95 26.00
1409 71.3600 679.00 618.06 26.00
1410 71.4100 666.00 618.19 25.00
1411 71.4600 640.00 618.35 25.00
1412 71.5100 632.00 618.54 25.00
1413 71.5600 643.00 618.74 25.00
1414 71.6100 678.00 618.97 26.00
1415 71.6600 660.00 619.21 25.00
1416 71.7100 635.00 619.46 25.00
1417 71.7600 664.00 619.73 25.00
1418 71.8100 646.00 620.02 25.00
1419 71.8600 624.00 620.31 24.00
1420 71.9100 673.00 620.62 25.00
1421 71.9600 655.00 620.95 25.00
1422 72.0100 666.00 621.28 25.00
1423 72.0600 691.00 621.62 26.00
1424 72.1100 696.00 627.90 26.00
1425 72.1600 720.00 628.68 26.00
1426 72.2100 693.00 629.49 26.00
1427 72.2600 733.00 630.33 27.00
1428 72.3100 711.00 631.21 26.00
1429 72.3600 672.00 632.13 25.00
1430 72.4100 685.00 633.10 26.00
1431 72.4600 674.00 634.11 25.00
1432 72.5100 618.00 635.19 24.00
1433 72.5600 721.00 636.33 26.00
1434 72.6100 746.00 637.55 27.00
1435 72.6600 727.00 638.85 26.00
1436 72.7100 706.00 640.26 26.00
1437 72.7600 705.00 641.78 26.00
1438 72.8100 696.00 643.46 26.00
1439 72.8600 693.00 645.33 26.00
1440 72.9100 702.00 647.43 26.00
1441 72.9600 708.00 649.84 26.00
1442 73.0100 705.00 652.64 26.00
1443 73.0600 708.00 656.34 26.00
1444 73.1100 707.00 661.89 26.00
1445 73.1600 724.00 671.98 26.00
1446 73.2100 738.00 692.46 27.00
1447 73.2600 779.00 733.17 27.00
1448 73.3100 874.00 805.82 29.00
1449 73.3600 958.00 916.95 30.00
1450 73.4100 1023.00 1058.95 31.00
1451 73.4600 1182.00 1204.37 34.00
1452 73.5100 1340.00 1309.17 36.00
1453 73.5600 1329.00 1329.21 36.00
1454 73.6100 1274.00 1253.97 35.00
1455 73.6600 1183.00 1119.63 34.00
1456 73.7100 1016.00 978.58 31.00
1457 73.7600 896.00 868.45 29.00
1458 73.8100 795.00 801.85 28.00
1459 73.8600 751.00 772.92 27.00
1460 73.9100 789.00 769.88 28.00
1461 73.9600 816.00 783.72 28.00
1462 74.0100 785.00 811.47 28.00
1463 74.0600 795.00 859.30 28.00
1464 74.1100 930.00 952.54 30.00
1465 74.1600 1135.00 1159.68 33.00
1466 74.2100 1559.00 1627.22 39.00
1467 74.2600 2410.00 2594.58 49.00
1468 74.3100 4068.00 4330.20 63.00
1469 74.3600 6710.00 6956.47 81.00
1470 74.4100 10172.00 10238.90 100.00
1471 74.4600 13464.00 13474.80 116.00
1472 74.5100 15677.00 15597.60 125.00
1473 74.5600 16095.00 15627.00 126.00
1474 74.6100 14068.00 13476.50 118.00
1475 74.6600 10670.00 10100.90 103.00
1476 74.7100 6716.00 6704.27 81.00
1477 74.7600 3822.00 4072.43 61.00
1478 74.8100 1998.00 2406.18 44.00
1479 74.8600 1226.00 1512.38 35.00
1480 74.9100 944.00 1091.74 30.00
1481 74.9600 841.00 909.88 29.00
1482 75.0100 811.00 831.64 28.00
1483 75.0600 789.00 793.70 28.00
1484 75.1100 838.00 770.78 28.00
1485 75.1600 802.00 754.01 28.00
1486 75.2100 728.00 740.47 26.00
1487 75.2600 746.00 729.16 27.00
1488 75.3100 774.00 719.61 27.00
1489 75.3600 761.00 711.53 27.00
1490 75.4100 708.00 704.69 26.00
1491 75.4600 722.00 698.89 26.00
1492 75.5100 753.00 693.96 27.00
1493 75.5600 715.00 689.74 26.00
1494 75.6100 746.00 686.13 27.00
1495 75.6600 705.00 683.03 26.00
1496 75.7100 675.00 680.35 25.00
1497 75.7600 693.00 678.02 26.00
1498 75.8100 722.00 676.00 26.00
1499 75.8600 670.00 674.24 25.00
1500 75.9100 677.00 672.71 26.00
1501 75.9600 695.00 671.37 26.00
1502 76.0100 685.00 669.86 26.00
1503 76.0600 738.00 669.63 27.00
1504 76.1100 712.00 668.78 26.00
1505 76.1600 683.00 668.04 26.00
1506 76.2100 722.00 667.40 26.00
1507 76.2600 760.00 666.86 27.00
1508 76.3100 670.00 666.39 25.00
1509 76.3600 676.00 666.00 26.00
1510 76.4100 736.00 665.67 27.00
1511 76.4600 726.00 665.41 26.00
1512 76.5100 701.00 665.19 26.00
1513 76.5600 735.00 665.03 27.00
1514 76.6100 686.00 664.92 26.00
1515 76.6600 678.00 664.84 26.00
1516 76.7100 715.00 664.81 26.00
1517 76.7600 681.00 664.82 26.00
1518 76.8100 684.00 664.86 26.00
1519 76.8600 688.00 664.93 26.00
1520 76.9100 662.00 665.04 25.00
1521 76.9600 703.00 665.19 26.00
1522 77.0100 688.00 657.67 26.00
1523 77.0600 673.00 658.18 25.00
1524 77.1100 734.00 658.71 27.00
1525 77.1600 716.00 659.25 26.00
1526 77.2100 675.00 659.82 25.00
1527 77.2600 651.00 660.41 25.00
1528 77.3100 710.00 661.03 26.00
1529 77.3600 713.00 661.69 26.00
1530 77.4100 657.00 662.39 25.00
1531 77.4600 674.00 663.14 25.00
1532 77.5100 706.00 663.96 26.00
1533 77.5600 662.00 664.84 25.00
1534 77.6100 620.00 665.83 24.00
1535 77.6600 718.00 666.94 26.00
1536 77.7100 717.00 668.20 26.00
1537 77.7600 707.00 669.69 26.00
1538 77.8100 699.00 671.46 26.00
1539 77.8600 684.00 673.64 26.00
1540 77.9100 688.00 676.42 26.00
1541 77.9600 646.00 680.26 25.00
1542 78.0100 688.00 686.39 26.00
1543 78.0600 726.00 698.32 26.00
1544 78.1100 765.00 724.62 27.00
1545 78.1600 873.00 782.11 29.00
1546 78.2100 952.00 895.25 30.00
1547 78.2600 1136.00 1086.32 33.00
1548 78.3100 1432.00 1356.19 37.00
1549 78.3600 1692.00 1666.08 41.00
1550 78.4100 1959.00 1933.95 44.00
1551 78.4600 2044.00 2054.46 45.00
1552 78.5100 1922.00 1962.68 43.00
1553 78.5600 1753.00 1700.27 41.00
1554 78.6100 1392.00 1378.35 37.00
1555 78.6600 1145.00 1095.42 33.00
1556 78.7100 902.00 897.95 30.00
1557 78.7600 748.00 783.41 27.00
1558 78.8100 721.00 726.35 26.00
1559 78.8600 665.00 700.97 25.00
1560 78.9100 706.00 690.28 26.00
1561 78.9600 752.00 685.55 27.00
1562 79.0100 717.00 684.27 26.00
1563 79.0600 693.00 682.72 26.00
1564 79.1100 661.00 681.59 25.00
1565 79.1600 704.00 680.73 26.00
1566 79.2100 687.00 680.07 26.00
1567 79.2600 654.00 679.57 25.00
1568 79.3100 714.00 679.21 26.00
1569 79.3600 662.00 678.97 25.00
1570 79.4100 724.00 678.83 26.00
1571 79.4600 688.00 678.77 26.00
1572 79.5100 649.00 678.78 25.00
1573 79.5600 686.00 678.86 26.00
1574 79.6100 686.00 678.98 26.00
1575 79.6600 714.00 679.16 26.00
1576 79.7100 680.00 679.38 26.00
1577 79.7600 724.00 680.60 26.00
1578 79.8100 689.00 680.93 26.00
1579 79.8600 681.00 681.30 26.00
1580 79.9100 686.00 681.71 26.00
1581 79.9600 648.00 682.16 25.00
1582 80.0100 675.00 682.65 25.00
1583 80.0600 735.00 683.18 27.00
1584 80.1100 726.00 683.76 26.00
1585 80.1600 714.00 684.38 26.00
1586 80.2100 710.00 685.07 26.00
1587 80.2600 706.00 685.81 26.00
1588 80.3100 710.00 686.63 26.00
1589 80.3600 709.00 687.53 26.00
1590 80.4100 733.00 688.53 27.00
1591 80.4600 748.00 689.65 27.00
1592 80.5100 721.00 690.92 26.00
1593 80.5600 709.00 692.37 26.00
1594 80.6100 741.00 694.06 27.00
1595 80.6600 750.00 696.06 27.00
1596 80.7100 721.00 698.47 26.00
1597 80.7600 681.00 701.46 26.00
1598 80.8100 691.00 705.26 26.00
1599 80.8600 671.00 710.40 25.00
1600 80.9100 711.00 717.47 26.00
1601 80.9600 735.00 731.94 27.00
1602 81.0100 723.00 762.99 26.00
1603 81.0600 836.00 831.46 28.00
1604 81.1100 1033.00 970.29 32.00
1605 81.1600 1279.00 1214.12 35.00
1606 81.2100 1664.00 1573.69 40.00
1607 81.2600 2138.00 2007.84 46.00
1608 81.3100 2591.00 2410.82 50.00
1609 81.3600 2826.00 2632.63 53.00
1610 81.4100 2781.00 2558.52 52.00
1611 81.4600 2391.00 2220.17 48.00
1612 81.5100 1859.00 1769.64 43.00
1613 81.5600 1385.00 1356.52 37.00
1614 81.6100 1039.00 1059.73 32.00
1615 81.6600 825.00 884.53 28.00
1616 81.7100 754.00 797.40 27.00
1617 81.7600 760.00 760.92 27.00
1618 81.8100 765.00 750.21 27.00
1619 81.8600 774.00 754.43 27.00
1620 81.9100 756.00 774.05 27.00
1621 81.9600 853.00 818.44 29.00
1622 82.0100 928.00 902.72 30.00
1623 82.0600 970.00 1040.73 31.00
1624 82.1100 1105.00 1233.64 33.00
1625 82.1600 1256.00 1459.13 35.00
1626 82.2100 1483.00 1666.31 38.00
1627 82.2600 1527.00 1781.80 39.00
1628 82.3100 1598.00 1746.56 39.00
1629 82.3600 1526.00 1574.34 39.00
1630 82.4100 1297.00 1339.63 36.00
1631 82.4600 1096.00 1116.00 33.00
1632 82.5100 919.00 944.94 30.00
1633 82.5600 816.00 834.70 28.00
1634 82.6100 816.00 772.86 28.00
1635 82.6600 747.00 741.55 27.00
1636 82.7100 717.00 726.50 26.00
1637 82.7600 683.00 719.08 26.00
1638 82.8100 700.00 714.96 26.00
1639 82.8600 719.00 712.26 26.00
1640 82.9100 713.00 710.25 26.00
1641 82.9600 736.00 708.65 27.00
1642 83.0100 737.00 707.34 27.00
1643 83.0600 727.00 706.25 26.00
1644 83.1100 690.00 705.36 26.00
1645 83.1600 694.00 704.63 26.00
1646 83.2100 665.00 704.03 25.00
1647 83.2600 693.00 703.54 26.00
1648 83.3100 718.00 703.15 26.00
1649 83.3600 739.00 702.84 27.00
1650 83.4100 670.00 702.60 25.00
1651 83.4600 667.00 702.41 25.00
1652 83.5100 688.00 702.28 26.00
1653 83.5600 705.00 702.18 26.00
1654 83.6100 707.00 702.12 26.00
1655 83.6600 670.00 702.09 25.00
1656 83.7100 644.00 702.09 25.00
1657 83.7600 642.00 702.12 25.00
1658 83.8100 679.00 701.03 26.00
1659 83.8600 701.00 701.14 26.00
1660 83.9100 665.00 701.26 25.00
1661 83.9600 634.00 701.39 25.00
1662 84.0100 697.00 701.53 26.00
1663 84.0600 697.00 701.69 26.00
1664 84.1100 688.00 701.84 26.00
1665 84.1600 700.00 702.01 26.00
1666 84.2100 702.00 702.18 26.00
1667 84.2600 722.00 702.36 26.00
1668 84.3100 688.00 702.55 26.00
1669 84.3600 680.00 702.73 26.00
1670 84.4100 675.00 702.92 25.00
1671 84.4600 718.00 703.12 26.00
1672 84.5100 737.00 703.32 27.00
1673 84.5600 711.00 703.52 26.00
1674 84.6100 689.00 703.72 26.00
1675 84.6600 695.00 703.93 26.00
1676 84.7100 671.00 704.14 25.00
1677 84.7600 660.00 704.35 25.00
1678 84.8100 699.00 704.56 26.00
1679 84.8600 707.00 703.86 26.00
1680 84.9100 715.00 704.11 26.00
1681 84.9600 685.00 704.36 26.00
1682 85.0100 702.00 704.60 26.00
1683 85.0600 677.00 704.85 26.00
1684 85.1100 674.00 705.09 25.00
1685 85.1600 693.00 705.34 26.00
1686 85.2100 675.00 705.58 25.00
1687 85.2600 705.00 705.83 26.00
1688 85.3100 692.00 706.07 26.00
1689 85.3600 681.00 706.31 26.00
1690 85.4100 697.00 706.55 26.00
1691 85.4600 719.00 706.79 26.00
1692 85.5100 716.00 707.03 26.00
1693 85.5600 685.00 707.28 26.00
1694 85.6100 693.00 707.52 26.00
1695 85.6600 690.00 707.76 26.00
1696 85.7100 665.00 708.00 25.00
1697 85.7600 651.00 708.24 25.00
1698 85.8100 660.00 708.51 25.00
1699 85.8600 691.00 708.80 26.00
1700 85.9100 658.00 709.15 25.00
1701 85.9600 709.00 709.60 26.00
1702 86.0100 737.00 710.16 27.00
1703 86.0600 722.00 710.81 26.00
1704 86.1100 718.00 711.43 26.00
1705 86.1600 694.00 711.89 26.00
1706 86.2100 677.00 712.06 26.00
1707 86.2600 705.00 711.97 26.00
1708 86.3100 663.00 711.76 25.00
1709 86.3600 707.00 711.59 26.00
1710 86.4100 697.00 711.52 26.00
1711 86.4600 686.00 711.57 26.00
1712 86.5100 715.00 711.71 26.00
1713 86.5600 705.00 711.89 26.00
1714 86.6100 731.00 712.09 27.00
1715 86.6600 722.00 712.30 26.00
1716 86.7100 670.00 715.72 25.00
1717 86.7600 746.00 716.07 27.00
1718 86.8100 734.00 716.44 27.00
1719 86.8600 699.00 716.81 26.00
1720 86.9100 693.00 717.20 26.00
1721 86.9600 719.00 717.59 26.00
1722 87.0100 701.00 718.01 26.00
1723 87.0600 706.00 718.43 26.00
1724 87.1100 769.00 718.87 27.00
1725 87.1600 704.00 719.33 26.00
1726 87.2100 747.00 719.81 27.00
1727 87.2600 744.00 720.31 27.00
1728 87.3100 725.00 720.84 26.00
1729 87.3600 661.00 721.39 25.00
1730 87.4100 710.00 721.97 26.00
1731 87.4600 682.00 722.59 26.00
1732 87.5100 656.00 723.25 25.00
1733 87.5600 688.00 723.95 26.00
1734 87.6100 718.00 724.71 26.00
1735 87.6600 738.00 725.52 27.00
1736 87.7100 738.00 726.40 27.00
1737 87.7600 725.00 727.36 26.00
1738 87.8100 687.00 728.41 26.00
1739 87.8600 685.00 729.57 26.00
1740 87.9100 765.00 730.86 27.00
1741 87.9600 699.00 732.29 26.00
1742 88.0100 695.00 733.91 26.00
1743 88.0600 724.00 735.73 26.00
1744 88.1100 719.00 737.82 26.00
1745 88.1600 668.00 740.23 25.00
1746 88.2100 692.00 743.04 26.00
1747 88.2600 718.00 746.37 26.00
1748 88.3100 699.00 750.38 26.00
1749 88.3600 704.00 755.30 26.00
1750 88.4100 722.00 761.44 26.00
1751 88.4600 762.00 769.31 27.00
1752 88.5100 745.00 779.76 27.00
1753 88.5600 762.00 794.71 27.00
1754 88.6100 786.00 819.48 28.00
1755 88.6600 842.00 868.76 29.00
1756 88.7100 1035.00 977.17 32.00
1757 88.7600 1282.00 1209.23 35.00
1758 88.8100 1783.00 1651.31 42.00
1759 88.8600 2537.00 2367.07 50.00
1760 88.9100 3426.00 3325.55 58.00
1761 88.9600 4540.00 4343.24 67.00
1762 89.0100 5058.00 5087.72 71.00
1763 89.0600 5069.00 5200.20 71.00
1764 89.1100 4518.00 4598.71 67.00
1765 89.1600 3644.00 3585.73 60.00
1766 89.2100 2627.00 2556.28 51.00
1767 89.2600 1699.00 1761.22 41.00
1768 89.3100 1158.00 1262.28 34.00
1769 89.3600 912.00 997.68 30.00
1770 89.4100 784.00 874.09 28.00
1771 89.4600 740.00 819.99 27.00
1772 89.5100 766.00 795.36 27.00
1773 89.5600 787.00 782.14 28.00
1774 89.6100 737.00 773.40 27.00
1775 89.6600 677.00 766.76 26.00
1776 89.7100 696.00 761.40 26.00
1777 89.7600 727.00 756.97 26.00
1778 89.8100 709.00 753.27 26.00
1779 89.8600 687.00 750.18 26.00
1780 89.9100 737.00 747.59 27.00
1781 89.9600 685.00 745.41 26.00
1782 90.0100 738.00 743.56 27.00
1783 90.0600 773.00 742.00 27.00
1784 90.1100 770.00 740.66 27.00
1785 90.1600 735.00 739.52 27.00
1786 90.2100 696.00 738.54 26.00
1787 90.2600 662.00 737.69 25.00
1788 90.3100 669.00 736.95 25.00
1789 90.3600 688.00 736.32 26.00
1790 90.4100 727.00 735.77 26.00
1791 90.4600 762.00 735.29 27.00
1792 90.5100 741.00 734.87 27.00
1793 90.5600 694.00 734.51 26.00
1794 90.6100 697.00 734.20 26.00
1795 90.6600 719.00 733.92 26.00
1796 90.7100 702.00 733.69 26.00
1797 90.7600 679.00 733.48 26.00
1798 90.8100 716.00 733.31 26.00
1799 90.8600 685.00 733.16 26.00
1800 90.9100 649.00 733.04 25.00
1801 90.9600 677.00 732.93 26.00
1802 91.0100 758.00 732.85 27.00
1803 91.0600 679.00 732.78 26.00
1804 91.1100 712.00 732.73 26.00
1805 91.1600 671.00 732.69 25.00
1806 91.2100 670.00 732.66 25.00
1807 91.2600 672.00 732.64 25.00
1808 91.3100 679.00 732.64 26.00
1809 91.3600 699.00 732.64 26.00
1810 91.4100 685.00 729.53 26.00
1811 91.4600 661.00 729.67 25.00
1812 91.5100 671.00 730.11 25.00
1813 91.5600 719.00 730.27 26.00
1814 91.6100 714.00 730.43 26.00
1815 91.6600 706.00 730.59 26.00
1816 91.7100 749.00 730.75 27.00
1817 91.7600 683.00 730.91 26.00
1818 91.8100 674.00 731.07 25.00
1819 91.8600 688.00 731.22 26.00
1820 91.9100 696.00 731.39 26.00
1821 91.9600 742.00 731.55 27.00
1822 92.0100 697.00 731.71 26.00
1823 92.0600 681.00 731.88 26.00
1824 92.1100 686.00 732.04 26.00
1825 92.1600 756.00 732.21 27.00
1826 92.2100 733.00 734.21 27.00
1827 92.2600 699.00 734.45 26.00
1828 92.3100 689.00 734.71 26.00
1829 92.3600 759.00 734.98 27.00
1830 92.4100 729.00 735.25 27.00
1831 92.4600 721.00 735.54 26.00
1832 92.5100 750.00 735.84 27.00
1833 92.5600 716.00 736.16 26.00
1834 92.6100 650.00 736.49 25.00
1835 92.6600 675.00 736.84 25.00
1836 92.7100 709.00 737.21 26.00
1837 92.7600 766.00 737.60 27.00
1838 92.8100 709.00 738.03 26.00
1839 92.8600 697.00 738.49 26.00
1840 92.9100 690.00 738.99 26.00
1841 92.9600 748.00 739.54 27.00
1842 93.0100 727.00 740.14 26.00
1843 93.0600 697.00 740.82 26.00
1844 93.1100 698.00 741.59 26.00
1845 93.1600 704.00 742.48 26.00
1846 93.2100 706.00 743.53 26.00
1847 93.2600 727.00 744.80 26.00
1848 93.3100 723.00 746.39 26.00
1849 93.3600 723.00 748.55 26.00
1850 93.4100 756.00 752.00 27.00
1851 93.4600 735.00 758.57 27.00
1852 93.5100 718.00 772.23 26.00
1853 93.5600 737.00 799.51 27.00
1854 93.6100 793.00 847.65 28.00
1855 93.6600 876.00 919.42 29.00
1856 93.7100 901.00 1006.84 30.00
1857 93.7600 1069.00 1087.94 32.00
1858 93.8100 1077.00 1130.29 32.00
1859 93.8600 1144.00 1110.48 33.00
1860 93.9100 1027.00 1039.67 32.00
1861 93.9600 960.00 952.10 30.00
1862 94.0100 854.00 876.80 29.00
1863 94.0600 852.00 826.68 29.00
1864 94.1100 843.00 800.77 29.00
1865 94.1600 802.00 792.10 28.00
1866 94.2100 784.00 794.57 28.00
1867 94.2600 805.00 806.38 28.00
1868 94.3100 800.00 831.66 28.00
1869 94.3600 800.00 882.25 28.00
1870 94.4100 893.00 980.02 29.00
1871 94.4600 1033.00 1144.37 32.00
1872 94.5100 1232.00 1391.24 35.00
1873 94.5600 1479.00 1708.19 38.00
1874 94.6100 1775.00 2042.48 42.00
1875 94.6600 2027.00 2296.43 45.00
1876 94.7100 2077.00 2354.38 45.00
1877 94.7600 1998.00 2178.37 44.00
1878 94.8100 1755.00 1856.23 41.00
1879 94.8600 1473.00 1510.42 38.00
1880 94.9100 1244.00 1222.86 35.00
1881 94.9600 1062.00 1023.43 32.00
1882 95.0100 925.00 903.80 30.00
1883 95.0600 869.00 839.65 29.00
1884 95.1100 833.00 807.43 28.00
1885 95.1600 760.00 791.19 27.00
1886 95.2100 674.00 782.26 25.00
1887 95.2600 773.00 776.62 27.00
1888 95.3100 799.00 772.59 28.00
1889 95.3600 780.00 769.53 27.00
1890 95.4100 770.00 767.10 27.00
1891 95.4600 783.00 765.20 27.00
1892 95.5100 770.00 763.74 27.00
1893 95.5600 746.00 762.67 27.00
1894 95.6100 765.00 761.95 27.00
1895 95.6600 739.00 761.55 27.00
1896 95.7100 734.00 761.45 27.00
1897 95.7600 702.00 761.66 26.00
1898 95.8100 686.00 762.17 26.00
1899 95.8600 734.00 763.03 27.00
1900 95.9100 752.00 764.28 27.00
1901 95.9600 768.00 765.99 27.00
1902 96.0100 741.00 768.29 27.00
1903 96.0600 772.00 771.34 27.00
1904 96.1100 755.00 775.40 27.00
1905 96.1600 737.00 780.92 27.00
1906 96.2100 758.00 788.54 27.00
1907 96.2600 796.00 801.26 28.00
1908 96.3100 816.00 825.53 28.00
1909 96.3600 899.00 877.69 29.00
1910 96.4100 1052.00 989.45 32.00
1911 96.4600 1289.00 1205.58 35.00
1912 96.5100 1574.00 1563.17 39.00
1913 96.5600 2016.00 2053.51 44.00
1914 96.6100 2405.00 2587.97 49.00
1915 96.6600 2795.00 2992.55 52.00
1916 96.7100 2846.00 3067.39 53.00
1917 96.7600 2731.00 2758.96 52.00
1918 96.8100 2261.00 2231.27 47.00
1919 96.8600 1665.00 1696.59 40.00
1920 96.9100 1235.00 1285.62 35.00
1921 96.9600 976.00 1028.83 31.00
1922 97.0100 843.00 892.87 29.00
1923 97.0600 740.00 829.12 27.00
1924 97.1100 737.00 800.71 27.00
1925 97.1600 745.00 787.25 27.00
1926 97.2100 727.00 779.69 26.00
1927 97.2600 742.00 772.93 27.00
1928 97.3100 769.00 769.42 27.00
1929 97.3600 757.00 767.26 27.00
1930 97.4100 695.00 766.75 26.00
1931 97.4600 740.00 768.25 27.00
1932 97.5100 741.00 771.75 27.00
1933 97.5600 699.00 776.41 26.00
1934 97.6100 711.00 780.39 26.00
1935 97.6600 761.00 781.24 27.00
1936 97.7100 798.00 777.70 28.00
1937 97.7600 757.00 771.16 27.00
1938 97.8100 707.00 764.12 26.00
1939 97.8600 767.00 758.36 27.00
1940 97.9100 778.00 754.47 27.00
1941 97.9600 749.00 752.18 27.00
1942 98.0100 780.00 750.90 27.00
1943 98.0600 773.00 750.16 27.00
1944 98.1100 826.00 749.68 28.00
1945 98.1600 792.00 749.32 28.00
1946 98.2100 771.00 749.03 27.00
1947 98.2600 739.00 748.78 27.00
1948 98.3100 737.00 748.56 27.00
1949 98.3600 751.00 748.38 27.00
1950 98.4100 757.00 748.22 27.00
1951 98.4600 744.00 748.08 27.00
1952 98.5100 776.00 747.96 27.00
1953 98.5600 787.00 747.86 28.00
1954 98.6100 722.00 747.78 26.00
1955 98.6600 727.00 747.70 26.00
1956 98.7100 738.00 747.64 27.00
1957 98.7600 741.00 747.59 27.00
1958 98.8100 778.00 747.55 27.00
1959 98.8600 756.00 747.51 27.00
1960 98.9100 789.00 747.49 28.00
1961 98.9600 763.00 747.47 27.00
1962 99.0100 719.00 747.45 26.00
1963 99.0600 728.00 745.61 26.00
1964 99.1100 791.00 745.69 28.00
1965 99.1600 749.00 745.76 27.00
1966 99.2100 737.00 745.86 27.00
1967 99.2600 738.00 745.93 27.00
1968 99.3100 765.00 746.01 27.00
1969 99.3600 732.00 746.08 27.00
1970 99.4100 774.00 746.16 27.00
1971 99.4600 753.00 746.23 27.00
1972 99.5100 780.00 746.31 27.00
1973 99.5600 728.00 746.38 26.00
1974 99.6100 745.00 746.46 27.00
1975 99.6600 713.00 746.53 26.00
1976 99.7100 772.00 746.61 27.00
1977 99.7600 721.00 746.69 26.00
1978 99.8100 796.00 746.76 28.00
1979 99.8600 749.00 746.84 27.00
1980 99.9100 778.00 746.92 27.00
1981 99.9600 807.00 746.99 28.00
1982 100.0100 767.00 747.05 27.00
1983 100.0600 797.00 747.13 28.00
1984 100.1100 786.00 747.21 28.00
1985 100.1600 781.00 747.29 27.00
1986 100.2100 748.00 747.36 27.00
1987 100.2600 778.00 747.45 27.00
1988 100.3100 804.00 747.53 28.00
1989 100.3600 718.00 747.61 26.00
1990 100.4100 772.00 747.69 27.00
1991 100.4600 827.00 747.78 28.00
1992 100.5100 806.00 747.86 28.00
1993 100.5600 756.00 747.95 27.00
1994 100.6100 771.00 748.04 27.00
1995 100.6600 730.00 748.13 27.00
1996 100.7100 796.00 748.23 28.00
1997 100.7600 775.00 748.33 27.00
1998 100.8100 824.00 748.44 28.00
1999 100.8600 790.00 748.55 28.00
2000 100.9100 742.00 748.68 27.00
2001 100.9600 750.00 748.82 27.00
2002 101.0100 795.00 748.98 28.00
2003 101.0600 769.00 749.19 27.00
2004 101.1100 735.00 749.47 27.00
2005 101.1600 774.00 749.95 27.00
2006 101.2100 793.00 750.90 28.00
2007 101.2600 796.00 752.78 28.00
2008 101.3100 788.00 756.21 28.00
2009 101.3600 778.00 761.56 27.00
2010 101.4100 793.00 768.48 28.00
2011 101.4600 827.00 775.45 28.00
2012 101.5100 826.00 779.89 28.00
2013 101.5600 811.00 779.35 28.00
2014 101.6100 786.00 774.10 28.00
2015 101.6600 768.00 766.87 27.00
2016 101.7100 772.00 760.26 27.00
2017 101.7600 766.00 755.54 27.00
2018 101.8100 701.00 752.78 26.00
2019 101.8600 755.00 751.41 27.00
2020 101.9100 790.00 750.81 28.00
2021 101.9600 811.00 750.58 28.00
2022 102.0100 761.00 750.50 27.00
2023 102.0600 762.00 750.47 27.00
2024 102.1100 769.00 750.48 27.00
2025 102.1600 745.00 751.26 27.00
2026 102.2100 752.00 751.33 27.00
2027 102.2600 712.00 751.40 26.00
2028 102.3100 777.00 751.48 27.00
2029 102.3600 783.00 751.57 27.00
2030 102.4100 737.00 751.67 27.00
2031 102.4600 748.00 751.77 27.00
2032 102.5100 728.00 751.88 26.00
2033 102.5600 720.00 752.00 26.00
2034 102.6100 723.00 752.12 26.00
2035 102.6600 762.00 752.25 27.00
2036 102.7100 786.00 752.39 28.00
2037 102.7600 734.00 752.53 27.00
2038 102.8100 757.00 752.68 27.00
2039 102.8600 741.00 752.84 27.00
2040 102.9100 756.00 753.02 27.00
2041 102.9600 744.00 753.20 27.00
2042 103.0100 754.00 753.39 27.00
2043 103.0600 773.00 753.60 27.00
2044 103.1100 736.00 753.82 27.00
2045 103.1600 754.00 759.84 27.00
2046 103.2100 785.00 760.37 28.00
2047 103.2600 787.00 760.93 28.00
2048 103.3100 771.00 761.54 27.00
2049 103.3600 804.00 762.20 28.00
2050 103.4100 792.00 762.93 28.00
2051 103.4600 782.00 763.73 27.00
2052 103.5100 792.00 764.61 28.00
2053 103.5600 758.00 765.59 27.00
2054 103.6100 777.00 766.69 27.00
2055 103.6600 752.00 767.94 27.00
2056 103.7100 823.00 769.36 28.00
2057 103.7600 749.00 771.02 27.00
2058 103.8100 784.00 772.96 28.00
2059 103.8600 744.00 775.26 27.00
2060 103.9100 730.00 778.11 27.00
2061 103.9600 751.00 781.73 27.00
2062 104.0100 778.00 786.65 27.00
2063 104.0600 806.00 794.29 28.00
2064 104.1100 845.00 808.34 29.00
2065 104.1600 868.00 836.83 29.00
2066 104.2100 918.00 893.29 30.00
2067 104.2600 1059.00 993.39 32.00
2068 104.3100 1189.00 1144.31 34.00
2069 104.3600 1383.00 1330.96 37.00
2070 104.4100 1537.00 1507.19 39.00
2071 104.4600 1660.00 1600.62 40.00
2072 104.5100 1553.00 1556.85 39.00
2073 104.5600 1458.00 1402.23 38.00
2074 104.6100 1313.00 1213.78 36.00
2075 104.6600 1086.00 1053.58 32.00
2076 104.7100 924.00 946.25 30.00
2077 104.7600 862.00 888.96 29.00
2078 104.8100 777.00 866.21 27.00
2079 104.8600 788.00 863.54 28.00
2080 104.9100 818.00 872.48 28.00
2081 104.9600 835.00 890.38 28.00
2082 105.0100 863.00 920.21 29.00
2083 105.0600 972.00 974.40 31.00
2084 105.1100 1099.00 1085.60 33.00
2085 105.1600 1417.00 1321.78 37.00
2086 105.2100 1989.00 1788.98 44.00
2087 105.2600 2924.00 2594.99 54.00
2088 105.3100 3910.00 3762.08 62.00
2089 105.3600 5287.00 5129.42 72.00
2090 105.4100 6057.00 6304.62 77.00
2091 105.4600 6258.00 6743.94 79.00
2092 105.5100 5983.00 6163.03 77.00
2093 105.5600 4927.00 4892.58 70.00
2094 105.6100 3677.00 3500.58 60.00
2095 105.6600 2523.00 2373.45 50.00
2096 105.7100 1784.00 1635.97 42.00
2097 105.7600 1349.00 1228.56 36.00
2098 105.8100 1052.00 1029.97 32.00
2099 105.8600 944.00 938.46 30.00
2100 105.9100 860.00 894.12 29.00
2101 105.9600 811.00 868.97 28.00
2102 106.0100 828.00 851.92 28.00
2103 106.0600 815.00 838.96 28.00
2104 106.1100 821.00 828.60 28.00
2105 106.1600 836.00 820.13 28.00
2106 106.2100 776.00 813.17 27.00
2107 106.2600 768.00 807.41 27.00
2108 106.3100 832.00 802.65 28.00
2109 106.3600 775.00 798.72 27.00
2110 106.4100 771.00 795.48 27.00
2111 106.4600 778.00 792.83 27.00
2112 106.5100 786.00 790.70 28.00
2113 106.5600 824.00 789.03 28.00
2114 106.6100 792.00 787.81 28.00
2115 106.6600 732.00 787.03 27.00
2116 106.7100 733.00 786.71 27.00
2117 106.7600 766.00 786.92 27.00
2118 106.8100 813.00 787.09 28.00
2119 106.8600 796.00 789.12 28.00
2120 106.9100 839.00 793.11 28.00
2121 106.9600 831.00 800.91 28.00
2122 107.0100 892.00 815.73 29.00
2123 107.0600 936.00 842.05 30.00
2124 107.1100 933.00 884.45 30.00
2125 107.1600 1073.00 946.45 32.00
2126 107.2100 1255.00 1021.60 35.00
2127 107.2600 1458.00 1099.41 38.00
2128 107.3100 1574.00 1158.35 39.00
2129 107.3600 1599.00 1172.87 39.00
2130 107.4100 1448.00 1134.09 38.00
2131 107.4600 1281.00 1060.55 35.00
2132 107.5100 1126.00 978.98 33.00
2133 107.5600 1013.00 907.96 31.00
2134 107.6100 951.00 855.44 30.00
2135 107.6600 935.00 821.34 30.00
2136 107.7100 889.00 801.37 29.00
2137 107.7600 833.00 790.43 28.00
2138 107.8100 699.00 779.01 26.00
2139 107.8600 747.00 775.92 27.00
2140 107.9100 815.00 774.07 28.00
2141 107.9600 760.00 772.86 27.00
2142 108.0100 756.00 772.01 27.00
2143 108.0600 769.00 771.41 27.00
2144 108.1100 723.00 771.00 26.00
2145 108.1600 783.00 770.75 27.00
2146 108.2100 767.00 770.64 27.00
2147 108.2600 772.00 770.66 27.00
2148 108.3100 825.00 770.81 28.00
2149 108.3600 849.00 771.08 29.00
2150 108.4100 823.00 771.47 28.00
2151 108.4600 750.00 771.99 27.00
2152 108.5100 803.00 772.66 28.00
2153 108.5600 805.00 773.49 28.00
2154 108.6100 868.00 774.52 29.00
2155 108.6600 785.00 775.77 28.00
2156 108.7100 794.00 777.31 28.00
2157 108.7600 781.00 779.22 27.00
2158 108.8100 774.00 781.62 27.00
2159 108.8600 784.00 784.67 28.00
2160 108.9100 833.00 788.65 28.00
2161 108.9600 846.00 794.02 29.00
2162 109.0100 865.00 801.92 29.00
2163 109.0600 805.00 815.33 28.00
2164 109.1100 853.00 841.66 29.00
2165 109.1600 969.00 896.18 31.00
2166 109.2100 1043.00 1002.95 32.00
2167 109.2600 1170.00 1186.98 34.00
2168 109.3100 1418.00 1455.15 37.00
2169 109.3600 1703.00 1773.53 41.00
2170 109.4100 1873.00 2054.52 43.00
2171 109.4600 2095.00 2171.06 45.00
2172 109.5100 1950.00 2048.76 44.00
2173 109.5600 1634.00 1758.34 40.00
2174 109.6100 1458.00 1432.78 38.00
2175 109.6600 1175.00 1164.55 34.00
2176 109.7100 1004.00 985.82 31.00
2177 109.7600 956.00 885.13 30.00
2178 109.8100 851.00 835.07 29.00
2179 109.8600 766.00 811.61 27.00
2180 109.9100 810.00 800.14 28.00
2181 109.9600 786.00 793.64 28.00
2182 110.0100 806.00 789.28 28.00
2183 110.0600 761.00 785.48 27.00
2184 110.1100 746.00 782.89 27.00
2185 110.1600 819.00 780.79 28.00
2186 110.2100 785.00 780.41 28.00
2187 110.2600 784.00 779.05 28.00
2188 110.3100 823.00 777.94 28.00
2189 110.3600 782.00 777.04 27.00
2190 110.4100 759.00 776.30 27.00
2191 110.4600 801.00 775.70 28.00
2192 110.5100 789.00 775.22 28.00
2193 110.5600 791.00 774.84 28.00
2194 110.6100 817.00 774.54 28.00
2195 110.6600 756.00 774.32 27.00
2196 110.7100 759.00 774.16 27.00
2197 110.7600 782.00 774.05 27.00
2198 110.8100 777.00 774.00 27.00
2199 110.8600 812.00 773.99 28.00
2200 110.9100 756.00 774.03 27.00
2201 110.9600 763.00 774.10 27.00
2202 111.0100 788.00 774.22 28.00
2203 111.0600 771.00 774.38 27.00
2204 111.1100 756.00 774.58 27.00
2205 111.1600 813.00 774.82 28.00
2206 111.2100 810.00 775.31 28.00
2207 111.2600 797.00 775.65 28.00
2208 111.3100 807.00 776.04 28.00
2209 111.3600 798.00 776.49 28.00
2210 111.4100 800.00 777.01 28.00
2211 111.4600 829.00 777.60 28.00
2212 111.5100 862.00 778.28 29.00
2213 111.5600 799.00 779.07 28.00
2214 111.6100 781.00 779.97 27.00
2215 111.6600 742.00 781.03 27.00
2216 111.7100 776.00 782.27 27.00
2217 111.7600 802.00 783.74 28.00
2218 111.8100 773.00 784.11 27.00
2219 111.8600 796.00 786.35 28.00
2220 111.9100 827.00 789.12 28.00
2221 111.9600 789.00 792.63 28.00
2222 112.0100 806.00 797.23 28.00
2223 112.0600 816.00 803.69 28.00
2224 112.1100 787.00 813.94 28.00
2225 112.1600 823.00 832.89 28.00
2226 112.2100 880.00 871.19 29.00
2227 112.2600 970.00 947.12 31.00
2228 112.3100 1170.00 1082.82 34.00
2229 112.3600 1447.00 1291.07 38.00
2230 112.4100 1684.00 1556.53 41.00
2231 112.4600 1949.00 1820.52 44.00
2232 112.5100 2115.00 1981.59 45.00
2233 112.5600 2050.00 1946.89 45.00
2234 112.6100 1877.00 1734.81 43.00
2235 112.6600 1561.00 1454.27 39.00
2236 112.7100 1349.00 1200.74 36.00
2237 112.7600 1061.00 1018.63 32.00
2238 112.8100 916.00 909.24 30.00
2239 112.8600 826.00 852.14 28.00
2240 112.9100 877.00 824.86 29.00
2241 112.9600 824.00 811.98 28.00
2242 113.0100 809.00 805.40 28.00
2243 113.0600 844.00 801.61 29.00
2244 113.1100 754.00 799.41 27.00
2245 113.1600 781.00 798.64 27.00
2246 113.2100 797.00 800.01 28.00
2247 113.2600 778.00 805.29 27.00
2248 113.3100 693.00 817.34 26.00
2249 113.3600 785.00 839.26 28.00
2250 113.4100 865.00 872.07 29.00
2251 113.4600 900.00 911.91 30.00
2252 113.5100 937.00 948.28 30.00
2253 113.5600 910.00 965.14 30.00
2254 113.6100 943.00 951.68 30.00
2255 113.6600 932.00 915.45 30.00
2256 113.7100 847.00 873.30 29.00
2257 113.7600 854.00 837.56 29.00
2258 113.8100 887.00 812.99 29.00
2259 113.8600 768.00 798.67 27.00
2260 113.9100 816.00 791.29 28.00
2261 113.9600 807.00 787.71 28.00
2262 114.0100 767.00 785.92 27.00
2263 114.0600 740.00 784.91 27.00
2264 114.1100 787.00 784.24 28.00
2265 114.1600 787.00 783.76 28.00
2266 114.2100 797.00 783.40 28.00
2267 114.2600 797.00 783.11 28.00
2268 114.3100 799.00 782.90 28.00
2269 114.3600 818.00 782.74 28.00
2270 114.4100 760.00 782.63 27.00
2271 114.4600 766.00 782.56 27.00
2272 114.5100 756.00 782.51 27.00
2273 114.5600 786.00 782.50 28.00
2274 114.6100 871.00 782.50 29.00
2275 114.6600 838.00 782.53 28.00
2276 114.7100 805.00 782.57 28.00
2277 114.7600 784.00 782.63 28.00
2278 114.8100 814.00 782.70 28.00
2279 114.8600 772.00 782.78 27.00
2280 114.9100 757.00 781.60 27.00
2281 114.9600 832.00 781.75 28.00
2282 115.0100 801.00 781.91 28.00
2283 115.0600 741.00 782.07 27.00
2284 115.1100 759.00 782.23 27.00
2285 115.1600 752.00 782.40 27.00
2286 115.2100 789.00 782.58 28.00
2287 115.2600 763.00 782.75 27.00
2288 115.3100 759.00 782.93 27.00
2289 115.3600 730.00 783.11 27.00
2290 115.4100 757.00 783.53 27.00
2291 115.4600 744.00 783.72 27.00
2292 115.5100 795.00 783.92 28.00
2293 115.5600 770.00 784.12 27.00
2294 115.6100 783.00 784.32 27.00
2295 115.6600 818.00 784.52 28.00
2296 115.7100 794.00 784.73 28.00
2297 115.7600 786.00 784.94 28.00
2298 115.8100 768.00 785.15 27.00
2299 115.8600 800.00 785.36 28.00
2300 115.9100 841.00 785.58 29.00
2301 115.9600 760.00 785.61 27.00
2302 116.0100 796.00 785.84 28.00
2303 116.0600 831.00 786.07 28.00
2304 116.1100 807.00 786.30 28.00
2305 116.1600 805.00 786.54 28.00
2306 116.2100 807.00 786.78 28.00
2307 116.2600 765.00 787.03 27.00
2308 116.3100 795.00 787.28 28.00
2309 116.3600 816.00 787.53 28.00
2310 116.4100 824.00 787.79 28.00
2311 116.4600 809.00 788.06 28.00
2312 116.5100 782.00 788.33 27.00
2313 116.5600 797.00 788.61 28.00
2314 116.6100 810.00 788.90 28.00
2315 116.6600 796.00 789.20 28.00
2316 116.7100 853.00 789.51 29.00
2317 116.7600 808.00 789.84 28.00
2318 116.8100 802.00 790.18 28.00
2319 116.8600 758.00 790.54 27.00
2320 116.9100 782.00 790.93 27.00
2321 116.9600 789.00 791.35 28.00
2322 117.0100 810.00 791.81 28.00
2323 117.0600 850.00 792.31 29.00
2324 117.1100 805.00 792.89 28.00
2325 117.1600 864.00 793.55 29.00
2326 117.2100 863.00 794.32 29.00
2327 117.2600 820.00 795.27 28.00
2328 117.3100 804.00 796.49 28.00
2329 117.3600 864.00 798.21 29.00
2330 117.4100 814.00 801.03 28.00
2331 117.4600 808.00 806.27 28.00
2332 117.5100 828.00 816.36 28.00
2333 117.5600 889.00 834.64 29.00
2334 117.6100 889.00 863.96 29.00
2335 117.6600 905.00 904.09 30.00
2336 117.7100 966.00 949.04 31.00
2337 117.7600 999.00 988.12 31.00
2338 117.8100 986.00 999.09 31.00
2339 117.8600 983.00 977.33 31.00
2340 117.9100 951.00 935.29 30.00
2341 117.9600 923.00 890.63 30.00
2342 118.0100 867.00 854.45 29.00
2343 118.0600 813.00 830.30 28.00
2344 118.1100 755.00 816.51 27.00
2345 118.1600 815.00 809.53 28.00
2346 118.2100 796.00 806.27 28.00
2347 118.2600 819.00 804.76 28.00
2348 118.3100 852.00 804.03 29.00
2349 118.3600 842.00 803.64 29.00
2350 118.4100 784.00 803.45 28.00
2351 118.4600 766.00 803.39 27.00
2352 118.5100 787.00 803.41 28.00
2353 118.5600 843.00 803.51 29.00
2354 118.6100 840.00 803.68 28.00
2355 118.6600 740.00 803.95 27.00
2356 118.7100 793.00 804.22 28.00
2357 118.7600 831.00 804.53 28.00
2358 118.8100 829.00 804.88 28.00
2359 118.8600 825.00 805.27 28.00
2360 118.9100 795.00 805.69 28.00
2361 118.9600 817.00 806.14 28.00
2362 119.0100 823.00 806.63 28.00
2363 119.0600 826.00 807.16 28.00
2364 119.1100 793.00 807.72 28.00
2365 119.1600 844.00 808.32 29.00
2366 119.2100 738.00 808.97 27.00
2367 119.2600 829.00 809.66 28.00
2368 119.3100 848.00 810.39 29.00
2369 119.3600 822.00 811.18 28.00
2370 119.4100 757.00 812.03 27.00
2371 119.4600 794.00 812.95 28.00
2372 119.5100 804.00 813.95 28.00
2373 119.5600 771.00 815.03 27.00
2374 119.6100 763.00 816.20 27.00
2375 119.6600 771.00 817.48 27.00
2376 119.7100 810.00 818.90 28.00
2377 119.7600 838.00 820.46 28.00
2378 119.8100 851.00 822.19 29.00
2379 119.8600 794.00 824.14 28.00
2380 119.9100 803.00 826.33 28.00
2381 119.9600 789.00 828.81 28.00
2382 120.0100 829.00 831.67 28.00
2383 120.0600 801.00 834.97 28.00
2384 120.1100 825.00 838.83 28.00
2385 120.1600 833.00 843.39 28.00
2386 120.2100 799.00 848.85 28.00
2387 120.2600 802.00 855.31 28.00
2388 120.3100 908.00 863.74 30.00
2389 120.3600 893.00 874.91 29.00
2390 120.4100 903.00 890.75 30.00
2391 120.4600 884.00 914.81 29.00
2392 120.5100 872.00 953.19 29.00
2393 120.5600 978.00 1015.00 31.00
2394 120.6100 1057.00 1111.95 32.00
2395 120.6600 1204.00 1255.97 34.00
2396 120.7100 1444.00 1454.71 38.00
2397 120.7600 1752.00 1706.25 41.00
2398 120.8100 2027.00 1993.56 45.00
2399 120.8600 2422.00 2279.82 49.00
2400 120.9100 2462.00 2506.00 49.00
2401 120.9600 2464.00 2602.69 49.00
2402 121.0100 2465.00 2532.03 49.00
2403 121.0600 2300.00 2320.74 47.00
2404 121.1100 2032.00 2034.97 45.00
2405 121.1600 1829.00 1737.72 42.00
2406 121.2100 1514.00 1473.43 38.00
2407 121.2600 1260.00 1264.28 35.00
2408 121.3100 1133.00 1113.92 33.00
2409 121.3600 953.00 1014.22 30.00
2410 121.4100 894.00 952.01 29.00
2411 121.4600 837.00 914.51 28.00
2412 121.5100 850.00 891.89 29.00
2413 121.5600 849.00 877.66 29.00
2414 121.6100 804.00 868.05 28.00
2415 121.6600 821.00 861.03 28.00
2416 121.7100 847.00 855.55 29.00
2417 121.7600 905.00 851.09 30.00
2418 121.8100 882.00 847.37 29.00
2419 121.8600 814.00 844.23 28.00
2420 121.9100 814.00 841.55 28.00
2421 121.9600 863.00 839.25 29.00
2422 122.0100 853.00 837.28 29.00
2423 122.0600 825.00 835.58 28.00
2424 122.1100 831.00 834.12 28.00
2425 122.1600 793.00 832.86 28.00
2426 122.2100 809.00 831.77 28.00
2427 122.2600 808.00 830.82 28.00
2428 122.3100 864.00 830.01 29.00
2429 122.3600 823.00 829.31 28.00
2430 122.4100 821.00 828.70 28.00
2431 122.4600 813.00 828.18 28.00
2432 122.5100 828.00 827.73 28.00
2433 122.5600 828.00 827.35 28.00
2434 122.6100 803.00 827.02 28.00
2435 122.6600 826.00 826.75 28.00
2436 122.7100 842.00 826.52 29.00
2437 122.7600 874.00 826.33 29.00
2438 122.8100 871.00 826.18 29.00
2439 122.8600 817.00 826.06 28.00
2440 122.9100 823.00 825.97 28.00
2441 122.9600 811.00 825.91 28.00
2442 123.0100 804.00 825.87 28.00
2443 123.0600 798.00 825.86 28.00
2444 123.1100 794.00 825.86 28.00
2445 123.1600 787.00 825.88 28.00
2446 123.2100 792.00 825.92 28.00
2447 123.2600 833.00 825.97 28.00
2448 123.3100 840.00 826.04 28.00
2449 123.3600 842.00 826.12 29.00
2450 123.4100 835.00 826.21 28.00
2451 123.4600 786.00 826.31 28.00
2452 123.5100 795.00 826.42 28.00
2453 123.5600 825.00 826.54 28.00
2454 123.6100 813.00 826.62 28.00
2455 123.6600 803.00 826.76 28.00
2456 123.7100 871.00 826.91 29.00
2457 123.7600 814.00 827.06 28.00
2458 123.8100 803.00 827.22 28.00
2459 123.8600 851.00 827.39 29.00
2460 123.9100 823.00 827.56 28.00
2461 123.9600 843.00 827.74 29.00
2462 124.0100 856.00 827.92 29.00
2463 124.0600 870.00 828.10 29.00
2464 124.1100 833.00 828.29 28.00
2465 124.1600 850.00 828.49 29.00
2466 124.2100 911.00 826.26 30.00
2467 124.2600 844.00 827.14 29.00
2468 124.3100 803.00 827.44 28.00
2469 124.3600 799.00 827.74 28.00
2470 124.4100 812.00 828.04 28.00
2471 124.4600 843.00 828.35 29.00
2472 124.5100 865.00 828.65 29.00
2473 124.5600 799.00 828.96 28.00
2474 124.6100 822.00 829.27 28.00
2475 124.6600 833.00 829.58 28.00
2476 124.7100 801.00 829.90 28.00
2477 124.7600 822.00 830.21 28.00
2478 124.8100 831.00 830.53 28.00
2479 124.8600 829.00 830.86 28.00
2480 124.9100 789.00 831.18 28.00
2481 124.9600 787.00 831.52 28.00
2482 125.0100 826.00 831.85 28.00
2483 125.0600 887.00 832.20 29.00
2484 125.1100 819.00 832.54 28.00
2485 125.1600 840.00 832.90 28.00
2486 125.2100 842.00 833.26 29.00
2487 125.2600 827.00 833.63 28.00
2488 125.3100 814.00 834.01 28.00
2489 125.3600 827.00 834.40 28.00
2490 125.4100 867.00 834.80 29.00
2491 125.4600 776.00 835.21 27.00
2492 125.5100 803.00 835.65 28.00
2493 125.5600 875.00 836.09 29.00
2494 125.6100 769.00 836.57 27.00
2495 125.6600 809.00 837.06 28.00
2496 125.7100 817.00 837.58 28.00
2497 125.7600 755.00 838.14 27.00
2498 125.8100 789.00 838.74 28.00
2499 125.8600 837.00 839.39 28.00
2500 125.9100 859.00 840.10 29.00
2501 125.9600 810.00 840.88 28.00
2502 126.0100 841.00 841.76 29.00
2503 126.0600 848.00 842.75 29.00
2504 126.1100 843.00 843.89 29.00
2505 126.1600 843.00 845.23 29.00
2506 126.2100 832.00 846.83 28.00
2507 126.2600 868.00 848.80 29.00
2508 126.3100 824.00 851.33 28.00
2509 126.3600 852.00 854.83 29.00
2510 126.4100 924.00 860.27 30.00
2511 126.4600 864.00 869.66 29.00
2512 126.5100 869.00 886.71 29.00
2513 126.5600 950.00 916.86 30.00
2514 126.6100 1045.00 965.93 32.00
2515 126.6600 1106.00 1036.94 33.00
2516 126.7100 1192.00 1125.86 34.00
2517 126.7600 1272.00 1217.94 35.00
2518 126.8100 1364.00 1286.13 36.00
2519 126.8600 1320.00 1299.27 36.00
2520 126.9100 1366.00 1249.35 36.00
2521 126.9600 1200.00 1161.56 34.00
2522 127.0100 1088.00 1067.86 32.00
2523 127.0600 1028.00 988.88 32.00
2524 127.1100 971.00 932.34 31.00
2525 127.1600 934.00 896.87 30.00
2526 127.2100 916.00 876.80 30.00
2527 127.2600 902.00 866.13 30.00
2528 127.3100 927.00 860.49 30.00
2529 127.3600 813.00 857.31 28.00
2530 127.4100 891.00 855.30 29.00
2531 127.4600 888.00 853.89 29.00
2532 127.5100 894.00 852.84 29.00
2533 127.5600 902.00 852.04 30.00
2534 127.6100 882.00 851.41 29.00
2535 127.6600 868.00 850.93 29.00
2536 127.7100 817.00 850.56 28.00
2537 127.7600 866.00 851.79 29.00
2538 127.8100 862.00 851.64 29.00
2539 127.8600 845.00 851.57 29.00
2540 127.9100 875.00 851.54 29.00
2541 127.9600 879.00 851.57 29.00
2542 128.0100 831.00 851.64 28.00
2543 128.0600 806.00 851.74 28.00
2544 128.1100 908.00 851.87 30.00
2545 128.1600 828.00 852.03 28.00
2546 128.2100 852.00 852.22 29.00
2547 128.2600 816.00 852.42 28.00
2548 128.3100 843.00 852.65 29.00
2549 128.3600 883.00 852.90 29.00
2550 128.4100 908.00 853.17 30.00
2551 128.4600 873.00 853.45 29.00
2552 128.5100 836.00 853.76 28.00
2553 128.5600 848.00 854.08 29.00
2554 128.6100 886.00 854.41 29.00
2555 128.6600 838.00 854.77 28.00
2556 128.7100 807.00 855.15 28.00
2557 128.7600 869.00 855.54 29.00
2558 128.8100 859.00 855.96 29.00
2559 128.8600 813.00 856.40 28.00
2560 128.9100 865.00 856.87 29.00
2561 128.9600 880.00 857.36 29.00
2562 129.0100 877.00 857.89 29.00
2563 129.0600 865.00 858.45 29.00
2564 129.1100 850.00 859.04 29.00
2565 129.1600 868.00 859.69 29.00
2566 129.2100 855.00 860.38 29.00
2567 129.2600 833.00 861.13 28.00
2568 129.3100 838.00 861.95 28.00
2569 129.3600 852.00 862.84 29.00
2570 129.4100 836.00 863.83 28.00
2571 129.4600 900.00 864.92 30.00
2572 129.5100 858.00 865.57 29.00
2573 129.5600 858.00 866.98 29.00
2574 129.6100 822.00 868.57 28.00
2575 129.6600 873.00 870.41 29.00
2576 129.7100 886.00 872.54 29.00
2577 129.7600 882.00 875.07 29.00
2578 129.8100 908.00 878.09 30.00
2579 129.8600 878.00 881.77 29.00
2580 129.9100 888.00 886.38 29.00
2581 129.9600 892.00 892.42 29.00
2582 130.0100 895.00 900.96 29.00
2583 130.0600 921.00 914.29 30.00
2584 130.1100 938.00 937.03 30.00
2585 130.1600 943.00 977.15 30.00
2586 130.2100 997.00 1046.10 31.00
2587 130.2600 1156.00 1156.16 34.00
2588 130.3100 1395.00 1314.42 37.00
2589 130.3600 1669.00 1515.06 40.00
2590 130.4100 1794.00 1731.69 42.00
2591 130.4600 1962.00 1913.32 44.00
2592 130.5100 2028.00 1991.65 45.00
2593 130.5600 2006.00 1926.53 44.00
2594 130.6100 1745.00 1749.42 41.00
2595 130.6600 1509.00 1530.05 38.00
2596 130.7100 1346.00 1324.36 36.00
2597 130.7600 1168.00 1161.86 34.00
2598 130.8100 1079.00 1049.25 32.00
2599 130.8600 1086.00 979.20 32.00
2600 130.9100 993.00 938.94 31.00
2601 130.9600 919.00 916.67 30.00
2602 131.0100 929.00 904.15 30.00
2603 131.0600 902.00 896.55 30.00
2604 131.1100 871.00 891.42 29.00
2605 131.1600 845.00 887.63 29.00
2606 131.2100 845.00 884.66 29.00
2607 131.2600 829.00 882.25 28.00
2608 131.3100 903.00 880.27 30.00
2609 131.3600 846.00 878.64 29.00
2610 131.4100 780.00 877.27 27.00
2611 131.4600 867.00 876.13 29.00
2612 131.5100 891.00 875.18 30.00
2613 131.5600 853.00 874.39 29.00
2614 131.6100 857.00 873.72 29.00
2615 131.6600 845.00 873.16 29.00
2616 131.7100 838.00 872.69 29.00
2617 131.7600 832.00 872.30 29.00
2618 131.8100 859.00 871.98 29.00
2619 131.8600 826.00 871.72 29.00
2620 131.9100 870.00 871.50 30.00
2621 131.9600 834.00 871.33 29.00
2622 132.0100 884.00 871.19 30.00
2623 132.0600 847.00 871.09 29.00
2624 132.1100 863.00 871.01 30.00
2625 132.1600 858.00 871.16 30.00
2626 132.2100 882.00 871.14 30.00
2627 132.2600 850.00 871.13 30.00
2628 132.3100 873.00 871.14 30.00
2629 132.3600 818.00 871.17 29.00
2630 132.4100 805.00 871.21 29.00
2631 132.4600 862.00 871.26 30.00
2632 132.5100 848.00 871.32 30.00
2633 132.5600 828.00 871.40 30.00
2634 132.6100 837.00 871.48 30.00
2635 132.6600 816.00 871.57 30.00
2636 132.7100 820.00 871.67 30.00
2637 132.7600 797.00 871.77 29.00
2638 132.8100 867.00 871.88 31.00
2639 132.8600 850.00 872.00 30.00
2640 132.9100 853.00 872.12 31.00
2641 132.9600 850.00 872.25 31.00
2642 133.0100 841.00 872.38 30.00
2643 133.0600 870.00 872.51 31.00
2644 133.1100 828.00 872.65 30.00
2645 133.1600 839.00 872.79 31.00
2646 133.2100 835.00 872.93 31.00
2647 133.2600 798.00 873.08 30.00
2648 133.3100 816.00 871.76 30.00
2649 133.3600 841.00 871.96 31.00
2650 133.4100 858.00 872.16 31.00
2651 133.4600 867.00 872.36 31.00
2652 133.5100 870.00 872.56 32.00
2653 133.5600 828.00 872.76 31.00
2654 133.6100 829.00 872.96 31.00
2655 133.6600 890.00 873.16 32.00
2656 133.7100 821.00 873.36 31.00
2657 133.7600 845.00 873.56 31.00
2658 133.8100 834.00 873.76 31.00
2659 133.8600 826.00 873.95 31.00
2660 133.9100 874.00 874.15 32.00
2661 133.9600 864.00 874.35 32.00
2662 134.0100 887.00 874.67 33.00
2663 134.0600 854.00 874.87 32.00
2664 134.1100 926.00 875.07 33.00
2665 134.1600 896.00 875.27 33.00
2666 134.2100 871.00 875.48 32.00
2667 134.2600 885.00 875.68 33.00
2668 134.3100 886.00 875.88 33.00
2669 134.3600 890.00 876.09 33.00
2670 134.4100 878.00 876.29 33.00
2671 134.4600 925.00 876.50 34.00
2672 134.5100 843.00 876.70 32.00
2673 134.5600 856.00 876.91 33.00
2674 134.6100 877.00 877.12 33.00
2675 134.6600 843.00 877.33 33.00
2676 134.7100 893.00 877.55 34.00
2677 134.7600 824.00 877.76 32.00
2678 134.8100 917.00 877.98 34.00
2679 134.8600 860.00 878.20 33.00
2680 134.9100 863.00 878.43 33.00
2681 134.9600 881.00 878.66 34.00
2682 135.0100 915.00 878.89 34.00
2683 135.0600 829.00 879.12 33.00
2684 135.1100 818.00 879.36 33.00
2685 135.1600 790.00 879.61 32.00
2686 135.2100 857.00 879.86 34.00
2687 135.2600 819.00 880.13 33.00
2688 135.3100 885.00 880.40 34.00
2689 135.3600 832.00 880.67 33.00
2690 135.4100 842.00 880.96 33.00
2691 135.4600 837.00 881.27 33.00
2692 135.5100 861.00 881.58 34.00
2693 135.5600 887.00 881.92 35.00
2694 135.6100 859.00 882.27 34.00
2695 135.6600 875.00 882.64 34.00
2696 135.7100 900.00 883.04 35.00
2697 135.7600 937.00 883.48 36.00
2698 135.8100 887.00 883.95 35.00
2699 135.8600 887.00 884.46 35.00
2700 135.9100 832.00 885.03 34.00
2701 135.9600 836.00 885.66 34.00
2702 136.0100 818.00 886.40 34.00
2703 136.0600 814.00 887.28 34.00
2704 136.1100 877.00 888.34 35.00
2705 136.1600 878.00 889.70 35.00
2706 136.2100 926.00 891.48 36.00
2707 136.2600 888.00 893.86 36.00
2708 136.3100 940.00 897.09 37.00
2709 136.3600 879.00 901.47 36.00
2710 136.4100 832.00 907.33 35.00
2711 136.4600 920.00 915.00 37.00
2712 136.5100 942.00 924.80 37.00
2713 136.5600 880.00 936.92 36.00
2714 136.6100 975.00 951.45 38.00
2715 136.6600 954.00 968.30 37.00
2716 136.7100 1001.00 987.24 38.00
2717 136.7600 1055.00 1007.82 40.00
2718 136.8100 1159.00 1029.29 42.00
2719 136.8600 1085.00 1050.47 40.00
2720 136.9100 1178.00 1069.68 42.00
2721 136.9600 1102.00 1085.03 41.00
2722 137.0100 1148.00 1094.67 42.00
2723 137.0600 1134.00 1096.82 42.00
2724 137.1100 1150.00 1089.57 42.00
2725 137.1600 1112.00 1072.00 41.00
2726 137.2100 1035.00 1046.09 40.00
2727 137.2600 1038.00 1016.34 40.00
2728 137.3100 1048.00 987.17 40.00
2729 137.3600 1004.00 961.51 40.00
2730 137.4100 958.00 940.77 39.00
2731 137.4600 912.00 925.14 38.00
2732 137.5100 896.00 914.00 38.00
2733 137.5600 917.00 906.39 38.00
2734 137.6100 924.00 901.31 38.00
2735 137.6600 931.00 897.94 39.00
2736 137.7100 926.00 895.68 38.00
2737 137.7600 844.00 894.12 37.00
2738 137.8100 903.00 893.00 38.00
2739 137.8600 853.00 892.17 37.00
2740 137.9100 854.00 891.53 37.00
2741 137.9600 942.00 891.02 39.00
2742 138.0100 915.00 894.03 39.00
2743 138.0600 901.00 893.79 39.00
2744 138.1100 889.00 893.60 38.00
2745 138.1600 906.00 893.47 39.00
2746 138.2100 932.00 893.39 39.00
2747 138.2600 933.00 893.33 40.00
2748 138.3100 952.00 893.32 40.00
2749 138.3600 909.00 893.33 39.00
2750 138.4100 849.00 893.36 38.00
2751 138.4600 890.00 893.43 39.00
2752 138.5100 928.00 893.51 40.00
2753 138.5600 924.00 893.62 40.00
2754 138.6100 873.00 893.75 39.00
2755 138.6600 822.00 893.89 38.00
2756 138.7100 914.00 894.06 40.00
2757 138.7600 855.00 894.24 39.00
2758 138.8100 928.00 894.45 40.00
2759 138.8600 901.00 894.67 40.00
2760 138.9100 868.00 894.91 39.00
2761 138.9600 860.00 895.16 39.00
2762 139.0100 904.00 895.44 40.00
2763 139.0600 878.00 895.74 40.00
2764 139.1100 929.00 896.05 41.00
2765 139.1600 926.00 896.40 41.00
2766 139.2100 949.00 896.76 41.00
2767 139.2600 886.00 897.14 40.00
2768 139.3100 899.00 897.56 40.00
2769 139.3600 919.00 898.00 41.00
2770 139.4100 921.00 902.85 41.00
2771 139.4600 910.00 903.48 41.00
2772 139.5100 909.00 904.15 41.00
2773 139.5600 896.00 904.85 41.00
2774 139.6100 858.00 905.61 40.00
2775 139.6600 875.00 906.42 40.00
2776 139.7100 866.00 907.29 40.00
2777 139.7600 883.00 908.22 41.00
2778 139.8100 912.00 909.23 42.00
2779 139.8600 880.00 910.31 41.00
2780 139.9100 896.00 911.48 41.00
2781 139.9600 936.00 912.75 42.00
2782 140.0100 982.00 914.12 44.00
2783 140.0600 892.00 915.62 42.00
2784 140.1100 987.00 917.27 44.00
2785 140.1600 946.00 919.07 43.00
2786 140.2100 857.00 921.05 41.00
2787 140.2600 943.00 923.25 43.00
2788 140.3100 910.00 925.57 42.00
2789 140.3600 968.00 928.29 44.00
2790 140.4100 946.00 931.36 43.00
2791 140.4600 934.00 934.82 43.00
2792 140.5100 930.00 938.76 43.00
2793 140.5600 909.00 943.27 43.00
2794 140.6100 934.00 948.47 43.00
2795 140.6600 933.00 954.54 44.00
2796 140.7100 964.00 961.71 44.00
2797 140.7600 991.00 970.35 45.00
2798 140.8100 978.00 981.08 45.00
2799 140.8600 1083.00 995.02 47.00
2800 140.9100 995.00 1014.24 45.00
2801 140.9600 972.00 1042.41 45.00
2802 141.0100 1020.00 1085.48 46.00
2803 141.0600 1118.00 1152.40 49.00
2804 141.1100 1188.00 1254.92 50.00
2805 141.1600 1319.00 1406.22 53.00
2806 141.2100 1465.00 1617.65 56.00
2807 141.2600 1745.00 1894.03 61.00
2808 141.3100 2110.00 2228.48 68.00
2809 141.3600 2595.00 2597.34 75.00
2810 141.4100 2957.00 2957.08 80.00
2811 141.4600 3229.00 3243.14 84.00
2812 141.5100 3442.00 3382.13 87.00
2813 141.5600 3370.00 3328.30 86.00
2814 141.6100 3098.00 3099.03 83.00
2815 141.6600 2616.00 2761.25 76.00
2816 141.7100 2349.00 2388.40 72.00
2817 141.7600 1984.00 2035.14 67.00
2818 141.8100 1555.00 1734.60 59.00
2819 141.8600 1381.00 1499.68 56.00
2820 141.9100 1384.00 1329.43 56.00
2821 141.9600 1242.00 1213.87 53.00
2822 142.0100 1199.00 1139.88 52.00
2823 142.0600 1191.00 1094.84 52.00
2824 142.1100 1120.00 1068.68 51.00
2825 142.1600 1085.00 1054.41 50.00
2826 142.2100 1118.00 1047.71 51.00
2827 142.2600 1115.00 1046.26 51.00
2828 142.3100 1058.00 1049.14 50.00
2829 142.3600 1039.00 1056.47 49.00
2830 142.4100 1088.00 1069.48 51.00
2831 142.4600 1027.00 1090.89 49.00
2832 142.5100 1077.00 1125.44 51.00
2833 142.5600 1057.00 1180.74 50.00
2834 142.6100 1199.00 1267.65 54.00
2835 142.6600 1361.00 1399.73 57.00
2836 142.7100 1466.00 1591.66 60.00
2837 142.7600 1588.00 1855.16 62.00
2838 142.8100 1956.00 2194.55 69.00
2839 142.8600 2505.00 2600.78 79.00
2840 142.9100 2993.00 3047.23 86.00
2841 142.9600 3537.00 3486.33 94.00
2842 143.0100 3885.00 3847.37 99.00
2843 143.0600 4086.00 4048.25 101.00
2844 143.1100 4066.00 4029.34 101.00
2845 143.1600 3792.00 3794.76 98.00
2846 143.2100 3303.00 3409.42 92.00
2847 143.2600 2800.00 2957.51 84.00
2848 143.3100 2262.00 2508.10 76.00
2849 143.3600 1943.00 2106.93 71.00
2850 143.4100 1698.00 1777.22 66.00
2851 143.4600 1541.00 1524.60 63.00
2852 143.5100 1430.00 1342.42 61.00
2853 143.5600 1361.00 1217.42 60.00
2854 143.6100 1208.00 1134.76 56.00
2855 143.6600 1208.00 1081.02 56.00
2856 143.7100 1181.00 1045.86 56.00
2857 143.7600 1054.00 1022.12 53.00
2858 143.8100 1021.00 1005.22 52.00
2859 143.8600 1054.00 992.47 53.00
2860 143.9100 1015.00 982.32 52.00
2861 143.9600 1015.00 973.93 52.00
2862 144.0100 968.00 966.81 51.00
2863 144.0600 1064.00 960.67 54.00
2864 144.1100 1006.00 955.33 52.00
2865 144.1600 979.00 950.64 52.00
2866 144.2100 969.00 946.51 52.00
2867 144.2600 997.00 942.84 52.00
2868 144.3100 922.00 939.59 51.00
2869 144.3600 911.00 936.69 50.00
2870 144.4100 980.00 934.09 52.00
2871 144.4600 902.00 931.77 50.00
2872 144.5100 900.00 929.67 50.00
2873 144.5600 932.00 927.78 51.00
2874 144.6100 914.00 926.08 51.00
2875 144.6600 947.00 924.53 52.00
2876 144.7100 1002.00 923.13 54.00
2877 144.7600 959.00 921.85 53.00
2878 144.8100 960.00 920.68 53.00
2879 144.8600 984.00 919.62 53.00
2880 144.9100 908.00 918.65 51.00
2881 144.9600 887.00 917.76 51.00
2882 145.0100 982.00 916.95 54.00
2883 145.0600 967.00 916.20 53.00
2884 145.1100 892.00 912.23 51.00
2885 145.1600 926.00 911.69 53.00
2886 145.2100 879.00 911.20 51.00
2887 145.2600 848.00 910.75 50.00
2888 145.3100 902.00 910.35 52.00
2889 145.3600 993.00 909.98 55.00
2890 145.4100 854.00 909.64 51.00
2891 145.4600 922.00 909.34 53.00
2892 145.5100 883.00 909.06 52.00
2893 145.5600 913.00 908.81 53.00
2894 145.6100 891.00 908.59 53.00
2895 145.6600 863.00 908.39 52.00
2896 145.7100 917.00 908.22 54.00
2897 145.7600 974.00 908.06 55.00
2898 145.8100 963.00 907.92 55.00
2899 145.8600 976.00 907.80 56.00
2900 145.9100 952.00 907.70 55.00
2901 145.9600 986.00 907.61 56.00
2902 146.0100 977.00 907.54 56.00
2903 146.0600 964.00 907.49 56.00
2904 146.1100 919.00 907.45 55.00
2905 146.1600 957.00 907.42 56.00
2906 146.2100 1015.00 907.40 58.00
2907 146.2600 900.00 907.39 54.00
2908 146.3100 1001.00 907.40 58.00
2909 146.3600 1012.00 907.42 58.00
2910 146.4100 994.00 907.45 58.00
2911 146.4600 989.00 907.48 58.00
2912 146.5100 997.00 907.53 58.00
2913 146.5600 954.00 907.59 57.00
2914 146.6100 925.00 907.65 56.00
2915 146.6600 891.00 907.73 55.00
2916 146.7100 940.00 907.81 57.00
2917 146.7600 915.00 907.90 56.00
2918 146.8100 880.00 903.74 55.00
2919 146.8600 900.00 903.96 56.00
2920 146.9100 912.00 904.18 56.00
2921 146.9600 930.00 904.40 57.00
2922 147.0100 970.00 904.63 58.00
2923 147.0600 917.00 904.86 57.00
2924 147.1100 1003.00 905.10 60.00
2925 147.1600 932.00 905.34 58.00
2926 147.2100 904.00 905.58 57.00
2927 147.2600 868.00 905.83 56.00
2928 147.3100 872.00 906.08 56.00
2929 147.3600 860.00 906.33 56.00
2930 147.4100 856.00 906.59 56.00
2931 147.4600 952.00 906.85 59.00
2932 147.5100 966.00 908.17 60.00
2933 147.5600 955.00 908.45 59.00
2934 147.6100 967.00 908.73 60.00
2935 147.6600 932.00 909.01 59.00
2936 147.7100 960.00 909.30 60.00
2937 147.7600 974.00 909.59 61.00
2938 147.8100 971.00 909.89 61.00
2939 147.8600 896.00 910.19 58.00
2940 147.9100 961.00 910.49 61.00
2941 147.9600 975.00 910.80 61.00
2942 148.0100 979.00 911.11 62.00
2943 148.0600 998.00 911.43 62.00
2944 148.1100 982.00 911.75 62.00
2945 148.1600 925.00 912.08 60.00
2946 148.2100 965.00 912.41 62.00
2947 148.2600 953.00 912.75 61.00
2948 148.3100 922.00 913.09 61.00
2949 148.3600 956.00 913.44 62.00
2950 148.4100 1021.00 913.79 64.00
2951 148.4600 1049.00 914.15 65.00
2952 148.5100 1029.00 914.51 65.00
2953 148.5600 1001.00 914.88 64.00
2954 148.6100 925.00 915.25 61.00
2955 148.6600 854.00 915.62 59.00
2956 148.7100 980.00 916.01 64.00
2957 148.7600 941.00 916.39 62.00
2958 148.8100 998.00 916.79 64.00
2959 148.8600 972.00 917.19 64.00
2960 148.9100 933.00 917.59 63.00
2961 148.9600 963.00 918.00 64.00
2962 149.0100 1002.00 918.42 65.00
2963 149.0600 1048.00 918.84 67.00
2964 149.1100 1055.00 919.27 67.00
2965 149.1600 994.00 919.70 65.00
2966 149.2100 920.00 920.14 63.00
2967 149.2600 1031.00 920.58 67.00
2968 149.3100 1092.00 921.03 69.00
2969 149.3600 1045.00 921.49 68.00
2970 149.4100 969.00 921.95 65.00
2971 149.4600 978.00 922.42 66.00
2972 149.5100 984.00 922.90 66.00
2973 149.5600 1058.00 923.38 69.00
2974 149.6100 885.00 923.87 63.00
2975 149.6600 909.00 924.37 64.00
2976 149.7100 965.00 924.87 66.00
2977 149.7600 885.00 925.38 64.00
2978 149.8100 929.00 925.90 65.00
2979 149.8600 912.00 926.42 65.00
2980 149.9100 945.00 926.95 66.00
2981 149.9600 1058.00 927.91 70.00
2982 150.0100 1020.00 928.46 69.00
2983 150.0600 927.00 929.02 66.00
2984 150.1100 969.00 929.59 68.00
2985 150.1600 1010.00 930.16 69.00
2986 150.2100 974.00 930.74 68.00
2987 150.2600 1001.00 931.33 69.00
2988 150.3100 1003.00 931.92 70.00
2989 150.3600 968.00 932.53 69.00
2990 150.4100 1047.00 933.14 71.00
2991 150.4600 989.00 933.76 70.00
2992 150.5100 968.00 934.39 69.00
2993 150.5600 932.00 935.02 68.00
2994 150.6100 939.00 935.66 68.00
2995 150.6600 1015.00 936.32 71.00
2996 150.7100 911.00 936.98 68.00
2997 150.7600 1043.00 937.65 73.00
2998 150.8100 1019.00 938.33 72.00
2999 150.8600 971.00 939.01 70.00
3000 150.9100 949.00 939.71 70.00
3001 150.9600 967.00 940.41 71.00
3002 151.0100 911.00 941.12 69.00
3003 151.0600 1007.00 941.85 72.00
3004 151.1100 1024.00 942.58 73.00
3005 151.1600 1006.00 943.32 73.00
3006 151.2100 897.00 944.07 69.00
3007 151.2600 886.00 944.83 69.00
3008 151.3100 993.00 945.60 73.00
3009 151.3600 1054.00 946.38 75.00
3010 151.4100 964.00 947.17 72.00
3011 151.4600 949.00 947.97 72.00
3012 151.5100 1018.00 948.78 74.00
3013 151.5600 1023.00 949.74 75.00
3014 151.6100 1055.00 950.57 76.00
3015 151.6600 919.00 951.41 71.00
3016 151.7100 925.00 952.26 72.00
3017 151.7600 991.00 953.12 74.00
3018 151.8100 988.00 954.00 75.00
3019 151.8600 988.00 954.88 75.00
3020 151.9100 904.00 955.78 72.00
3021 151.9600 884.00 956.69 71.00
3022 152.0100 938.00 957.60 73.00
3023 152.0600 947.00 958.53 74.00
3024 152.1100 908.00 959.47 73.00
3025 152.1600 924.00 960.43 73.00
3026 152.2100 958.00 961.39 75.00
3027 152.2600 800.00 962.37 69.00
3028 152.3100 926.00 963.36 74.00
3029 152.3600 1001.00 964.36 77.00
3030 152.4100 968.00 965.37 76.00
3031 152.4600 925.00 966.40 75.00
3032 152.5100 914.00 967.43 74.00
3033 152.5600 974.00 968.48 77.00
3034 152.6100 943.00 969.55 76.00
3035 152.6600 983.00 970.63 78.00
3036 152.7100 964.00 971.72 77.00
3037 152.7600 989.00 972.82 78.00
3038 152.8100 987.00 973.94 79.00
3039 152.8600 976.00 975.07 78.00
3040 152.9100 929.00 976.22 77.00
3041 152.9600 927.00 977.38 77.00
3042 153.0100 964.00 978.56 79.00
3043 153.0600 938.00 979.75 78.00
3044 153.1100 887.00 980.95 76.00
3045 153.1600 961.00 982.17 79.00
3046 153.2100 919.00 983.41 77.00
3047 153.2600 989.00 984.66 81.00
3048 153.3100 980.00 985.93 80.00
3049 153.3600 966.00 987.22 80.00
3050 153.4100 966.00 988.52 80.00
3051 153.4600 995.00 989.84 82.00
3052 153.5100 970.00 991.17 81.00
3053 153.5600 962.00 992.53 81.00
3054 153.6100 931.00 993.90 80.00
3055 153.6600 947.00 995.29 81.00
3056 153.7100 1020.00 996.70 84.00
3057 153.7600 926.00 998.13 80.00
3058 153.8100 912.00 999.58 80.00
3059 153.8600 927.00 1001.05 81.00
3060 153.9100 867.00 1002.54 78.00
3061 153.9600 996.00 1004.06 84.00
3062 154.0100 1008.00 1005.60 85.00
3063 154.0600 1002.00 1007.16 85.00
3064 154.1100 985.00 1008.74 84.00
3065 154.1600 871.00 1010.35 80.00
3066 154.2100 914.00 1011.98 82.00
3067 154.2600 969.00 1013.65 84.00
3068 154.3100 1041.00 1015.34 88.00
3069 154.3600 982.00 1017.06 85.00
3070 154.4100 1005.00 1018.81 87.00
3071 154.4600 1032.00 1020.60 88.00
3072 154.5100 943.00 1022.42 84.00
3073 154.5600 1011.00 1024.28 88.00
3074 154.6100 1060.00 1026.17 90.00
3075 154.6600 1019.00 1028.11 89.00
3076 154.7100 1003.00 1030.10 88.00
3077 154.7600 934.00 1032.13 85.00
3078 154.8100 935.00 1034.22 86.00
3079 154.8600 987.00 1036.37 88.00
3080 154.9100 998.00 1038.59 89.00
3081 154.9600 1074.00 1040.88 93.00
3082 155.0100 928.00 1043.27 86.00
3083 155.0600 1002.00 1045.77 90.00
3084 155.1100 959.00 1048.40 88.00
3085 155.1600 1060.00 1051.22 93.00
3086 155.2100 1015.00 1054.27 91.00
3087 155.2600 1040.00 1057.62 93.00
3088 155.3100 1012.00 1061.39 92.00
3089 155.3600 944.00 1065.70 89.00
3090 155.4100 1083.00 1070.73 95.00
3091 155.4600 1118.00 1076.70 97.00
3092 155.5100 1080.00 1083.86 96.00
3093 155.5600 1100.00 1092.50 97.00
3094 155.6100 1114.00 1102.95 98.00
3095 155.6600 1058.00 1115.53 96.00
3096 155.7100 995.00 1130.54 93.00
3097 155.7600 1052.00 1148.25 96.00
3098 155.8100 1146.00 1168.79 101.00
3099 155.8600 1172.00 1192.18 102.00
3100 155.9100 1080.00 1218.25 98.00
3101 155.9600 1138.00 1246.62 101.00
3102 156.0100 1282.00 1276.68 108.00
3103 156.0600 1304.00 1307.51 109.00
3104 156.1100 1330.00 1337.95 110.00
3105 156.1600 1462.00 1366.57 116.00
3106 156.2100 1581.00 1391.69 121.00
3107 156.2600 1517.00 1411.56 119.00
3108 156.3100 1498.00 1424.53 119.00
3109 156.3600 1491.00 1429.49 119.00
3110 156.4100 1630.00 1426.14 125.00
3111 156.4600 1506.00 1415.07 120.00
3112 156.5100 1577.00 1397.62 123.00
3113 156.5600 1407.00 1375.54 117.00
3114 156.6100 1309.00 1350.61 113.00
3115 156.6600 1256.00 1324.48 111.00
3116 156.7100 1128.00 1298.48 106.00
3117 156.7600 1146.00 1273.68 107.00
3118 156.8100 1153.00 1250.87 107.00
3119 156.8600 1304.00 1230.56 115.00
3120 156.9100 1188.00 1213.06 110.00
3121 156.9600 1118.00 1198.41 107.00
3122 157.0100 1157.00 1186.58 109.00
3123 157.0600 1193.00 1177.34 111.00
3124 157.1100 1069.00 1170.44 105.00
3125 157.1600 1107.00 1165.56 108.00
3126 157.2100 1117.00 1162.38 108.00
3127 157.2600 1096.00 1160.59 108.00
3128 157.3100 1052.00 1159.91 106.00
3129 157.3600 1161.00 1160.13 112.00
3130 157.4100 1131.00 1161.03 111.00
3131 157.4600 1165.00 1162.47 113.00
3132 157.5100 1117.00 1164.34 111.00
3133 157.5600 1160.00 1166.57 113.00
3134 157.6100 1106.00 1169.10 111.00
3135 157.6600 1076.00 1171.91 110.00
3136 157.7100 1019.00 1174.99 107.00
3137 157.7600 1024.00 1178.36 108.00
3138 157.8100 1171.00 1182.06 116.00
3139 157.8600 1057.00 1186.12 110.00
3140 157.9100 1003.00 1190.60 108.00
loop_
_pd_proc_info_excluded_regions
'from 0.95 to 11.910'
