#------------------------------------------------------------------------------
#$Date: 2016-02-14 06:40:26 +0200 (Sun, 14 Feb 2016) $
#$Revision: 176432 $
#$URL: svn://www.crystallography.net/cod/cif/4/00/08/4000812.cif $
#------------------------------------------------------------------------------
#
# This file is available in the Crystallography Open Database (COD),
# http://www.crystallography.net/
#
# All data on this site have been placed in the public domain by the
# contributors.
#
data_4000812
loop_
_publ_author_name
'Belik, Alexei A.'
'Abakumov, Artem M.'
'Tsirlin, Alexander A.'
'Hadermann, Joke'
'Kim, Jungeun'
'Van Tendeloo, Gustaaf'
'Takayama-Muromachi, Eiji'
_publ_section_title
;
 Structure and Magnetic Properties of BiFe0.75Mn0.25O3Perovskite Prepared
 at Ambient and High Pressure
;
_journal_issue                   20
_journal_name_full               'Chemistry of Materials'
_journal_page_first              4505
_journal_paper_doi               10.1021/cm201774y
_journal_volume                  23
_journal_year                    2011
_chemical_formula_sum            'Bi Fe0.75 Mn0.25 O3'
_chemical_formula_weight         312.6
_chemical_name_systematic        ' ?'
_space_group_IT_number           62
_symmetry_cell_setting           orthorhombic
_symmetry_Int_Tables_number      62
_symmetry_space_group_name_Hall  '-P 2ac 2n'
_symmetry_space_group_name_H-M   'P n m a'
_cell_angle_alpha                90
_cell_angle_beta                 90
_cell_angle_gamma                90
_cell_formula_units_Z            16
_cell_length_a                   5.60125(9)
_cell_length_b                   15.6610(2)
_cell_length_c                   11.25153(17)
_cell_measurement_temperature    0
_cell_volume                     987.00(3)
_diffrn_ambient_temperature      0
_diffrn_radiation_type           X-ray
_diffrn_radiation_wavelength     0.41916
_exptl_absorpt_coefficient_mu    19.534
_exptl_crystal_density_diffrn    8.4119
_exptl_crystal_F_000             798
_pd_instr_location               ' ?'
_pd_meas_2theta_range_inc        0.01
_pd_meas_2theta_range_max        75.140
_pd_meas_2theta_range_min        0.010
_pd_meas_number_of_points        7514
_pd_proc_2theta_range_inc        0.01
_pd_proc_2theta_range_max        52.64
_pd_proc_2theta_range_min        3.7
_pd_proc_ls_background_function  '12 Legendre polynoms'
_pd_proc_ls_pref_orient_corr     none
_pd_proc_ls_profile_function     Pseudo-Voigt
_pd_proc_ls_prof_R_factor        0.0288
_pd_proc_ls_prof_wR_expected     0.0142
_pd_proc_ls_prof_wR_factor       0.0397
_refine_ls_number_constraints    0
_refine_ls_number_parameters     64
_refine_ls_number_restraints     0
_refine_ls_shift/su_max          0.0486
_refine_ls_shift/su_mean         0.0056
_refine_ls_weighting_scheme      sigma
_cod_data_source_file            cm201774y_si_002.cif
_cod_data_source_block           I
_cod_original_sg_symbol_Hall     '-P -2xabc;-2yb;-2zac'
_cod_original_formula_sum        'Bi1 Fe0.75 Mn0.25 O3'
_cod_database_code               4000812
loop_
_symmetry_equiv_pos_site_id
_symmetry_equiv_pos_as_xyz
1 x,y,z
2 -x+1/2,-y,z+1/2
3 -x,y+1/2,-z
4 x+1/2,-y+1/2,-z+1/2
5 -x,-y,-z
6 x+1/2,y,-z+1/2
7 x,-y+1/2,z
8 -x+1/2,y+1/2,z+1/2
loop_
_atom_site_label
_atom_site_type_symbol
_atom_site_fract_x
_atom_site_fract_y
_atom_site_fract_z
_atom_site_adp_type
_atom_site_U_iso_or_equiv
_atom_site_symmetry_multiplicity
_atom_site_occupancy
_atom_site_calc_flag
Bi1 Bi 0.2025(4) 0.01057(9) 0.62689(15) Uiso 0.0148(2) 8 1 d
Bi2 Bi 0.2054(7) 0.25 0.6256(2) Uiso 0.0148(2) 4 1 d
Bi3 Bi 0.7801(6) 0.25 0.3611(2) Uiso 0.0148(2) 4 1 d
Fe1 Fe 0.2458(12) 0.1223(5) 0.8799(7) Uiso 0.0147(5) 8 0.75 d
Fe2 Fe 0.2496(12) 0.6239(5) 0.8779(7) Uiso 0.0147(5) 8 0.75 d
O1 O 0.805(4) 0.0043(13) 0.6688(17) Uiso 0.0038(18) 8 1 d
O2 O 0.788(7) 0.25 0.628(3) Uiso 0.0038(18) 4 1 d
O3 O 0.191(7) 0.25 0.419(3) Uiso 0.0038(18) 4 1 d
O4 O 0.081(4) 0.1317(17) 0.7247(19) Uiso 0.0038(18) 8 1 d
O6 O 0.049(4) 0.6520(14) 0.747(2) Uiso 0.0038(18) 8 1 d
O7 O -0.007(5) 0.4064(11) 0.484(3) Uiso 0.0038(18) 8 1 d
O5 O -0.038(4) 0.3894(16) -0.021(2) Uiso 0.0038(18) 8 1 d
Mn1 Mn 0.2458(12) 0.1223(5) 0.8799(7) Uiso 0.0147(5) 8 0.25 d
Mn2 Mn 0.2496(12) 0.6239(5) 0.8779(7) Uiso 0.0147(5) 8 0.25 d
loop_
_atom_type_symbol
_atom_type_scat_dispersion_real
_atom_type_scat_dispersion_imag
_atom_type_scat_source
Bi -0.6586 4.5733 'International Tables Vol C tables 4.2.6.8 and 6.1.1.1'
Fe 0.2025 0.3173 'International Tables Vol C tables 4.2.6.8 and 6.1.1.1'
O 0.0020 0.0019 'International Tables Vol C tables 4.2.6.8 and 6.1.1.1'
Mn 0.1845 0.2715 'International Tables Vol C tables 4.2.6.8 and 6.1.1.1'
loop_
_geom_bond_atom_site_label_1
_geom_bond_atom_site_label_2
_geom_bond_site_symmetry_2
_geom_bond_distance
_geom_bond_publ_flag
Bi1 O1 1_455 2.28(2) yes
Bi1 O1 . 3.41(2) yes
Bi1 O1 5_656 3.34(2) yes
Bi1 O1 6_456 2.37(2) yes
Bi1 O4 . 2.30(3) yes
Bi1 O4 6_556 3.30(2) yes
Bi1 O6 7_555 3.01(2) yes
Bi1 O7 3_546 2.33(3) yes
Bi1 O7 7_555 2.38(3) yes
Bi1 O5 4_555 2.45(2) yes
Bi1 O5 8_545 3.15(2) yes
Bi2 O2 1_455 2.34(4) yes
Bi2 O2 . 3.26(4) yes
Bi2 O2 4_456 2.81(4) yes
Bi2 O3 . 2.32(4) yes
Bi2 O4 . 2.27(3) yes
Bi2 O4 4_556 3.27(2) yes
Bi2 O4 6_556 3.27(2) yes
Bi2 O4 7_555 2.27(3) yes
Bi2 O7 . 3.15(2) yes
Bi2 O7 7_555 3.15(2) yes
Bi2 O5 4_555 2.87(2) yes
Bi2 O5 6_555 2.87(2) yes
Bi3 O2 . 3.00(4) yes
Bi3 O3 . 3.37(4) yes
Bi3 O3 1_655 2.39(4) yes
Bi3 O3 4_555 3.19(4) yes
Bi3 O6 2_564 2.72(2) yes
Bi3 O6 3_646 2.18(2) yes
Bi3 O6 5_666 2.18(2) yes
Bi3 O6 8_544 2.72(2) yes
Bi3 O7 1_655 3.06(2) yes
Bi3 O7 7_655 3.06(2) yes
Bi3 O5 4_555 3.34(2) yes
Bi3 O5 6_555 3.34(2) yes
Fe1 O1 6_456 1.96(2) yes
Fe1 O2 4_456 2.016(9) yes
Fe1 O4 . 1.98(2) yes
Fe1 O4 6_556 2.22(2) yes
Fe1 O7 4_556 2.11(3) yes
Fe1 O5 7_556 1.95(2) yes
Fe2 O1 4_456 2.10(2) yes
Fe2 O3 2_565 2.056(13) yes
Fe2 O6 . 1.91(3) yes
Fe2 O6 6_556 2.23(3) yes
Fe2 O7 2_565 1.93(3) yes
Fe2 O5 5_566 2.01(2) yes
loop_
_pd_proc_point_id
_pd_proc_2theta_corrected
_pd_proc_intensity_net
_pd_calc_intensity_net
_pd_proc_ls_weight
1 3.6800 3069.00 2746.71 55.40
2 3.6900 3054.00 2755.59 55.26
3 3.7000 3058.00 2764.42 55.30
4 3.7100 3048.00 2773.18 55.21
5 3.7200 3064.00 2781.89 55.35
6 3.7300 3046.00 2790.53 55.19
7 3.7400 3066.00 2799.11 55.37
8 3.7500 3041.00 2807.62 55.15
9 3.7600 3054.00 2816.08 55.26
10 3.7700 3076.00 2824.46 55.46
11 3.7800 3054.00 2832.78 55.26
12 3.7900 3050.00 2841.05 55.23
13 3.8000 3093.00 2849.25 55.61
14 3.8100 3031.00 2857.38 55.05
15 3.8200 3085.00 2865.46 55.54
16 3.8300 3087.00 2873.47 55.56
17 3.8400 3079.00 2881.42 55.49
18 3.8500 3020.00 2889.30 54.95
19 3.8600 3059.00 2897.13 55.31
20 3.8700 3042.00 2905.93 55.15
21 3.8800 3079.00 2913.68 55.49
22 3.8900 3069.00 2921.38 55.40
23 3.9000 3072.00 2929.03 55.43
24 3.9100 3015.00 2936.62 54.91
25 3.9200 3050.00 2944.15 55.23
26 3.9300 3052.00 2951.64 55.24
27 3.9400 3080.00 2959.07 55.50
28 3.9500 3069.00 2966.45 55.40
29 3.9600 3076.00 2973.78 55.46
30 3.9700 3061.00 2981.07 55.33
31 3.9800 3078.00 2988.31 55.48
32 3.9900 3054.00 2995.51 55.26
33 4.0000 3108.00 3002.67 55.75
34 4.0100 3079.00 3009.72 55.49
35 4.0200 3066.00 3016.82 55.37
36 4.0300 3035.00 3023.88 55.09
37 4.0400 3078.00 3030.93 55.48
38 4.0500 3063.00 3037.97 55.34
39 4.0600 3108.00 3045.00 55.75
40 4.0700 3066.00 3052.05 55.37
41 4.0800 3107.00 3059.12 55.74
42 4.0900 3068.00 3066.24 55.39
43 4.1000 3110.00 3083.34 55.77
44 4.1100 3097.00 3090.76 55.65
45 4.1200 3115.00 3098.37 55.81
46 4.1300 3096.00 3106.24 55.64
47 4.1400 3079.00 3114.51 55.49
48 4.1500 3073.00 3123.36 55.43
49 4.1600 3131.00 3133.12 55.96
50 4.1700 3106.00 3144.35 55.73
51 4.1800 3164.00 3158.16 56.25
52 4.1900 3165.00 3177.07 56.26
53 4.2000 3194.00 3207.45 56.52
54 4.2100 3150.00 3262.13 56.12
55 4.2200 3194.00 3347.52 56.52
56 4.2300 3262.00 3458.23 57.11
57 4.2400 3326.00 3545.49 57.67
58 4.2500 3380.00 3615.65 58.14
59 4.2600 3388.00 3701.24 58.21
60 4.2700 3316.00 3680.72 57.58
61 4.2800 3245.00 3501.20 56.96
62 4.2900 3181.00 3352.50 56.40
63 4.3000 3182.00 3284.90 56.41
64 4.3100 3173.00 3257.51 56.33
65 4.3200 3151.00 3245.89 56.13
66 4.3300 3137.00 3241.06 56.01
67 4.3400 3147.00 3239.74 56.10
68 4.3500 3147.00 3240.43 56.10
69 4.3600 3179.00 3263.01 56.38
70 4.3700 3156.00 3266.77 56.18
71 4.3800 3171.00 3271.15 56.31
72 4.3900 3108.00 3275.97 55.75
73 4.4000 3160.00 3281.14 56.21
74 4.4100 3152.00 3286.60 56.14
75 4.4200 3170.00 3292.30 56.30
76 4.4300 3151.00 3298.23 56.13
77 4.4400 3182.00 3304.36 56.41
78 4.4500 3169.00 3310.70 56.29
79 4.4600 3209.00 3317.26 56.65
80 4.4700 3202.00 3324.05 56.59
81 4.4800 3205.00 3331.10 56.61
82 4.4900 3231.00 3338.44 56.84
83 4.5000 3225.00 3346.10 56.79
84 4.5100 3235.00 3354.13 56.88
85 4.5200 3216.00 3362.62 56.71
86 4.5300 3235.00 3371.63 56.88
87 4.5400 3275.00 3381.30 57.23
88 4.5500 3267.00 3391.78 57.16
89 4.5600 3272.00 3403.33 57.20
90 4.5700 3240.00 3416.28 56.92
91 4.5800 3276.00 3430.87 57.24
92 4.5900 3330.00 3447.28 57.71
93 4.6000 3350.00 3467.53 57.88
94 4.6100 3333.00 3487.56 57.73
95 4.6200 3384.00 3509.57 58.17
96 4.6300 3378.00 3532.58 58.12
97 4.6400 3419.00 3559.68 58.47
98 4.6500 3468.00 3593.57 58.89
99 4.6600 3532.00 3637.47 59.43
100 4.6700 3595.00 3699.23 59.96
101 4.6800 3702.00 3775.75 60.84
102 4.6900 3787.00 3880.99 61.54
103 4.7000 3967.00 4033.15 62.98
104 4.7100 4304.00 4271.61 65.60
105 4.7200 4824.00 4688.12 69.46
106 4.7300 5759.00 5469.59 75.89
107 4.7400 7168.00 6844.23 84.66
108 4.7500 9024.00 8679.95 94.99
109 4.7600 11470.00 11216.00 107.10
110 4.7700 13899.00 13412.80 117.89
111 4.7800 14770.00 14381.80 121.53
112 4.7900 12654.00 14169.60 112.49
113 4.8000 9122.00 10883.10 95.51
114 4.8100 6530.00 7541.44 80.81
115 4.8200 5005.00 5719.38 70.75
116 4.8300 4281.00 4856.67 65.43
117 4.8400 3932.00 4422.11 62.71
118 4.8500 3743.00 4171.12 61.18
119 4.8600 3653.00 4012.17 60.44
120 4.8700 3571.00 3905.11 59.76
121 4.8800 3544.00 3831.10 59.53
122 4.8900 3527.00 3779.18 59.39
123 4.9000 3494.00 3742.91 59.11
124 4.9100 3490.00 3718.47 59.08
125 4.9200 3503.00 3703.72 59.19
126 4.9300 3502.00 3697.81 59.18
127 4.9400 3575.00 3701.21 59.79
128 4.9500 3537.00 3716.48 59.47
129 4.9600 3647.00 3750.68 60.39
130 4.9700 3718.00 3819.59 60.98
131 4.9800 3861.00 3947.94 62.14
132 4.9900 3976.00 4139.40 63.06
133 5.0000 4319.00 4410.98 65.72
134 5.0100 4681.00 4729.91 68.42
135 5.0200 5114.00 5050.38 71.51
136 5.0300 5324.00 5436.75 72.97
137 5.0400 5483.00 5698.26 74.05
138 5.0500 5835.00 5875.89 76.39
139 5.0600 6157.00 6112.10 78.47
140 5.0700 5954.00 6163.38 77.16
141 5.0800 5209.00 5451.96 72.17
142 5.0900 4441.00 4578.83 66.64
143 5.1000 3990.00 4104.68 63.17
144 5.1100 3777.00 3891.16 61.46
145 5.1200 3680.00 3787.35 60.66
146 5.1300 3627.00 3728.57 60.22
147 5.1400 3619.00 3692.17 60.16
148 5.1500 3622.00 3668.99 60.18
149 5.1600 3557.00 3654.48 59.64
150 5.1700 3531.00 3646.60 59.42
151 5.1800 3559.00 3644.94 59.66
152 5.1900 3592.00 3630.36 59.93
153 5.2000 3618.00 3652.47 60.15
154 5.2100 3670.00 3700.24 60.58
155 5.2200 3662.00 3773.13 60.51
156 5.2300 3714.00 3875.42 60.94
157 5.2400 3845.00 3965.81 62.01
158 5.2500 3863.00 4004.35 62.15
159 5.2600 3827.00 3968.57 61.86
160 5.2700 3741.00 3817.32 61.16
161 5.2800 3645.00 3704.31 60.37
162 5.2900 3579.00 3651.92 59.82
163 5.3000 3596.00 3629.47 59.97
164 5.3100 3580.00 3618.89 59.83
165 5.3200 3599.00 3613.54 59.99
166 5.3300 3582.00 3610.98 59.85
167 5.3400 3611.00 3610.13 60.09
168 5.3500 3568.00 3610.40 59.73
169 5.3600 3588.00 3611.46 59.90
170 5.3700 3622.00 3613.10 60.18
171 5.3800 3643.00 3615.19 60.36
172 5.3900 3629.00 3617.65 60.24
173 5.4000 3620.00 3620.43 60.17
174 5.4100 3570.00 3623.49 59.75
175 5.4200 3654.00 3626.80 60.45
176 5.4300 3643.00 3628.60 60.36
177 5.4400 3642.00 3627.75 60.35
178 5.4500 3617.00 3632.09 60.14
179 5.4600 3630.00 3636.65 60.25
180 5.4700 3616.00 3641.43 60.13
181 5.4800 3675.00 3646.45 60.62
182 5.4900 3653.00 3651.72 60.44
183 5.5000 3708.00 3657.27 60.89
184 5.5100 3686.00 3663.13 60.71
185 5.5200 3694.00 3669.33 60.78
186 5.5300 3667.00 3675.91 60.56
187 5.5400 3727.00 3682.93 61.05
188 5.5500 3709.00 3690.46 60.90
189 5.5600 3777.00 3698.60 61.46
190 5.5700 3755.00 3707.48 61.28
191 5.5800 3767.00 3717.33 61.38
192 5.5900 3756.00 3728.46 61.29
193 5.6000 3831.00 3833.30 61.90
194 5.6100 3846.00 3853.50 62.02
195 5.6200 3863.00 3879.04 62.15
196 5.6300 3867.00 3913.25 62.19
197 5.6400 3878.00 3964.93 62.27
198 5.6500 3910.00 4038.85 62.53
199 5.6600 3957.00 4129.44 62.90
200 5.6700 3978.00 4224.78 63.07
201 5.6800 4053.00 4275.82 63.66
202 5.6900 4033.00 4276.24 63.51
203 5.7000 4048.00 4198.22 63.62
204 5.7100 4066.00 4134.96 63.77
205 5.7200 4089.00 4117.82 63.95
206 5.7300 4126.00 4182.56 64.23
207 5.7400 4188.00 4210.06 64.71
208 5.7500 4275.00 4245.89 65.38
209 5.7600 4308.00 4288.31 65.64
210 5.7700 4347.00 4336.92 65.93
211 5.7800 4518.00 4391.95 67.22
212 5.7900 4464.00 4453.93 66.81
213 5.8000 4648.00 4523.99 68.18
214 5.8100 4759.00 4602.66 68.99
215 5.8200 4876.00 4691.61 69.83
216 5.8300 4990.00 4792.54 70.64
217 5.8400 5125.00 4907.55 71.59
218 5.8500 5338.00 5039.21 73.06
219 5.8600 5529.00 5190.69 74.36
220 5.8700 5696.00 5365.85 75.47
221 5.8800 5919.00 5569.49 76.93
222 5.8900 6149.00 5807.52 78.42
223 5.9000 6497.00 6087.47 80.60
224 5.9100 6714.00 6418.87 81.94
225 5.9200 7169.00 6814.20 84.67
226 5.9300 7509.00 7290.15 86.65
227 5.9400 8007.00 7872.34 89.48
228 5.9500 8464.00 8590.20 92.00
229 5.9600 9358.00 9499.56 96.74
230 5.9700 10362.00 10695.20 101.79
231 5.9800 12045.00 12377.50 109.75
232 5.9900 14790.00 15016.10 121.61
233 6.0000 19413.00 19628.30 139.33
234 6.0100 26937.00 27813.20 164.12
235 6.0200 39576.00 40100.90 198.94
236 6.0300 55532.00 55292.60 235.65
237 6.0400 71385.00 66509.30 267.18
238 6.0500 71298.00 68075.50 267.02
239 6.0600 54091.00 54853.50 232.57
240 6.0700 36110.00 36913.70 190.03
241 6.0800 26498.00 26462.50 162.78
242 6.0900 23862.00 23457.20 154.47
243 6.1000 26281.00 25981.50 162.11
244 6.1100 31884.00 32103.80 178.56
245 6.1200 38359.00 39166.90 195.85
246 6.1300 40438.00 41565.60 201.09
247 6.1400 33782.00 36317.80 183.80
248 6.1500 22920.00 23983.90 151.39
249 6.1600 15353.00 15323.80 123.91
250 6.1700 11378.00 11068.70 106.67
251 6.1800 9127.00 9003.18 95.54
252 6.1900 7818.00 7831.24 88.42
253 6.2000 6974.00 7071.68 83.51
254 6.2100 6336.00 6548.87 79.60
255 6.2200 5948.00 6178.05 77.12
256 6.2300 5638.00 5893.71 75.09
257 6.2400 5396.00 5645.64 73.46
258 6.2500 5106.00 5400.09 71.46
259 6.2600 4929.00 5166.29 70.21
260 6.2700 4688.00 4979.70 68.47
261 6.2800 4597.00 4835.26 67.80
262 6.2900 4468.00 4719.38 66.84
263 6.3000 4398.00 4622.94 66.32
264 6.3100 4262.00 4541.08 65.28
265 6.3200 4193.00 4471.12 64.75
266 6.3300 4201.00 4411.47 64.82
267 6.3400 4225.00 4361.19 65.00
268 6.3500 4171.00 4320.04 64.58
269 6.3600 4163.00 4288.32 64.52
270 6.3700 4171.00 4267.63 64.58
271 6.3800 4189.00 4261.46 64.72
272 6.3900 4180.00 4277.08 64.65
273 6.4000 4341.00 4328.44 65.89
274 6.4100 4485.00 4437.17 66.97
275 6.4200 4759.00 4607.50 68.99
276 6.4300 5249.00 4796.26 72.45
277 6.4400 5849.00 5047.62 76.48
278 6.4500 6185.00 5257.01 78.64
279 6.4600 5754.00 5076.57 75.86
280 6.4700 4975.00 4691.42 70.53
281 6.4800 4372.00 4302.89 66.12
282 6.4900 4054.00 4140.09 63.67
283 6.5000 3984.00 4062.62 63.12
284 6.5100 3947.00 4040.03 62.83
285 6.5200 3971.00 3994.30 63.02
286 6.5300 3986.00 4044.01 63.13
287 6.5400 3969.00 4132.50 63.00
288 6.5500 4085.00 4232.36 63.91
289 6.5600 4300.00 4376.14 65.57
290 6.5700 4521.00 4576.54 67.24
291 6.5800 4698.00 4688.66 68.54
292 6.5900 4631.00 4621.23 68.05
293 6.6000 4448.00 4384.13 66.69
294 6.6100 4360.00 4293.64 66.03
295 6.6200 4441.00 4394.69 66.64
296 6.6300 4565.00 4555.43 67.56
297 6.6400 4657.00 4589.38 68.24
298 6.6500 4417.00 4388.90 66.46
299 6.6600 4112.00 4066.49 64.12
300 6.6700 3887.00 3856.42 62.35
301 6.6800 3772.00 3751.91 61.42
302 6.6900 3705.00 3699.37 60.87
303 6.7000 3721.00 3668.60 61.00
304 6.7100 3695.00 3647.98 60.79
305 6.7200 3711.00 3633.28 60.92
306 6.7300 3641.00 3622.91 60.34
307 6.7400 3648.00 3616.54 60.40
308 6.7500 3644.00 3614.21 60.37
309 6.7600 3693.00 3614.28 60.77
310 6.7700 3684.00 3617.45 60.70
311 6.7800 3726.00 3621.55 61.04
312 6.7900 3691.00 3611.24 60.75
313 6.8000 3694.00 3592.82 60.78
314 6.8100 3627.00 3580.83 60.22
315 6.8200 3643.00 3572.05 60.36
316 6.8300 3635.00 3566.33 60.29
317 6.8400 3631.00 3562.09 60.26
318 6.8500 3611.00 3558.68 60.09
319 6.8600 3661.00 3555.84 60.51
320 6.8700 3648.00 3553.52 60.40
321 6.8800 3637.00 3551.70 60.31
322 6.8900 3623.00 3550.43 60.19
323 6.9000 3685.00 3549.84 60.70
324 6.9100 3621.00 3550.09 60.17
325 6.9200 3638.00 3551.50 60.32
326 6.9300 3666.00 3554.58 60.55
327 6.9400 3685.00 3560.23 60.70
328 6.9500 3693.00 3567.73 60.77
329 6.9600 3736.00 3585.07 61.12
330 6.9700 3768.00 3615.65 61.38
331 6.9800 3863.00 3666.30 62.15
332 6.9900 4043.00 3738.58 63.58
333 7.0000 4233.00 3819.05 65.06
334 7.0100 4408.00 3915.47 66.39
335 7.0200 4359.00 3935.65 66.02
336 7.0300 4102.00 3825.46 64.05
337 7.0400 3874.00 3703.39 62.24
338 7.0500 3732.00 3623.66 61.09
339 7.0600 3714.00 3579.66 60.94
340 7.0700 3686.00 3553.16 60.71
341 7.0800 3677.00 3536.49 60.64
342 7.0900 3629.00 3525.32 60.24
343 7.1000 3643.00 3517.46 60.36
344 7.1100 3660.00 3511.76 60.50
345 7.1200 3690.00 3507.58 60.75
346 7.1300 3679.00 3504.54 60.65
347 7.1400 3654.00 3502.45 60.45
348 7.1500 3649.00 3501.19 60.41
349 7.1600 3655.00 3500.75 60.46
350 7.1700 3695.00 3501.19 60.79
351 7.1800 3739.00 3502.63 61.15
352 7.1900 3753.00 3505.29 61.26
353 7.2000 3811.00 3509.53 61.73
354 7.2100 3778.00 3515.84 61.47
355 7.2200 3791.00 3525.22 61.57
356 7.2300 3794.00 3539.06 61.60
357 7.2400 3880.00 3559.83 62.29
358 7.2500 3884.00 3599.56 62.32
359 7.2600 3920.00 3652.32 62.61
360 7.2700 3865.00 3741.54 62.17
361 7.2800 4023.00 3891.41 63.43
362 7.2900 4186.00 4103.48 64.70
363 7.3000 4533.00 4342.31 67.33
364 7.3100 4949.00 4615.24 70.35
365 7.3200 5247.00 4656.48 72.44
366 7.3300 4947.00 4340.50 70.33
367 7.3400 4468.00 4009.65 66.84
368 7.3500 4122.00 3850.55 64.20
369 7.3600 3951.00 3735.21 62.86
370 7.3700 3838.00 3669.95 61.95
371 7.3800 3825.00 3631.98 61.85
372 7.3900 3781.00 3610.22 61.49
373 7.4000 3842.00 3600.02 61.98
374 7.4100 3792.00 3599.92 61.58
375 7.4200 3848.00 3613.98 62.03
376 7.4300 3913.00 3653.90 62.55
377 7.4400 4006.00 3738.87 63.29
378 7.4500 4147.00 3870.39 64.40
379 7.4600 4290.00 4030.15 65.50
380 7.4700 4421.00 4264.63 66.49
381 7.4800 4380.00 4225.46 66.18
382 7.4900 4219.00 3974.40 64.95
383 7.5000 4136.00 3782.88 64.31
384 7.5100 3989.00 3690.07 63.16
385 7.5200 4008.00 3653.49 63.31
386 7.5300 3968.00 3639.21 62.99
387 7.5400 4035.00 3637.30 63.52
388 7.5500 4001.00 3639.75 63.25
389 7.5600 4026.00 3647.20 63.45
390 7.5700 4041.00 3659.41 63.57
391 7.5800 4057.00 3676.63 63.69
392 7.5900 4042.00 3699.56 63.58
393 7.6000 4145.00 3729.38 64.38
394 7.6100 4108.00 3766.54 64.09
395 7.6200 4184.00 3816.07 64.68
396 7.6300 4227.00 3886.93 65.02
397 7.6400 4390.00 3994.20 66.26
398 7.6500 4580.00 4184.62 67.68
399 7.6600 4883.00 4507.64 69.88
400 7.6700 5394.00 5101.47 73.44
401 7.6800 6137.00 6072.88 78.34
402 7.6900 7137.00 7291.83 84.48
403 7.7000 8265.00 8684.41 90.91
404 7.7100 8611.00 9242.73 92.80
405 7.7200 8187.00 8042.24 90.48
406 7.7300 7433.00 6694.85 86.21
407 7.7400 7297.00 6220.33 85.42
408 7.7500 7686.00 6747.11 87.67
409 7.7600 8866.00 8109.57 94.16
410 7.7700 10364.00 9903.83 101.80
411 7.7800 11829.00 11871.20 108.76
412 7.7900 11227.00 11375.30 105.96
413 7.8000 9117.00 8604.92 95.48
414 7.8100 7189.00 6355.13 84.79
415 7.8200 6053.00 5174.82 77.80
416 7.8300 5481.00 4646.56 74.03
417 7.8400 5154.00 4410.57 71.79
418 7.8500 4933.00 4301.15 70.24
419 7.8600 4807.00 4233.91 69.33
420 7.8700 4693.00 4141.25 68.51
421 7.8800 4642.00 4056.86 68.13
422 7.8900 4559.00 4005.90 67.52
423 7.9000 4547.00 3981.59 67.43
424 7.9100 4563.00 4001.65 67.55
425 7.9200 4639.00 4094.79 68.11
426 7.9300 4741.00 4301.54 68.85
427 7.9400 4925.00 4618.40 70.18
428 7.9500 5169.00 5009.76 71.90
429 7.9600 5328.00 5357.16 72.99
430 7.9700 5214.00 5120.29 72.21
431 7.9800 4938.00 4642.37 70.27
432 7.9900 4689.00 4372.15 68.48
433 8.0000 4584.00 4300.98 67.71
434 8.0100 4557.00 4332.37 67.51
435 8.0200 4537.00 4346.06 67.36
436 8.0300 4536.00 4281.88 67.35
437 8.0400 4557.00 4232.86 67.51
438 8.0500 4574.00 4241.60 67.63
439 8.0600 4634.00 4305.30 68.07
440 8.0700 4679.00 4426.38 68.40
441 8.0800 4938.00 4625.02 70.27
442 8.0900 5178.00 5005.69 71.96
443 8.1000 5692.00 5555.44 75.45
444 8.1100 6423.00 6470.40 80.14
445 8.1200 7814.00 7872.27 88.40
446 8.1300 9432.00 9391.80 97.12
447 8.1400 10885.00 10820.30 104.33
448 8.1500 10515.00 10376.70 102.54
449 8.1600 8423.00 8390.36 91.78
450 8.1700 6642.00 6787.45 81.50
451 8.1800 5669.00 5867.47 75.29
452 8.1900 5217.00 5654.66 72.23
453 8.2000 5115.00 5395.88 71.52
454 8.2100 5006.00 5261.89 70.75
455 8.2200 5022.00 5190.92 70.87
456 8.2300 5003.00 5180.49 70.73
457 8.2400 5086.00 5204.49 71.32
458 8.2500 5097.00 5256.22 71.39
459 8.2600 5229.00 5332.64 72.31
460 8.2700 5296.00 5433.03 72.77
461 8.2800 5424.00 5556.00 73.65
462 8.2900 5546.00 5700.28 74.47
463 8.3000 5711.00 5862.95 75.57
464 8.3100 5836.00 6029.60 76.39
465 8.3200 6068.00 6221.00 77.90
466 8.3300 6314.00 6448.48 79.46
467 8.3400 6604.00 6715.07 81.26
468 8.3500 6881.00 7037.57 82.95
469 8.3600 7271.00 7393.65 85.27
470 8.3700 7654.00 7800.86 87.49
471 8.3800 8281.00 8271.25 91.00
472 8.3900 8842.00 8811.88 94.03
473 8.4000 9569.00 9433.45 97.82
474 8.4100 10268.00 10148.60 101.33
475 8.4200 11230.00 10972.30 105.97
476 8.4300 12250.00 11923.20 110.68
477 8.4400 13487.00 13025.30 116.13
478 8.4500 14814.00 14311.80 121.71
479 8.4600 16584.00 15832.70 128.78
480 8.4700 18457.00 17677.50 135.86
481 8.4800 21283.00 20038.80 145.89
482 8.4900 25048.00 23405.00 158.27
483 8.5000 31386.00 28907.30 177.16
484 8.5100 40668.00 38510.70 201.66
485 8.5200 56035.00 53475.00 236.72
486 8.5300 75334.00 72247.60 274.47
487 8.5400 93328.00 91250.30 305.50
488 8.5500 94710.00 92716.20 307.75
489 8.5600 90142.00 86768.80 300.24
490 8.5700 94112.00 91243.80 306.78
491 8.5800 107177.00 105704.00 327.38
492 8.5900 122704.00 125842.00 350.29
493 8.6000 157011.00 160090.00 396.25
494 8.6100 208612.00 207252.00 456.74
495 8.6200 242786.00 240081.00 492.73
496 8.6300 196139.00 190634.00 442.88
497 8.6400 115593.00 114270.00 339.99
498 8.6500 65597.00 65358.20 256.12
499 8.6600 40342.00 41614.60 200.85
500 8.6700 28044.00 30170.50 167.46
501 8.6800 21574.00 23693.70 146.88
502 8.6900 17745.00 19547.90 133.21
503 8.7000 15362.00 16710.20 123.94
504 8.7100 13514.00 14676.70 116.25
505 8.7200 12162.00 13131.90 110.28
506 8.7300 11014.00 11914.10 104.95
507 8.7400 10204.00 11022.30 101.01
508 8.7500 9615.00 10475.10 98.06
509 8.7600 9399.00 10292.50 96.95
510 8.7700 9396.00 10420.40 96.93
511 8.7800 9814.00 10783.70 99.07
512 8.7900 10090.00 11038.10 100.45
513 8.8000 10191.00 10906.10 100.95
514 8.8100 10589.00 11390.20 102.90
515 8.8200 11927.00 12963.80 109.21
516 8.8300 13962.00 15073.40 118.16
517 8.8400 15553.00 16521.40 124.71
518 8.8500 14549.00 15005.80 120.62
519 8.8600 11750.00 11645.70 108.40
520 8.8700 8972.00 8904.70 94.72
521 8.8800 7131.00 7267.12 84.45
522 8.8900 6111.00 6388.27 78.17
523 8.9000 5572.00 5900.71 74.65
524 8.9100 5203.00 5600.30 72.13
525 8.9200 4945.00 5407.71 70.32
526 8.9300 4813.00 5307.80 69.38
527 8.9400 4832.00 5327.16 69.51
528 8.9500 4983.00 5523.82 70.59
529 8.9600 5393.00 5838.13 73.44
530 8.9700 5863.00 6321.68 76.57
531 8.9800 6260.00 6623.71 79.12
532 8.9900 5869.00 6217.39 76.61
533 9.0000 5272.00 5548.84 72.61
534 9.0100 4955.00 5178.87 70.39
535 9.0200 4927.00 5188.46 70.19
536 9.0300 5190.00 5449.29 72.04
537 9.0400 5556.00 5481.01 74.54
538 9.0500 5510.00 5468.91 74.23
539 9.0600 4984.00 4869.30 70.60
540 9.0700 4416.00 4332.52 66.45
541 9.0800 4080.00 4014.78 63.87
542 9.0900 3879.00 3862.21 62.28
543 9.1000 3778.00 3792.90 61.47
544 9.1100 3733.00 3753.08 61.10
545 9.1200 3667.00 3702.20 60.56
546 9.1300 3556.00 3639.46 59.63
547 9.1400 3526.00 3588.36 59.38
548 9.1500 3481.00 3552.46 59.00
549 9.1600 3484.00 3532.99 59.03
550 9.1700 3443.00 3528.59 58.68
551 9.1800 3450.00 3543.86 58.74
552 9.1900 3455.00 3577.49 58.78
553 9.2000 3475.00 3616.98 58.95
554 9.2100 3395.00 3621.23 58.27
555 9.2200 3403.00 3556.07 58.34
556 9.2300 3417.00 3489.18 58.46
557 9.2400 3384.00 3452.02 58.17
558 9.2500 3307.00 3436.05 57.51
559 9.2600 3318.00 3426.35 57.60
560 9.2700 3328.00 3402.14 57.69
561 9.2800 3333.00 3379.04 57.73
562 9.2900 3278.00 3361.27 57.25
563 9.3000 3296.00 3348.57 57.41
564 9.3100 3284.00 3339.27 57.31
565 9.3200 3283.00 3333.38 57.30
566 9.3300 3290.00 3331.19 57.36
567 9.3400 3305.00 3317.31 57.49
568 9.3500 3319.00 3318.66 57.61
569 9.3600 3307.00 3318.42 57.51
570 9.3700 3262.00 3311.66 57.11
571 9.3800 3312.00 3302.29 57.55
572 9.3900 3261.00 3296.12 57.11
573 9.4000 3265.00 3317.61 57.14
574 9.4100 3253.00 3321.46 57.04
575 9.4200 3306.00 3331.78 57.50
576 9.4300 3296.00 3352.48 57.41
577 9.4400 3357.00 3385.62 57.94
578 9.4500 3434.00 3433.52 58.60
579 9.4600 3504.00 3481.47 59.19
580 9.4700 3562.00 3484.97 59.68
581 9.4800 3486.00 3434.95 59.04
582 9.4900 3394.00 3394.84 58.26
583 9.5000 3371.00 3381.02 58.06
584 9.5100 3383.00 3399.96 58.16
585 9.5200 3481.00 3461.08 59.00
586 9.5300 3604.00 3590.45 60.03
587 9.5400 3866.00 3806.08 62.18
588 9.5500 4010.00 4070.17 63.32
589 9.5600 4191.00 4279.58 64.74
590 9.5700 4069.00 4221.02 63.79
591 9.5800 3828.00 3993.93 61.87
592 9.5900 3608.00 3778.89 60.07
593 9.6000 3418.00 3592.82 58.46
594 9.6100 3282.00 3459.41 57.29
595 9.6200 3255.00 3380.31 57.05
596 9.6300 3200.00 3338.49 56.57
597 9.6400 3164.00 3319.47 56.25
598 9.6500 3145.00 3316.66 56.08
599 9.6600 3159.00 3327.55 56.21
600 9.6700 3138.00 3347.81 56.02
601 9.6800 3179.00 3368.02 56.38
602 9.6900 3171.00 3368.25 56.31
603 9.7000 3176.00 3349.05 56.36
604 9.7100 3218.00 3336.98 56.73
605 9.7200 3215.00 3341.62 56.70
606 9.7300 3247.00 3368.46 56.98
607 9.7400 3308.00 3428.19 57.52
608 9.7500 3372.00 3536.80 58.07
609 9.7600 3543.00 3690.68 59.52
610 9.7700 3624.00 3848.82 60.20
611 9.7800 3661.00 3897.16 60.51
612 9.7900 3599.00 3810.06 59.99
613 9.8000 3604.00 3769.06 60.03
614 9.8100 3708.00 3873.58 60.89
615 9.8200 3995.00 4190.97 63.21
616 9.8300 4513.00 4815.38 67.18
617 9.8400 5314.00 5769.04 72.90
618 9.8500 6256.00 6801.61 79.09
619 9.8600 6740.00 7200.23 82.10
620 9.8700 6198.00 6252.40 78.73
621 9.8800 5136.00 5018.88 71.67
622 9.8900 4408.00 4227.12 66.39
623 9.9000 3923.00 3839.99 62.63
624 9.9100 3664.00 3674.23 60.53
625 9.9200 3562.00 3613.73 59.68
626 9.9300 3500.00 3620.73 59.16
627 9.9400 3578.00 3701.05 59.82
628 9.9500 3669.00 3872.24 60.57
629 9.9600 3928.00 4126.52 62.67
630 9.9700 4210.00 4418.47 64.88
631 9.9800 4399.00 4621.92 66.32
632 9.9900 4655.00 4756.15 68.23
633 10.0000 4807.00 4823.88 69.33
634 10.0100 4649.00 4655.67 68.18
635 10.0200 4496.00 4555.05 67.05
636 10.0300 4579.00 4686.64 67.67
637 10.0400 4834.00 4877.55 69.53
638 10.0500 4783.00 4760.23 69.16
639 10.0600 4398.00 4335.09 66.32
640 10.0700 3918.00 3994.12 62.59
641 10.0800 3654.00 3752.40 60.45
642 10.0900 3481.00 3623.08 59.00
643 10.1000 3482.00 3595.33 59.01
644 10.1100 3462.00 3586.33 58.84
645 10.1200 3605.00 3626.76 60.04
646 10.1300 3736.00 3729.41 61.12
647 10.1400 4008.00 3876.47 63.31
648 10.1500 4119.00 4001.66 64.18
649 10.1600 4078.00 3958.36 63.86
650 10.1700 3784.00 3786.84 61.51
651 10.1800 3558.00 3659.53 59.65
652 10.1900 3397.00 3600.24 58.28
653 10.2000 3359.00 3586.03 57.96
654 10.2100 3287.00 3593.74 57.33
655 10.2200 3271.00 3612.91 57.19
656 10.2300 3285.00 3639.50 57.31
657 10.2400 3345.00 3673.84 57.84
658 10.2500 3359.00 3715.08 57.96
659 10.2600 3388.00 3763.61 58.21
660 10.2700 3421.00 3819.52 58.49
661 10.2800 3506.00 3883.64 59.21
662 10.2900 3528.00 3956.89 59.40
663 10.3000 3637.00 4047.81 60.31
664 10.3100 3740.00 4143.20 61.16
665 10.3200 3806.00 4247.78 61.69
666 10.3300 3913.00 4375.20 62.55
667 10.3400 4126.00 4521.04 64.23
668 10.3500 4255.00 4679.13 65.23
669 10.3600 4527.00 4830.74 67.28
670 10.3700 4707.00 4961.33 68.61
671 10.3800 5028.00 5101.00 70.91
672 10.3900 5289.00 5267.15 72.73
673 10.4000 5722.00 5461.83 75.64
674 10.4100 5930.00 5688.81 77.01
675 10.4200 6180.00 5957.24 78.61
676 10.4300 6240.00 6282.34 78.99
677 10.4400 6431.00 6688.10 80.19
678 10.4500 6754.00 7218.98 82.18
679 10.4600 7410.00 7959.50 86.08
680 10.4700 8612.00 9112.42 92.80
681 10.4800 10917.00 11191.60 104.48
682 10.4900 14985.00 15288.90 122.41
683 10.5000 22477.00 22925.40 149.92
684 10.5100 34189.00 34102.40 184.90
685 10.5200 48650.00 45652.60 220.57
686 10.5300 54677.00 49588.80 233.83
687 10.5400 49739.00 45372.10 223.02
688 10.5500 44937.00 41662.20 211.98
689 10.5600 38996.00 35608.40 197.47
690 10.5700 27702.00 24973.90 166.44
691 10.5800 17517.00 16259.50 132.35
692 10.5900 11841.00 11293.90 108.82
693 10.6000 8785.00 8857.83 93.73
694 10.6100 7199.00 7640.58 84.85
695 10.6200 6246.00 6905.63 79.03
696 10.6300 5643.00 6355.72 75.12
697 10.6400 5335.00 5921.17 73.04
698 10.6500 5029.00 5558.21 70.92
699 10.6600 4895.00 5309.01 69.96
700 10.6700 4910.00 5234.81 70.07
701 10.6800 5082.00 5389.24 71.29
702 10.6900 5487.00 5812.40 74.07
703 10.7000 6052.00 6431.85 77.79
704 10.7100 6478.00 6988.13 80.49
705 10.7200 6678.00 7080.98 81.72
706 10.7300 6458.00 6827.39 80.36
707 10.7400 6689.00 7007.08 81.79
708 10.7500 7537.00 8032.38 86.82
709 10.7600 8999.00 9507.55 94.86
710 10.7700 9777.00 10265.00 98.88
711 10.7800 8797.00 8939.99 93.79
712 10.7900 6874.00 6831.30 82.91
713 10.8000 5392.00 5349.18 73.43
714 10.8100 4524.00 4572.92 67.26
715 10.8200 4025.00 4196.95 63.44
716 10.8300 3777.00 4002.07 61.46
717 10.8400 3605.00 3881.31 60.04
718 10.8500 3542.00 3818.51 59.51
719 10.8600 3506.00 3799.08 59.21
720 10.8700 3499.00 3778.97 59.15
721 10.8800 3588.00 3730.19 59.90
722 10.8900 3532.00 3654.08 59.43
723 10.9000 3498.00 3555.44 59.14
724 10.9100 3394.00 3500.54 58.26
725 10.9200 3350.00 3506.72 57.88
726 10.9300 3327.00 3596.38 57.68
727 10.9400 3424.00 3777.66 58.51
728 10.9500 3511.00 3985.83 59.25
729 10.9600 3544.00 4055.73 59.53
730 10.9700 3458.00 3801.86 58.80
731 10.9800 3310.00 3533.78 57.53
732 10.9900 3199.00 3360.52 56.56
733 11.0000 3156.00 3275.31 56.18
734 11.0100 3133.00 3208.11 55.97
735 11.0200 3156.00 3191.00 56.18
736 11.0300 3156.00 3177.44 56.18
737 11.0400 3117.00 3159.87 55.83
738 11.0500 3035.00 3146.24 55.09
739 11.0600 3050.00 3138.45 55.23
740 11.0700 3012.00 3136.11 54.88
741 11.0800 3024.00 3139.07 54.99
742 11.0900 3044.00 3149.25 55.17
743 11.1000 3074.00 3172.09 55.44
744 11.1100 3080.00 3219.78 55.50
745 11.1200 3141.00 3303.42 56.04
746 11.1300 3152.00 3422.22 56.14
747 11.1400 3241.00 3538.00 56.93
748 11.1500 3314.00 3573.78 57.57
749 11.1600 3251.00 3487.64 57.02
750 11.1700 3174.00 3371.30 56.34
751 11.1800 3132.00 3295.53 55.96
752 11.1900 3141.00 3271.33 56.04
753 11.2000 3193.00 3292.59 56.51
754 11.2100 3215.00 3360.78 56.70
755 11.2200 3386.00 3496.22 58.19
756 11.2300 3541.00 3738.35 59.51
757 11.2400 3873.00 4092.79 62.23
758 11.2500 4211.00 4468.68 64.89
759 11.2600 4487.00 4571.94 66.99
760 11.2700 4178.00 4213.86 64.64
761 11.2800 3766.00 3791.73 61.37
762 11.2900 3398.00 3519.12 58.29
763 11.3000 3277.00 3409.69 57.25
764 11.3100 3149.00 3338.45 56.12
765 11.3200 3170.00 3318.12 56.30
766 11.3300 3190.00 3341.38 56.48
767 11.3400 3193.00 3403.62 56.51
768 11.3500 3224.00 3485.69 56.78
769 11.3600 3316.00 3549.79 57.58
770 11.3700 3404.00 3588.45 58.34
771 11.3800 3433.00 3577.69 58.59
772 11.3900 3377.00 3523.66 58.11
773 11.4000 3312.00 3419.88 57.55
774 11.4100 3198.00 3306.56 56.55
775 11.4200 3159.00 3231.50 56.21
776 11.4300 3163.00 3193.96 56.24
777 11.4400 3165.00 3181.47 56.26
778 11.4500 3190.00 3185.29 56.48
779 11.4600 3191.00 3204.75 56.49
780 11.4700 3268.00 3249.63 57.17
781 11.4800 3386.00 3344.31 58.19
782 11.4900 3478.00 3525.65 58.97
783 11.5000 3739.00 3809.00 61.15
784 11.5100 3887.00 4115.34 62.35
785 11.5200 3964.00 4243.25 62.96
786 11.5300 3827.00 4026.46 61.86
787 11.5400 3611.00 3693.28 60.09
788 11.5500 3452.00 3455.91 58.75
789 11.5600 3390.00 3386.11 58.22
790 11.5700 3386.00 3349.88 58.19
791 11.5800 3406.00 3371.83 58.36
792 11.5900 3426.00 3453.69 58.53
793 11.6000 3559.00 3605.44 59.66
794 11.6100 3710.00 3805.65 60.91
795 11.6200 3930.00 3972.28 62.69
796 11.6300 3920.00 3990.71 62.61
797 11.6400 3854.00 3885.95 62.08
798 11.6500 3670.00 3714.54 60.58
799 11.6600 3591.00 3569.80 59.92
800 11.6700 3521.00 3490.46 59.34
801 11.6800 3505.00 3463.19 59.20
802 11.6900 3563.00 3490.86 59.69
803 11.7000 3673.00 3571.17 60.61
804 11.7100 3734.00 3672.36 61.11
805 11.7200 3876.00 3731.14 62.26
806 11.7300 3885.00 3728.90 62.33
807 11.7400 4019.00 3780.99 63.40
808 11.7500 4139.00 3969.57 64.34
809 11.7600 4419.00 4258.98 66.48
810 11.7700 4623.00 4480.13 67.99
811 11.7800 4606.00 4408.00 67.87
812 11.7900 4327.00 4138.32 65.78
813 11.8000 4120.00 3935.39 64.19
814 11.8100 4017.00 3844.52 63.38
815 11.8200 3923.00 3819.38 62.63
816 11.8300 3907.00 3759.62 62.51
817 11.8400 3942.00 3716.66 62.79
818 11.8500 3940.00 3708.35 62.77
819 11.8600 3969.00 3724.83 63.00
820 11.8700 3961.00 3759.85 62.94
821 11.8800 4039.00 3808.94 63.55
822 11.8900 4048.00 3870.52 63.62
823 11.9000 4160.00 3945.37 64.50
824 11.9100 4196.00 4033.20 64.78
825 11.9200 4315.00 4135.05 65.69
826 11.9300 4403.00 4248.25 66.36
827 11.9400 4502.00 4376.71 67.10
828 11.9500 4561.00 4524.90 67.54
829 11.9600 4726.00 4696.28 68.75
830 11.9700 4876.00 4894.76 69.83
831 11.9800 5073.00 5126.15 71.22
832 11.9900 5241.00 5399.31 72.39
833 12.0000 5408.00 5724.94 73.54
834 12.0100 5682.00 6108.11 75.38
835 12.0200 6012.00 6547.33 77.54
836 12.0300 6401.00 7042.01 80.01
837 12.0400 7042.00 7652.97 83.92
838 12.0500 7796.00 8498.33 88.29
839 12.0600 9158.00 9796.16 95.70
840 12.0700 11083.00 12020.00 105.28
841 12.0800 14516.00 16035.90 120.48
842 12.0900 20264.00 22936.00 142.35
843 12.1000 29910.00 33055.90 172.95
844 12.1100 41876.00 43988.40 204.64
845 12.1200 50373.00 49638.70 224.44
846 12.1300 45050.00 44296.70 212.25
847 12.1400 31999.00 32652.40 178.88
848 12.1500 21518.00 22323.50 146.69
849 12.1600 15376.00 15569.00 124.00
850 12.1700 11844.00 11792.30 108.83
851 12.1800 9997.00 9815.45 99.99
852 12.1900 8920.00 8765.36 94.45
853 12.2000 8489.00 8193.41 92.14
854 12.2100 8369.00 7902.11 91.48
855 12.2200 8634.00 7804.57 92.92
856 12.2300 9256.00 7935.08 96.21
857 12.2400 10271.00 8586.75 101.35
858 12.2500 12148.00 10423.00 110.22
859 12.2600 15361.00 14517.70 123.94
860 12.2700 19858.00 21570.00 140.92
861 12.2800 25745.00 29644.60 160.45
862 12.2900 28862.00 33034.00 169.89
863 12.3000 25506.00 27044.50 159.71
864 12.3100 18833.00 18377.40 137.23
865 12.3200 14192.00 12828.10 119.13
866 12.3300 12056.00 10828.10 109.80
867 12.3400 11642.00 11080.90 107.90
868 12.3500 11822.00 11938.30 108.73
869 12.3600 11315.00 11705.90 106.37
870 12.3700 9519.00 9812.59 97.57
871 12.3800 7775.00 7663.84 88.18
872 12.3900 6605.00 6160.83 81.27
873 12.4000 5951.00 5325.08 77.14
874 12.4100 5588.00 4921.58 74.75
875 12.4200 5437.00 4756.83 73.74
876 12.4300 5419.00 4728.29 73.61
877 12.4400 5544.00 4714.89 74.46
878 12.4500 5501.00 4543.13 74.17
879 12.4600 5056.00 4250.78 71.11
880 12.4700 4569.00 4013.23 67.59
881 12.4800 4304.00 3879.20 65.60
882 12.4900 4160.00 3827.99 64.50
883 12.5000 4086.00 3857.36 63.92
884 12.5100 4153.00 3935.56 64.44
885 12.5200 4146.00 3976.71 64.39
886 12.5300 4081.00 3897.95 63.88
887 12.5400 3896.00 3723.63 62.42
888 12.5500 3715.00 3591.23 60.95
889 12.5600 3683.00 3525.47 60.69
890 12.5700 3615.00 3503.54 60.12
891 12.5800 3634.00 3494.22 60.28
892 12.5900 3561.00 3481.38 59.67
893 12.6000 3564.00 3459.90 59.70
894 12.6100 3513.00 3417.26 59.27
895 12.6200 3464.00 3367.44 58.86
896 12.6300 3391.00 3329.03 58.23
897 12.6400 3390.00 3304.82 58.22
898 12.6500 3341.00 3292.01 57.80
899 12.6600 3351.00 3288.52 57.89
900 12.6700 3292.00 3295.57 57.38
901 12.6800 3309.00 3311.74 57.52
902 12.6900 3300.00 3277.59 57.45
903 12.7000 3316.00 3274.25 57.58
904 12.7100 3297.00 3249.06 57.42
905 12.7200 3314.00 3224.93 57.57
906 12.7300 3298.00 3211.32 57.43
907 12.7400 3266.00 3210.28 57.15
908 12.7500 3297.00 3217.21 57.42
909 12.7600 3349.00 3202.97 57.87
910 12.7700 3362.00 3228.81 57.98
911 12.7800 3397.00 3251.04 58.28
912 12.7900 3379.00 3262.66 58.13
913 12.8000 3416.00 3281.70 58.45
914 12.8100 3443.00 3333.74 58.68
915 12.8200 3492.00 3412.18 59.09
916 12.8300 3526.00 3466.01 59.38
917 12.8400 3556.00 3433.54 59.63
918 12.8500 3533.00 3356.52 59.44
919 12.8600 3590.00 3303.81 59.92
920 12.8700 3626.00 3289.68 60.22
921 12.8800 3662.00 3300.54 60.51
922 12.8900 3671.00 3350.54 60.59
923 12.9000 3668.00 3441.85 60.56
924 12.9100 3648.00 3588.81 60.40
925 12.9200 3741.00 3779.26 61.16
926 12.9300 3788.00 3923.12 61.55
927 12.9400 3875.00 3888.34 62.25
928 12.9500 3805.00 3741.45 61.68
929 12.9600 3829.00 3635.97 61.88
930 12.9700 3845.00 3601.52 62.01
931 12.9800 3933.00 3659.30 62.71
932 12.9900 4059.00 3748.39 63.71
933 13.0000 4283.00 3928.50 65.44
934 13.0100 4640.00 4228.65 68.12
935 13.0200 5208.00 4752.40 72.17
936 13.0300 6040.00 5676.19 77.72
937 13.0400 7470.00 7162.13 86.43
938 13.0500 9183.00 8981.65 95.83
939 13.0600 10592.00 10286.00 102.92
940 13.0700 10103.00 9966.14 100.51
941 13.0800 8177.00 8274.54 90.43
942 13.0900 6478.00 6500.06 80.49
943 13.1000 5431.00 5251.14 73.70
944 13.1100 4787.00 4535.55 69.19
945 13.1200 4465.00 4183.18 66.82
946 13.1300 4327.00 4046.92 65.78
947 13.1400 4336.00 4049.48 65.85
948 13.1500 4417.00 4184.11 66.46
949 13.1600 4698.00 4468.24 68.54
950 13.1700 5123.00 4904.69 71.58
951 13.1800 5671.00 5438.38 75.31
952 13.1900 6167.00 5905.07 78.53
953 13.2000 6222.00 5948.40 78.88
954 13.2100 5968.00 5662.88 77.25
955 13.2200 5974.00 5571.53 77.29
956 13.2300 6218.00 5803.34 78.85
957 13.2400 6490.00 5999.57 80.56
958 13.2500 6182.00 5702.90 78.63
959 13.2600 5612.00 5143.88 74.91
960 13.2700 5227.00 4787.60 72.30
961 13.2800 5173.00 4719.33 71.92
962 13.2900 5213.00 4793.80 72.20
963 13.3000 5225.00 4806.49 72.28
964 13.3100 5108.00 4710.42 71.47
965 13.3200 4922.00 4552.71 70.16
966 13.3300 4708.00 4422.30 68.61
967 13.3400 4704.00 4371.21 68.59
968 13.3500 4678.00 4392.27 68.40
969 13.3600 4810.00 4461.80 69.35
970 13.3700 4830.00 4563.08 69.50
971 13.3800 4957.00 4687.36 70.41
972 13.3900 4973.00 4832.86 70.52
973 13.4000 5138.00 5000.41 71.68
974 13.4100 5236.00 5185.16 72.36
975 13.4200 5383.00 5382.24 73.37
976 13.4300 5548.00 5584.89 74.48
977 13.4400 5716.00 5797.65 75.60
978 13.4500 5873.00 6034.27 76.64
979 13.4600 6178.00 6309.20 78.60
980 13.4700 6449.00 6647.53 80.31
981 13.4800 6946.00 7116.86 83.34
982 13.4900 7609.00 7855.49 87.23
983 13.5000 8717.00 9099.34 93.36
984 13.5100 10297.00 11048.00 101.47
985 13.5200 12922.00 13502.90 113.68
986 13.5300 15264.00 15491.50 123.55
987 13.5400 15864.00 15703.50 125.95
988 13.5500 14226.00 14476.00 119.27
989 13.5600 13251.00 13838.10 115.11
990 13.5700 13815.00 14759.40 117.54
991 13.5800 16026.00 16823.70 126.59
992 13.5900 18109.00 18505.10 134.57
993 13.6000 18097.00 17971.00 134.52
994 13.6100 14824.00 15068.80 121.75
995 13.6200 11567.00 11837.90 107.55
996 13.6300 9654.00 9521.13 98.25
997 13.6400 8798.00 8229.24 93.80
998 13.6500 8533.00 7728.26 92.37
999 13.6600 8859.00 7874.48 94.12
1000 13.6700 9765.00 8776.37 98.82
1001 13.6800 11474.00 10815.70 107.12
1002 13.6900 14007.00 14264.80 118.35
1003 13.7000 17600.00 18310.90 132.66
1004 13.7100 19783.00 20427.90 140.65
1005 13.7200 18114.00 18508.90 134.59
1006 13.7300 14276.00 14604.80 119.48
1007 13.7400 11365.00 11135.90 106.61
1008 13.7500 9356.00 8651.95 96.73
1009 13.7600 7833.00 7130.74 88.50
1010 13.7700 7027.00 6381.40 83.83
1011 13.7800 6599.00 6101.21 81.23
1012 13.7900 6318.00 5958.60 79.49
1013 13.8000 6009.00 5662.10 77.52
1014 13.8100 5611.00 5268.54 74.91
1015 13.8200 5366.00 5044.10 73.25
1016 13.8300 5349.00 5096.54 73.14
1017 13.8400 5647.00 5376.63 75.15
1018 13.8500 5862.00 5645.82 76.56
1019 13.8600 5795.00 5544.53 76.12
1020 13.8700 5261.00 5080.15 72.53
1021 13.8800 4822.00 4664.89 69.44
1022 13.8900 4575.00 4469.22 67.64
1023 13.9000 4637.00 4485.49 68.10
1024 13.9100 4744.00 4686.06 68.88
1025 13.9200 5069.00 4952.61 71.20
1026 13.9300 5166.00 5133.52 71.87
1027 13.9400 5157.00 5051.30 71.81
1028 13.9500 4846.00 4705.89 69.61
1029 13.9600 4540.00 4376.27 67.38
1030 13.9700 4417.00 4240.76 66.46
1031 13.9800 4375.00 4322.99 66.14
1032 13.9900 4448.00 4531.83 66.69
1033 14.0000 4573.00 4699.78 67.62
1034 14.0100 4478.00 4689.16 66.92
1035 14.0200 4530.00 4657.19 67.31
1036 14.0300 4490.00 4594.38 67.01
1037 14.0400 4364.00 4356.94 66.06
1038 14.0500 4047.00 4047.27 63.62
1039 14.0600 3903.00 3813.35 62.47
1040 14.0700 3704.00 3658.41 60.86
1041 14.0800 3670.00 3570.62 60.58
1042 14.0900 3621.00 3517.85 60.17
1043 14.1000 3591.00 3486.47 59.92
1044 14.1100 3541.00 3471.41 59.51
1045 14.1200 3556.00 3466.83 59.63
1046 14.1300 3595.00 3472.59 59.96
1047 14.1400 3653.00 3484.01 60.44
1048 14.1500 3624.00 3481.07 60.20
1049 14.1600 3624.00 3483.10 60.20
1050 14.1700 3620.00 3490.23 60.17
1051 14.1800 3739.00 3515.04 61.15
1052 14.1900 3801.00 3570.99 61.65
1053 14.2000 3949.00 3692.48 62.84
1054 14.2100 4108.00 3912.38 64.09
1055 14.2200 4276.00 4224.21 65.39
1056 14.2300 4354.00 4487.16 65.98
1057 14.2400 4404.00 4514.50 66.36
1058 14.2500 4266.00 4313.30 65.31
1059 14.2600 4129.00 4155.15 64.26
1060 14.2700 4074.00 4172.30 63.83
1061 14.2800 4153.00 4370.94 64.44
1062 14.2900 4262.00 4659.25 65.28
1063 14.3000 4431.00 4835.05 66.57
1064 14.3100 4482.00 4742.29 66.95
1065 14.3200 4543.00 4569.60 67.40
1066 14.3300 4573.00 4582.39 67.62
1067 14.3400 4777.00 4766.14 69.12
1068 14.3500 5148.00 5113.06 71.75
1069 14.3600 5631.00 5626.52 75.04
1070 14.3700 6313.00 6330.50 79.45
1071 14.3800 7287.00 7355.76 85.36
1072 14.3900 8736.00 8719.92 93.47
1073 14.4000 10149.00 10085.60 100.74
1074 14.4100 11044.00 11019.40 105.09
1075 14.4200 11835.00 11769.30 108.79
1076 14.4300 13084.00 12940.60 114.39
1077 14.4400 14427.00 14082.80 120.11
1078 14.4500 13824.00 13681.50 117.58
1079 14.4600 11344.00 11474.30 106.51
1080 14.4700 9052.00 9046.67 95.14
1081 14.4800 7533.00 7347.93 86.79
1082 14.4900 6587.00 6410.38 81.16
1083 14.5000 6194.00 6108.77 78.70
1084 14.5100 6161.00 6239.50 78.49
1085 14.5200 6167.00 6444.66 78.53
1086 14.5300 6036.00 6274.36 77.69
1087 14.5400 5675.00 5720.81 75.33
1088 14.5500 5356.00 5191.47 73.18
1089 14.5600 5124.00 4864.14 71.58
1090 14.5700 5028.00 4721.28 70.91
1091 14.5800 5068.00 4695.61 71.19
1092 14.5900 5065.00 4746.54 71.17
1093 14.6000 5247.00 4869.98 72.44
1094 14.6100 5443.00 5085.12 73.78
1095 14.6200 5780.00 5433.87 76.03
1096 14.6300 6172.00 5913.32 78.56
1097 14.6400 6532.00 6389.64 80.82
1098 14.6500 6784.00 6591.43 82.36
1099 14.6600 6695.00 6437.13 81.82
1100 14.6700 6554.00 6215.60 80.96
1101 14.6800 6463.00 6117.35 80.39
1102 14.6900 6506.00 6164.61 80.66
1103 14.7000 6543.00 6319.08 80.89
1104 14.7100 6673.00 6540.96 81.69
1105 14.7200 6973.00 6802.04 83.50
1106 14.7300 7201.00 7079.95 84.86
1107 14.7400 7584.00 7362.56 87.09
1108 14.7500 7916.00 7665.13 88.97
1109 14.7600 8325.00 8012.70 91.24
1110 14.7700 8643.00 8424.63 92.97
1111 14.7800 9158.00 8922.37 95.70
1112 14.7900 9732.00 9542.15 98.65
1113 14.8000 10642.00 10352.50 103.16
1114 14.8100 11765.00 11509.50 108.47
1115 14.8200 13868.00 13393.20 117.76
1116 14.8300 16967.00 16819.90 130.26
1117 14.8400 22876.00 23078.80 151.25
1118 14.8500 32702.00 33273.90 180.84
1119 14.8600 47953.00 46361.80 218.98
1120 14.8700 60953.00 56808.90 246.89
1121 14.8800 59197.00 57436.00 243.30
1122 14.8900 48322.00 51024.20 219.82
1123 14.9000 42928.00 45883.40 207.19
1124 14.9100 42509.00 43492.20 206.18
1125 14.9200 40756.00 39919.70 201.88
1126 14.9300 33042.00 33119.60 181.77
1127 14.9400 26414.00 26439.70 162.52
1128 14.9500 23604.00 22916.30 153.64
1129 14.9600 25019.00 23801.50 158.17
1130 14.9700 29353.00 29103.90 171.33
1131 14.9800 36826.00 36639.20 191.90
1132 14.9900 41152.00 41452.00 202.86
1133 15.0000 40022.00 40373.50 200.05
1134 15.0100 35710.00 35520.60 188.97
1135 15.0200 28433.00 28664.60 168.62
1136 15.0300 21515.00 22375.30 146.68
1137 15.0400 17702.00 17930.20 133.05
1138 15.0500 14977.00 14570.10 122.38
1139 15.0600 12497.00 11782.80 111.79
1140 15.0700 10564.00 9651.54 102.78
1141 15.0800 9209.00 8212.67 95.96
1142 15.0900 8328.00 7374.36 91.26
1143 15.1000 7821.00 6973.72 88.44
1144 15.1100 7565.00 6833.10 86.98
1145 15.1200 7522.00 6836.85 86.73
1146 15.1300 7617.00 7028.55 87.28
1147 15.1400 7981.00 7504.57 89.34
1148 15.1500 8536.00 8210.03 92.39
1149 15.1600 9051.00 8721.55 95.14
1150 15.1700 8743.00 8481.53 93.50
1151 15.1800 7892.00 7599.55 88.84
1152 15.1900 6866.00 6545.31 82.86
1153 15.2000 6000.00 5675.86 77.46
1154 15.2100 5477.00 5114.47 74.01
1155 15.2200 5156.00 4841.46 71.81
1156 15.2300 4975.00 4807.48 70.53
1157 15.2400 4991.00 4927.95 70.65
1158 15.2500 4924.00 5046.76 70.17
1159 15.2600 4881.00 4971.36 69.86
1160 15.2700 4567.00 4658.15 67.58
1161 15.2800 4333.00 4305.74 65.83
1162 15.2900 4089.00 4048.67 63.95
1163 15.3000 3953.00 3893.34 62.87
1164 15.3100 3806.00 3803.76 61.69
1165 15.3200 3799.00 3746.84 61.64
1166 15.3300 3710.00 3706.61 60.91
1167 15.3400 3676.00 3677.19 60.63
1168 15.3500 3673.00 3657.46 60.61
1169 15.3600 3700.00 3647.91 60.83
1170 15.3700 3609.00 3646.38 60.08
1171 15.3800 3613.00 3645.12 60.11
1172 15.3900 3592.00 3633.94 59.93
1173 15.4000 3564.00 3613.41 59.70
1174 15.4100 3578.00 3596.84 59.82
1175 15.4200 3523.00 3550.90 59.35
1176 15.4300 3534.00 3573.29 59.45
1177 15.4400 3596.00 3614.94 59.97
1178 15.4500 3599.00 3663.25 59.99
1179 15.4600 3687.00 3692.16 60.72
1180 15.4700 3659.00 3695.20 60.49
1181 15.4800 3672.00 3681.24 60.60
1182 15.4900 3638.00 3660.31 60.32
1183 15.5000 3687.00 3595.48 60.72
1184 15.5100 3694.00 3600.93 60.78
1185 15.5200 3723.00 3633.79 61.02
1186 15.5300 3808.00 3691.99 61.71
1187 15.5400 3917.00 3775.73 62.59
1188 15.5500 3994.00 3907.23 63.20
1189 15.5600 4246.00 4124.47 65.16
1190 15.5700 4520.00 4442.63 67.23
1191 15.5800 4879.00 4804.75 69.85
1192 15.5900 5182.00 5158.26 71.99
1193 15.6000 5486.00 5404.27 74.07
1194 15.6100 5688.00 5582.19 75.42
1195 15.6200 6024.00 5806.56 77.61
1196 15.6300 6349.00 6240.38 79.68
1197 15.6400 7267.00 7201.31 85.25
1198 15.6500 8629.00 8790.48 92.89
1199 15.6600 10452.00 10554.10 102.24
1200 15.6700 11159.00 11369.70 105.64
1201 15.6800 10051.00 10403.00 100.25
1202 15.6900 8085.00 8434.28 89.92
1203 15.7000 6460.00 6627.63 80.37
1204 15.7100 5444.00 5417.94 73.78
1205 15.7200 4756.00 4774.35 68.96
1206 15.7300 4367.00 4496.92 66.08
1207 15.7400 4184.00 4369.16 64.68
1208 15.7500 4004.00 4249.34 63.28
1209 15.7600 4008.00 4141.08 63.31
1210 15.7700 3931.00 4063.32 62.70
1211 15.7800 3941.00 3995.89 62.78
1212 15.7900 3847.00 3914.40 62.02
1213 15.8000 3795.00 3837.71 61.60
1214 15.8100 3731.00 3796.47 61.08
1215 15.8200 3795.00 3783.55 61.60
1216 15.8300 3777.00 3793.78 61.46
1217 15.8400 3830.00 3851.45 61.89
1218 15.8500 3882.00 3921.01 62.31
1219 15.8600 3904.00 3894.82 62.48
1220 15.8700 3722.00 3745.42 61.01
1221 15.8800 3565.00 3578.51 59.71
1222 15.8900 3461.00 3457.01 58.83
1223 15.9000 3353.00 3381.39 57.91
1224 15.9100 3304.00 3336.95 57.48
1225 15.9200 3273.00 3314.07 57.21
1226 15.9300 3227.00 3309.80 56.81
1227 15.9400 3206.00 3325.98 56.62
1228 15.9500 3206.00 3362.24 56.62
1229 15.9600 3279.00 3403.65 57.26
1230 15.9700 3243.00 3416.40 56.95
1231 15.9800 3251.00 3385.08 57.02
1232 15.9900 3210.00 3343.31 56.66
1233 16.0000 3203.00 3315.51 56.60
1234 16.0100 3148.00 3296.28 56.11
1235 16.0200 3164.00 3274.87 56.25
1236 16.0300 3147.00 3255.59 56.10
1237 16.0400 3192.00 3242.41 56.50
1238 16.0500 3163.00 3236.99 56.24
1239 16.0600 3155.00 3238.05 56.17
1240 16.0700 3155.00 3242.67 56.17
1241 16.0800 3171.00 3245.68 56.31
1242 16.0900 3161.00 3244.10 56.22
1243 16.1000 3181.00 3243.80 56.40
1244 16.1100 3200.00 3246.29 56.57
1245 16.1200 3247.00 3253.55 56.98
1246 16.1300 3304.00 3261.46 57.48
1247 16.1400 3332.00 3265.94 57.72
1248 16.1500 3321.00 3265.32 57.63
1249 16.1600 3322.00 3264.19 57.64
1250 16.1700 3289.00 3268.08 57.35
1251 16.1800 3325.00 3279.83 57.66
1252 16.1900 3319.00 3303.29 57.61
1253 16.2000 3411.00 3347.71 58.40
1254 16.2100 3471.00 3416.19 58.92
1255 16.2200 3573.00 3510.91 59.77
1256 16.2300 3583.00 3624.10 59.86
1257 16.2400 3677.00 3757.68 60.64
1258 16.2500 3791.00 3926.10 61.57
1259 16.2600 3914.00 4088.16 62.56
1260 16.2700 3981.00 4164.57 63.10
1261 16.2800 4040.00 4187.71 63.56
1262 16.2900 4195.00 4300.02 64.77
1263 16.3000 4458.00 4534.50 66.77
1264 16.3100 4752.00 4870.60 68.93
1265 16.3200 5067.00 5286.13 71.18
1266 16.3300 5311.00 5592.03 72.88
1267 16.3400 5172.00 5432.26 71.92
1268 16.3500 4563.00 4857.22 67.55
1269 16.3600 4074.00 4276.56 63.83
1270 16.3700 3720.00 3882.27 60.99
1271 16.3800 3509.00 3674.24 59.24
1272 16.3900 3433.00 3598.64 58.59
1273 16.4000 3450.00 3608.02 58.74
1274 16.4100 3493.00 3667.54 59.10
1275 16.4200 3618.00 3750.58 60.15
1276 16.4300 3684.00 3831.69 60.70
1277 16.4400 3749.00 3864.42 61.23
1278 16.4500 3679.00 3795.09 60.65
1279 16.4600 3514.00 3690.25 59.28
1280 16.4700 3437.00 3571.42 58.63
1281 16.4800 3400.00 3492.09 58.31
1282 16.4900 3363.00 3445.50 57.99
1283 16.5000 3356.00 3433.22 57.93
1284 16.5100 3333.00 3463.96 57.73
1285 16.5200 3392.00 3542.60 58.24
1286 16.5300 3430.00 3643.96 58.57
1287 16.5400 3502.00 3708.82 59.18
1288 16.5500 3505.00 3671.48 59.20
1289 16.5600 3488.00 3571.87 59.06
1290 16.5700 3447.00 3483.16 58.71
1291 16.5800 3480.00 3436.19 58.99
1292 16.5900 3452.00 3436.06 58.75
1293 16.6000 3510.00 3493.54 59.25
1294 16.6100 3567.00 3603.24 59.72
1295 16.6200 3721.00 3780.17 61.00
1296 16.6300 3877.00 4004.62 62.27
1297 16.6400 4044.00 4193.75 63.59
1298 16.6500 4015.00 4224.67 63.36
1299 16.6600 3896.00 4085.37 62.42
1300 16.6700 3796.00 3899.77 61.61
1301 16.6800 3815.00 3746.56 61.77
1302 16.6900 3772.00 3656.78 61.42
1303 16.7000 3836.00 3636.06 61.94
1304 16.7100 3797.00 3687.81 61.62
1305 16.7200 3981.00 3833.77 63.10
1306 16.7300 4221.00 4117.19 64.97
1307 16.7400 4567.00 4583.31 67.58
1308 16.7500 5111.00 5246.96 71.49
1309 16.7600 5624.00 5912.36 74.99
1310 16.7700 5775.00 6245.88 75.99
1311 16.7800 5455.00 5977.69 73.86
1312 16.7900 4867.00 5349.94 69.76
1313 16.8000 4479.00 4750.95 66.93
1314 16.8100 4222.00 4359.29 64.98
1315 16.8200 4151.00 4207.83 64.43
1316 16.8300 4233.00 4268.91 65.06
1317 16.8400 4471.00 4469.79 66.87
1318 16.8500 4649.00 4668.93 68.18
1319 16.8600 4629.00 4704.29 68.04
1320 16.8700 4377.00 4578.86 66.16
1321 16.8800 4177.00 4372.87 64.63
1322 16.8900 3981.00 4143.10 63.10
1323 16.9000 3848.00 3975.62 62.03
1324 16.9100 3790.00 3907.70 61.56
1325 16.9200 3819.00 3931.87 61.80
1326 16.9300 3872.00 4025.70 62.23
1327 16.9400 3993.00 4148.08 63.19
1328 16.9500 4097.00 4224.65 64.01
1329 16.9600 4118.00 4209.85 64.17
1330 16.9700 4089.00 4162.12 63.95
1331 16.9800 4112.00 4149.19 64.12
1332 16.9900 4122.00 4197.87 64.20
1333 17.0000 4335.00 4314.81 65.84
1334 17.0100 4483.00 4498.35 66.96
1335 17.0200 4769.00 4732.33 69.06
1336 17.0300 4987.00 4969.64 70.62
1337 17.0400 5084.00 5207.05 71.30
1338 17.0500 5137.00 5493.05 71.67
1339 17.0600 5367.00 5757.55 73.26
1340 17.0700 5564.00 5830.67 74.59
1341 17.0800 5781.00 5772.40 76.03
1342 17.0900 6085.00 5892.80 78.01
1343 17.1000 6791.00 6495.70 82.41
1344 17.1100 7977.00 7832.05 89.31
1345 17.1200 10107.00 9920.20 100.53
1346 17.1300 12406.00 12099.70 111.38
1347 17.1400 13321.00 12862.60 115.42
1348 17.1500 11392.00 11477.20 106.73
1349 17.1600 9280.00 9396.67 96.33
1350 17.1700 7929.00 7904.53 89.04
1351 17.1800 7399.00 7297.65 86.02
1352 17.1900 7449.00 7385.48 86.31
1353 17.2000 7863.00 7830.75 88.67
1354 17.2100 8349.00 8253.57 91.37
1355 17.2200 8487.00 8347.02 92.12
1356 17.2300 8359.00 8209.72 91.43
1357 17.2400 8597.00 8305.30 92.72
1358 17.2500 9655.00 9220.51 98.26
1359 17.2600 11992.00 11680.20 109.51
1360 17.2700 15912.00 16336.90 126.14
1361 17.2800 22157.00 22892.00 148.85
1362 17.2900 28577.00 28717.10 169.05
1363 17.3000 29529.00 29187.30 171.84
1364 17.3100 22190.00 23759.40 148.96
1365 17.3200 15334.00 17289.80 123.83
1366 17.3300 11926.00 12759.90 109.21
1367 17.3400 10419.00 10347.40 102.07
1368 17.3500 9455.00 9068.07 97.24
1369 17.3600 8358.00 8029.52 91.42
1370 17.3700 7123.00 7005.99 84.40
1371 17.3800 6193.00 6114.36 78.70
1372 17.3900 5533.00 5441.25 74.38
1373 17.4000 5197.00 4988.78 72.09
1374 17.4100 4859.00 4703.56 69.71
1375 17.4200 4690.00 4530.17 68.48
1376 17.4300 4553.00 4438.48 67.48
1377 17.4400 4578.00 4424.02 67.66
1378 17.4500 4575.00 4464.89 67.64
1379 17.4600 4571.00 4500.35 67.61
1380 17.4700 4499.00 4452.00 67.07
1381 17.4800 4400.00 4347.14 66.33
1382 17.4900 4325.00 4277.91 65.76
1383 17.5000 4351.00 4289.26 65.96
1384 17.5100 4425.00 4361.21 66.52
1385 17.5200 4538.00 4424.28 67.36
1386 17.5300 4565.00 4420.49 67.56
1387 17.5400 4466.00 4326.69 66.83
1388 17.5500 4290.00 4206.37 65.50
1389 17.5600 4227.00 4143.60 65.02
1390 17.5700 4150.00 4170.22 64.42
1391 17.5800 4279.00 4298.49 65.41
1392 17.5900 4375.00 4519.16 66.14
1393 17.6000 4521.00 4744.60 67.24
1394 17.6100 4584.00 4836.80 67.71
1395 17.6200 4576.00 4784.88 67.65
1396 17.6300 4475.00 4671.35 66.90
1397 17.6400 4328.00 4516.90 65.79
1398 17.6500 4227.00 4356.46 65.02
1399 17.6600 4224.00 4262.30 64.99
1400 17.6700 4129.00 4211.26 64.26
1401 17.6800 4032.00 4109.75 63.50
1402 17.6900 3898.00 3960.06 62.43
1403 17.7000 3777.00 3816.54 61.46
1404 17.7100 3691.00 3719.45 60.75
1405 17.7200 3656.00 3674.61 60.46
1406 17.7300 3680.00 3666.61 60.66
1407 17.7400 3724.00 3674.71 61.02
1408 17.7500 3729.00 3691.21 61.07
1409 17.7600 3745.00 3701.89 61.20
1410 17.7700 3745.00 3725.64 61.20
1411 17.7800 3825.00 3773.15 61.85
1412 17.7900 3895.00 3848.42 62.41
1413 17.8000 4076.00 3940.04 63.84
1414 17.8100 4202.00 4028.80 64.82
1415 17.8200 4351.00 4136.02 65.96
1416 17.8300 4559.00 4336.29 67.52
1417 17.8400 4968.00 4694.76 70.48
1418 17.8500 5506.00 5211.34 74.20
1419 17.8600 6149.00 5851.72 78.42
1420 17.8700 6579.00 6351.95 81.11
1421 17.8800 6392.00 6397.61 79.95
1422 17.8900 5747.00 5997.29 75.81
1423 17.9000 5263.00 5483.50 72.55
1424 17.9100 5018.00 5119.13 70.84
1425 17.9200 5034.00 5012.63 70.95
1426 17.9300 5298.00 5200.37 72.79
1427 17.9400 5787.00 5685.63 76.07
1428 17.9500 6287.00 6440.58 79.29
1429 17.9600 7070.00 7370.50 84.08
1430 17.9700 7823.00 8148.13 88.45
1431 17.9800 7969.00 8229.66 89.27
1432 17.9900 7231.00 7604.60 85.04
1433 18.0000 6559.00 6851.91 80.99
1434 18.0100 6156.00 6332.98 78.46
1435 18.0200 5979.00 6101.89 77.32
1436 18.0300 5925.00 6069.67 76.97
1437 18.0400 6011.00 6001.37 77.53
1438 18.0500 5637.00 5712.78 75.08
1439 18.0600 5284.00 5338.31 72.69
1440 18.0700 5036.00 5050.08 70.96
1441 18.0800 4998.00 4898.48 70.70
1442 18.0900 5053.00 4867.01 71.08
1443 18.1000 5111.00 4920.26 71.49
1444 18.1100 5179.00 5017.11 71.97
1445 18.1200 5261.00 5107.64 72.53
1446 18.1300 5278.00 5168.34 72.65
1447 18.1400 5302.00 5210.23 72.81
1448 18.1500 5340.00 5235.26 73.08
1449 18.1600 5406.00 5275.52 73.53
1450 18.1700 5459.00 5406.40 73.89
1451 18.1800 5713.00 5731.23 75.58
1452 18.1900 6113.00 6353.71 78.19
1453 18.2000 6987.00 7298.50 83.59
1454 18.2100 8160.00 8346.36 90.33
1455 18.2200 9044.00 8924.66 95.10
1456 18.2300 8568.00 8578.02 92.56
1457 18.2400 7493.00 7682.75 86.56
1458 18.2500 6726.00 6852.74 82.01
1459 18.2600 6413.00 6349.82 80.08
1460 18.2700 6274.00 6238.03 79.21
1461 18.2800 6596.00 6521.52 81.22
1462 18.2900 7125.00 7226.10 84.41
1463 18.3000 8210.00 8361.57 90.61
1464 18.3100 9817.00 9766.90 99.08
1465 18.3200 11412.00 10848.90 106.83
1466 18.3300 11264.00 10937.50 106.13
1467 18.3400 10215.00 10426.30 101.07
1468 18.3500 9804.00 10101.50 99.02
1469 18.3600 9921.00 10031.70 99.60
1470 18.3700 9832.00 9995.23 99.16
1471 18.3800 9835.00 10026.30 99.17
1472 18.3900 9757.00 10189.70 98.78
1473 18.4000 10095.00 10499.80 100.47
1474 18.4100 10565.00 10804.30 102.79
1475 18.4200 10625.00 10662.00 103.08
1476 18.4300 9822.00 9912.44 99.11
1477 18.4400 8916.00 9009.78 94.42
1478 18.4500 8346.00 8390.79 91.36
1479 18.4600 8105.00 8069.32 90.03
1480 18.4700 7749.00 7736.41 88.03
1481 18.4800 7005.00 7171.06 83.70
1482 18.4900 6248.00 6329.55 79.04
1483 18.5000 5477.00 5446.84 74.01
1484 18.5100 4922.00 4769.51 70.16
1485 18.5200 4551.00 4341.16 67.46
1486 18.5300 4337.00 4125.63 65.86
1487 18.5400 4198.00 3992.84 64.79
1488 18.5500 4094.00 3925.71 63.98
1489 18.5600 4072.00 3910.25 63.81
1490 18.5700 4085.00 3936.76 63.91
1491 18.5800 4160.00 4032.16 64.50
1492 18.5900 4305.00 4238.99 65.61
1493 18.6000 4491.00 4572.37 67.01
1494 18.6100 4659.00 4980.68 68.26
1495 18.6200 5010.00 5264.91 70.78
1496 18.6300 4985.00 5197.03 70.60
1497 18.6400 4696.00 4826.52 68.53
1498 18.6500 4303.00 4402.67 65.60
1499 18.6600 4007.00 4071.64 63.30
1500 18.6700 3850.00 3862.98 62.05
1501 18.6800 3769.00 3756.50 61.39
1502 18.6900 3746.00 3724.59 61.20
1503 18.7000 3763.00 3749.11 61.34
1504 18.7100 3759.00 3806.63 61.31
1505 18.7200 3795.00 3862.96 61.60
1506 18.7300 3815.00 3868.51 61.77
1507 18.7400 3771.00 3819.26 61.41
1508 18.7500 3719.00 3769.48 60.98
1509 18.7600 3726.00 3760.54 61.04
1510 18.7700 3746.00 3802.64 61.20
1511 18.7800 3786.00 3877.40 61.53
1512 18.7900 3792.00 3946.93 61.58
1513 18.8000 3825.00 3956.84 61.85
1514 18.8100 3779.00 3904.80 61.47
1515 18.8200 3808.00 3842.70 61.71
1516 18.8300 3774.00 3814.26 61.43
1517 18.8400 3785.00 3834.67 61.52
1518 18.8500 3851.00 3902.10 62.06
1519 18.8600 3954.00 4004.55 62.88
1520 18.8700 4055.00 4074.90 63.68
1521 18.8800 4137.00 4093.09 64.32
1522 18.8900 4104.00 4081.50 64.06
1523 18.9000 4195.00 4083.59 64.77
1524 18.9100 4237.00 4153.31 65.09
1525 18.9200 4501.00 4321.55 67.09
1526 18.9300 4875.00 4629.36 69.82
1527 18.9400 5414.00 5138.21 73.58
1528 18.9500 5909.00 5915.07 76.87
1529 18.9600 6692.00 6967.81 81.80
1530 18.9700 7595.00 8022.24 87.15
1531 18.9800 8133.00 8411.75 90.18
1532 18.9900 7477.00 7794.63 86.47
1533 19.0000 6463.00 6742.30 80.39
1534 19.0100 5748.00 5818.98 75.82
1535 19.0200 5184.00 5200.10 72.00
1536 19.0300 4858.00 4869.40 69.70
1537 19.0400 4722.00 4741.40 68.72
1538 19.0500 4643.00 4737.74 68.14
1539 19.0600 4698.00 4822.94 68.54
1540 19.0700 4777.00 4972.26 69.12
1541 19.0800 4915.00 5166.39 70.11
1542 19.0900 4984.00 5400.03 70.60
1543 19.1000 5148.00 5629.44 71.75
1544 19.1100 5296.00 5807.01 72.77
1545 19.1200 5511.00 5948.00 74.24
1546 19.1300 5650.00 6095.36 75.17
1547 19.1400 5884.00 6290.60 76.71
1548 19.1500 6119.00 6659.06 78.22
1549 19.1600 6702.00 7353.70 81.87
1550 19.1700 7609.00 8451.97 87.23
1551 19.1800 9255.00 9877.98 96.20
1552 19.1900 10972.00 11295.60 104.75
1553 19.2000 11948.00 12208.00 109.31
1554 19.2100 11497.00 12622.60 107.22
1555 19.2200 11540.00 13183.50 107.42
1556 19.2300 12595.00 14242.70 112.23
1557 19.2400 14801.00 15362.20 121.66
1558 19.2500 15888.00 15498.00 126.05
1559 19.2600 14047.00 14083.80 118.52
1560 19.2700 11084.00 11809.90 105.28
1561 19.2800 8863.00 9611.00 94.14
1562 19.2900 7511.00 7918.00 86.67
1563 19.3000 6722.00 6787.31 81.99
1564 19.3100 6179.00 6100.90 78.61
1565 19.3200 5947.00 5707.25 77.12
1566 19.3300 5760.00 5496.93 75.89
1567 19.3400 5759.00 5421.86 75.89
1568 19.3500 5805.00 5495.74 76.19
1569 19.3600 6075.00 5705.78 77.94
1570 19.3700 6456.00 6086.68 80.35
1571 19.3800 7084.00 6619.83 84.17
1572 19.3900 7682.00 7203.45 87.65
1573 19.4000 8354.00 7672.81 91.40
1574 19.4100 8571.00 8049.63 92.58
1575 19.4200 9010.00 8728.75 94.92
1576 19.4300 9941.00 10148.60 99.70
1577 19.4400 11539.00 12418.80 107.42
1578 19.4500 13430.00 15083.30 115.89
1579 19.4600 15560.00 16785.90 124.74
1580 19.4700 15390.00 15928.60 124.06
1581 19.4800 12673.00 12988.10 112.57
1582 19.4900 9723.00 9835.07 98.61
1583 19.5000 7726.00 7468.55 87.90
1584 19.5100 6463.00 6011.17 80.39
1585 19.5200 5742.00 5232.54 75.78
1586 19.5300 5340.00 4834.40 73.08
1587 19.5400 5109.00 4596.25 71.48
1588 19.5500 4810.00 4410.52 69.35
1589 19.5600 4683.00 4241.93 68.43
1590 19.5700 4449.00 4090.61 66.70
1591 19.5800 4359.00 3967.50 66.02
1592 19.5900 4225.00 3885.09 65.00
1593 19.6000 4243.00 3842.45 65.14
1594 19.6100 4190.00 3829.69 64.73
1595 19.6200 4157.00 3827.38 64.47
1596 19.6300 4163.00 3810.63 64.52
1597 19.6400 4100.00 3772.37 64.03
1598 19.6500 4035.00 3733.49 63.52
1599 19.6600 4092.00 3714.28 63.97
1600 19.6700 4010.00 3725.94 63.32
1601 19.6800 4022.00 3776.84 63.42
1602 19.6900 4000.00 3875.65 63.25
1603 19.7000 4101.00 4024.69 64.04
1604 19.7100 4152.00 4199.33 64.44
1605 19.7200 4303.00 4340.87 65.60
1606 19.7300 4389.00 4396.86 66.25
1607 19.7400 4434.00 4367.79 66.59
1608 19.7500 4408.00 4324.12 66.39
1609 19.7600 4460.00 4370.42 66.78
1610 19.7700 4599.00 4560.77 67.82
1611 19.7800 4896.00 4888.87 69.97
1612 19.7900 5205.00 5289.57 72.15
1613 19.8000 5559.00 5646.58 74.56
1614 19.8100 5700.00 5804.16 75.50
1615 19.8200 5694.00 5686.74 75.46
1616 19.8300 5373.00 5376.86 73.30
1617 19.8400 5106.00 5009.74 71.46
1618 19.8500 4791.00 4653.14 69.22
1619 19.8600 4552.00 4358.24 67.47
1620 19.8700 4328.00 4160.15 65.79
1621 19.8800 4260.00 4068.63 65.27
1622 19.8900 4202.00 4046.42 64.82
1623 19.9000 4168.00 4039.33 64.56
1624 19.9100 4083.00 4004.05 63.90
1625 19.9200 3980.00 3958.60 63.09
1626 19.9300 3914.00 3943.18 62.56
1627 19.9400 3921.00 3977.63 62.62
1628 19.9500 3967.00 4047.30 62.98
1629 19.9600 4090.00 4131.11 63.95
1630 19.9700 4081.00 4174.62 63.88
1631 19.9800 4050.00 4176.77 63.64
1632 19.9900 3977.00 4177.59 63.06
1633 20.0000 3947.00 4198.12 62.83
1634 20.0100 4011.00 4232.50 63.33
1635 20.0200 4114.00 4295.25 64.14
1636 20.0300 4215.00 4412.01 64.92
1637 20.0400 4342.00 4588.38 65.89
1638 20.0500 4502.00 4779.39 67.10
1639 20.0600 4647.00 4905.99 68.17
1640 20.0700 4690.00 4908.67 68.48
1641 20.0800 4677.00 4827.04 68.39
1642 20.0900 4556.00 4704.66 67.50
1643 20.1000 4438.00 4616.88 66.62
1644 20.1100 4431.00 4637.42 66.57
1645 20.1200 4571.00 4815.50 67.61
1646 20.1300 4827.00 5198.87 69.48
1647 20.1400 5344.00 5804.47 73.10
1648 20.1500 6030.00 6563.34 77.65
1649 20.1600 6967.00 7271.54 83.47
1650 20.1700 7518.00 7610.75 86.71
1651 20.1800 7301.00 7355.33 85.45
1652 20.1900 6350.00 6713.73 79.69
1653 20.2000 5677.00 6066.61 75.35
1654 20.2100 5250.00 5583.79 72.46
1655 20.2200 5065.00 5249.93 71.17
1656 20.2300 4835.00 4998.35 69.53
1657 20.2400 4745.00 4816.55 68.88
1658 20.2500 4673.00 4732.48 68.36
1659 20.2600 4798.00 4772.96 69.27
1660 20.2700 4963.00 4949.85 70.45
1661 20.2800 5243.00 5246.98 72.41
1662 20.2900 5660.00 5599.51 75.23
1663 20.3000 6089.00 5871.55 78.03
1664 20.3100 6111.00 5909.75 78.17
1665 20.3200 5897.00 5705.35 76.79
1666 20.3300 5631.00 5405.47 75.04
1667 20.3400 5377.00 5157.79 73.33
1668 20.3500 5285.00 5056.41 72.70
1669 20.3600 5305.00 5177.98 72.84
1670 20.3700 5504.00 5572.50 74.19
1671 20.3800 5905.00 6176.74 76.84
1672 20.3900 6330.00 6718.38 79.56
1673 20.4000 6530.00 6810.57 80.81
1674 20.4100 6203.00 6415.16 78.76
1675 20.4200 5732.00 5789.34 75.71
1676 20.4300 5196.00 5217.21 72.08
1677 20.4400 4998.00 4821.82 70.70
1678 20.4500 4832.00 4539.43 69.51
1679 20.4600 4574.00 4286.62 67.63
1680 20.4700 4314.00 4078.47 65.68
1681 20.4800 4188.00 3962.89 64.71
1682 20.4900 4145.00 3955.45 64.38
1683 20.5000 4196.00 4048.45 64.78
1684 20.5100 4322.00 4200.09 65.74
1685 20.5200 4438.00 4323.35 66.62
1686 20.5300 4427.00 4329.92 66.54
1687 20.5400 4318.00 4243.62 65.71
1688 20.5500 4225.00 4143.17 65.00
1689 20.5600 4216.00 4102.44 64.93
1690 20.5700 4225.00 4140.18 65.00
1691 20.5800 4280.00 4224.68 65.42
1692 20.5900 4220.00 4307.10 64.96
1693 20.6000 4270.00 4353.74 65.35
1694 20.6100 4178.00 4327.49 64.64
1695 20.6200 4130.00 4194.61 64.27
1696 20.6300 3953.00 3996.50 62.87
1697 20.6400 3843.00 3819.16 61.99
1698 20.6500 3701.00 3706.80 60.84
1699 20.6600 3720.00 3665.09 60.99
1700 20.6700 3704.00 3686.24 60.86
1701 20.6800 3826.00 3762.42 61.85
1702 20.6900 3893.00 3890.59 62.39
1703 20.7000 4040.00 4074.35 63.56
1704 20.7100 4208.00 4327.35 64.87
1705 20.7200 4516.00 4691.03 67.20
1706 20.7300 4835.00 5179.52 69.53
1707 20.7400 5435.00 5732.36 73.72
1708 20.7500 5998.00 6198.13 77.45
1709 20.7600 6270.00 6349.43 79.18
1710 20.7700 5930.00 6079.71 77.01
1711 20.7800 5431.00 5570.89 73.70
1712 20.7900 5032.00 5074.29 70.94
1713 20.8000 4811.00 4723.30 69.36
1714 20.8100 4690.00 4567.27 68.48
1715 20.8200 4665.00 4611.40 68.30
1716 20.8300 4770.00 4801.35 69.07
1717 20.8400 4991.00 5003.80 70.65
1718 20.8500 4960.00 5034.06 70.43
1719 20.8600 4728.00 4840.45 68.76
1720 20.8700 4417.00 4547.11 66.46
1721 20.8800 4168.00 4270.75 64.56
1722 20.8900 3935.00 4062.83 62.73
1723 20.9000 3871.00 3927.74 62.22
1724 20.9100 3833.00 3848.25 61.91
1725 20.9200 3777.00 3815.91 61.46
1726 20.9300 3754.00 3833.47 61.27
1727 20.9400 3781.00 3893.83 61.49
1728 20.9500 3733.00 3974.69 61.10
1729 20.9600 3835.00 4046.15 61.93
1730 20.9700 3856.00 4074.09 62.10
1731 20.9800 3828.00 4033.33 61.87
1732 20.9900 3780.00 3953.26 61.48
1733 21.0000 3762.00 3900.09 61.34
1734 21.0100 3759.00 3885.35 61.31
1735 21.0200 3774.00 3930.46 61.43
1736 21.0300 3849.00 4039.07 62.04
1737 21.0400 4051.00 4196.53 63.65
1738 21.0500 4174.00 4354.14 64.61
1739 21.0600 4313.00 4436.43 65.67
1740 21.0700 4346.00 4433.28 65.92
1741 21.0800 4485.00 4446.96 66.97
1742 21.0900 4665.00 4596.37 68.30
1743 21.1000 5135.00 5017.58 71.66
1744 21.1100 5886.00 5863.95 76.72
1745 21.1200 7197.00 7223.68 84.84
1746 21.1300 9132.00 8935.37 95.56
1747 21.1400 11461.00 10360.20 107.06
1748 21.1500 11984.00 10571.90 109.47
1749 21.1600 10295.00 9564.42 101.46
1750 21.1700 8585.00 8314.06 92.66
1751 21.1800 7815.00 7570.26 88.40
1752 21.1900 7745.00 7531.31 88.01
1753 21.2000 8244.00 7951.33 90.80
1754 21.2100 8584.00 8334.22 92.65
1755 21.2200 8707.00 8385.47 93.31
1756 21.2300 8385.00 8144.62 91.57
1757 21.2400 7945.00 7659.76 89.13
1758 21.2500 7196.00 7039.37 84.83
1759 21.2600 6605.00 6453.49 81.27
1760 21.2700 6160.00 6002.92 78.49
1761 21.2800 5877.00 5724.01 76.66
1762 21.2900 5779.00 5687.91 76.02
1763 21.3000 5999.00 5894.78 77.45
1764 21.3100 6246.00 6138.12 79.03
1765 21.3200 6157.00 6063.78 78.47
1766 21.3300 5609.00 5576.49 74.89
1767 21.3400 4958.00 4960.02 70.41
1768 21.3500 4486.00 4456.72 66.98
1769 21.3600 4205.00 4141.32 64.85
1770 21.3700 4036.00 3994.40 63.53
1771 21.3800 3966.00 3966.09 62.98
1772 21.3900 3947.00 4011.44 62.83
1773 21.4000 3992.00 4087.36 63.18
1774 21.4100 4019.00 4130.09 63.40
1775 21.4200 4044.00 4087.47 63.59
1776 21.4300 3958.00 3989.83 62.91
1777 21.4400 3891.00 3897.46 62.38
1778 21.4500 3845.00 3835.42 62.01
1779 21.4600 3818.00 3811.61 61.79
1780 21.4700 3826.00 3824.85 61.85
1781 21.4800 3860.00 3863.60 62.13
1782 21.4900 3861.00 3906.11 62.14
1783 21.5000 3914.00 3918.00 62.56
1784 21.5100 3828.00 3871.05 61.87
1785 21.5200 3780.00 3793.35 61.48
1786 21.5300 3759.00 3732.06 61.31
1787 21.5400 3744.00 3714.98 61.19
1788 21.5500 3763.00 3758.65 61.34
1789 21.5600 3873.00 3866.62 62.23
1790 21.5700 3969.00 4022.56 63.00
1791 21.5800 4187.00 4173.85 64.71
1792 21.5900 4263.00 4248.04 65.29
1793 21.6000 4179.00 4236.00 64.65
1794 21.6100 4098.00 4209.93 64.02
1795 21.6200 4133.00 4233.56 64.29
1796 21.6300 4207.00 4329.82 64.86
1797 21.6400 4413.00 4510.88 66.43
1798 21.6500 4662.00 4768.23 68.28
1799 21.6600 4961.00 5037.25 70.43
1800 21.6700 5130.00 5197.74 71.62
1801 21.6800 4996.00 5157.21 70.68
1802 21.6900 4649.00 4951.57 68.18
1803 21.7000 4432.00 4692.20 66.57
1804 21.7100 4239.00 4470.20 65.11
1805 21.7200 4197.00 4324.56 64.78
1806 21.7300 4131.00 4253.42 64.27
1807 21.7400 4131.00 4236.78 64.27
1808 21.7500 4149.00 4253.30 64.41
1809 21.7600 4214.00 4294.20 64.92
1810 21.7700 4229.00 4328.34 65.03
1811 21.7800 4265.00 4348.19 65.31
1812 21.7900 4233.00 4377.36 65.06
1813 21.8000 4390.00 4438.40 66.26
1814 21.8100 4456.00 4523.07 66.75
1815 21.8200 4547.00 4627.94 67.43
1816 21.8300 4646.00 4764.35 68.16
1817 21.8400 4786.00 4921.67 69.18
1818 21.8500 4957.00 5081.47 70.41
1819 21.8600 5144.00 5212.68 71.72
1820 21.8700 5219.00 5341.40 72.24
1821 21.8800 5379.00 5511.76 73.34
1822 21.8900 5646.00 5742.73 75.14
1823 21.9000 5966.00 5903.91 77.24
1824 21.9100 5762.00 5814.45 75.91
1825 21.9200 5351.00 5504.90 73.15
1826 21.9300 4962.00 5161.47 70.44
1827 21.9400 4788.00 4856.08 69.20
1828 21.9500 4607.00 4606.26 67.87
1829 21.9600 4472.00 4421.58 66.87
1830 21.9700 4385.00 4313.79 66.22
1831 21.9800 4384.00 4287.08 66.21
1832 21.9900 4409.00 4347.29 66.40
1833 22.0000 4536.00 4514.50 67.35
1834 22.0100 4782.00 4799.55 69.15
1835 22.0200 5107.00 5199.41 71.46
1836 22.0300 5509.00 5648.88 74.22
1837 22.0400 5989.00 5981.51 77.39
1838 22.0500 5967.00 5991.30 77.25
1839 22.0600 5607.00 5677.41 74.88
1840 22.0700 5154.00 5232.65 71.79
1841 22.0800 4846.00 4852.75 69.61
1842 22.0900 4761.00 4605.94 69.00
1843 22.1000 4742.00 4506.33 68.86
1844 22.1100 4808.00 4573.44 69.34
1845 22.1200 5026.00 4832.90 70.89
1846 22.1300 5327.00 5327.33 72.99
1847 22.1400 5887.00 6043.86 76.73
1848 22.1500 6583.00 6848.31 81.14
1849 22.1600 7256.00 7457.71 85.18
1850 22.1700 7325.00 7580.26 85.59
1851 22.1800 6830.00 7151.08 82.64
1852 22.1900 6099.00 6423.69 78.10
1853 22.2000 5519.00 5719.09 74.29
1854 22.2100 5106.00 5160.75 71.46
1855 22.2200 4806.00 4708.91 69.33
1856 22.2300 4452.00 4344.88 66.72
1857 22.2400 4166.00 4079.85 64.54
1858 22.2500 3986.00 3911.99 63.13
1859 22.2600 3914.00 3828.55 62.56
1860 22.2700 3845.00 3813.63 62.01
1861 22.2800 3973.00 3845.66 63.03
1862 22.2900 3994.00 3893.81 63.20
1863 22.3000 4062.00 3921.24 63.73
1864 22.3100 4028.00 3909.43 63.47
1865 22.3200 4003.00 3897.86 63.27
1866 22.3300 4015.00 3920.37 63.36
1867 22.3400 4068.00 3975.70 63.78
1868 22.3500 4107.00 4008.29 64.09
1869 22.3600 4083.00 3992.86 63.90
1870 22.3700 4039.00 3963.29 63.55
1871 22.3800 4076.00 3964.99 63.84
1872 22.3900 4072.00 4016.66 63.81
1873 22.4000 4142.00 4118.26 64.36
1874 22.4100 4243.00 4253.86 65.14
1875 22.4200 4454.00 4383.52 66.74
1876 22.4300 4521.00 4458.70 67.24
1877 22.4400 4584.00 4478.43 67.71
1878 22.4500 4631.00 4482.73 68.05
1879 22.4600 4681.00 4503.46 68.42
1880 22.4700 4700.00 4587.49 68.56
1881 22.4800 4905.00 4786.82 70.04
1882 22.4900 5181.00 5136.60 71.98
1883 22.5000 5697.00 5634.92 75.48
1884 22.5100 6183.00 6226.84 78.63
1885 22.5200 6786.00 6801.83 82.38
1886 22.5300 7230.00 7243.38 85.03
1887 22.5400 7594.00 7445.22 87.14
1888 22.5500 7259.00 7303.17 85.20
1889 22.5600 6645.00 6858.06 81.52
1890 22.5700 5982.00 6304.73 77.34
1891 22.5800 5542.00 5795.65 74.44
1892 22.5900 5298.00 5402.30 72.79
1893 22.6000 5165.00 5121.40 71.87
1894 22.6100 4980.00 4926.84 70.57
1895 22.6200 4919.00 4803.18 70.14
1896 22.6300 4881.00 4746.84 69.86
1897 22.6400 4918.00 4756.57 70.13
1898 22.6500 4994.00 4836.52 70.67
1899 22.6600 5169.00 4995.33 71.90
1900 22.6700 5343.00 5233.72 73.10
1901 22.6800 5655.00 5538.94 75.20
1902 22.6900 5961.00 5868.47 77.21
1903 22.7000 6308.00 6160.31 79.42
1904 22.7100 6550.00 6422.67 80.93
1905 22.7200 6912.00 6833.75 83.14
1906 22.7300 7585.00 7638.36 87.09
1907 22.7400 8897.00 8972.69 94.32
1908 22.7500 10843.00 10703.30 104.13
1909 22.7600 13172.00 12258.10 114.77
1910 22.7700 13747.00 12716.80 117.25
1911 22.7800 12162.00 11761.10 110.28
1912 22.7900 9999.00 10175.40 100.00
1913 22.8000 8585.00 8829.17 92.66
1914 22.8100 7992.00 8153.55 89.40
1915 22.8200 8157.00 8260.65 90.32
1916 22.8300 8857.00 9069.87 94.11
1917 22.8400 10468.00 10335.70 102.31
1918 22.8500 12315.00 11571.90 110.97
1919 22.8600 13229.00 12130.30 115.02
1920 22.8700 11908.00 11801.20 109.12
1921 22.8800 10605.00 11085.70 102.98
1922 22.8900 10000.00 10417.60 100.00
1923 22.9000 9885.00 9776.15 99.42
1924 22.9100 9182.00 9018.74 95.82
1925 22.9200 8423.00 8300.22 91.78
1926 22.9300 8000.00 7935.72 89.44
1927 22.9400 8404.00 8160.17 91.67
1928 22.9500 9198.00 9061.14 95.91
1929 22.9600 10687.00 10515.00 103.38
1930 22.9700 12292.00 12094.00 110.87
1931 22.9800 13500.00 13030.90 116.19
1932 22.9900 12900.00 12830.90 113.58
1933 23.0000 11908.00 11856.80 109.12
1934 23.0100 10906.00 10503.50 104.43
1935 23.0200 9191.00 8965.29 95.87
1936 23.0300 7575.00 7548.85 87.03
1937 23.0400 6497.00 6476.29 80.60
1938 23.0500 5941.00 5795.25 77.08
1939 23.0600 5680.00 5460.80 75.37
1940 23.0700 5638.00 5389.06 75.09
1941 23.0800 5792.00 5464.89 76.11
1942 23.0900 5945.00 5511.64 77.10
1943 23.1000 5760.00 5373.24 75.89
1944 23.1100 5324.00 5085.69 72.97
1945 23.1200 5035.00 4809.23 70.96
1946 23.1300 4892.00 4657.25 69.94
1947 23.1400 4887.00 4661.41 69.91
1948 23.1500 4909.00 4777.55 70.06
1949 23.1600 5018.00 4888.15 70.84
1950 23.1700 4999.00 4865.37 70.70
1951 23.1800 4815.00 4674.45 69.39
1952 23.1900 4625.00 4402.04 68.01
1953 23.2000 4406.00 4159.19 66.38
1954 23.2100 4256.00 4001.01 65.24
1955 23.2200 4213.00 3939.12 64.91
1956 23.2300 4212.00 3966.97 64.90
1957 23.2400 4299.00 4067.76 65.57
1958 23.2500 4346.00 4210.15 65.92
1959 23.2600 4431.00 4339.97 66.57
1960 23.2700 4499.00 4405.03 67.07
1961 23.2800 4525.00 4406.49 67.27
1962 23.2900 4445.00 4399.69 66.67
1963 23.3000 4600.00 4460.86 67.82
1964 23.3100 4769.00 4654.94 69.06
1965 23.3200 5116.00 5010.01 71.53
1966 23.3300 5541.00 5526.75 74.44
1967 23.3400 6097.00 6166.45 78.08
1968 23.3500 6701.00 6817.27 81.86
1969 23.3600 7258.00 7265.64 85.19
1970 23.3700 7311.00 7324.41 85.50
1971 23.3800 6951.00 6978.09 83.37
1972 23.3900 6275.00 6331.95 79.21
1973 23.4000 5588.00 5580.42 74.75
1974 23.4100 4988.00 4915.61 70.63
1975 23.4200 4608.00 4431.21 67.88
1976 23.4300 4336.00 4134.29 65.85
1977 23.4400 4243.00 3988.69 65.14
1978 23.4500 4198.00 3974.43 64.79
1979 23.4600 4201.00 4066.89 64.82
1980 23.4700 4244.00 4253.16 65.15
1981 23.4800 4436.00 4502.74 66.60
1982 23.4900 4650.00 4760.66 68.19
1983 23.5000 4928.00 4956.04 70.20
1984 23.5100 4993.00 4994.02 70.66
1985 23.5200 4800.00 4796.79 69.28
1986 23.5300 4376.00 4445.25 66.15
1987 23.5400 4041.00 4089.30 63.57
1988 23.5500 3798.00 3805.09 61.63
1989 23.5600 3689.00 3617.47 60.74
1990 23.5700 3570.00 3503.80 59.75
1991 23.5800 3562.00 3440.29 59.68
1992 23.5900 3527.00 3409.72 59.39
1993 23.6000 3508.00 3401.09 59.23
1994 23.6100 3530.00 3417.36 59.41
1995 23.6200 3598.00 3454.41 59.98
1996 23.6300 3583.00 3527.82 59.86
1997 23.6400 3679.00 3635.53 60.65
1998 23.6500 3719.00 3773.57 60.98
1999 23.6600 3894.00 3916.30 62.40
2000 23.6700 3988.00 4034.27 63.15
2001 23.6800 4116.00 4143.95 64.16
2002 23.6900 4219.00 4284.94 64.95
2003 23.7000 4366.00 4462.97 66.08
2004 23.7100 4514.00 4657.64 67.19
2005 23.7200 4706.00 4830.82 68.60
2006 23.7300 4724.00 4930.77 68.73
2007 23.7400 4685.00 4935.24 68.45
2008 23.7500 4620.00 4920.35 67.97
2009 23.7600 4759.00 4995.49 68.99
2010 23.7700 5038.00 5216.04 70.98
2011 23.7800 5467.00 5531.99 73.94
2012 23.7900 5842.00 5811.16 76.43
2013 23.8000 6063.00 5899.73 77.87
2014 23.8100 5849.00 5683.35 76.48
2015 23.8200 5213.00 5213.64 72.20
2016 23.8300 4559.00 4673.81 67.52
2017 23.8400 4144.00 4206.09 64.37
2018 23.8500 3834.00 3865.87 61.92
2019 23.8600 3697.00 3651.95 60.80
2020 23.8700 3577.00 3534.64 59.81
2021 23.8800 3546.00 3479.66 59.55
2022 23.8900 3470.00 3457.65 58.91
2023 23.9000 3507.00 3453.87 59.22
2024 23.9100 3483.00 3464.20 59.02
2025 23.9200 3544.00 3486.25 59.53
2026 23.9300 3546.00 3517.36 59.55
2027 23.9400 3552.00 3559.80 59.60
2028 23.9500 3537.00 3617.06 59.47
2029 23.9600 3595.00 3687.01 59.96
2030 23.9700 3646.00 3755.16 60.38
2031 23.9800 3689.00 3791.88 60.74
2032 23.9900 3664.00 3770.69 60.53
2033 24.0000 3621.00 3704.56 60.17
2034 24.0100 3571.00 3634.90 59.76
2035 24.0200 3567.00 3599.13 59.72
2036 24.0300 3561.00 3612.11 59.67
2037 24.0400 3640.00 3663.89 60.33
2038 24.0500 3733.00 3730.24 61.10
2039 24.0600 3823.00 3799.81 61.83
2040 24.0700 3881.00 3890.75 62.30
2041 24.0800 4024.00 4015.50 63.44
2042 24.0900 4144.00 4151.51 64.37
2043 24.1000 4229.00 4247.02 65.03
2044 24.1100 4203.00 4270.15 64.83
2045 24.1200 4077.00 4226.33 63.85
2046 24.1300 3936.00 4126.25 62.74
2047 24.1400 3832.00 4004.56 61.90
2048 24.1500 3697.00 3886.71 60.80
2049 24.1600 3701.00 3813.04 60.84
2050 24.1700 3705.00 3798.95 60.87
2051 24.1800 3806.00 3834.63 61.69
2052 24.1900 3838.00 3904.88 61.95
2053 24.2000 3947.00 4005.31 62.83
2054 24.2100 4110.00 4120.36 64.11
2055 24.2200 4229.00 4200.56 65.03
2056 24.2300 4144.00 4218.42 64.37
2057 24.2400 4029.00 4212.50 63.47
2058 24.2500 3948.00 4231.63 62.83
2059 24.2600 4020.00 4281.62 63.40
2060 24.2700 4034.00 4321.83 63.51
2061 24.2800 4091.00 4311.36 63.96
2062 24.2900 4035.00 4228.71 63.52
2063 24.3000 3940.00 4089.99 62.77
2064 24.3100 3808.00 3954.52 61.71
2065 24.3200 3736.00 3872.12 61.12
2066 24.3300 3743.00 3858.79 61.18
2067 24.3400 3806.00 3909.99 61.69
2068 24.3500 3858.00 4017.87 62.11
2069 24.3600 3939.00 4170.82 62.76
2070 24.3700 4124.00 4305.94 64.22
2071 24.3800 4311.00 4381.28 65.66
2072 24.3900 4285.00 4368.36 65.46
2073 24.4000 4151.00 4290.07 64.43
2074 24.4100 4015.00 4208.67 63.36
2075 24.4200 3929.00 4170.33 62.68
2076 24.4300 3883.00 4174.07 62.31
2077 24.4400 3937.00 4170.52 62.75
2078 24.4500 3888.00 4101.04 62.35
2079 24.4600 3846.00 3973.01 62.02
2080 24.4700 3737.00 3848.47 61.13
2081 24.4800 3721.00 3771.91 61.00
2082 24.4900 3701.00 3755.83 60.84
2083 24.5000 3779.00 3796.02 61.47
2084 24.5100 3853.00 3889.72 62.07
2085 24.5200 4091.00 4028.98 63.96
2086 24.5300 4294.00 4168.84 65.53
2087 24.5400 4380.00 4223.49 66.18
2088 24.5500 4131.00 4144.05 64.27
2089 24.5600 3963.00 3975.53 62.95
2090 24.5700 3785.00 3802.31 61.52
2091 24.5800 3687.00 3674.47 60.72
2092 24.5900 3563.00 3605.69 59.69
2093 24.6000 3545.00 3584.68 59.54
2094 24.6100 3547.00 3584.32 59.56
2095 24.6200 3564.00 3578.06 59.70
2096 24.6300 3504.00 3555.68 59.19
2097 24.6400 3547.00 3519.31 59.56
2098 24.6500 3485.00 3481.38 59.03
2099 24.6600 3499.00 3462.12 59.15
2100 24.6700 3548.00 3480.72 59.57
2101 24.6800 3645.00 3557.55 60.37
2102 24.6900 3757.00 3713.32 61.29
2103 24.7000 3950.00 3956.24 62.85
2104 24.7100 4132.00 4258.52 64.28
2105 24.7200 4354.00 4523.19 65.98
2106 24.7300 4398.00 4604.52 66.32
2107 24.7400 4294.00 4454.66 65.53
2108 24.7500 4051.00 4194.92 63.65
2109 24.7600 3958.00 3955.55 62.91
2110 24.7700 3867.00 3798.90 62.19
2111 24.7800 3837.00 3741.52 61.94
2112 24.7900 3835.00 3778.43 61.93
2113 24.8000 3961.00 3898.58 62.94
2114 24.8100 4063.00 4080.20 63.74
2115 24.8200 4240.00 4285.50 65.12
2116 24.8300 4397.00 4457.53 66.31
2117 24.8400 4468.00 4527.90 66.84
2118 24.8500 4378.00 4488.53 66.17
2119 24.8600 4361.00 4423.50 66.04
2120 24.8700 4358.00 4410.98 66.02
2121 24.8800 4567.00 4486.97 67.58
2122 24.8900 4782.00 4634.22 69.15
2123 24.9000 4937.00 4797.44 70.26
2124 24.9100 5059.00 4912.39 71.13
2125 24.9200 4991.00 4934.98 70.65
2126 24.9300 4835.00 4880.48 69.53
2127 24.9400 4710.00 4829.71 68.63
2128 24.9500 4731.00 4863.18 68.78
2129 24.9600 4852.00 5014.87 69.66
2130 24.9700 5059.00 5257.43 71.13
2131 24.9800 5346.00 5491.70 73.12
2132 24.9900 5310.00 5583.61 72.87
2133 25.0000 5098.00 5483.87 71.40
2134 25.0100 4825.00 5269.84 69.46
2135 25.0200 4661.00 5071.32 68.27
2136 25.0300 4586.00 4945.18 67.72
2137 25.0400 4627.00 4893.41 68.02
2138 25.0500 4628.00 4879.79 68.03
2139 25.0600 4629.00 4842.04 68.04
2140 25.0700 4522.00 4756.18 67.25
2141 25.0800 4389.00 4665.06 66.25
2142 25.0900 4336.00 4617.82 65.85
2143 25.1000 4408.00 4620.19 66.39
2144 25.1100 4471.00 4638.89 66.87
2145 25.1200 4522.00 4631.97 67.25
2146 25.1300 4393.00 4603.69 66.28
2147 25.1400 4427.00 4610.42 66.54
2148 25.1500 4393.00 4709.32 66.28
2149 25.1600 4659.00 4925.58 68.26
2150 25.1700 5054.00 5233.85 71.09
2151 25.1800 5492.00 5546.85 74.11
2152 25.1900 5743.00 5708.37 75.78
2153 25.2000 5441.00 5587.79 73.76
2154 25.2100 4909.00 5246.68 70.06
2155 25.2200 4586.00 4856.99 67.72
2156 25.2300 4408.00 4530.66 66.39
2157 25.2400 4327.00 4299.69 65.78
2158 25.2500 4264.00 4153.09 65.30
2159 25.2600 4237.00 4072.43 65.09
2160 25.2700 4209.00 4056.39 64.88
2161 25.2800 4271.00 4104.36 65.35
2162 25.2900 4297.00 4202.09 65.55
2163 25.3000 4509.00 4304.32 67.15
2164 25.3100 4490.00 4336.71 67.01
2165 25.3200 4334.00 4260.95 65.83
2166 25.3300 4102.00 4127.27 64.05
2167 25.3400 4071.00 4001.57 63.80
2168 25.3500 3973.00 3912.27 63.03
2169 25.3600 3963.00 3858.37 62.95
2170 25.3700 3958.00 3825.80 62.91
2171 25.3800 3943.00 3811.22 62.79
2172 25.3900 3934.00 3823.42 62.72
2173 25.4000 4000.00 3869.12 63.25
2174 25.4100 4073.00 3949.15 63.82
2175 25.4200 4235.00 4058.77 65.08
2176 25.4300 4389.00 4204.37 66.25
2177 25.4400 4563.00 4390.10 67.55
2178 25.4500 4696.00 4580.47 68.53
2179 25.4600 4745.00 4707.57 68.88
2180 25.4700 4679.00 4737.60 68.40
2181 25.4800 4581.00 4653.73 67.68
2182 25.4900 4390.00 4444.83 66.26
2183 25.5000 4213.00 4172.98 64.91
2184 25.5100 4014.00 3928.83 63.36
2185 25.5200 3918.00 3766.17 62.59
2186 25.5300 3879.00 3704.45 62.28
2187 25.5400 3910.00 3730.40 62.53
2188 25.5500 4016.00 3825.34 63.37
2189 25.5600 4117.00 3948.73 64.16
2190 25.5700 4139.00 4042.59 64.34
2191 25.5800 4182.00 4062.49 64.67
2192 25.5900 4118.00 4017.39 64.17
2193 25.6000 4106.00 3940.56 64.08
2194 25.6100 4001.00 3861.38 63.25
2195 25.6200 3949.00 3796.01 62.84
2196 25.6300 3856.00 3755.54 62.10
2197 25.6400 3844.00 3743.59 62.00
2198 25.6500 3867.00 3765.43 62.19
2199 25.6600 3979.00 3827.23 63.08
2200 25.6700 4045.00 3933.58 63.60
2201 25.6800 4146.00 4089.32 64.39
2202 25.6900 4287.00 4303.81 65.48
2203 25.7000 4553.00 4590.33 67.48
2204 25.7100 4894.00 4942.38 69.96
2205 25.7200 5297.00 5305.09 72.78
2206 25.7300 5534.00 5559.39 74.39
2207 25.7400 5420.00 5590.98 73.62
2208 25.7500 5107.00 5411.89 71.46
2209 25.7600 4845.00 5139.78 69.61
2210 25.7700 4694.00 4882.51 68.51
2211 25.7800 4661.00 4699.47 68.27
2212 25.7900 4601.00 4613.19 67.83
2213 25.8000 4617.00 4644.30 67.95
2214 25.8100 4770.00 4799.77 69.07
2215 25.8200 5077.00 5047.14 71.25
2216 25.8300 5288.00 5298.70 72.72
2217 25.8400 5367.00 5489.95 73.26
2218 25.8500 5459.00 5665.66 73.89
2219 25.8600 5783.00 5907.26 76.05
2220 25.8700 6277.00 6201.39 79.23
2221 25.8800 6700.00 6423.33 81.85
2222 25.8900 6447.00 6431.83 80.29
2223 25.9000 5977.00 6239.62 77.31
2224 25.9100 5590.00 5989.54 74.77
2225 25.9200 5404.00 5799.27 73.51
2226 25.9300 5375.00 5689.71 73.31
2227 25.9400 5365.00 5615.00 73.25
2228 25.9500 5309.00 5532.36 72.86
2229 25.9600 5271.00 5433.17 72.60
2230 25.9700 5185.00 5314.71 72.01
2231 25.9800 5119.00 5180.78 71.55
2232 25.9900 4999.00 5060.52 70.70
2233 26.0000 5020.00 4994.48 70.85
2234 26.0100 5106.00 5018.13 71.46
2235 26.0200 5381.00 5161.26 73.36
2236 26.0300 5709.00 5437.93 75.56
2237 26.0400 6038.00 5833.12 77.70
2238 26.0500 6406.00 6299.19 80.04
2239 26.0600 6935.00 6721.97 83.28
2240 26.0700 7082.00 6875.00 84.15
2241 26.0800 6567.00 6577.62 81.04
2242 26.0900 5685.00 5955.32 75.40
2243 26.1000 5119.00 5288.35 71.55
2244 26.1100 4760.00 4756.83 68.99
2245 26.1200 4609.00 4418.07 67.89
2246 26.1300 4603.00 4264.75 67.85
2247 26.1400 4680.00 4273.62 68.41
2248 26.1500 4821.00 4436.71 69.43
2249 26.1600 5196.00 4763.27 72.08
2250 26.1700 5563.00 5255.24 74.59
2251 26.1800 5938.00 5869.58 77.06
2252 26.1900 6323.00 6505.87 79.52
2253 26.2000 6690.00 7001.68 81.79
2254 26.2100 6779.00 7140.42 82.33
2255 26.2200 6514.00 6816.56 80.71
2256 26.2300 5863.00 6169.10 76.57
2257 26.2400 5265.00 5446.31 72.56
2258 26.2500 4817.00 4840.18 69.40
2259 26.2600 4622.00 4424.51 67.99
2260 26.2700 4420.00 4197.87 66.48
2261 26.2800 4422.00 4122.57 66.50
2262 26.2900 4412.00 4147.99 66.42
2263 26.3000 4486.00 4221.09 66.98
2264 26.3100 4509.00 4300.37 67.15
2265 26.3200 4594.00 4382.28 67.78
2266 26.3300 4728.00 4497.89 68.76
2267 26.3400 4894.00 4672.80 69.96
2268 26.3500 5067.00 4895.09 71.18
2269 26.3600 5330.00 5114.31 73.01
2270 26.3700 5328.00 5259.76 72.99
2271 26.3800 5359.00 5277.23 73.21
2272 26.3900 5152.00 5155.86 71.78
2273 26.4000 4912.00 4924.26 70.09
2274 26.4100 4566.00 4626.28 67.57
2275 26.4200 4340.00 4317.43 65.88
2276 26.4300 4077.00 4055.80 63.85
2277 26.4400 3979.00 3859.93 63.08
2278 26.4500 3888.00 3732.15 62.35
2279 26.4600 3845.00 3658.58 62.01
2280 26.4700 3792.00 3626.47 61.58
2281 26.4800 3794.00 3629.19 61.60
2282 26.4900 3817.00 3662.99 61.78
2283 26.5000 3901.00 3729.25 62.46
2284 26.5100 3981.00 3828.07 63.10
2285 26.5200 4124.00 3955.06 64.22
2286 26.5300 4241.00 4101.57 65.12
2287 26.5400 4448.00 4263.67 66.69
2288 26.5500 4617.00 4441.70 67.95
2289 26.5600 4837.00 4621.48 69.55
2290 26.5700 4943.00 4746.15 70.31
2291 26.5800 4918.00 4735.60 70.13
2292 26.5900 4654.00 4570.56 68.22
2293 26.6000 4334.00 4326.50 65.83
2294 26.6100 4165.00 4093.52 64.54
2295 26.6200 4081.00 3920.10 63.88
2296 26.6300 4002.00 3822.29 63.26
2297 26.6400 4039.00 3800.53 63.55
2298 26.6500 4118.00 3853.43 64.17
2299 26.6600 4272.00 3977.14 65.36
2300 26.6700 4469.00 4163.24 66.85
2301 26.6800 4797.00 4393.85 69.26
2302 26.6900 5049.00 4644.46 71.06
2303 26.7000 5267.00 4889.69 72.57
2304 26.7100 5345.00 5102.52 73.11
2305 26.7200 5406.00 5254.23 73.53
2306 26.7300 5341.00 5361.95 73.08
2307 26.7400 5429.00 5465.66 73.68
2308 26.7500 5544.00 5561.57 74.46
2309 26.7600 5632.00 5601.91 75.05
2310 26.7700 5550.00 5529.18 74.50
2311 26.7800 5193.00 5299.27 72.06
2312 26.7900 4786.00 4952.30 69.18
2313 26.8000 4432.00 4582.21 66.57
2314 26.8100 4146.00 4253.52 64.39
2315 26.8200 3947.00 3989.74 62.83
2316 26.8300 3797.00 3793.01 61.62
2317 26.8400 3742.00 3654.42 61.17
2318 26.8500 3679.00 3562.32 60.65
2319 26.8600 3644.00 3503.93 60.37
2320 26.8700 3587.00 3477.24 59.89
2321 26.8800 3586.00 3470.07 59.88
2322 26.8900 3573.00 3488.90 59.77
2323 26.9000 3637.00 3540.23 60.31
2324 26.9100 3696.00 3625.73 60.79
2325 26.9200 3754.00 3736.20 61.27
2326 26.9300 3866.00 3846.83 62.18
2327 26.9400 3931.00 3924.94 62.70
2328 26.9500 3975.00 3941.86 63.05
2329 26.9600 3915.00 3905.77 62.57
2330 26.9700 3874.00 3864.06 62.24
2331 26.9800 3911.00 3868.04 62.54
2332 26.9900 3990.00 3937.26 63.17
2333 27.0000 4122.00 4060.65 64.20
2334 27.0100 4196.00 4195.45 64.78
2335 27.0200 4301.00 4285.50 65.58
2336 27.0300 4262.00 4304.02 65.28
2337 27.0400 4330.00 4296.73 65.80
2338 27.0500 4284.00 4328.39 65.45
2339 27.0600 4485.00 4434.46 66.97
2340 27.0700 4654.00 4606.67 68.22
2341 27.0800 4957.00 4792.02 70.41
2342 27.0900 5042.00 4904.92 71.01
2343 27.1000 4984.00 4882.12 70.60
2344 27.1100 4711.00 4748.39 68.64
2345 27.1200 4588.00 4589.47 67.73
2346 27.1300 4507.00 4476.87 67.13
2347 27.1400 4536.00 4436.68 67.35
2348 27.1500 4591.00 4453.06 67.76
2349 27.1600 4628.00 4483.14 68.03
2350 27.1700 4557.00 4495.35 67.51
2351 27.1800 4566.00 4509.38 67.57
2352 27.1900 4521.00 4565.69 67.24
2353 27.2000 4737.00 4685.37 68.83
2354 27.2100 4952.00 4844.36 70.37
2355 27.2200 5159.00 4977.03 71.83
2356 27.2300 5080.00 5019.51 71.27
2357 27.2400 5086.00 4998.57 71.32
2358 27.2500 5062.00 4968.58 71.15
2359 27.2600 5100.00 4929.54 71.41
2360 27.2700 4975.00 4823.56 70.53
2361 27.2800 4677.00 4624.37 68.39
2362 27.2900 4335.00 4382.23 65.84
2363 27.3000 4090.00 4159.81 63.95
2364 27.3100 3943.00 3992.17 62.79
2365 27.3200 3910.00 3892.52 62.53
2366 27.3300 3873.00 3863.82 62.23
2367 27.3400 3914.00 3904.66 62.56
2368 27.3500 4006.00 4010.07 63.29
2369 27.3600 4188.00 4167.12 64.71
2370 27.3700 4379.00 4352.15 66.17
2371 27.3800 4651.00 4524.99 68.20
2372 27.3900 4789.00 4629.83 69.20
2373 27.4000 4722.00 4631.92 68.72
2374 27.4100 4519.00 4559.91 67.22
2375 27.4200 4384.00 4481.06 66.21
2376 27.4300 4348.00 4443.60 65.94
2377 27.4400 4391.00 4457.41 66.26
2378 27.4500 4475.00 4504.46 66.90
2379 27.4600 4651.00 4559.42 68.20
2380 27.4700 4617.00 4595.22 67.95
2381 27.4800 4588.00 4584.34 67.73
2382 27.4900 4463.00 4516.11 66.81
2383 27.5000 4307.00 4396.28 65.63
2384 27.5100 4189.00 4242.35 64.72
2385 27.5200 4101.00 4090.97 64.04
2386 27.5300 4075.00 3974.98 63.84
2387 27.5400 4083.00 3919.97 63.90
2388 27.5500 4146.00 3945.79 64.39
2389 27.5600 4314.00 4068.21 65.68
2390 27.5700 4508.00 4290.62 67.14
2391 27.5800 4891.00 4591.84 69.94
2392 27.5900 5145.00 4911.50 71.73
2393 27.6000 5326.00 5188.53 72.98
2394 27.6100 5469.00 5394.62 73.95
2395 27.6200 5590.00 5476.83 74.77
2396 27.6300 5402.00 5352.10 73.50
2397 27.6400 4980.00 5047.08 70.57
2398 27.6500 4577.00 4696.81 67.65
2399 27.6600 4382.00 4406.97 66.20
2400 27.6700 4204.00 4218.96 64.84
2401 27.6800 4232.00 4133.61 65.05
2402 27.6900 4262.00 4132.14 65.28
2403 27.7000 4311.00 4185.15 65.66
2404 27.7100 4362.00 4259.09 66.05
2405 27.7200 4484.00 4323.94 66.96
2406 27.7300 4469.00 4350.43 66.85
2407 27.7400 4392.00 4313.41 66.27
2408 27.7500 4217.00 4215.45 64.94
2409 27.7600 4108.00 4091.44 64.09
2410 27.7700 4019.00 3979.63 63.40
2411 27.7800 3951.00 3900.74 62.86
2412 27.7900 3888.00 3860.90 62.35
2413 27.8000 3879.00 3842.61 62.28
2414 27.8100 3895.00 3839.17 62.41
2415 27.8200 3926.00 3845.43 62.66
2416 27.8300 3910.00 3858.38 62.53
2417 27.8400 3902.00 3876.06 62.47
2418 27.8500 3850.00 3903.67 62.05
2419 27.8600 3892.00 3948.19 62.39
2420 27.8700 3947.00 4010.73 62.83
2421 27.8800 4008.00 4075.90 63.31
2422 27.8900 4010.00 4116.95 63.32
2423 27.9000 4023.00 4130.89 63.43
2424 27.9100 4009.00 4137.71 63.32
2425 27.9200 4015.00 4147.23 63.36
2426 27.9300 4035.00 4154.73 63.52
2427 27.9400 4066.00 4165.35 63.77
2428 27.9500 4123.00 4192.81 64.21
2429 27.9600 4225.00 4229.83 65.00
2430 27.9700 4294.00 4250.44 65.53
2431 27.9800 4237.00 4232.61 65.09
2432 27.9900 4138.00 4186.37 64.33
2433 28.0000 4139.00 4159.39 64.34
2434 28.0100 4201.00 4195.02 64.82
2435 28.0200 4297.00 4306.27 65.55
2436 28.0300 4495.00 4471.49 67.04
2437 28.0400 4724.00 4631.80 68.73
2438 28.0500 4806.00 4718.88 69.33
2439 28.0600 4860.00 4700.41 69.71
2440 28.0700 4729.00 4596.85 68.77
2441 28.0800 4567.00 4454.27 67.58
2442 28.0900 4417.00 4333.75 66.46
2443 28.1000 4337.00 4271.82 65.86
2444 28.1100 4343.00 4271.82 65.90
2445 28.1200 4414.00 4307.07 66.44
2446 28.1300 4430.00 4332.07 66.56
2447 28.1400 4346.00 4305.17 65.92
2448 28.1500 4205.00 4215.72 64.85
2449 28.1600 4022.00 4086.77 63.42
2450 28.1700 3896.00 3952.12 62.42
2451 28.1800 3861.00 3836.40 62.14
2452 28.1900 3807.00 3754.24 61.70
2453 28.2000 3710.00 3712.54 60.91
2454 28.2100 3724.00 3711.23 61.02
2455 28.2200 3798.00 3738.92 61.63
2456 28.2300 3879.00 3772.82 62.28
2457 28.2400 3910.00 3793.51 62.53
2458 28.2500 3864.00 3807.99 62.16
2459 28.2600 3854.00 3849.90 62.08
2460 28.2700 3881.00 3942.82 62.30
2461 28.2800 4027.00 4075.31 63.46
2462 28.2900 4145.00 4196.26 64.38
2463 28.3000 4182.00 4236.22 64.67
2464 28.3100 4028.00 4165.40 63.47
2465 28.3200 3875.00 4024.18 62.25
2466 28.3300 3739.00 3870.64 61.15
2467 28.3400 3702.00 3746.49 60.84
2468 28.3500 3652.00 3667.33 60.43
2469 28.3600 3660.00 3628.95 60.50
2470 28.3700 3652.00 3618.44 60.43
2471 28.3800 3726.00 3618.08 61.04
2472 28.3900 3702.00 3615.53 60.84
2473 28.4000 3759.00 3599.95 61.31
2474 28.4100 3704.00 3573.36 60.86
2475 28.4200 3690.00 3545.56 60.75
2476 28.4300 3638.00 3533.49 60.32
2477 28.4400 3611.00 3549.99 60.09
2478 28.4500 3635.00 3592.71 60.29
2479 28.4600 3709.00 3641.77 60.90
2480 28.4700 3699.00 3666.95 60.82
2481 28.4800 3717.00 3650.38 60.97
2482 28.4900 3621.00 3604.82 60.17
2483 28.5000 3563.00 3560.37 59.69
2484 28.5100 3494.00 3537.70 59.11
2485 28.5200 3531.00 3543.68 59.42
2486 28.5300 3547.00 3571.81 59.56
2487 28.5400 3604.00 3609.26 60.03
2488 28.5500 3582.00 3635.59 59.85
2489 28.5600 3607.00 3637.09 60.06
2490 28.5700 3614.00 3627.76 60.12
2491 28.5800 3606.00 3639.62 60.05
2492 28.5900 3702.00 3696.80 60.84
2493 28.6000 3826.00 3808.24 61.85
2494 28.6100 3967.00 3960.36 62.98
2495 28.6200 4172.00 4114.90 64.59
2496 28.6300 4230.00 4216.42 65.04
2497 28.6400 4187.00 4237.78 64.71
2498 28.6500 4117.00 4225.53 64.16
2499 28.6600 4178.00 4253.76 64.64
2500 28.6700 4370.00 4364.13 66.11
2501 28.6800 4692.00 4547.67 68.50
2502 28.6900 4982.00 4743.22 70.58
2503 28.7000 5084.00 4848.36 71.30
2504 28.7100 4885.00 4807.95 69.89
2505 28.7200 4745.00 4679.98 68.88
2506 28.7300 4659.00 4551.23 68.26
2507 28.7400 4622.00 4476.95 67.99
2508 28.7500 4683.00 4503.77 68.43
2509 28.7600 4879.00 4680.81 69.85
2510 28.7700 5263.00 5043.75 72.55
2511 28.7800 5900.00 5588.90 76.81
2512 28.7900 6656.00 6242.38 81.58
2513 28.8000 7549.00 6846.18 86.89
2514 28.8100 7862.00 7196.62 88.67
2515 28.8200 7493.00 7179.02 86.56
2516 28.8300 6801.00 6858.00 82.47
2517 28.8400 6234.00 6389.59 78.96
2518 28.8500 5765.00 5926.61 75.93
2519 28.8600 5551.00 5557.22 74.50
2520 28.8700 5311.00 5284.66 72.88
2521 28.8800 5142.00 5051.96 71.71
2522 28.8900 4837.00 4795.91 69.55
2523 28.9000 4460.00 4509.79 66.78
2524 28.9100 4174.00 4235.25 64.61
2525 28.9200 3951.00 4008.74 62.86
2526 28.9300 3821.00 3841.79 61.81
2527 28.9400 3724.00 3728.00 61.02
2528 28.9500 3652.00 3654.54 60.43
2529 28.9600 3647.00 3607.30 60.39
2530 28.9700 3634.00 3577.59 60.28
2531 28.9800 3606.00 3564.73 60.05
2532 28.9900 3584.00 3572.63 59.87
2533 29.0000 3675.00 3602.60 60.62
2534 29.0100 3681.00 3650.79 60.67
2535 29.0200 3789.00 3708.75 61.55
2536 29.0300 3795.00 3759.84 61.60
2537 29.0400 3787.00 3786.11 61.54
2538 29.0500 3724.00 3779.24 61.02
2539 29.0600 3693.00 3745.58 60.77
2540 29.0700 3633.00 3703.87 60.27
2541 29.0800 3651.00 3669.01 60.42
2542 29.0900 3628.00 3640.90 60.23
2543 29.1000 3593.00 3616.99 59.94
2544 29.1100 3513.00 3594.20 59.27
2545 29.1200 3570.00 3588.99 59.75
2546 29.1300 3542.00 3616.64 59.51
2547 29.1400 3675.00 3685.21 60.62
2548 29.1500 3812.00 3791.04 61.74
2549 29.1600 3927.00 3917.87 62.67
2550 29.1700 4051.00 4035.08 63.65
2551 29.1800 4155.00 4100.92 64.46
2552 29.1900 4060.00 4084.33 63.72
2553 29.2000 3938.00 3995.64 62.75
2554 29.2100 3794.00 3869.08 61.60
2555 29.2200 3668.00 3740.63 60.56
2556 29.2300 3605.00 3641.17 60.04
2557 29.2400 3567.00 3596.76 59.72
2558 29.2500 3558.00 3622.82 59.65
2559 29.2600 3687.00 3716.86 60.72
2560 29.2700 3813.00 3852.49 61.75
2561 29.2800 3957.00 3974.78 62.90
2562 29.2900 3964.00 4013.55 62.96
2563 29.3000 3809.00 3939.96 61.72
2564 29.3100 3620.00 3796.64 60.17
2565 29.3200 3513.00 3646.42 59.27
2566 29.3300 3458.00 3531.73 58.80
2567 29.3400 3430.00 3467.78 58.57
2568 29.3500 3378.00 3448.76 58.12
2569 29.3600 3420.00 3455.65 58.48
2570 29.3700 3416.00 3468.57 58.45
2571 29.3800 3439.00 3479.94 58.64
2572 29.3900 3403.00 3491.30 58.34
2573 29.4000 3420.00 3501.94 58.48
2574 29.4100 3399.00 3508.74 58.30
2575 29.4200 3431.00 3506.91 58.57
2576 29.4300 3392.00 3489.77 58.24
2577 29.4400 3378.00 3456.74 58.12
2578 29.4500 3335.00 3420.47 57.75
2579 29.4600 3326.00 3395.94 57.67
2580 29.4700 3312.00 3390.81 57.55
2581 29.4800 3367.00 3409.43 58.03
2582 29.4900 3398.00 3459.47 58.29
2583 29.5000 3488.00 3551.54 59.06
2584 29.5100 3615.00 3681.82 60.12
2585 29.5200 3801.00 3837.42 61.65
2586 29.5300 3878.00 3985.51 62.27
2587 29.5400 3980.00 4080.87 63.09
2588 29.5500 3893.00 4095.15 62.39
2589 29.5600 3808.00 4037.81 61.71
2590 29.5700 3666.00 3945.96 60.55
2591 29.5800 3608.00 3845.84 60.07
2592 29.5900 3510.00 3745.31 59.25
2593 29.6000 3438.00 3651.08 58.63
2594 29.6100 3367.00 3575.46 58.03
2595 29.6200 3396.00 3523.26 58.28
2596 29.6300 3417.00 3486.20 58.46
2597 29.6400 3377.00 3453.91 58.11
2598 29.6500 3289.00 3424.37 57.35
2599 29.6600 3298.00 3407.41 57.43
2600 29.6700 3322.00 3412.33 57.64
2601 29.6800 3389.00 3444.18 58.22
2602 29.6900 3421.00 3502.07 58.49
2603 29.7000 3499.00 3579.15 59.15
2604 29.7100 3587.00 3664.64 59.89
2605 29.7200 3710.00 3747.73 60.91
2606 29.7300 3826.00 3830.37 61.85
2607 29.7400 3927.00 3923.01 62.67
2608 29.7500 4073.00 4025.88 63.82
2609 29.7600 4128.00 4128.60 64.25
2610 29.7700 4175.00 4203.36 64.61
2611 29.7800 4192.00 4218.60 64.75
2612 29.7900 4110.00 4153.24 64.11
2613 29.8000 3964.00 4024.78 62.96
2614 29.8100 3800.00 3877.62 61.64
2615 29.8200 3692.00 3751.89 60.76
2616 29.8300 3617.00 3665.76 60.14
2617 29.8400 3592.00 3619.90 59.93
2618 29.8500 3543.00 3605.77 59.52
2619 29.8600 3584.00 3610.12 59.87
2620 29.8700 3557.00 3619.32 59.64
2621 29.8800 3549.00 3627.88 59.57
2622 29.8900 3516.00 3637.02 59.30
2623 29.9000 3560.00 3648.91 59.67
2624 29.9100 3578.00 3663.59 59.82
2625 29.9200 3625.00 3672.09 60.21
2626 29.9300 3611.00 3664.69 60.09
2627 29.9400 3598.00 3652.76 59.98
2628 29.9500 3581.00 3666.72 59.84
2629 29.9600 3687.00 3736.33 60.72
2630 29.9700 3873.00 3880.51 62.23
2631 29.9800 4194.00 4100.11 64.76
2632 29.9900 4584.00 4369.09 67.71
2633 30.0000 5003.00 4625.07 70.73
2634 30.0100 5045.00 4779.66 71.03
2635 30.0200 4820.00 4783.19 69.43
2636 30.0300 4495.00 4662.34 67.04
2637 30.0400 4309.00 4480.49 65.64
2638 30.0500 4092.00 4293.15 63.97
2639 30.0600 3996.00 4133.09 63.21
2640 30.0700 3876.00 4012.64 62.26
2641 30.0800 3855.00 3928.89 62.09
2642 30.0900 3775.00 3864.62 61.44
2643 30.1000 3663.00 3797.68 60.52
2644 30.1100 3586.00 3716.47 59.88
2645 30.1200 3477.00 3628.99 58.97
2646 30.1300 3434.00 3549.57 58.60
2647 30.1400 3416.00 3488.36 58.45
2648 30.1500 3380.00 3447.97 58.14
2649 30.1600 3415.00 3426.51 58.44
2650 30.1700 3386.00 3420.73 58.19
2651 30.1800 3447.00 3431.58 58.71
2652 30.1900 3452.00 3457.74 58.75
2653 30.2000 3528.00 3513.17 59.40
2654 30.2100 3630.00 3608.02 60.25
2655 30.2200 3779.00 3739.31 61.47
2656 30.2300 3943.00 3883.13 62.79
2657 30.2400 4011.00 3992.95 63.33
2658 30.2500 3979.00 4026.39 63.08
2659 30.2600 3892.00 3991.58 62.39
2660 30.2700 3839.00 3931.17 61.96
2661 30.2800 3915.00 3872.90 62.57
2662 30.2900 3833.00 3818.88 61.91
2663 30.3000 3780.00 3766.27 61.48
2664 30.3100 3704.00 3721.42 60.86
2665 30.3200 3649.00 3689.75 60.41
2666 30.3300 3647.00 3671.36 60.39
2667 30.3400 3640.00 3666.24 60.33
2668 30.3500 3703.00 3676.52 60.85
2669 30.3600 3758.00 3703.88 61.30
2670 30.3700 3729.00 3726.14 61.07
2671 30.3800 3762.00 3743.00 61.34
2672 30.3900 3727.00 3757.34 61.05
2673 30.4000 3758.00 3766.30 61.30
2674 30.4100 3737.00 3768.01 61.13
2675 30.4200 3743.00 3768.50 61.18
2676 30.4300 3704.00 3775.17 60.86
2677 30.4400 3776.00 3787.02 61.45
2678 30.4500 3765.00 3799.15 61.36
2679 30.4600 3789.00 3812.54 61.55
2680 30.4700 3785.00 3834.03 61.52
2681 30.4800 3886.00 3865.78 62.34
2682 30.4900 3843.00 3896.83 61.99
2683 30.5000 3926.00 3909.09 62.66
2684 30.5100 3913.00 3901.62 62.55
2685 30.5200 3936.00 3895.59 62.74
2686 30.5300 3958.00 3908.01 62.91
2687 30.5400 4040.00 3936.54 63.56
2688 30.5500 4024.00 3954.79 63.44
2689 30.5600 4018.00 3930.99 63.39
2690 30.5700 3837.00 3853.95 61.94
2691 30.5800 3748.00 3746.12 61.22
2692 30.5900 3611.00 3640.84 60.09
2693 30.6000 3511.00 3560.26 59.25
2694 30.6100 3515.00 3512.44 59.29
2695 30.6200 3521.00 3498.11 59.34
2696 30.6300 3506.00 3512.52 59.21
2697 30.6400 3589.00 3547.51 59.91
2698 30.6500 3654.00 3592.94 60.45
2699 30.6600 3741.00 3636.13 61.16
2700 30.6700 3733.00 3669.18 61.10
2701 30.6800 3790.00 3693.58 61.56
2702 30.6900 3759.00 3715.10 61.31
2703 30.7000 3770.00 3736.10 61.40
2704 30.7100 3739.00 3758.41 61.15
2705 30.7200 3759.00 3779.02 61.31
2706 30.7300 3791.00 3802.62 61.57
2707 30.7400 3812.00 3833.61 61.74
2708 30.7500 3785.00 3877.10 61.52
2709 30.7600 3867.00 3937.87 62.19
2710 30.7700 3924.00 4016.12 62.64
2711 30.7800 4016.00 4099.51 63.37
2712 30.7900 4125.00 4165.06 64.23
2713 30.8000 4149.00 4186.75 64.41
2714 30.8100 4084.00 4148.22 63.91
2715 30.8200 3984.00 4056.28 63.12
2716 30.8300 3819.00 3939.31 61.80
2717 30.8400 3784.00 3831.90 61.51
2718 30.8500 3646.00 3755.42 60.38
2719 30.8600 3648.00 3716.65 60.40
2720 30.8700 3656.00 3708.46 60.46
2721 30.8800 3682.00 3710.92 60.68
2722 30.8900 3678.00 3699.99 60.65
2723 30.9000 3656.00 3666.70 60.46
2724 30.9100 3555.00 3614.41 59.62
2725 30.9200 3531.00 3562.63 59.42
2726 30.9300 3496.00 3530.10 59.13
2727 30.9400 3534.00 3526.35 59.45
2728 30.9500 3552.00 3552.19 59.60
2729 30.9600 3613.00 3601.29 60.11
2730 30.9700 3621.00 3662.86 60.17
2731 30.9800 3776.00 3723.06 61.45
2732 30.9900 3760.00 3767.52 61.32
2733 31.0000 3800.00 3792.81 61.64
2734 31.0100 3729.00 3813.15 61.07
2735 31.0200 3694.00 3848.53 60.78
2736 31.0300 3746.00 3911.94 61.20
2737 31.0400 3827.00 4004.30 61.86
2738 31.0500 3944.00 4113.92 62.80
2739 31.0600 4118.00 4222.38 64.17
2740 31.0700 4193.00 4312.33 64.75
2741 31.0800 4243.00 4369.03 65.14
2742 31.0900 4190.00 4383.89 64.73
2743 31.1000 4188.00 4361.60 64.71
2744 31.1100 4099.00 4317.90 64.02
2745 31.1200 4173.00 4275.93 64.60
2746 31.1300 4168.00 4263.64 64.56
2747 31.1400 4248.00 4308.62 65.18
2748 31.1500 4396.00 4430.74 66.30
2749 31.1600 4650.00 4632.23 68.19
2750 31.1700 5079.00 4880.92 71.27
2751 31.1800 5438.00 5098.32 73.74
2752 31.1900 5415.00 5176.34 73.59
2753 31.2000 5075.00 5061.11 71.24
2754 31.2100 4615.00 4810.22 67.93
2755 31.2200 4319.00 4521.48 65.72
2756 31.2300 4087.00 4262.81 63.93
2757 31.2400 3953.00 4064.06 62.87
2758 31.2500 3891.00 3924.63 62.38
2759 31.2600 3835.00 3829.27 61.93
2760 31.2700 3713.00 3763.38 60.93
2761 31.2800 3684.00 3719.91 60.70
2762 31.2900 3672.00 3698.07 60.60
2763 31.3000 3722.00 3701.30 61.01
2764 31.3100 3717.00 3735.28 60.97
2765 31.3200 3824.00 3806.23 61.84
2766 31.3300 3903.00 3916.68 62.47
2767 31.3400 4065.00 4061.15 63.76
2768 31.3500 4294.00 4219.58 65.53
2769 31.3600 4593.00 4353.69 67.77
2770 31.3700 4598.00 4422.29 67.81
2771 31.3800 4491.00 4412.32 67.01
2772 31.3900 4288.00 4354.90 65.48
2773 31.4000 4217.00 4289.76 64.94
2774 31.4100 4209.00 4233.17 64.88
2775 31.4200 4184.00 4182.69 64.68
2776 31.4300 4110.00 4137.86 64.11
2777 31.4400 4103.00 4112.49 64.05
2778 31.4500 4120.00 4131.06 64.19
2779 31.4600 4229.00 4214.94 65.03
2780 31.4700 4390.00 4363.87 66.26
2781 31.4800 4659.00 4545.39 68.26
2782 31.4900 4811.00 4693.24 69.36
2783 31.5000 4835.00 4741.51 69.53
2784 31.5100 4670.00 4684.20 68.34
2785 31.5200 4543.00 4564.26 67.40
2786 31.5300 4365.00 4417.29 66.07
2787 31.5400 4255.00 4272.16 65.23
2788 31.5500 4166.00 4156.21 64.54
2789 31.5600 4139.00 4079.88 64.34
2790 31.5700 4114.00 4031.90 64.14
2791 31.5800 4108.00 3995.89 64.09
2792 31.5900 4090.00 3969.27 63.95
2793 31.6000 4101.00 3959.64 64.04
2794 31.6100 4146.00 3977.64 64.39
2795 31.6200 4147.00 4037.18 64.40
2796 31.6300 4210.00 4148.80 64.88
2797 31.6400 4352.00 4305.70 65.97
2798 31.6500 4512.00 4475.57 67.17
2799 31.6600 4692.00 4606.26 68.50
2800 31.6700 4732.00 4654.23 68.79
2801 31.6800 4712.00 4617.45 68.64
2802 31.6900 4542.00 4518.14 67.39
2803 31.7000 4460.00 4374.57 66.78
2804 31.7100 4202.00 4209.34 64.82
2805 31.7200 4048.00 4050.97 63.62
2806 31.7300 3909.00 3917.81 62.52
2807 31.7400 3806.00 3815.94 61.69
2808 31.7500 3752.00 3740.23 61.25
2809 31.7600 3734.00 3674.77 61.11
2810 31.7700 3634.00 3609.51 60.28
2811 31.7800 3597.00 3545.80 59.97
2812 31.7900 3528.00 3491.05 59.40
2813 31.8000 3485.00 3451.08 59.03
2814 31.8100 3470.00 3427.42 58.91
2815 31.8200 3488.00 3421.77 59.06
2816 31.8300 3482.00 3434.39 59.01
2817 31.8400 3534.00 3464.95 59.45
2818 31.8500 3560.00 3512.43 59.67
2819 31.8600 3662.00 3574.46 60.51
2820 31.8700 3705.00 3643.67 60.87
2821 31.8800 3819.00 3707.56 61.80
2822 31.8900 3852.00 3753.27 62.06
2823 31.9000 3886.00 3778.62 62.34
2824 31.9100 3862.00 3793.99 62.15
2825 31.9200 3906.00 3811.43 62.50
2826 31.9300 3905.00 3835.46 62.49
2827 31.9400 3950.00 3853.23 62.85
2828 31.9500 3919.00 3847.68 62.60
2829 31.9600 3869.00 3808.47 62.20
2830 31.9700 3759.00 3738.62 61.31
2831 31.9800 3638.00 3651.67 60.32
2832 31.9900 3597.00 3567.21 59.97
2833 32.0000 3552.00 3507.10 59.60
2834 32.0100 3550.00 3483.27 59.58
2835 32.0200 3564.00 3499.83 59.70
2836 32.0300 3686.00 3552.93 60.71
2837 32.0400 3787.00 3631.49 61.54
2838 32.0500 3858.00 3718.91 62.11
2839 32.0600 3949.00 3796.28 62.84
2840 32.0700 3991.00 3847.44 63.17
2841 32.0800 3977.00 3870.94 63.06
2842 32.0900 3957.00 3878.78 62.90
2843 32.1000 3912.00 3884.82 62.55
2844 32.1100 3950.00 3886.29 62.85
2845 32.1200 3929.00 3870.01 62.68
2846 32.1300 3885.00 3830.40 62.33
2847 32.1400 3866.00 3785.88 62.18
2848 32.1500 3834.00 3755.56 61.92
2849 32.1600 3824.00 3752.32 61.84
2850 32.1700 3835.00 3778.47 61.93
2851 32.1800 3902.00 3821.15 62.47
2852 32.1900 3944.00 3858.61 62.80
2853 32.2000 4044.00 3868.95 63.59
2854 32.2100 3995.00 3844.66 63.21
2855 32.2200 3863.00 3795.95 62.15
2856 32.2300 3752.00 3739.45 61.25
2857 32.2400 3660.00 3689.46 60.50
2858 32.2500 3608.00 3649.36 60.07
2859 32.2600 3626.00 3613.05 60.22
2860 32.2700 3529.00 3573.11 59.41
2861 32.2800 3539.00 3529.25 59.49
2862 32.2900 3478.00 3492.71 58.97
2863 32.3000 3526.00 3476.64 59.38
2864 32.3100 3475.00 3491.83 58.95
2865 32.3200 3596.00 3542.85 59.97
2866 32.3300 3694.00 3625.96 60.78
2867 32.3400 3802.00 3728.20 61.66
2868 32.3500 3831.00 3834.33 61.90
2869 32.3600 3922.00 3936.55 62.63
2870 32.3700 4014.00 4029.33 63.36
2871 32.3800 4163.00 4091.67 64.52
2872 32.3900 4175.00 4088.04 64.61
2873 32.4000 4052.00 4000.17 63.66
2874 32.4100 3791.00 3847.34 61.57
2875 32.4200 3639.00 3672.79 60.32
2876 32.4300 3482.00 3512.95 59.01
2877 32.4400 3371.00 3389.69 58.06
2878 32.4500 3337.00 3309.04 57.77
2879 32.4600 3318.00 3267.00 57.60
2880 32.4700 3268.00 3256.58 57.17
2881 32.4800 3292.00 3267.63 57.38
2882 32.4900 3308.00 3291.65 57.52
2883 32.5000 3355.00 3324.17 57.92
2884 32.5100 3387.00 3364.85 58.20
2885 32.5200 3460.00 3412.69 58.82
2886 32.5300 3450.00 3463.22 58.74
2887 32.5400 3492.00 3509.89 59.09
2888 32.5500 3527.00 3547.42 59.39
2889 32.5600 3585.00 3575.54 59.87
2890 32.5700 3572.00 3598.61 59.77
2891 32.5800 3577.00 3619.06 59.81
2892 32.5900 3602.00 3643.47 60.02
2893 32.6000 3689.00 3670.49 60.74
2894 32.6100 3678.00 3694.38 60.65
2895 32.6200 3695.00 3702.59 60.79
2896 32.6300 3614.00 3683.58 60.12
2897 32.6400 3558.00 3637.90 59.65
2898 32.6500 3448.00 3580.70 58.72
2899 32.6600 3415.00 3530.46 58.44
2900 32.6700 3399.00 3500.49 58.30
2901 32.6800 3446.00 3497.37 58.70
2902 32.6900 3495.00 3520.04 59.12
2903 32.7000 3512.00 3560.21 59.26
2904 32.7100 3555.00 3602.39 59.62
2905 32.7200 3633.00 3632.50 60.27
2906 32.7300 3603.00 3651.73 60.03
2907 32.7400 3701.00 3677.27 60.84
2908 32.7500 3721.00 3718.33 61.00
2909 32.7600 3793.00 3776.40 61.59
2910 32.7700 3809.00 3844.37 61.72
2911 32.7800 3947.00 3915.65 62.83
2912 32.7900 4024.00 3983.86 63.44
2913 32.8000 4122.00 4037.22 64.20
2914 32.8100 4172.00 4066.59 64.59
2915 32.8200 4126.00 4070.32 64.23
2916 32.8300 4074.00 4047.16 63.83
2917 32.8400 3985.00 4001.24 63.13
2918 32.8500 3915.00 3947.71 62.57
2919 32.8600 3888.00 3904.51 62.35
2920 32.8700 3901.00 3881.95 62.46
2921 32.8800 3889.00 3881.12 62.36
2922 32.8900 3895.00 3898.41 62.41
2923 32.9000 3983.00 3930.73 63.11
2924 32.9100 3959.00 3976.06 62.92
2925 32.9200 4081.00 4029.25 63.88
2926 32.9300 4135.00 4074.94 64.30
2927 32.9400 4142.00 4090.94 64.36
2928 32.9500 4094.00 4065.78 63.98
2929 32.9600 4015.00 4011.44 63.36
2930 32.9700 3897.00 3953.65 62.43
2931 32.9800 3928.00 3912.64 62.67
2932 32.9900 3875.00 3895.18 62.25
2933 33.0000 3877.00 3897.22 62.27
2934 33.0100 3889.00 3911.00 62.36
2935 33.0200 3975.00 3929.83 63.05
2936 33.0300 4036.00 3949.31 63.53
2937 33.0400 4096.00 3964.87 64.00
2938 33.0500 4085.00 3972.62 63.91
2939 33.0600 4069.00 3979.81 63.79
2940 33.0700 4092.00 3998.35 63.97
2941 33.0800 4131.00 4033.40 64.27
2942 33.0900 4198.00 4085.92 64.79
2943 33.1000 4295.00 4154.61 65.54
2944 33.1100 4341.00 4231.02 65.89
2945 33.1200 4405.00 4296.78 66.37
2946 33.1300 4434.00 4331.44 66.59
2947 33.1400 4480.00 4319.31 66.93
2948 33.1500 4369.00 4254.37 66.10
2949 33.1600 4306.00 4143.09 65.62
2950 33.1700 4130.00 4005.97 64.27
2951 33.1800 3925.00 3867.60 62.65
2952 33.1900 3793.00 3746.02 61.59
2953 33.2000 3699.00 3651.30 60.82
2954 33.2100 3667.00 3584.54 60.56
2955 33.2200 3678.00 3542.60 60.65
2956 33.2300 3597.00 3520.91 59.97
2957 33.2400 3550.00 3515.28 59.58
2958 33.2500 3562.00 3521.15 59.68
2959 33.2600 3562.00 3530.65 59.68
2960 33.2700 3521.00 3533.71 59.34
2961 33.2800 3448.00 3524.24 58.72
2962 33.2900 3405.00 3506.51 58.35
2963 33.3000 3362.00 3484.89 57.98
2964 33.3100 3316.00 3460.11 57.58
2965 33.3200 3360.00 3434.02 57.97
2966 33.3300 3349.00 3410.36 57.87
2967 33.3400 3379.00 3391.94 58.13
2968 33.3500 3332.00 3379.97 57.72
2969 33.3600 3327.00 3374.69 57.68
2970 33.3700 3318.00 3376.35 57.60
2971 33.3800 3360.00 3384.31 57.97
2972 33.3900 3345.00 3395.46 57.84
2973 33.4000 3366.00 3405.77 58.02
2974 33.4100 3356.00 3415.44 57.93
2975 33.4200 3366.00 3427.64 58.02
2976 33.4300 3317.00 3443.19 57.59
2977 33.4400 3338.00 3460.30 57.78
2978 33.4500 3372.00 3478.29 58.07
2979 33.4600 3385.00 3501.54 58.18
2980 33.4700 3412.00 3537.34 58.41
2981 33.4800 3488.00 3588.88 59.06
2982 33.4900 3520.00 3650.68 59.33
2983 33.5000 3614.00 3709.41 60.12
2984 33.5100 3619.00 3751.27 60.16
2985 33.5200 3692.00 3770.35 60.76
2986 33.5300 3648.00 3768.45 60.40
2987 33.5400 3662.00 3756.03 60.51
2988 33.5500 3616.00 3749.67 60.13
2989 33.5600 3715.00 3760.90 60.95
2990 33.5700 3827.00 3789.77 61.86
2991 33.5800 3910.00 3824.01 62.53
2992 33.5900 3885.00 3846.87 62.33
2993 33.6000 3864.00 3855.25 62.16
2994 33.6100 3789.00 3863.37 61.55
2995 33.6200 3858.00 3885.58 62.11
2996 33.6300 3878.00 3927.18 62.27
2997 33.6400 3999.00 3985.13 63.24
2998 33.6500 4061.00 4052.79 63.73
2999 33.6600 4153.00 4113.73 64.44
3000 33.6700 4090.00 4144.58 63.95
3001 33.6800 4059.00 4127.02 63.71
3002 33.6900 3955.00 4056.08 62.89
3003 33.7000 3792.00 3944.10 61.58
3004 33.7100 3653.00 3814.99 60.44
3005 33.7200 3571.00 3690.27 59.76
3006 33.7300 3478.00 3581.40 58.97
3007 33.7400 3431.00 3491.17 58.57
3008 33.7500 3369.00 3419.67 58.04
3009 33.7600 3330.00 3367.24 57.71
3010 33.7700 3299.00 3334.08 57.44
3011 33.7800 3310.00 3318.55 57.53
3012 33.7900 3312.00 3317.70 57.55
3013 33.8000 3299.00 3328.17 57.44
3014 33.8100 3296.00 3347.23 57.41
3015 33.8200 3355.00 3375.04 57.92
3016 33.8300 3409.00 3415.78 58.39
3017 33.8400 3452.00 3475.07 58.75
3018 33.8500 3499.00 3550.83 59.15
3019 33.8600 3589.00 3631.11 59.91
3020 33.8700 3620.00 3693.23 60.17
3021 33.8800 3666.00 3715.12 60.55
3022 33.8900 3634.00 3690.10 60.28
3023 33.9000 3573.00 3633.87 59.77
3024 33.9100 3497.00 3569.02 59.14
3025 33.9200 3466.00 3512.76 58.87
3026 33.9300 3483.00 3474.80 59.02
3027 33.9400 3522.00 3461.53 59.35
3028 33.9500 3476.00 3474.71 58.96
3029 33.9600 3541.00 3515.19 59.51
3030 33.9700 3542.00 3586.28 59.51
3031 33.9800 3673.00 3690.29 60.61
3032 33.9900 3785.00 3817.86 61.52
3033 34.0000 3998.00 3942.67 63.23
3034 34.0100 4084.00 4027.09 63.91
3035 34.0200 4090.00 4043.45 63.95
3036 34.0300 4017.00 3994.08 63.38
3037 34.0400 3926.00 3898.92 62.66
3038 34.0500 3802.00 3787.97 61.66
3039 34.0600 3742.00 3682.47 61.17
3040 34.0700 3634.00 3589.33 60.28
3041 34.0800 3552.00 3505.54 59.60
3042 34.0900 3462.00 3427.54 58.84
3043 34.1000 3389.00 3355.92 58.22
3044 34.1100 3328.00 3296.34 57.69
3045 34.1200 3310.00 3253.92 57.53
3046 34.1300 3271.00 3228.54 57.19
3047 34.1400 3248.00 3213.60 56.99
3048 34.1500 3220.00 3200.09 56.74
3049 34.1600 3214.00 3182.19 56.69
3050 34.1700 3178.00 3162.52 56.37
3051 34.1800 3159.00 3147.78 56.21
3052 34.1900 3148.00 3142.48 56.11
3053 34.2000 3170.00 3145.42 56.30
3054 34.2100 3136.00 3153.40 56.00
3055 34.2200 3149.00 3161.55 56.12
3056 34.2300 3123.00 3165.73 55.88
3057 34.2400 3155.00 3165.80 56.17
3058 34.2500 3181.00 3162.74 56.40
3059 34.2600 3180.00 3158.91 56.39
3060 34.2700 3144.00 3156.59 56.07
3061 34.2800 3151.00 3155.86 56.13
3062 34.2900 3151.00 3155.60 56.13
3063 34.3000 3176.00 3156.69 56.36
3064 34.3100 3200.00 3161.31 56.57
3065 34.3200 3215.00 3169.19 56.70
3066 34.3300 3187.00 3179.11 56.45
3067 34.3400 3181.00 3190.30 56.40
3068 34.3500 3178.00 3203.50 56.37
3069 34.3600 3208.00 3218.43 56.64
3070 34.3700 3183.00 3231.97 56.42
3071 34.3800 3176.00 3240.20 56.36
3072 34.3900 3146.00 3242.02 56.09
3073 34.4000 3137.00 3241.30 56.01
3074 34.4100 3140.00 3243.35 56.04
3075 34.4200 3185.00 3251.34 56.44
3076 34.4300 3194.00 3262.25 56.52
3077 34.4400 3217.00 3272.14 56.72
3078 34.4500 3171.00 3276.98 56.31
3079 34.4600 3177.00 3275.26 56.36
3080 34.4700 3192.00 3267.81 56.50
3081 34.4800 3171.00 3257.12 56.31
3082 34.4900 3148.00 3248.53 56.11
3083 34.5000 3156.00 3249.70 56.18
3084 34.5100 3197.00 3266.36 56.54
3085 34.5200 3222.00 3300.62 56.76
3086 34.5300 3300.00 3347.86 57.45
3087 34.5400 3376.00 3399.59 58.10
3088 34.5500 3377.00 3448.45 58.11
3089 34.5600 3412.00 3494.67 58.41
3090 34.5700 3446.00 3542.38 58.70
3091 34.5800 3565.00 3592.56 59.71
3092 34.5900 3638.00 3638.46 60.32
3093 34.6000 3697.00 3666.36 60.80
3094 34.6100 3654.00 3665.33 60.45
3095 34.6200 3615.00 3637.15 60.12
3096 34.6300 3509.00 3597.02 59.24
3097 34.6400 3478.00 3562.38 58.97
3098 34.6500 3485.00 3542.20 59.03
3099 34.6600 3501.00 3536.46 59.17
3100 34.6700 3525.00 3535.27 59.37
3101 34.6800 3508.00 3526.29 59.23
3102 34.6900 3401.00 3501.43 58.32
3103 34.7000 3342.00 3462.33 57.81
3104 34.7100 3269.00 3417.43 57.18
3105 34.7200 3273.00 3373.47 57.21
3106 34.7300 3247.00 3332.78 56.98
3107 34.7400 3229.00 3298.03 56.82
3108 34.7500 3192.00 3275.06 56.50
3109 34.7600 3220.00 3269.34 56.74
3110 34.7700 3181.00 3282.94 56.40
3111 34.7800 3260.00 3313.84 57.10
3112 34.7900 3296.00 3355.33 57.41
3113 34.8000 3344.00 3397.56 57.83
3114 34.8100 3357.00 3430.10 57.94
3115 34.8200 3370.00 3445.00 58.05
3116 34.8300 3350.00 3442.96 57.88
3117 34.8400 3377.00 3434.12 58.11
3118 34.8500 3374.00 3431.42 58.09
3119 34.8600 3376.00 3442.18 58.10
3120 34.8700 3408.00 3469.32 58.38
3121 34.8800 3494.00 3510.41 59.11
3122 34.8900 3547.00 3562.19 59.56
3123 34.9000 3677.00 3615.22 60.64
3124 34.9100 3698.00 3656.99 60.81
3125 34.9200 3670.00 3678.83 60.58
3126 34.9300 3583.00 3681.47 59.86
3127 34.9400 3568.00 3667.71 59.73
3128 34.9500 3521.00 3643.85 59.34
3129 34.9600 3546.00 3613.95 59.55
3130 34.9700 3478.00 3581.60 58.97
3131 34.9800 3506.00 3548.30 59.21
3132 34.9900 3416.00 3515.55 58.45
3133 35.0000 3418.00 3482.51 58.46
3134 35.0100 3368.00 3445.87 58.03
3135 35.0200 3356.00 3405.33 57.93
3136 35.0300 3305.00 3366.24 57.49
3137 35.0400 3290.00 3332.06 57.36
3138 35.0500 3216.00 3301.44 56.71
3139 35.0600 3185.00 3272.14 56.44
3140 35.0700 3189.00 3244.77 56.47
3141 35.0800 3185.00 3221.83 56.44
3142 35.0900 3141.00 3203.67 56.04
3143 35.1000 3126.00 3190.05 55.91
3144 35.1100 3085.00 3179.23 55.54
3145 35.1200 3082.00 3169.66 55.52
3146 35.1300 3092.00 3161.18 55.61
3147 35.1400 3095.00 3151.26 55.63
3148 35.1500 3083.00 3141.53 55.52
3149 35.1600 3088.00 3133.25 55.57
3150 35.1700 3035.00 3128.40 55.09
3151 35.1800 3070.00 3129.02 55.41
3152 35.1900 3057.00 3136.64 55.29
3153 35.2000 3118.00 3151.97 55.84
3154 35.2100 3163.00 3174.50 56.24
3155 35.2200 3175.00 3202.14 56.35
3156 35.2300 3193.00 3230.82 56.51
3157 35.2400 3223.00 3255.13 56.77
3158 35.2500 3216.00 3267.77 56.71
3159 35.2600 3238.00 3264.32 56.90
3160 35.2700 3181.00 3249.42 56.40
3161 35.2800 3187.00 3234.01 56.45
3162 35.2900 3210.00 3224.99 56.66
3163 35.3000 3225.00 3229.02 56.79
3164 35.3100 3276.00 3248.37 57.24
3165 35.3200 3346.00 3283.31 57.84
3166 35.3300 3374.00 3332.82 58.09
3167 35.3400 3434.00 3396.09 58.60
3168 35.3500 3429.00 3472.37 58.56
3169 35.3600 3628.00 3558.78 60.23
3170 35.3700 3702.00 3650.16 60.84
3171 35.3800 3911.00 3743.27 62.54
3172 35.3900 4036.00 3833.40 63.53
3173 35.4000 4158.00 3909.03 64.48
3174 35.4100 4177.00 3954.26 64.63
3175 35.4200 4185.00 3960.31 64.69
3176 35.4300 4046.00 3930.07 63.61
3177 35.4400 3926.00 3877.79 62.66
3178 35.4500 3844.00 3819.76 62.00
3179 35.4600 3759.00 3765.93 61.31
3180 35.4700 3659.00 3718.15 60.49
3181 35.4800 3621.00 3675.41 60.17
3182 35.4900 3547.00 3636.56 59.56
3183 35.5000 3539.00 3599.77 59.49
3184 35.5100 3463.00 3564.39 58.85
3185 35.5200 3456.00 3531.23 58.79
3186 35.5300 3413.00 3501.27 58.42
3187 35.5400 3403.00 3473.08 58.34
3188 35.5500 3390.00 3444.53 58.22
3189 35.5600 3383.00 3415.18 58.16
3190 35.5700 3366.00 3387.82 58.02
3191 35.5800 3396.00 3366.87 58.28
3192 35.5900 3373.00 3355.48 58.08
3193 35.6000 3412.00 3352.56 58.41
3194 35.6100 3376.00 3355.09 58.10
3195 35.6200 3408.00 3358.89 58.38
3196 35.6300 3333.00 3361.68 57.73
3197 35.6400 3333.00 3364.11 57.73
3198 35.6500 3335.00 3365.16 57.75
3199 35.6600 3350.00 3360.97 57.88
3200 35.6700 3294.00 3348.71 57.39
3201 35.6800 3296.00 3330.55 57.41
3202 35.6900 3306.00 3312.92 57.50
3203 35.7000 3280.00 3302.96 57.27
3204 35.7100 3249.00 3304.55 57.00
3205 35.7200 3304.00 3318.05 57.48
3206 35.7300 3297.00 3342.66 57.42
3207 35.7400 3391.00 3374.45 58.23
3208 35.7500 3417.00 3408.78 58.46
3209 35.7600 3440.00 3441.00 58.65
3210 35.7700 3455.00 3467.22 58.78
3211 35.7800 3497.00 3483.03 59.14
3212 35.7900 3483.00 3483.05 59.02
3213 35.8000 3498.00 3465.55 59.14
3214 35.8100 3444.00 3437.84 58.69
3215 35.8200 3375.00 3411.40 58.09
3216 35.8300 3352.00 3393.28 57.90
3217 35.8400 3340.00 3385.23 57.79
3218 35.8500 3368.00 3382.27 58.03
3219 35.8600 3406.00 3381.47 58.36
3220 35.8700 3381.00 3386.66 58.15
3221 35.8800 3397.00 3406.52 58.28
3222 35.8900 3383.00 3449.26 58.16
3223 35.9000 3491.00 3519.82 59.08
3224 35.9100 3627.00 3614.61 60.22
3225 35.9200 3819.00 3717.63 61.80
3226 35.9300 3978.00 3801.51 63.07
3227 35.9400 3996.00 3836.50 63.21
3228 35.9500 3800.00 3807.98 61.64
3229 35.9600 3629.00 3729.14 60.24
3230 35.9700 3518.00 3630.83 59.31
3231 35.9800 3416.00 3537.86 58.45
3232 35.9900 3378.00 3465.39 58.12
3233 36.0000 3365.00 3417.76 58.01
3234 36.0100 3372.00 3393.18 58.07
3235 36.0200 3418.00 3386.96 58.46
3236 36.0300 3431.00 3394.13 58.57
3237 36.0400 3491.00 3409.45 59.08
3238 36.0500 3501.00 3424.65 59.17
3239 36.0600 3516.00 3428.81 59.30
3240 36.0700 3420.00 3414.20 58.48
3241 36.0800 3421.00 3384.17 58.49
3242 36.0900 3315.00 3350.74 57.58
3243 36.1000 3318.00 3326.03 57.60
3244 36.1100 3353.00 3318.90 57.91
3245 36.1200 3392.00 3335.02 58.24
3246 36.1300 3385.00 3374.89 58.18
3247 36.1400 3479.00 3432.65 58.98
3248 36.1500 3579.00 3496.98 59.82
3249 36.1600 3619.00 3553.61 60.16
3250 36.1700 3694.00 3589.65 60.78
3251 36.1800 3654.00 3600.89 60.45
3252 36.1900 3618.00 3594.84 60.15
3253 36.2000 3609.00 3581.79 60.08
3254 36.2100 3601.00 3567.84 60.01
3255 36.2200 3548.00 3553.66 59.57
3256 36.2300 3547.00 3535.96 59.56
3257 36.2400 3524.00 3510.21 59.36
3258 36.2500 3431.00 3476.00 58.57
3259 36.2600 3410.00 3440.41 58.40
3260 36.2700 3368.00 3413.60 58.03
3261 36.2800 3380.00 3401.63 58.14
3262 36.2900 3434.00 3404.30 58.60
3263 36.3000 3434.00 3416.76 58.60
3264 36.3100 3458.00 3430.33 58.80
3265 36.3200 3438.00 3440.91 58.63
3266 36.3300 3459.00 3446.74 58.81
3267 36.3400 3476.00 3447.37 58.96
3268 36.3500 3455.00 3443.62 58.78
3269 36.3600 3458.00 3437.41 58.80
3270 36.3700 3431.00 3430.64 58.57
3271 36.3800 3432.00 3423.58 58.58
3272 36.3900 3456.00 3414.61 58.79
3273 36.4000 3440.00 3403.27 58.65
3274 36.4100 3404.00 3395.37 58.34
3275 36.4200 3422.00 3399.78 58.50
3276 36.4300 3399.00 3419.37 58.30
3277 36.4400 3501.00 3450.49 59.17
3278 36.4500 3570.00 3481.94 59.75
3279 36.4600 3602.00 3499.94 60.02
3280 36.4700 3616.00 3498.84 60.13
3281 36.4800 3610.00 3483.83 60.08
3282 36.4900 3583.00 3461.74 59.86
3283 36.5000 3577.00 3436.14 59.81
3284 36.5100 3477.00 3408.58 58.97
3285 36.5200 3463.00 3378.37 58.85
3286 36.5300 3401.00 3343.70 58.32
3287 36.5400 3370.00 3304.36 58.05
3288 36.5500 3296.00 3260.95 57.41
3289 36.5600 3306.00 3214.32 57.50
3290 36.5700 3231.00 3167.53 56.84
3291 36.5800 3181.00 3124.88 56.40
3292 36.5900 3118.00 3090.99 55.84
3293 36.6000 3106.00 3067.32 55.73
3294 36.6100 3043.00 3055.16 55.16
3295 36.6200 3104.00 3054.63 55.71
3296 36.6300 3091.00 3065.74 55.60
3297 36.6400 3149.00 3088.05 56.12
3298 36.6500 3200.00 3120.39 56.57
3299 36.6600 3243.00 3159.90 56.95
3300 36.6700 3233.00 3204.25 56.86
3301 36.6800 3303.00 3252.80 57.47
3302 36.6900 3326.00 3306.16 57.67
3303 36.7000 3390.00 3365.32 58.22
3304 36.7100 3440.00 3428.98 58.65
3305 36.7200 3541.00 3489.37 59.51
3306 36.7300 3517.00 3532.91 59.30
3307 36.7400 3587.00 3547.85 59.89
3308 36.7500 3527.00 3530.75 59.39
3309 36.7600 3460.00 3486.94 58.82
3310 36.7700 3390.00 3428.04 58.22
3311 36.7800 3312.00 3367.18 57.55
3312 36.7900 3221.00 3312.62 56.75
3313 36.8000 3185.00 3267.58 56.44
3314 36.8100 3195.00 3231.98 56.52
3315 36.8200 3158.00 3206.61 56.20
3316 36.8300 3150.00 3191.01 56.12
3317 36.8400 3172.00 3183.66 56.32
3318 36.8500 3158.00 3182.50 56.20
3319 36.8600 3225.00 3185.76 56.79
3320 36.8700 3214.00 3193.09 56.69
3321 36.8800 3272.00 3206.94 57.20
3322 36.8900 3256.00 3230.02 57.06
3323 36.9000 3369.00 3262.57 58.04
3324 36.9100 3368.00 3296.54 58.03
3325 36.9200 3407.00 3320.71 58.37
3326 36.9300 3387.00 3324.21 58.20
3327 36.9400 3384.00 3307.77 58.17
3328 36.9500 3281.00 3278.84 57.28
3329 36.9600 3261.00 3246.70 57.11
3330 36.9700 3245.00 3216.99 56.96
3331 36.9800 3228.00 3192.06 56.82
3332 36.9900 3182.00 3171.38 56.41
3333 37.0000 3176.00 3154.30 56.36
3334 37.0100 3142.00 3141.75 56.05
3335 37.0200 3144.00 3137.84 56.07
3336 37.0300 3128.00 3145.49 55.93
3337 37.0400 3125.00 3167.07 55.90
3338 37.0500 3168.00 3201.87 56.28
3339 37.0600 3259.00 3246.65 57.09
3340 37.0700 3287.00 3295.85 57.33
3341 37.0800 3336.00 3344.44 57.76
3342 37.0900 3321.00 3389.29 57.63
3343 37.1000 3334.00 3430.50 57.74
3344 37.1100 3408.00 3469.10 58.38
3345 37.1200 3523.00 3503.98 59.35
3346 37.1300 3598.00 3528.00 59.98
3347 37.1400 3599.00 3530.01 59.99
3348 37.1500 3495.00 3505.27 59.12
3349 37.1600 3453.00 3460.10 58.76
3350 37.1700 3361.00 3405.02 57.97
3351 37.1800 3360.00 3347.07 57.97
3352 37.1900 3290.00 3291.04 57.36
3353 37.2000 3241.00 3240.39 56.93
3354 37.2100 3163.00 3198.70 56.24
3355 37.2200 3115.00 3167.85 55.81
3356 37.2300 3121.00 3147.83 55.87
3357 37.2400 3166.00 3137.58 56.27
3358 37.2500 3190.00 3134.96 56.48
3359 37.2600 3213.00 3136.13 56.68
3360 37.2700 3163.00 3135.81 56.24
3361 37.2800 3157.00 3129.42 56.19
3362 37.2900 3100.00 3116.66 55.68
3363 37.3000 3116.00 3102.80 55.82
3364 37.3100 3084.00 3094.60 55.53
3365 37.3200 3091.00 3097.34 55.60
3366 37.3300 3094.00 3113.85 55.62
3367 37.3400 3146.00 3144.80 56.09
3368 37.3500 3201.00 3188.71 56.58
3369 37.3600 3295.00 3240.77 57.40
3370 37.3700 3364.00 3293.19 58.00
3371 37.3800 3416.00 3337.00 58.45
3372 37.3900 3389.00 3364.96 58.22
3373 37.4000 3388.00 3374.77 58.21
3374 37.4100 3387.00 3369.21 58.20
3375 37.4200 3328.00 3355.62 57.69
3376 37.4300 3308.00 3341.84 57.52
3377 37.4400 3314.00 3331.97 57.57
3378 37.4500 3266.00 3325.29 57.15
3379 37.4600 3349.00 3317.81 57.87
3380 37.4700 3277.00 3305.68 57.25
3381 37.4800 3282.00 3287.54 57.29
3382 37.4900 3221.00 3264.33 56.75
3383 37.5000 3206.00 3237.33 56.62
3384 37.5100 3118.00 3207.44 55.84
3385 37.5200 3086.00 3175.47 55.55
3386 37.5300 3039.00 3143.05 55.13
3387 37.5400 3007.00 3112.81 54.84
3388 37.5500 2979.00 3087.47 54.58
3389 37.5600 2975.00 3069.20 54.54
3390 37.5700 2996.00 3059.55 54.74
3391 37.5800 2977.00 3059.17 54.56
3392 37.5900 2982.00 3068.11 54.61
3393 37.6000 3038.00 3085.56 55.12
3394 37.6100 3071.00 3110.51 55.42
3395 37.6200 3089.00 3141.54 55.58
3396 37.6300 3106.00 3175.43 55.73
3397 37.6400 3161.00 3207.88 56.22
3398 37.6500 3167.00 3233.67 56.28
3399 37.6600 3178.00 3249.39 56.37
3400 37.6700 3220.00 3252.56 56.74
3401 37.6800 3200.00 3241.47 56.57
3402 37.6900 3114.00 3216.43 55.80
3403 37.7000 3073.00 3182.22 55.43
3404 37.7100 3074.00 3145.68 55.44
3405 37.7200 3099.00 3112.57 55.67
3406 37.7300 3076.00 3087.06 55.46
3407 37.7400 3008.00 3072.20 54.85
3408 37.7500 3037.00 3069.98 55.11
3409 37.7600 3052.00 3080.15 55.24
3410 37.7700 3053.00 3098.99 55.25
3411 37.7800 3108.00 3120.75 55.75
3412 37.7900 3141.00 3137.35 56.04
3413 37.8000 3088.00 3142.52 55.57
3414 37.8100 3043.00 3133.80 55.16
3415 37.8200 3050.00 3115.37 55.23
3416 37.8300 3020.00 3094.26 54.95
3417 37.8400 2995.00 3075.41 54.73
3418 37.8500 2976.00 3060.94 54.55
3419 37.8600 2996.00 3050.39 54.74
3420 37.8700 2943.00 3041.71 54.25
3421 37.8800 2966.00 3032.63 54.46
3422 37.8900 2963.00 3023.78 54.43
3423 37.9000 2980.00 3018.47 54.59
3424 37.9100 2948.00 3020.81 54.30
3425 37.9200 2976.00 3034.52 54.55
3426 37.9300 2968.00 3062.24 54.48
3427 37.9400 3105.00 3104.56 55.72
3428 37.9500 3172.00 3158.05 56.32
3429 37.9600 3283.00 3214.76 57.30
3430 37.9700 3308.00 3262.83 57.52
3431 37.9800 3294.00 3286.64 57.39
3432 37.9900 3241.00 3280.05 56.93
3433 38.0000 3171.00 3250.16 56.31
3434 38.0100 3128.00 3211.51 55.93
3435 38.0200 3134.00 3176.11 55.98
3436 38.0300 3166.00 3150.00 56.27
3437 38.0400 3158.00 3135.04 56.20
3438 38.0500 3139.00 3131.02 56.03
3439 38.0600 3222.00 3134.77 56.76
3440 38.0700 3204.00 3140.11 56.60
3441 38.0800 3243.00 3142.82 56.95
3442 38.0900 3200.00 3143.51 56.57
3443 38.1000 3141.00 3146.85 56.04
3444 38.1100 3185.00 3156.91 56.44
3445 38.1200 3233.00 3175.07 56.86
3446 38.1300 3286.00 3199.56 57.32
3447 38.1400 3340.00 3225.47 57.79
3448 38.1500 3286.00 3244.76 57.32
3449 38.1600 3309.00 3250.07 57.52
3450 38.1700 3257.00 3238.37 57.07
3451 38.1800 3201.00 3211.55 56.58
3452 38.1900 3136.00 3174.13 56.00
3453 38.2000 3129.00 3132.33 55.94
3454 38.2100 3089.00 3092.71 55.58
3455 38.2200 3051.00 3060.06 55.24
3456 38.2300 3061.00 3038.37 55.33
3457 38.2400 3077.00 3025.88 55.47
3458 38.2500 3051.00 3022.98 55.24
3459 38.2600 3109.00 3030.32 55.76
3460 38.2700 3087.00 3048.34 55.56
3461 38.2800 3135.00 3077.21 55.99
3462 38.2900 3144.00 3114.63 56.07
3463 38.3000 3246.00 3155.95 56.97
3464 38.3100 3292.00 3191.63 57.38
3465 38.3200 3270.00 3210.94 57.18
3466 38.3300 3250.00 3207.56 57.01
3467 38.3400 3229.00 3186.94 56.82
3468 38.3500 3173.00 3160.94 56.33
3469 38.3600 3162.00 3138.47 56.23
3470 38.3700 3183.00 3121.54 56.42
3471 38.3800 3157.00 3107.81 56.19
3472 38.3900 3171.00 3095.77 56.31
3473 38.4000 3126.00 3087.15 55.91
3474 38.4100 3098.00 3084.98 55.66
3475 38.4200 3145.00 3088.80 56.08
3476 38.4300 3179.00 3097.69 56.38
3477 38.4400 3196.00 3109.29 56.53
3478 38.4500 3189.00 3123.18 56.47
3479 38.4600 3191.00 3140.81 56.49
3480 38.4700 3215.00 3164.02 56.70
3481 38.4800 3262.00 3193.79 57.11
3482 38.4900 3292.00 3227.37 57.38
3483 38.5000 3322.00 3256.16 57.64
3484 38.5100 3354.00 3268.90 57.91
3485 38.5200 3343.00 3261.59 57.82
3486 38.5300 3270.00 3239.81 57.18
3487 38.5400 3234.00 3209.34 56.87
3488 38.5500 3179.00 3175.27 56.38
3489 38.5600 3203.00 3140.41 56.60
3490 38.5700 3108.00 3106.15 55.75
3491 38.5800 3083.00 3074.88 55.52
3492 38.5900 3051.00 3048.71 55.24
3493 38.6000 3040.00 3028.32 55.14
3494 38.6100 3026.00 3012.85 55.01
3495 38.6200 3013.00 3001.87 54.89
3496 38.6300 2970.00 2995.13 54.50
3497 38.6400 3012.00 2992.35 54.88
3498 38.6500 3006.00 2993.47 54.83
3499 38.6600 3007.00 2998.89 54.84
3500 38.6700 3036.00 3007.98 55.10
3501 38.6800 3096.00 3017.99 55.64
3502 38.6900 3057.00 3023.99 55.29
3503 38.7000 3064.00 3022.83 55.35
3504 38.7100 3031.00 3015.70 55.05
3505 38.7200 3014.00 3007.06 54.90
3506 38.7300 3016.00 3001.18 54.92
3507 38.7400 3065.00 2999.36 55.36
3508 38.7500 3049.00 3000.18 55.22
3509 38.7600 3055.00 3002.09 55.27
3510 38.7700 3029.00 3004.49 55.04
3511 38.7800 3004.00 3006.65 54.81
3512 38.7900 2997.00 3006.88 54.74
3513 38.8000 3014.00 3003.73 54.90
3514 38.8100 2996.00 2997.74 54.74
3515 38.8200 2957.00 2990.44 54.38
3516 38.8300 2921.00 2983.58 54.05
3517 38.8400 2931.00 2978.21 54.14
3518 38.8500 2931.00 2975.62 54.14
3519 38.8600 2982.00 2976.42 54.61
3520 38.8700 2955.00 2980.45 54.36
3521 38.8800 2986.00 2986.31 54.64
3522 38.8900 2983.00 2991.65 54.62
3523 38.9000 3001.00 2994.58 54.78
3524 38.9100 2981.00 2995.44 54.60
3525 38.9200 2983.00 2996.95 54.62
3526 38.9300 2994.00 3001.73 54.72
3527 38.9400 2995.00 3011.27 54.73
3528 38.9500 3028.00 3026.20 55.03
3529 38.9600 3043.00 3045.14 55.16
3530 38.9700 3085.00 3064.93 55.54
3531 38.9800 3142.00 3081.29 56.05
3532 38.9900 3110.00 3090.19 55.77
3533 39.0000 3111.00 3090.37 55.78
3534 39.0100 3102.00 3085.66 55.70
3535 39.0200 3107.00 3083.78 55.74
3536 39.0300 3098.00 3088.34 55.66
3537 39.0400 3123.00 3103.00 55.88
3538 39.0500 3229.00 3126.11 56.82
3539 39.0600 3294.00 3152.30 57.39
3540 39.0700 3259.00 3173.76 57.09
3541 39.0800 3282.00 3184.44 57.29
3542 39.0900 3213.00 3181.79 56.68
3543 39.1000 3203.00 3167.23 56.60
3544 39.1100 3127.00 3145.25 55.92
3545 39.1200 3143.00 3120.95 56.06
3546 39.1300 3029.00 3097.54 55.04
3547 39.1400 3004.00 3076.40 54.81
3548 39.1500 2963.00 3057.86 54.43
3549 39.1600 3024.00 3041.54 54.99
3550 39.1700 2988.00 3027.48 54.66
3551 39.1800 2971.00 3017.07 54.51
3552 39.1900 2967.00 3012.07 54.47
3553 39.2000 2992.00 3013.96 54.70
3554 39.2100 2994.00 3023.07 54.72
3555 39.2200 3000.00 3038.52 54.77
3556 39.2300 3047.00 3058.97 55.20
3557 39.2400 3046.00 3082.98 55.19
3558 39.2500 3067.00 3109.67 55.38
3559 39.2600 3046.00 3137.38 55.19
3560 39.2700 3068.00 3163.82 55.39
3561 39.2800 3118.00 3187.06 55.84
3562 39.2900 3121.00 3205.07 55.87
3563 39.3000 3143.00 3215.18 56.06
3564 39.3100 3108.00 3215.08 55.75
3565 39.3200 3126.00 3204.88 55.91
3566 39.3300 3123.00 3188.07 55.88
3567 39.3400 3104.00 3168.93 55.71
3568 39.3500 3148.00 3151.20 56.11
3569 39.3600 3119.00 3136.89 55.85
3570 39.3700 3071.00 3126.39 55.42
3571 39.3800 3078.00 3119.00 55.48
3572 39.3900 3075.00 3113.96 55.45
3573 39.4000 3130.00 3110.39 55.95
3574 39.4100 3127.00 3107.04 55.92
3575 39.4200 3119.00 3103.03 55.85
3576 39.4300 3099.00 3096.73 55.67
3577 39.4400 3103.00 3087.84 55.70
3578 39.4500 3085.00 3076.54 55.54
3579 39.4600 3089.00 3064.61 55.58
3580 39.4700 3065.00 3055.89 55.36
3581 39.4800 3092.00 3054.35 55.61
3582 39.4900 3080.00 3062.99 55.50
3583 39.5000 3149.00 3081.75 56.12
3584 39.5100 3140.00 3109.02 56.04
3585 39.5200 3253.00 3140.83 57.04
3586 39.5300 3283.00 3174.03 57.30
3587 39.5400 3339.00 3208.13 57.78
3588 39.5500 3363.00 3243.23 57.99
3589 39.5600 3434.00 3277.81 58.60
3590 39.5700 3507.00 3308.96 59.22
3591 39.5800 3590.00 3332.87 59.92
3592 39.5900 3596.00 3345.69 59.97
3593 39.6000 3593.00 3344.62 59.94
3594 39.6100 3471.00 3328.78 58.92
3595 39.6200 3420.00 3300.73 58.48
3596 39.6300 3340.00 3266.70 57.79
3597 39.6400 3293.00 3234.15 57.38
3598 39.6500 3291.00 3207.93 57.37
3599 39.6600 3238.00 3189.97 56.90
3600 39.6700 3221.00 3179.84 56.75
3601 39.6800 3251.00 3175.18 57.02
3602 39.6900 3249.00 3172.01 57.00
3603 39.7000 3288.00 3165.34 57.34
3604 39.7100 3271.00 3151.77 57.19
3605 39.7200 3222.00 3131.30 56.76
3606 39.7300 3151.00 3108.18 56.13
3607 39.7400 3143.00 3088.43 56.06
3608 39.7500 3161.00 3076.91 56.22
3609 39.7600 3216.00 3075.46 56.71
3610 39.7700 3265.00 3082.69 57.14
3611 39.7800 3249.00 3095.24 57.00
3612 39.7900 3286.00 3109.32 57.32
3613 39.8000 3289.00 3121.51 57.35
3614 39.8100 3288.00 3129.53 57.34
3615 39.8200 3311.00 3131.83 57.54
3616 39.8300 3236.00 3128.38 56.89
3617 39.8400 3245.00 3120.77 56.96
3618 39.8500 3207.00 3110.57 56.63
3619 39.8600 3188.00 3098.93 56.46
3620 39.8700 3157.00 3088.12 56.19
3621 39.8800 3185.00 3081.16 56.44
3622 39.8900 3156.00 3081.37 56.18
3623 39.9000 3217.00 3089.30 56.72
3624 39.9100 3210.00 3102.39 56.66
3625 39.9200 3300.00 3116.87 57.45
3626 39.9300 3279.00 3128.26 57.26
3627 39.9400 3284.00 3130.58 57.31
3628 39.9500 3227.00 3117.65 56.81
3629 39.9600 3140.00 3089.05 56.04
3630 39.9700 3047.00 3051.54 55.20
3631 39.9800 3054.00 3014.26 55.26
3632 39.9900 2977.00 2984.11 54.56
3633 40.0000 3031.00 2964.66 55.05
3634 40.0100 3041.00 2956.62 55.15
3635 40.0200 3020.00 2958.38 54.95
3636 40.0300 2988.00 2967.45 54.66
3637 40.0400 3032.00 2982.86 55.06
3638 40.0500 3047.00 3003.56 55.20
3639 40.0600 3083.00 3027.79 55.52
3640 40.0700 3079.00 3053.13 55.49
3641 40.0800 3088.00 3076.64 55.57
3642 40.0900 3095.00 3094.84 55.63
3643 40.1000 3101.00 3104.10 55.69
3644 40.1100 3096.00 3101.92 55.64
3645 40.1200 3129.00 3088.99 55.94
3646 40.1300 3036.00 3068.85 55.10
3647 40.1400 3035.00 3045.48 55.09
3648 40.1500 2996.00 3022.57 54.74
3649 40.1600 2986.00 3003.55 54.64
3650 40.1700 2955.00 2990.10 54.36
3651 40.1800 2975.00 2983.25 54.54
3652 40.1900 2976.00 2982.31 54.55
3653 40.2000 2955.00 2984.85 54.36
3654 40.2100 2955.00 2987.26 54.36
3655 40.2200 2974.00 2985.84 54.53
3656 40.2300 2916.00 2978.83 54.00
3657 40.2400 2943.00 2967.37 54.25
3658 40.2500 2914.00 2954.05 53.98
3659 40.2600 2899.00 2940.72 53.84
3660 40.2700 2903.00 2928.70 53.88
3661 40.2800 2897.00 2919.70 53.82
3662 40.2900 2889.00 2914.54 53.75
3663 40.3000 2901.00 2915.18 53.86
3664 40.3100 2903.00 2921.23 53.88
3665 40.3200 2924.00 2931.09 54.07
3666 40.3300 2936.00 2941.95 54.18
3667 40.3400 2932.00 2950.33 54.15
3668 40.3500 2919.00 2953.31 54.03
3669 40.3600 2909.00 2950.62 53.94
3670 40.3700 2926.00 2944.85 54.09
3671 40.3800 2904.00 2938.40 53.89
3672 40.3900 2881.00 2932.26 53.67
3673 40.4000 2889.00 2926.07 53.75
3674 40.4100 2893.00 2919.03 53.79
3675 40.4200 2891.00 2910.72 53.77
3676 40.4300 2899.00 2901.42 53.84
3677 40.4400 2868.00 2892.03 53.55
3678 40.4500 2822.00 2883.96 53.12
3679 40.4600 2863.00 2878.71 53.51
3680 40.4700 2878.00 2876.43 53.65
3681 40.4800 2899.00 2875.92 53.84
3682 40.4900 2867.00 2875.05 53.54
3683 40.5000 2869.00 2873.16 53.56
3684 40.5100 2837.00 2870.18 53.26
3685 40.5200 2831.00 2868.33 53.21
3686 40.5300 2854.00 2870.76 53.42
3687 40.5400 2924.00 2879.49 54.07
3688 40.5500 2894.00 2894.82 53.80
3689 40.5600 2964.00 2915.61 54.44
3690 40.5700 2980.00 2939.59 54.59
3691 40.5800 3027.00 2964.17 55.02
3692 40.5900 3042.00 2988.79 55.15
3693 40.6000 3061.00 3013.85 55.33
3694 40.6100 3106.00 3039.17 55.73
3695 40.6200 3135.00 3062.50 55.99
3696 40.6300 3134.00 3080.67 55.98
3697 40.6400 3147.00 3091.03 56.10
3698 40.6500 3194.00 3093.03 56.52
3699 40.6600 3166.00 3088.80 56.27
3700 40.6700 3148.00 3081.90 56.11
3701 40.6800 3176.00 3074.68 56.36
3702 40.6900 3174.00 3066.18 56.34
3703 40.7000 3124.00 3053.19 55.89
3704 40.7100 3077.00 3033.33 55.47
3705 40.7200 3060.00 3008.27 55.32
3706 40.7300 3019.00 2982.48 54.95
3707 40.7400 2970.00 2960.18 54.50
3708 40.7500 2923.00 2944.13 54.06
3709 40.7600 2939.00 2934.26 54.21
3710 40.7700 2929.00 2928.95 54.12
3711 40.7800 2941.00 2925.38 54.23
3712 40.7900 2918.00 2920.52 54.02
3713 40.8000 2937.00 2913.26 54.19
3714 40.8100 2891.00 2905.49 53.77
3715 40.8200 2927.00 2900.43 54.10
3716 40.8300 2900.00 2900.80 53.85
3717 40.8400 2934.00 2907.54 54.17
3718 40.8500 2945.00 2919.87 54.27
3719 40.8600 3005.00 2936.89 54.82
3720 40.8700 2963.00 2956.54 54.43
3721 40.8800 3024.00 2975.16 54.99
3722 40.8900 3040.00 2988.51 55.14
3723 40.9000 3075.00 2993.57 55.45
3724 40.9100 3006.00 2990.91 54.83
3725 40.9200 3017.00 2983.51 54.93
3726 40.9300 2992.00 2976.09 54.70
3727 40.9400 2970.00 2971.65 54.50
3728 40.9500 2995.00 2972.45 54.73
3729 40.9600 3022.00 2979.09 54.97
3730 40.9700 3047.00 2991.27 55.20
3731 40.9800 3090.00 3008.02 55.59
3732 40.9900 3095.00 3027.46 55.63
3733 41.0000 3117.00 3046.44 55.83
3734 41.0100 3142.00 3061.38 56.05
3735 41.0200 3161.00 3069.30 56.22
3736 41.0300 3141.00 3068.71 56.04
3737 41.0400 3123.00 3059.83 55.88
3738 41.0500 3094.00 3044.57 55.62
3739 41.0600 3064.00 3025.13 55.35
3740 41.0700 3008.00 3003.04 54.85
3741 41.0800 3003.00 2979.91 54.80
3742 41.0900 2976.00 2957.86 54.55
3743 41.1000 2960.00 2939.67 54.41
3744 41.1100 2928.00 2927.67 54.11
3745 41.1200 2965.00 2923.03 54.45
3746 41.1300 2956.00 2925.87 54.37
3747 41.1400 2975.00 2935.35 54.54
3748 41.1500 2972.00 2949.17 54.52
3749 41.1600 3007.00 2963.89 54.84
3750 41.1700 2999.00 2976.18 54.76
3751 41.1800 2994.00 2984.91 54.72
3752 41.1900 2975.00 2991.36 54.54
3753 41.2000 3022.00 2997.06 54.97
3754 41.2100 3008.00 3002.14 54.85
3755 41.2200 3020.00 3006.56 54.95
3756 41.2300 2983.00 3011.87 54.62
3757 41.2400 3020.00 3019.80 54.95
3758 41.2500 3065.00 3030.47 55.36
3759 41.2600 3094.00 3042.76 55.62
3760 41.2700 3084.00 3055.81 55.53
3761 41.2800 3137.00 3068.61 56.01
3762 41.2900 3143.00 3078.29 56.06
3763 41.3000 3148.00 3080.55 56.11
3764 41.3100 3148.00 3073.27 56.11
3765 41.3200 3066.00 3057.83 55.37
3766 41.3300 3055.00 3037.55 55.27
3767 41.3400 3018.00 3015.63 54.94
3768 41.3500 2989.00 2994.75 54.67
3769 41.3600 2967.00 2976.45 54.47
3770 41.3700 2962.00 2961.46 54.42
3771 41.3800 2962.00 2950.18 54.42
3772 41.3900 2982.00 2943.15 54.61
3773 41.4000 2944.00 2941.30 54.26
3774 41.4100 2934.00 2945.50 54.17
3775 41.4200 2994.00 2955.88 54.72
3776 41.4300 3009.00 2971.78 54.85
3777 41.4400 3041.00 2991.01 55.15
3778 41.4500 3065.00 3010.41 55.36
3779 41.4600 3117.00 3026.65 55.83
3780 41.4700 3102.00 3037.32 55.70
3781 41.4800 3109.00 3041.73 55.76
3782 41.4900 3089.00 3040.65 55.58
3783 41.5000 3060.00 3035.87 55.32
3784 41.5100 3088.00 3029.52 55.57
3785 41.5200 3088.00 3023.94 55.57
3786 41.5300 3039.00 3021.04 55.13
3787 41.5400 3101.00 3021.36 55.69
3788 41.5500 3104.00 3024.24 55.71
3789 41.5600 3184.00 3028.56 56.43
3790 41.5700 3155.00 3033.41 56.17
3791 41.5800 3203.00 3038.92 56.60
3792 41.5900 3184.00 3046.14 56.43
3793 41.6000 3236.00 3055.64 56.89
3794 41.6100 3214.00 3065.84 56.69
3795 41.6200 3264.00 3073.12 57.13
3796 41.6300 3217.00 3073.49 56.72
3797 41.6400 3181.00 3066.03 56.40
3798 41.6500 3076.00 3053.05 55.46
3799 41.6600 3105.00 3037.09 55.72
3800 41.6700 3074.00 3019.41 55.44
3801 41.6800 3062.00 3000.49 55.34
3802 41.6900 2995.00 2980.88 54.73
3803 41.7000 3007.00 2961.62 54.84
3804 41.7100 2981.00 2944.37 54.60
3805 41.7200 3005.00 2929.82 54.82
3806 41.7300 2957.00 2917.13 54.38
3807 41.7400 2996.00 2904.22 54.74
3808 41.7500 2964.00 2889.55 54.44
3809 41.7600 2911.00 2873.44 53.95
3810 41.7700 2852.00 2857.54 53.40
3811 41.7800 2842.00 2843.29 53.31
3812 41.7900 2825.00 2831.08 53.15
3813 41.8000 2827.00 2821.10 53.17
3814 41.8100 2827.00 2813.19 53.17
3815 41.8200 2807.00 2807.31 52.98
3816 41.8300 2778.00 2803.71 52.71
3817 41.8400 2803.00 2802.64 52.94
3818 41.8500 2774.00 2804.41 52.67
3819 41.8600 2802.00 2809.18 52.93
3820 41.8700 2748.00 2816.51 52.42
3821 41.8800 2799.00 2825.30 52.91
3822 41.8900 2774.00 2833.80 52.67
3823 41.9000 2819.00 2839.84 53.09
3824 41.9100 2778.00 2841.22 52.71
3825 41.9200 2775.00 2837.25 52.68
3826 41.9300 2767.00 2828.80 52.60
3827 41.9400 2752.00 2818.65 52.46
3828 41.9500 2718.00 2809.40 52.13
3829 41.9600 2755.00 2803.01 52.49
3830 41.9700 2698.00 2800.14 51.94
3831 41.9800 2736.00 2800.43 52.31
3832 41.9900 2740.00 2802.91 52.35
3833 42.0000 2733.00 2806.39 52.28
3834 42.0100 2752.00 2810.04 52.46
3835 42.0200 2782.00 2813.76 52.74
3836 42.0300 2774.00 2818.36 52.67
3837 42.0400 2822.00 2824.46 53.12
3838 42.0500 2822.00 2831.85 53.12
3839 42.0600 2804.00 2839.27 52.95
3840 42.0700 2801.00 2844.97 52.92
3841 42.0800 2768.00 2847.11 52.61
3842 42.0900 2775.00 2844.68 52.68
3843 42.1000 2749.00 2838.14 52.43
3844 42.1100 2721.00 2828.75 52.16
3845 42.1200 2713.00 2817.86 52.09
3846 42.1300 2687.00 2806.64 51.84
3847 42.1400 2730.00 2795.87 52.25
3848 42.1500 2721.00 2786.61 52.16
3849 42.1600 2731.00 2779.57 52.26
3850 42.1700 2700.00 2774.72 51.96
3851 42.1800 2721.00 2771.65 52.16
3852 42.1900 2685.00 2770.07 51.82
3853 42.2000 2704.00 2768.85 52.00
3854 42.2100 2735.00 2768.11 52.30
3855 42.2200 2726.00 2767.05 52.21
3856 42.2300 2720.00 2764.38 52.15
3857 42.2400 2715.00 2759.21 52.11
3858 42.2500 2679.00 2751.97 51.76
3859 42.2600 2663.00 2744.26 51.60
3860 42.2700 2673.00 2738.04 51.70
3861 42.2800 2697.00 2734.75 51.93
3862 42.2900 2700.00 2734.89 51.96
3863 42.3000 2692.00 2738.65 51.88
3864 42.3100 2652.00 2744.46 51.50
3865 42.3200 2719.00 2751.41 52.14
3866 42.3300 2700.00 2758.45 51.96
3867 42.3400 2764.00 2765.56 52.57
3868 42.3500 2760.00 2773.44 52.54
3869 42.3600 2775.00 2782.65 52.68
3870 42.3700 2768.00 2793.78 52.61
3871 42.3800 2768.00 2806.72 52.61
3872 42.3900 2780.00 2821.15 52.73
3873 42.4000 2861.00 2836.72 53.49
3874 42.4100 2819.00 2852.86 53.09
3875 42.4200 2845.00 2868.40 53.34
3876 42.4300 2847.00 2880.68 53.36
3877 42.4400 2858.00 2886.89 53.46
3878 42.4500 2833.00 2885.73 53.23
3879 42.4600 2831.00 2877.46 53.21
3880 42.4700 2782.00 2863.72 52.74
3881 42.4800 2758.00 2847.04 52.52
3882 42.4900 2735.00 2829.84 52.30
3883 42.5000 2743.00 2813.70 52.37
3884 42.5100 2744.00 2799.18 52.38
3885 42.5200 2724.00 2785.72 52.19
3886 42.5300 2730.00 2773.10 52.25
3887 42.5400 2700.00 2761.66 51.96
3888 42.5500 2702.00 2751.69 51.98
3889 42.5600 2680.00 2743.44 51.77
3890 42.5700 2667.00 2737.52 51.64
3891 42.5800 2715.00 2734.56 52.11
3892 42.5900 2693.00 2734.18 51.89
3893 42.6000 2686.00 2735.68 51.83
3894 42.6100 2688.00 2738.69 51.85
3895 42.6200 2692.00 2743.69 51.88
3896 42.6300 2655.00 2750.71 51.53
3897 42.6400 2733.00 2758.57 52.28
3898 42.6500 2718.00 2765.08 52.13
3899 42.6600 2706.00 2768.08 52.02
3900 42.6700 2673.00 2765.89 51.70
3901 42.6800 2687.00 2758.72 51.84
3902 42.6900 2701.00 2747.79 51.97
3903 42.7000 2671.00 2736.11 51.68
3904 42.7100 2647.00 2726.16 51.45
3905 42.7200 2662.00 2719.43 51.59
3906 42.7300 2654.00 2716.42 51.52
3907 42.7400 2633.00 2716.43 51.31
3908 42.7500 2649.00 2718.21 51.47
3909 42.7600 2646.00 2720.97 51.44
3910 42.7700 2650.00 2724.71 51.48
3911 42.7800 2669.00 2730.18 51.66
3912 42.7900 2664.00 2737.64 51.61
3913 42.8000 2714.00 2746.47 52.10
3914 42.8100 2699.00 2755.28 51.95
3915 42.8200 2728.00 2762.33 52.23
3916 42.8300 2702.00 2766.38 51.98
3917 42.8400 2677.00 2766.75 51.74
3918 42.8500 2655.00 2764.43 51.53
3919 42.8600 2670.00 2760.09 51.67
3920 42.8700 2612.00 2754.17 51.11
3921 42.8800 2670.00 2746.96 51.67
3922 42.8900 2618.00 2739.37 51.17
3923 42.9000 2659.00 2732.93 51.57
3924 42.9100 2653.00 2729.45 51.51
3925 42.9200 2722.00 2730.34 52.17
3926 42.9300 2689.00 2736.34 51.86
3927 42.9400 2751.00 2746.45 52.45
3928 42.9500 2775.00 2759.49 52.68
3929 42.9600 2797.00 2773.53 52.89
3930 42.9700 2765.00 2786.78 52.58
3931 42.9800 2797.00 2798.31 52.89
3932 42.9900 2787.00 2808.37 52.79
3933 43.0000 2828.00 2817.92 53.18
3934 43.0100 2790.00 2828.23 52.82
3935 43.0200 2830.00 2840.19 53.20
3936 43.0300 2823.00 2853.94 53.13
3937 43.0400 2852.00 2868.67 53.40
3938 43.0500 2870.00 2883.07 53.57
3939 43.0600 2918.00 2895.94 54.02
3940 43.0700 2925.00 2906.63 54.08
3941 43.0800 2911.00 2914.65 53.95
3942 43.0900 2859.00 2919.22 53.47
3943 43.1000 2899.00 2918.89 53.84
3944 43.1100 2840.00 2912.29 53.29
3945 43.1200 2836.00 2899.71 53.25
3946 43.1300 2861.00 2883.26 53.49
3947 43.1400 2845.00 2866.41 53.34
3948 43.1500 2787.00 2851.23 52.79
3949 43.1600 2794.00 2838.75 52.86
3950 43.1700 2809.00 2827.73 53.00
3951 43.1800 2820.00 2816.36 53.10
3952 43.1900 2766.00 2803.66 52.59
3953 43.2000 2754.00 2790.37 52.48
3954 43.2100 2724.00 2778.62 52.19
3955 43.2200 2733.00 2770.53 52.28
3956 43.2300 2708.00 2766.69 52.04
3957 43.2400 2745.00 2766.76 52.39
3958 43.2500 2724.00 2769.35 52.19
3959 43.2600 2733.00 2773.15 52.28
3960 43.2700 2697.00 2777.52 51.93
3961 43.2800 2770.00 2782.53 52.63
3962 43.2900 2757.00 2788.12 52.51
3963 43.3000 2782.00 2794.37 52.74
3964 43.3100 2774.00 2801.83 52.67
3965 43.3200 2774.00 2811.09 52.67
3966 43.3300 2749.00 2821.95 52.43
3967 43.3400 2806.00 2833.10 52.97
3968 43.3500 2818.00 2842.44 53.08
3969 43.3600 2844.00 2847.96 53.33
3970 43.3700 2878.00 2848.68 53.65
3971 43.3800 2823.00 2844.84 53.13
3972 43.3900 2771.00 2838.33 52.64
3973 43.4000 2824.00 2831.65 53.14
3974 43.4100 2809.00 2826.74 53.00
3975 43.4200 2842.00 2824.74 53.31
3976 43.4300 2823.00 2825.92 53.13
3977 43.4400 2813.00 2829.90 53.04
3978 43.4500 2825.00 2835.52 53.15
3979 43.4600 2861.00 2841.56 53.49
3980 43.4700 2846.00 2847.37 53.35
3981 43.4800 2917.00 2852.28 54.01
3982 43.4900 2965.00 2855.09 54.45
3983 43.5000 2959.00 2854.50 54.40
3984 43.5100 2924.00 2849.84 54.07
3985 43.5200 2915.00 2841.55 53.99
3986 43.5300 2860.00 2830.96 53.48
3987 43.5400 2878.00 2819.45 53.65
3988 43.5500 2837.00 2808.17 53.26
3989 43.5600 2811.00 2797.88 53.02
3990 43.5700 2747.00 2789.68 52.41
3991 43.5800 2770.00 2784.45 52.63
3992 43.5900 2763.00 2782.45 52.56
3993 43.6000 2770.00 2783.36 52.63
3994 43.6100 2793.00 2786.24 52.85
3995 43.6200 2806.00 2789.71 52.97
3996 43.6300 2755.00 2791.85 52.49
3997 43.6400 2808.00 2790.99 52.99
3998 43.6500 2760.00 2786.86 52.54
3999 43.6600 2759.00 2780.90 52.53
4000 43.6700 2744.00 2775.62 52.38
4001 43.6800 2720.00 2773.36 52.15
4002 43.6900 2693.00 2775.85 51.89
4003 43.7000 2746.00 2782.19 52.40
4004 43.7100 2765.00 2791.71 52.58
4005 43.7200 2802.00 2802.78 52.93
4006 43.7300 2806.00 2813.66 52.97
4007 43.7400 2835.00 2822.74 53.24
4008 43.7500 2797.00 2828.76 52.89
4009 43.7600 2844.00 2831.43 53.33
4010 43.7700 2832.00 2831.52 53.22
4011 43.7800 2820.00 2830.27 53.10
4012 43.7900 2800.00 2828.81 52.92
4013 43.8000 2825.00 2828.69 53.15
4014 43.8100 2799.00 2831.66 52.91
4015 43.8200 2811.00 2838.55 53.02
4016 43.8300 2852.00 2849.29 53.40
4017 43.8400 2890.00 2863.16 53.76
4018 43.8500 2917.00 2878.94 54.01
4019 43.8600 2950.00 2894.63 54.31
4020 43.8700 2916.00 2907.44 54.00
4021 43.8800 2942.00 2914.43 54.24
4022 43.8900 2884.00 2914.05 53.70
4023 43.9000 2912.00 2907.37 53.96
4024 43.9100 2870.00 2895.31 53.57
4025 43.9200 2863.00 2880.67 53.51
4026 43.9300 2803.00 2865.82 52.94
4027 43.9400 2821.00 2852.69 53.11
4028 43.9500 2857.00 2842.73 53.45
4029 43.9600 2861.00 2836.32 53.49
4030 43.9700 2877.00 2832.76 53.64
4031 43.9800 2863.00 2830.20 53.51
4032 43.9900 2814.00 2826.72 53.05
4033 44.0000 2779.00 2821.60 52.72
4034 44.0100 2788.00 2815.90 52.80
4035 44.0200 2806.00 2811.40 52.97
4036 44.0300 2808.00 2809.03 52.99
4037 44.0400 2811.00 2808.58 53.02
4038 44.0500 2787.00 2809.25 52.79
4039 44.0600 2806.00 2809.77 52.97
4040 44.0700 2781.00 2810.29 52.74
4041 44.0800 2830.00 2811.05 53.20
4042 44.0900 2844.00 2812.76 53.33
4043 44.1000 2832.00 2815.38 53.22
4044 44.1100 2836.00 2818.04 53.25
4045 44.1200 2844.00 2819.40 53.33
4046 44.1300 2855.00 2819.13 53.43
4047 44.1400 2818.00 2817.92 53.08
4048 44.1500 2833.00 2816.71 53.23
4049 44.1600 2811.00 2815.86 53.02
4050 44.1700 2785.00 2815.23 52.77
4051 44.1800 2794.00 2813.94 52.86
4052 44.1900 2779.00 2811.24 52.72
4053 44.2000 2782.00 2806.76 52.74
4054 44.2100 2785.00 2800.58 52.77
4055 44.2200 2742.00 2792.71 52.36
4056 44.2300 2716.00 2783.35 52.12
4057 44.2400 2735.00 2773.40 52.30
4058 44.2500 2740.00 2764.45 52.35
4059 44.2600 2749.00 2758.13 52.43
4060 44.2700 2758.00 2755.40 52.52
4061 44.2800 2764.00 2756.48 52.57
4062 44.2900 2752.00 2760.82 52.46
4063 44.3000 2774.00 2767.02 52.67
4064 44.3100 2766.00 2773.18 52.59
4065 44.3200 2819.00 2777.53 53.09
4066 44.3300 2831.00 2778.59 53.21
4067 44.3400 2791.00 2776.39 52.83
4068 44.3500 2772.00 2771.81 52.65
4069 44.3600 2747.00 2766.15 52.41
4070 44.3700 2745.00 2760.70 52.39
4071 44.3800 2736.00 2756.72 52.31
4072 44.3900 2737.00 2755.10 52.32
4073 44.4000 2770.00 2756.26 52.63
4074 44.4100 2767.00 2760.12 52.60
4075 44.4200 2788.00 2766.12 52.80
4076 44.4300 2773.00 2773.82 52.66
4077 44.4400 2772.00 2782.80 52.65
4078 44.4500 2787.00 2791.83 52.79
4079 44.4600 2797.00 2799.57 52.89
4080 44.4700 2789.00 2804.36 52.81
4081 44.4800 2793.00 2804.86 52.85
4082 44.4900 2788.00 2800.90 52.80
4083 44.5000 2792.00 2793.13 52.84
4084 44.5100 2760.00 2782.89 52.54
4085 44.5200 2776.00 2771.60 52.69
4086 44.5300 2716.00 2760.49 52.12
4087 44.5400 2737.00 2750.40 52.32
4088 44.5500 2714.00 2741.79 52.10
4089 44.5600 2742.00 2734.85 52.36
4090 44.5700 2733.00 2729.71 52.28
4091 44.5800 2747.00 2725.88 52.41
4092 44.5900 2680.00 2723.96 51.77
4093 44.6000 2725.00 2723.26 52.20
4094 44.6100 2741.00 2723.33 52.35
4095 44.6200 2798.00 2722.87 52.90
4096 44.6300 2743.00 2720.82 52.37
4097 44.6400 2767.00 2717.20 52.60
4098 44.6500 2695.00 2712.32 51.91
4099 44.6600 2714.00 2706.30 52.10
4100 44.6700 2661.00 2698.89 51.58
4101 44.6800 2640.00 2690.01 51.38
4102 44.6900 2632.00 2680.13 51.30
4103 44.7000 2615.00 2670.10 51.14
4104 44.7100 2573.00 2660.93 50.72
4105 44.7200 2591.00 2653.49 50.90
4106 44.7300 2608.00 2648.17 51.07
4107 44.7400 2616.00 2645.16 51.15
4108 44.7500 2605.00 2644.39 51.04
4109 44.7600 2631.00 2645.81 51.29
4110 44.7700 2622.00 2649.25 51.21
4111 44.7800 2646.00 2654.20 51.44
4112 44.7900 2640.00 2659.74 51.38
4113 44.8000 2684.00 2665.00 51.81
4114 44.8100 2666.00 2669.25 51.63
4115 44.8200 2638.00 2672.34 51.36
4116 44.8300 2662.00 2674.68 51.59
4117 44.8400 2627.00 2676.86 51.25
4118 44.8500 2637.00 2679.34 51.35
4119 44.8600 2677.00 2682.27 51.74
4120 44.8700 2637.00 2685.35 51.35
4121 44.8800 2678.00 2688.12 51.75
4122 44.8900 2610.00 2690.37 51.09
4123 44.9000 2604.00 2692.49 51.03
4124 44.9100 2610.00 2695.15 51.09
4125 44.9200 2659.00 2698.75 51.57
4126 44.9300 2620.00 2702.98 51.19
4127 44.9400 2664.00 2706.92 51.61
4128 44.9500 2622.00 2709.21 51.21
4129 44.9600 2649.00 2708.51 51.47
4130 44.9700 2649.00 2704.84 51.47
4131 44.9800 2671.00 2699.06 51.68
4132 44.9900 2609.00 2692.95 51.08
4133 45.0000 2606.00 2687.96 51.05
4134 45.0100 2606.00 2684.97 51.05
4135 45.0200 2640.00 2684.02 51.38
4136 45.0300 2652.00 2684.39 51.50
4137 45.0400 2672.00 2685.15 51.69
4138 45.0500 2665.00 2685.41 51.62
4139 45.0600 2660.00 2684.47 51.58
4140 45.0700 2623.00 2682.15 51.22
4141 45.0800 2609.00 2678.83 51.08
4142 45.0900 2639.00 2675.32 51.37
4143 45.1000 2660.00 2672.52 51.58
4144 45.1100 2634.00 2670.95 51.32
4145 45.1200 2627.00 2670.48 51.25
4146 45.1300 2616.00 2670.72 51.15
4147 45.1400 2601.00 2671.31 51.00
4148 45.1500 2615.00 2672.61 51.14
4149 45.1600 2644.00 2675.40 51.42
4150 45.1700 2649.00 2680.30 51.47
4151 45.1800 2683.00 2687.69 51.80
4152 45.1900 2663.00 2697.49 51.60
4153 45.2000 2690.00 2709.68 51.87
4154 45.2100 2725.00 2723.95 52.20
4155 45.2200 2786.00 2739.84 52.78
4156 45.2300 2809.00 2756.83 53.00
4157 45.2400 2831.00 2774.38 53.21
4158 45.2500 2871.00 2791.95 53.58
4159 45.2600 2854.00 2809.19 53.42
4160 45.2700 2882.00 2826.02 53.68
4161 45.2800 2933.00 2842.15 54.16
4162 45.2900 2922.00 2857.08 54.06
4163 45.3000 2976.00 2869.55 54.55
4164 45.3100 2931.00 2878.10 54.14
4165 45.3200 2924.00 2881.76 54.07
4166 45.3300 2929.00 2880.72 54.12
4167 45.3400 2925.00 2875.99 54.08
4168 45.3500 2880.00 2868.26 53.67
4169 45.3600 2880.00 2858.00 53.67
4170 45.3700 2864.00 2845.66 53.52
4171 45.3800 2852.00 2832.10 53.40
4172 45.3900 2823.00 2818.00 53.13
4173 45.4000 2845.00 2803.51 53.34
4174 45.4100 2811.00 2788.61 53.02
4175 45.4200 2812.00 2774.08 53.03
4176 45.4300 2794.00 2761.00 52.86
4177 45.4400 2766.00 2749.63 52.59
4178 45.4500 2747.00 2739.72 52.41
4179 45.4600 2720.00 2730.38 52.15
4180 45.4700 2713.00 2720.77 52.09
4181 45.4800 2699.00 2710.79 51.95
4182 45.4900 2665.00 2700.20 51.62
4183 45.5000 2666.00 2689.71 51.63
4184 45.5100 2662.00 2679.82 51.59
4185 45.5200 2677.00 2671.27 51.74
4186 45.5300 2676.00 2665.06 51.73
4187 45.5400 2661.00 2662.03 51.58
4188 45.5500 2639.00 2662.84 51.37
4189 45.5600 2666.00 2667.64 51.63
4190 45.5700 2655.00 2675.86 51.53
4191 45.5800 2720.00 2686.08 52.15
4192 45.5900 2731.00 2696.22 52.26
4193 45.6000 2735.00 2704.09 52.30
4194 45.6100 2725.00 2708.14 52.20
4195 45.6200 2708.00 2708.14 52.04
4196 45.6300 2676.00 2705.62 51.73
4197 45.6400 2675.00 2703.13 51.72
4198 45.6500 2680.00 2702.60 51.77
4199 45.6600 2748.00 2704.96 52.42
4200 45.6700 2717.00 2709.75 52.12
4201 45.6800 2736.00 2715.57 52.31
4202 45.6900 2774.00 2720.76 52.67
4203 45.7000 2755.00 2724.05 52.49
4204 45.7100 2727.00 2725.14 52.22
4205 45.7200 2720.00 2724.42 52.15
4206 45.7300 2709.00 2722.69 52.05
4207 45.7400 2689.00 2720.79 51.86
4208 45.7500 2671.00 2719.14 51.68
4209 45.7600 2711.00 2718.03 52.07
4210 45.7700 2713.00 2717.64 52.09
4211 45.7800 2716.00 2717.37 52.12
4212 45.7900 2741.00 2716.75 52.35
4213 45.8000 2729.00 2715.33 52.24
4214 45.8100 2731.00 2712.86 52.26
4215 45.8200 2728.00 2709.24 52.23
4216 45.8300 2705.00 2704.24 52.01
4217 45.8400 2722.00 2697.97 52.17
4218 45.8500 2650.00 2691.36 51.48
4219 45.8600 2659.00 2685.44 51.57
4220 45.8700 2654.00 2681.58 51.52
4221 45.8800 2700.00 2680.37 51.96
4222 45.8900 2696.00 2681.68 51.92
4223 45.9000 2697.00 2684.65 51.93
4224 45.9100 2697.00 2687.78 51.93
4225 45.9200 2699.00 2689.43 51.95
4226 45.9300 2673.00 2688.71 51.70
4227 45.9400 2710.00 2685.12 52.06
4228 45.9500 2671.00 2679.18 51.68
4229 45.9600 2652.00 2671.67 51.50
4230 45.9700 2619.00 2663.41 51.18
4231 45.9800 2633.00 2655.12 51.31
4232 45.9900 2660.00 2647.28 51.58
4233 46.0000 2671.00 2639.98 51.68
4234 46.0100 2660.00 2633.32 51.58
4235 46.0200 2622.00 2627.79 51.21
4236 46.0300 2643.00 2623.86 51.41
4237 46.0400 2612.00 2622.06 51.11
4238 46.0500 2603.00 2622.54 51.02
4239 46.0600 2661.00 2625.00 51.58
4240 46.0700 2659.00 2628.89 51.57
4241 46.0800 2641.00 2633.65 51.39
4242 46.0900 2644.00 2638.74 51.42
4243 46.1000 2667.00 2643.69 51.64
4244 46.1100 2653.00 2647.68 51.51
4245 46.1200 2710.00 2649.68 52.06
4246 46.1300 2660.00 2649.01 51.58
4247 46.1400 2671.00 2645.71 51.68
4248 46.1500 2638.00 2640.41 51.36
4249 46.1600 2671.00 2633.67 51.68
4250 46.1700 2615.00 2626.22 51.14
4251 46.1800 2633.00 2618.82 51.31
4252 46.1900 2633.00 2612.32 51.31
4253 46.2000 2629.00 2607.34 51.27
4254 46.2100 2608.00 2604.34 51.07
4255 46.2200 2611.00 2603.46 51.10
4256 46.2300 2626.00 2604.73 51.24
4257 46.2400 2634.00 2607.77 51.32
4258 46.2500 2630.00 2612.05 51.28
4259 46.2600 2644.00 2616.81 51.42
4260 46.2700 2626.00 2621.57 51.24
4261 46.2800 2625.00 2626.33 51.23
4262 46.2900 2644.00 2631.43 51.42
4263 46.3000 2667.00 2636.75 51.64
4264 46.3100 2680.00 2642.23 51.77
4265 46.3200 2679.00 2647.58 51.76
4266 46.3300 2662.00 2652.37 51.59
4267 46.3400 2660.00 2656.03 51.58
4268 46.3500 2692.00 2658.54 51.88
4269 46.3600 2701.00 2659.71 51.97
4270 46.3700 2647.00 2660.02 51.45
4271 46.3800 2659.00 2659.60 51.57
4272 46.3900 2662.00 2658.29 51.59
4273 46.4000 2656.00 2655.78 51.54
4274 46.4100 2626.00 2651.77 51.24
4275 46.4200 2633.00 2645.97 51.31
4276 46.4300 2610.00 2638.71 51.09
4277 46.4400 2609.00 2630.92 51.08
4278 46.4500 2590.00 2623.86 50.89
4279 46.4600 2605.00 2618.46 51.04
4280 46.4700 2611.00 2615.29 51.10
4281 46.4800 2613.00 2614.15 51.12
4282 46.4900 2635.00 2614.71 51.33
4283 46.5000 2633.00 2616.06 51.31
4284 46.5100 2601.00 2617.10 51.00
4285 46.5200 2645.00 2617.47 51.43
4286 46.5300 2606.00 2617.39 51.05
4287 46.5400 2653.00 2617.36 51.51
4288 46.5500 2624.00 2617.73 51.22
4289 46.5600 2646.00 2618.64 51.44
4290 46.5700 2617.00 2619.88 51.16
4291 46.5800 2627.00 2621.01 51.25
4292 46.5900 2611.00 2621.34 51.10
4293 46.6000 2638.00 2620.31 51.36
4294 46.6100 2601.00 2617.48 51.00
4295 46.6200 2595.00 2613.37 50.94
4296 46.6300 2577.00 2608.99 50.76
4297 46.6400 2615.00 2605.74 51.14
4298 46.6500 2614.00 2604.70 51.13
4299 46.6600 2656.00 2606.42 51.54
4300 46.6700 2668.00 2610.54 51.65
4301 46.6800 2653.00 2615.94 51.51
4302 46.6900 2629.00 2620.89 51.27
4303 46.7000 2654.00 2623.73 51.52
4304 46.7100 2643.00 2623.21 51.41
4305 46.7200 2620.00 2619.32 51.19
4306 46.7300 2599.00 2612.37 50.98
4307 46.7400 2591.00 2603.86 50.90
4308 46.7500 2583.00 2594.96 50.82
4309 46.7600 2552.00 2586.99 50.52
4310 46.7700 2561.00 2580.64 50.61
4311 46.7800 2583.00 2576.13 50.82
4312 46.7900 2579.00 2573.39 50.78
4313 46.8000 2581.00 2572.17 50.80
4314 46.8100 2534.00 2572.29 50.34
4315 46.8200 2568.00 2573.64 50.68
4316 46.8300 2565.00 2576.20 50.65
4317 46.8400 2611.00 2579.86 51.10
4318 46.8500 2574.00 2584.31 50.73
4319 46.8600 2573.00 2589.10 50.72
4320 46.8700 2520.00 2593.77 50.20
4321 46.8800 2573.00 2598.00 50.72
4322 46.8900 2597.00 2601.71 50.96
4323 46.9000 2596.00 2604.82 50.95
4324 46.9100 2635.00 2607.34 51.33
4325 46.9200 2621.00 2609.52 51.20
4326 46.9300 2606.00 2611.84 51.05
4327 46.9400 2668.00 2614.72 51.65
4328 46.9500 2643.00 2618.22 51.41
4329 46.9600 2667.00 2622.10 51.64
4330 46.9700 2680.00 2626.07 51.77
4331 46.9800 2666.00 2629.81 51.63
4332 46.9900 2669.00 2632.96 51.66
4333 47.0000 2682.00 2635.69 51.79
4334 47.0100 2658.00 2638.75 51.56
4335 47.0200 2662.00 2642.95 51.59
4336 47.0300 2663.00 2648.50 51.60
4337 47.0400 2709.00 2655.32 52.05
4338 47.0500 2676.00 2662.69 51.73
4339 47.0600 2705.00 2669.64 52.01
4340 47.0700 2688.00 2674.75 51.85
4341 47.0800 2743.00 2676.54 52.37
4342 47.0900 2702.00 2674.01 51.98
4343 47.1000 2647.00 2667.14 51.45
4344 47.1100 2599.00 2657.13 50.98
4345 47.1200 2606.00 2645.61 51.05
4346 47.1300 2611.00 2634.06 51.10
4347 47.1400 2618.00 2623.58 51.17
4348 47.1500 2605.00 2614.67 51.04
4349 47.1600 2583.00 2607.25 50.82
4350 47.1700 2581.00 2600.72 50.80
4351 47.1800 2579.00 2594.57 50.78
4352 47.1900 2568.00 2588.54 50.68
4353 47.2000 2589.00 2582.81 50.88
4354 47.2100 2591.00 2577.75 50.90
4355 47.2200 2611.00 2573.88 51.10
4356 47.2300 2577.00 2571.05 50.76
4357 47.2400 2617.00 2569.10 51.16
4358 47.2500 2604.00 2567.41 51.03
4359 47.2600 2604.00 2565.41 51.03
4360 47.2700 2591.00 2563.07 50.90
4361 47.2800 2584.00 2561.09 50.83
4362 47.2900 2563.00 2560.48 50.63
4363 47.3000 2582.00 2561.82 50.81
4364 47.3100 2560.00 2564.98 50.60
4365 47.3200 2592.00 2569.05 50.91
4366 47.3300 2584.00 2572.54 50.83
4367 47.3400 2599.00 2573.96 50.98
4368 47.3500 2557.00 2572.63 50.57
4369 47.3600 2568.00 2568.93 50.68
4370 47.3700 2561.00 2563.91 50.61
4371 47.3800 2527.00 2558.76 50.27
4372 47.3900 2551.00 2554.53 50.51
4373 47.4000 2577.00 2552.01 50.76
4374 47.4100 2537.00 2551.67 50.37
4375 47.4200 2546.00 2553.50 50.46
4376 47.4300 2555.00 2557.19 50.55
4377 47.4400 2606.00 2562.13 51.05
4378 47.4500 2601.00 2567.64 51.00
4379 47.4600 2585.00 2573.18 50.84
4380 47.4700 2589.00 2578.38 50.88
4381 47.4800 2599.00 2582.53 50.98
4382 47.4900 2568.00 2585.24 50.68
4383 47.5000 2596.00 2586.08 50.95
4384 47.5100 2573.00 2584.79 50.72
4385 47.5200 2597.00 2581.64 50.96
4386 47.5300 2552.00 2577.44 50.52
4387 47.5400 2576.00 2573.00 50.75
4388 47.5500 2552.00 2569.57 50.52
4389 47.5600 2575.00 2567.33 50.74
4390 47.5700 2591.00 2566.30 50.90
4391 47.5800 2566.00 2566.15 50.66
4392 47.5900 2553.00 2566.65 50.53
4393 47.6000 2568.00 2567.54 50.68
4394 47.6100 2566.00 2568.01 50.66
4395 47.6200 2583.00 2567.42 50.82
4396 47.6300 2573.00 2565.18 50.72
4397 47.6400 2563.00 2561.11 50.63
4398 47.6500 2538.00 2555.62 50.38
4399 47.6600 2538.00 2549.54 50.38
4400 47.6700 2545.00 2543.97 50.45
4401 47.6800 2595.00 2539.76 50.94
4402 47.6900 2546.00 2537.35 50.46
4403 47.7000 2571.00 2536.35 50.71
4404 47.7100 2552.00 2536.07 50.52
4405 47.7200 2537.00 2535.71 50.37
4406 47.7300 2523.00 2534.73 50.23
4407 47.7400 2526.00 2533.18 50.26
4408 47.7500 2540.00 2531.44 50.40
4409 47.7600 2541.00 2529.60 50.41
4410 47.7700 2520.00 2527.58 50.20
4411 47.7800 2535.00 2525.35 50.35
4412 47.7900 2513.00 2523.26 50.13
4413 47.8000 2584.00 2521.97 50.83
4414 47.8100 2567.00 2522.14 50.67
4415 47.8200 2540.00 2524.00 50.40
4416 47.8300 2525.00 2527.57 50.25
4417 47.8400 2559.00 2532.39 50.59
4418 47.8500 2568.00 2538.07 50.68
4419 47.8600 2595.00 2543.95 50.94
4420 47.8700 2600.00 2549.27 50.99
4421 47.8800 2588.00 2553.49 50.87
4422 47.8900 2584.00 2556.52 50.83
4423 47.9000 2611.00 2558.60 51.10
4424 47.9100 2606.00 2560.09 51.05
4425 47.9200 2643.00 2561.13 51.41
4426 47.9300 2671.00 2561.67 51.68
4427 47.9400 2631.00 2561.57 51.29
4428 47.9500 2629.00 2560.99 51.27
4429 47.9600 2641.00 2560.10 51.39
4430 47.9700 2604.00 2559.37 51.03
4431 47.9800 2640.00 2559.07 51.38
4432 47.9900 2648.00 2559.19 51.46
4433 48.0000 2615.00 2559.23 51.14
4434 48.0100 2577.00 2558.43 50.76
4435 48.0200 2589.00 2556.25 50.88
4436 48.0300 2594.00 2552.07 50.93
4437 48.0400 2577.00 2545.81 50.76
4438 48.0500 2559.00 2537.79 50.59
4439 48.0600 2548.00 2528.48 50.48
4440 48.0700 2501.00 2518.57 50.01
4441 48.0800 2494.00 2508.81 49.94
4442 48.0900 2498.00 2499.83 49.98
4443 48.1000 2471.00 2492.08 49.71
4444 48.1100 2459.00 2485.86 49.59
4445 48.1200 2480.00 2481.38 49.80
4446 48.1300 2470.00 2478.94 49.70
4447 48.1400 2472.00 2478.86 49.72
4448 48.1500 2487.00 2481.41 49.87
4449 48.1600 2522.00 2486.66 50.22
4450 48.1700 2507.00 2494.28 50.07
4451 48.1800 2532.00 2503.54 50.32
4452 48.1900 2551.00 2513.11 50.51
4453 48.2000 2542.00 2521.32 50.42
4454 48.2100 2543.00 2526.62 50.43
4455 48.2200 2551.00 2528.35 50.51
4456 48.2300 2520.00 2526.76 50.20
4457 48.2400 2512.00 2522.63 50.12
4458 48.2500 2492.00 2516.96 49.92
4459 48.2600 2501.00 2510.44 50.01
4460 48.2700 2479.00 2503.55 49.79
4461 48.2800 2499.00 2496.64 49.99
4462 48.2900 2486.00 2489.88 49.86
4463 48.3000 2508.00 2483.26 50.08
4464 48.3100 2464.00 2476.82 49.64
4465 48.3200 2466.00 2470.66 49.66
4466 48.3300 2472.00 2464.92 49.72
4467 48.3400 2452.00 2459.80 49.52
4468 48.3500 2492.00 2455.59 49.92
4469 48.3600 2444.00 2452.39 49.44
4470 48.3700 2434.00 2450.26 49.34
4471 48.3800 2477.00 2449.16 49.77
4472 48.3900 2422.00 2449.03 49.21
4473 48.4000 2449.00 2449.99 49.49
4474 48.4100 2456.00 2452.08 49.56
4475 48.4200 2473.00 2455.19 49.73
4476 48.4300 2443.00 2459.02 49.43
4477 48.4400 2486.00 2463.03 49.86
4478 48.4500 2491.00 2466.66 49.91
4479 48.4600 2518.00 2469.42 50.18
4480 48.4700 2470.00 2471.00 49.70
4481 48.4800 2479.00 2471.25 49.79
4482 48.4900 2478.00 2470.27 49.78
4483 48.5000 2490.00 2468.43 49.90
4484 48.5100 2469.00 2466.19 49.69
4485 48.5200 2488.00 2463.80 49.88
4486 48.5300 2479.00 2461.29 49.79
4487 48.5400 2454.00 2458.53 49.54
4488 48.5500 2463.00 2455.72 49.63
4489 48.5600 2433.00 2453.29 49.33
4490 48.5700 2417.00 2451.80 49.16
4491 48.5800 2454.00 2451.62 49.54
4492 48.5900 2441.00 2452.85 49.41
4493 48.6000 2441.00 2455.24 49.41
4494 48.6100 2410.00 2458.43 49.09
4495 48.6200 2458.00 2462.00 49.58
4496 48.6300 2435.00 2465.71 49.35
4497 48.6400 2468.00 2469.60 49.68
4498 48.6500 2467.00 2473.77 49.67
4499 48.6600 2466.00 2478.32 49.66
4500 48.6700 2467.00 2483.05 49.67
4501 48.6800 2446.00 2487.57 49.46
4502 48.6900 2446.00 2491.33 49.46
4503 48.7000 2476.00 2493.89 49.76
4504 48.7100 2454.00 2495.00 49.54
4505 48.7200 2469.00 2494.78 49.69
4506 48.7300 2449.00 2493.40 49.49
4507 48.7400 2436.00 2491.43 49.36
4508 48.7500 2444.00 2489.40 49.44
4509 48.7600 2459.00 2487.73 49.59
4510 48.7700 2493.00 2486.66 49.93
4511 48.7800 2501.00 2486.23 50.01
4512 48.7900 2476.00 2486.34 49.76
4513 48.8000 2507.00 2486.90 50.07
4514 48.8100 2494.00 2487.76 49.94
4515 48.8200 2512.00 2488.76 50.12
4516 48.8300 2492.00 2489.85 49.92
4517 48.8400 2524.00 2491.07 50.24
4518 48.8500 2511.00 2492.63 50.11
4519 48.8600 2502.00 2494.65 50.02
4520 48.8700 2501.00 2497.38 50.01
4521 48.8800 2567.00 2500.78 50.67
4522 48.8900 2562.00 2504.96 50.62
4523 48.9000 2576.00 2509.80 50.75
4524 48.9100 2594.00 2515.13 50.93
4525 48.9200 2601.00 2520.80 51.00
4526 48.9300 2613.00 2526.73 51.12
4527 48.9400 2614.00 2532.72 51.13
4528 48.9500 2656.00 2538.23 51.54
4529 48.9600 2626.00 2542.57 51.24
4530 48.9700 2599.00 2545.36 50.98
4531 48.9800 2610.00 2546.64 51.09
4532 48.9900 2596.00 2546.92 50.95
4533 49.0000 2614.00 2546.77 51.13
4534 49.0100 2598.00 2546.44 50.97
4535 49.0200 2626.00 2545.78 51.24
4536 49.0300 2549.00 2544.38 50.49
4537 49.0400 2571.00 2541.06 50.71
4538 49.0500 2518.00 2535.22 50.18
4539 49.0600 2522.00 2526.70 50.22
4540 49.0700 2506.00 2515.93 50.06
4541 49.0800 2475.00 2503.85 49.75
4542 49.0900 2469.00 2491.61 49.69
4543 49.1000 2485.00 2480.37 49.85
4544 49.1100 2448.00 2471.20 49.48
4545 49.1200 2456.00 2464.42 49.56
4546 49.1300 2449.00 2460.37 49.49
4547 49.1400 2473.00 2458.88 49.73
4548 49.1500 2477.00 2459.33 49.77
4549 49.1600 2498.00 2460.87 49.98
4550 49.1700 2464.00 2462.63 49.64
4551 49.1800 2473.00 2463.97 49.73
4552 49.1900 2458.00 2464.63 49.58
4553 49.2000 2443.00 2464.51 49.43
4554 49.2100 2425.00 2464.04 49.24
4555 49.2200 2445.00 2463.39 49.45
4556 49.2300 2456.00 2463.06 49.56
4557 49.2400 2483.00 2463.39 49.83
4558 49.2500 2473.00 2464.62 49.73
4559 49.2600 2471.00 2466.54 49.71
4560 49.2700 2470.00 2468.88 49.70
4561 49.2800 2457.00 2471.05 49.57
4562 49.2900 2449.00 2472.40 49.49
4563 49.3000 2489.00 2472.33 49.89
4564 49.3100 2450.00 2470.61 49.50
4565 49.3200 2434.00 2467.15 49.34
4566 49.3300 2426.00 2462.23 49.25
4567 49.3400 2465.00 2456.28 49.65
4568 49.3500 2466.00 2449.88 49.66
4569 49.3600 2421.00 2443.75 49.20
4570 49.3700 2444.00 2438.45 49.44
4571 49.3800 2441.00 2434.29 49.41
4572 49.3900 2418.00 2431.29 49.17
4573 49.4000 2452.00 2429.40 49.52
4574 49.4100 2468.00 2428.56 49.68
4575 49.4200 2437.00 2428.82 49.37
4576 49.4300 2449.00 2430.23 49.49
4577 49.4400 2463.00 2432.77 49.63
4578 49.4500 2454.00 2436.15 49.54
4579 49.4600 2460.00 2439.87 49.60
4580 49.4700 2466.00 2443.44 49.66
4581 49.4800 2501.00 2446.21 50.01
4582 49.4900 2489.00 2448.13 49.89
4583 49.5000 2492.00 2449.49 49.92
4584 49.5100 2476.00 2450.68 49.76
4585 49.5200 2506.00 2451.90 50.06
4586 49.5300 2463.00 2453.06 49.63
4587 49.5400 2504.00 2453.89 50.04
4588 49.5500 2512.00 2454.04 50.12
4589 49.5600 2494.00 2453.16 49.94
4590 49.5700 2445.00 2450.93 49.45
4591 49.5800 2469.00 2447.50 49.69
4592 49.5900 2434.00 2443.51 49.34
4593 49.6000 2446.00 2439.77 49.46
4594 49.6100 2444.00 2437.09 49.44
4595 49.6200 2440.00 2435.93 49.40
4596 49.6300 2419.00 2436.42 49.18
4597 49.6400 2459.00 2438.40 49.59
4598 49.6500 2434.00 2441.68 49.34
4599 49.6600 2448.00 2445.35 49.48
4600 49.6700 2484.00 2448.73 49.84
4601 49.6800 2484.00 2451.03 49.84
4602 49.6900 2439.00 2451.65 49.39
4603 49.7000 2461.00 2450.51 49.61
4604 49.7100 2463.00 2447.94 49.63
4605 49.7200 2463.00 2444.15 49.63
4606 49.7300 2459.00 2439.58 49.59
4607 49.7400 2453.00 2434.49 49.53
4608 49.7500 2423.00 2429.12 49.22
4609 49.7600 2408.00 2423.67 49.07
4610 49.7700 2392.00 2418.33 48.91
4611 49.7800 2414.00 2413.36 49.13
4612 49.7900 2407.00 2409.00 49.06
4613 49.8000 2393.00 2405.34 48.92
4614 49.8100 2375.00 2402.42 48.73
4615 49.8200 2383.00 2400.19 48.82
4616 49.8300 2361.00 2398.59 48.59
4617 49.8400 2399.00 2397.51 48.98
4618 49.8500 2397.00 2396.83 48.96
4619 49.8600 2374.00 2396.39 48.72
4620 49.8700 2362.00 2396.25 48.60
4621 49.8800 2374.00 2396.41 48.72
4622 49.8900 2362.00 2397.09 48.60
4623 49.9000 2385.00 2398.40 48.84
4624 49.9100 2401.00 2400.39 49.00
4625 49.9200 2385.00 2402.92 48.84
4626 49.9300 2353.00 2405.76 48.51
4627 49.9400 2431.00 2408.71 49.31
4628 49.9500 2390.00 2411.19 48.89
4629 49.9600 2396.00 2412.92 48.95
4630 49.9700 2393.00 2413.59 48.92
4631 49.9800 2391.00 2413.07 48.90
4632 49.9900 2346.00 2411.50 48.44
4633 50.0000 2370.00 2409.23 48.68
4634 50.0100 2370.00 2406.72 48.68
4635 50.0200 2399.00 2404.45 48.98
4636 50.0300 2366.00 2402.78 48.64
4637 50.0400 2360.00 2401.99 48.58
4638 50.0500 2358.00 2402.18 48.56
4639 50.0600 2350.00 2403.27 48.48
4640 50.0700 2350.00 2405.13 48.48
4641 50.0800 2404.00 2407.40 49.03
4642 50.0900 2375.00 2409.59 48.73
4643 50.1000 2357.00 2411.08 48.55
4644 50.1100 2362.00 2411.27 48.60
4645 50.1200 2357.00 2409.85 48.55
4646 50.1300 2345.00 2407.03 48.43
4647 50.1400 2380.00 2403.44 48.79
4648 50.1500 2397.00 2399.87 48.96
4649 50.1600 2394.00 2396.95 48.93
4650 50.1700 2358.00 2395.17 48.56
4651 50.1800 2379.00 2394.71 48.78
4652 50.1900 2366.00 2395.55 48.64
4653 50.2000 2385.00 2397.46 48.84
4654 50.2100 2394.00 2399.99 48.93
4655 50.2200 2402.00 2402.55 49.01
4656 50.2300 2370.00 2404.64 48.68
4657 50.2400 2357.00 2406.09 48.55
4658 50.2500 2377.00 2407.26 48.75
4659 50.2600 2406.00 2408.61 49.05
4660 50.2700 2405.00 2410.60 49.04
4661 50.2800 2431.00 2413.39 49.31
4662 50.2900 2422.00 2416.88 49.21
4663 50.3000 2414.00 2420.60 49.13
4664 50.3100 2418.00 2424.01 49.17
4665 50.3200 2418.00 2426.75 49.17
4666 50.3300 2442.00 2428.92 49.42
4667 50.3400 2415.00 2430.80 49.14
4668 50.3500 2401.00 2432.69 49.00
4669 50.3600 2449.00 2434.78 49.49
4670 50.3700 2436.00 2437.05 49.36
4671 50.3800 2467.00 2439.44 49.67
4672 50.3900 2468.00 2441.70 49.68
4673 50.4000 2484.00 2443.81 49.84
4674 50.4100 2447.00 2445.99 49.47
4675 50.4200 2451.00 2448.25 49.51
4676 50.4300 2442.00 2450.92 49.42
4677 50.4400 2465.00 2454.09 49.65
4678 50.4500 2461.00 2457.75 49.61
4679 50.4600 2490.00 2461.71 49.90
4680 50.4700 2479.00 2465.83 49.79
4681 50.4800 2490.00 2469.93 49.90
4682 50.4900 2491.00 2473.68 49.91
4683 50.5000 2506.00 2476.64 50.06
4684 50.5100 2486.00 2478.41 49.86
4685 50.5200 2493.00 2478.64 49.93
4686 50.5300 2471.00 2477.19 49.71
4687 50.5400 2497.00 2473.86 49.97
4688 50.5500 2467.00 2468.65 49.67
4689 50.5600 2479.00 2461.66 49.79
4690 50.5700 2488.00 2453.47 49.88
4691 50.5800 2467.00 2444.59 49.67
4692 50.5900 2432.00 2435.47 49.32
4693 50.6000 2413.00 2426.53 49.12
4694 50.6100 2410.00 2418.30 49.09
4695 50.6200 2413.00 2411.56 49.12
4696 50.6300 2398.00 2406.63 48.97
4697 50.6400 2408.00 2404.16 49.07
4698 50.6500 2380.00 2404.16 48.79
4699 50.6600 2402.00 2406.51 49.01
4700 50.6700 2426.00 2410.70 49.25
4701 50.6800 2444.00 2415.98 49.44
4702 50.6900 2447.00 2421.37 49.47
4703 50.7000 2438.00 2425.92 49.38
4704 50.7100 2433.00 2428.79 49.33
4705 50.7200 2460.00 2429.51 49.60
4706 50.7300 2447.00 2428.27 49.47
4707 50.7400 2434.00 2425.47 49.34
4708 50.7500 2425.00 2421.95 49.24
4709 50.7600 2396.00 2418.43 48.95
4710 50.7700 2399.00 2415.61 48.98
4711 50.7800 2429.00 2413.70 49.28
4712 50.7900 2421.00 2413.21 49.20
4713 50.8000 2437.00 2414.23 49.37
4714 50.8100 2442.00 2416.69 49.42
4715 50.8200 2457.00 2420.28 49.57
4716 50.8300 2431.00 2424.61 49.31
4717 50.8400 2420.00 2429.15 49.19
4718 50.8500 2435.00 2433.46 49.35
4719 50.8600 2441.00 2437.27 49.41
4720 50.8700 2471.00 2440.39 49.71
4721 50.8800 2433.00 2442.62 49.33
4722 50.8900 2431.00 2443.58 49.31
4723 50.9000 2476.00 2442.78 49.76
4724 50.9100 2435.00 2440.13 49.35
4725 50.9200 2453.00 2436.00 49.53
4726 50.9300 2408.00 2430.98 49.07
4727 50.9400 2398.00 2425.69 48.97
4728 50.9500 2377.00 2420.56 48.75
4729 50.9600 2405.00 2415.86 49.04
4730 50.9700 2392.00 2411.64 48.91
4731 50.9800 2385.00 2407.93 48.84
4732 50.9900 2405.00 2404.64 49.04
4733 51.0000 2394.00 2401.66 48.93
4734 51.0100 2380.00 2398.73 48.79
4735 51.0200 2422.00 2395.71 49.21
4736 51.0300 2385.00 2392.63 48.84
4737 51.0400 2394.00 2389.86 48.93
4738 51.0500 2375.00 2387.78 48.73
4739 51.0600 2386.00 2386.70 48.85
4740 51.0700 2363.00 2386.61 48.61
4741 51.0800 2409.00 2387.33 49.08
4742 51.0900 2371.00 2388.45 48.69
4743 51.1000 2385.00 2389.49 48.84
4744 51.1100 2349.00 2389.98 48.47
4745 51.1200 2368.00 2389.71 48.66
4746 51.1300 2345.00 2388.78 48.43
4747 51.1400 2363.00 2387.38 48.61
4748 51.1500 2335.00 2385.70 48.32
4749 51.1600 2361.00 2383.84 48.59
4750 51.1700 2359.00 2381.92 48.57
4751 51.1800 2361.00 2380.03 48.59
4752 51.1900 2341.00 2378.28 48.38
4753 51.2000 2369.00 2376.73 48.67
4754 51.2100 2339.00 2375.36 48.36
4755 51.2200 2365.00 2374.05 48.63
4756 51.2300 2356.00 2372.70 48.54
4757 51.2400 2348.00 2371.17 48.46
4758 51.2500 2331.00 2369.41 48.28
4759 51.2600 2334.00 2367.55 48.31
4760 51.2700 2331.00 2365.75 48.28
4761 51.2800 2383.00 2364.33 48.82
4762 51.2900 2352.00 2363.44 48.50
4763 51.3000 2333.00 2363.44 48.30
4764 51.3100 2340.00 2364.39 48.37
4765 51.3200 2358.00 2366.48 48.56
4766 51.3300 2336.00 2369.63 48.33
4767 51.3400 2357.00 2373.55 48.55
4768 51.3500 2358.00 2377.81 48.56
4769 51.3600 2367.00 2381.85 48.65
4770 51.3700 2377.00 2385.20 48.75
4771 51.3800 2382.00 2387.44 48.81
4772 51.3900 2374.00 2388.24 48.72
4773 51.4000 2417.00 2387.47 49.16
4774 51.4100 2380.00 2385.30 48.79
4775 51.4200 2343.00 2382.12 48.40
4776 51.4300 2325.00 2378.46 48.22
4777 51.4400 2354.00 2374.82 48.52
4778 51.4500 2312.00 2371.60 48.08
4779 51.4600 2366.00 2369.14 48.64
4780 51.4700 2355.00 2367.78 48.53
4781 51.4800 2357.00 2367.75 48.55
4782 51.4900 2321.00 2369.09 48.18
4783 51.5000 2320.00 2371.59 48.17
4784 51.5100 2341.00 2374.81 48.38
4785 51.5200 2341.00 2378.10 48.38
4786 51.5300 2351.00 2380.80 48.49
4787 51.5400 2359.00 2382.31 48.57
4788 51.5500 2331.00 2382.35 48.28
4789 51.5600 2365.00 2381.06 48.63
4790 51.5700 2345.00 2378.73 48.43
4791 51.5800 2357.00 2375.79 48.55
4792 51.5900 2349.00 2372.65 48.47
4793 51.6000 2378.00 2369.71 48.76
4794 51.6100 2320.00 2367.44 48.17
4795 51.6200 2339.00 2366.02 48.36
4796 51.6300 2350.00 2365.60 48.48
4797 51.6400 2365.00 2366.21 48.63
4798 51.6500 2367.00 2367.76 48.65
4799 51.6600 2356.00 2370.04 48.54
4800 51.6700 2323.00 2372.70 48.20
4801 51.6800 2382.00 2375.30 48.81
4802 51.6900 2358.00 2377.48 48.56
4803 51.7000 2394.00 2379.02 48.93
4804 51.7100 2363.00 2379.83 48.61
4805 51.7200 2362.00 2379.87 48.60
4806 51.7300 2341.00 2379.28 48.38
4807 51.7400 2356.00 2378.32 48.54
4808 51.7500 2343.00 2377.22 48.40
4809 51.7600 2352.00 2376.09 48.50
4810 51.7700 2367.00 2375.03 48.65
4811 51.7800 2379.00 2374.12 48.78
4812 51.7900 2347.00 2373.38 48.45
4813 51.8000 2340.00 2372.74 48.37
4814 51.8100 2337.00 2372.14 48.34
4815 51.8200 2349.00 2371.62 48.47
4816 51.8300 2346.00 2371.30 48.44
4817 51.8400 2335.00 2371.27 48.32
4818 51.8500 2329.00 2371.56 48.26
4819 51.8600 2341.00 2372.03 48.38
4820 51.8700 2345.00 2372.38 48.43
4821 51.8800 2391.00 2372.07 48.90
4822 51.8900 2347.00 2370.80 48.45
4823 51.9000 2355.00 2368.51 48.53
4824 51.9100 2326.00 2365.53 48.23
4825 51.9200 2349.00 2362.44 48.47
4826 51.9300 2352.00 2359.72 48.50
4827 51.9400 2352.00 2357.82 48.50
4828 51.9500 2368.00 2356.92 48.66
4829 51.9600 2366.00 2357.12 48.64
4830 51.9700 2347.00 2358.44 48.45
4831 51.9800 2370.00 2360.90 48.68
4832 51.9900 2384.00 2364.46 48.83
4833 52.0000 2415.00 2369.11 49.14
4834 52.0100 2417.00 2374.76 49.16
4835 52.0200 2448.00 2381.34 49.48
4836 52.0300 2445.00 2388.51 49.45
4837 52.0400 2463.00 2395.92 49.63
4838 52.0500 2458.00 2402.89 49.58
4839 52.0600 2502.00 2408.96 50.02
4840 52.0700 2499.00 2413.73 49.99
4841 52.0800 2485.00 2416.97 49.85
4842 52.0900 2453.00 2418.69 49.53
4843 52.1000 2461.00 2419.03 49.61
4844 52.1100 2429.00 2418.02 49.28
4845 52.1200 2437.00 2416.00 49.37
4846 52.1300 2419.00 2413.23 49.18
4847 52.1400 2451.00 2409.87 49.51
4848 52.1500 2418.00 2405.97 49.17
4849 52.1600 2422.00 2401.46 49.21
4850 52.1700 2413.00 2396.31 49.12
4851 52.1800 2422.00 2390.59 49.21
4852 52.1900 2385.00 2384.58 48.84
4853 52.2000 2388.00 2378.60 48.87
4854 52.2100 2382.00 2372.89 48.81
4855 52.2200 2397.00 2367.51 48.96
4856 52.2300 2391.00 2362.37 48.90
4857 52.2400 2374.00 2357.36 48.72
4858 52.2500 2363.00 2352.21 48.61
4859 52.2600 2344.00 2346.87 48.41
4860 52.2700 2293.00 2341.39 47.89
4861 52.2800 2312.00 2335.97 48.08
4862 52.2900 2323.00 2330.90 48.20
4863 52.3000 2333.00 2326.41 48.30
4864 52.3100 2333.00 2322.69 48.30
4865 52.3200 2297.00 2319.76 47.93
4866 52.3300 2278.00 2317.56 47.73
4867 52.3400 2337.00 2316.01 48.34
4868 52.3500 2292.00 2315.05 47.87
4869 52.3600 2305.00 2314.69 48.01
4870 52.3700 2306.00 2314.94 48.02
4871 52.3800 2344.00 2315.61 48.41
4872 52.3900 2325.00 2316.63 48.22
4873 52.4000 2340.00 2317.70 48.37
4874 52.4100 2333.00 2318.47 48.30
4875 52.4200 2354.00 2318.63 48.52
4876 52.4300 2310.00 2317.81 48.06
4877 52.4400 2315.00 2315.96 48.11
4878 52.4500 2304.00 2313.24 48.00
4879 52.4600 2303.00 2309.92 47.99
4880 52.4700 2272.00 2306.27 47.67
4881 52.4800 2345.00 2302.49 48.43
4882 52.4900 2310.00 2298.66 48.06
4883 52.5000 2307.00 2294.89 48.03
4884 52.5100 2316.00 2291.30 48.12
4885 52.5200 2327.00 2288.12 48.24
4886 52.5300 2313.00 2285.52 48.09
4887 52.5400 2322.00 2283.63 48.19
4888 52.5500 2330.00 2282.47 48.27
4889 52.5600 2340.00 2282.04 48.37
4890 52.5700 2286.00 2282.22 47.81
4891 52.5800 2284.00 2282.90 47.79
4892 52.5900 2297.00 2283.80 47.93
4893 52.6000 2311.00 2284.82 48.07
4894 52.6100 2297.00 2285.73 47.93
4895 52.6200 2320.00 2286.21 48.17
loop_
_pd_proc_info_excluded_regions
'from 0.01 to 3.690'
'from 52.65 to 75.215'
