#------------------------------------------------------------------------------
#$Date: 2016-03-21 01:21:50 +0200 (Mon, 21 Mar 2016) $
#$Revision: 178377 $
#$URL: svn://www.crystallography.net/cod/cif/4/00/11/4001199.cif $
#------------------------------------------------------------------------------
#
# This file is available in the Crystallography Open Database (COD),
# http://www.crystallography.net/
#
# All data on this site have been placed in the public domain by the
# contributors.
#
data_4001199
loop_
_publ_author_name
'Zhou, Yongkai'
'Adams, Stefan'
'Rao, R. Prasada'
'Edwards, Doreen D.'
'Neiman, Arkady'
'Pestereva, N.'
_publ_section_title
;
 Charge Transport by Polyatomic Anion Diffusion in Sc2(WO4)3
;
_journal_issue                   20
_journal_name_full               'Chemistry of Materials'
_journal_page_first              6335
_journal_paper_doi               10.1021/cm800466y
_journal_volume                  20
_journal_year                    2008
_chemical_formula_moiety         ' Sc2(WO4)3 '
_chemical_formula_sum            'O12 Sc2 W3'
_chemical_formula_weight         833.45
_chemical_melting_point          1913
_chemical_name_common            ' Scandium Tungstate '
_chemical_name_systematic        ' Scandium Tungstate '
_space_group_IT_number           60
_symmetry_cell_setting           orthorhombic
_symmetry_space_group_name_Hall  '-P 2a 2n'
_symmetry_space_group_name_H-M   'P n c a'
_audit_creation_date             2008-01-25T12:03
_audit_creation_method           'from EXP file using GSAS2CIF'
_audit_update_record
' 2008-01-25T12:03  Initial CIF as created by GSAS2CIF'
_cell_angle_alpha                90.0
_cell_angle_beta                 90.0
_cell_angle_gamma                90.0
_cell_formula_units_Z            4
_cell_length_a                   9.63440(5)
_cell_length_b                   13.35201(7)
_cell_length_c                   9.55607(5)
_cell_measurement_temperature    850
_cell_volume                     1229.280(11)
_computing_structure_refinement  GSAS
_diffrn_radiation_polarisn_ratio 0.68
_diffrn_radiation_probe          x-ray
_exptl_absorpt_correction_T_max  1.00000
_exptl_absorpt_correction_T_min  1.00000
_exptl_absorpt_process_details
;   GSAS Absorption/surface roughness correction: function number 0
 No correction is applied.
;
_pd_block_id
2008-01-25T12:03|T11K|Zhou_Yongkai|Philips_Xpert
_pd_calc_method                  'Rietveld Refinement'
_pd_instr_location               ' ?'
_pd_meas_2theta_range_inc        0.017
_pd_meas_2theta_range_max        119.9874
_pd_meas_2theta_range_min        10.0144
_pd_meas_number_of_points        6470
_pd_proc_2theta_range_inc        0.017
_pd_proc_2theta_range_max        119.9874
_pd_proc_2theta_range_min        10.0144
_pd_proc_info_datetime           2008-01-25T12:29:46
_pd_proc_info_excluded_regions   ' ?'
_pd_proc_ls_background_function
;   GSAS Background function number 1 with 12 terms.
 Shifted Chebyshev function of 1st kind
      1:    370.713     2:   -33.5062     3:    7.35240     4:    45.8809    
      5:   -4.39290     6:    8.42209     7:   -9.80045     8:    4.49452    
      9:    9.46908    10:   -24.8668    11:    22.1516    12:   -7.47904    
;
_pd_proc_ls_peak_cutoff          0.00250
_pd_proc_ls_pref_orient_corr
;   March-Dollase
 AXIS  1 Ratio=   0.95386  h= 0.000  k= 1.000  l= 0.000
 Prefered orientation correction range: Min=   0.93159, Max=   1.15227
;
_pd_proc_ls_profile_function
;
 CW Profile function number 3 with  19 terms
 Pseudovoigt profile coefficients as parameterized in
 P. Thompson, D.E. Cox & J.B. Hastings (1987). J. Appl. Cryst.,20,79-83.
 Asymmetry correction of L.W. Finger, D.E. Cox & A. P. Jephcoat (1994).
 J. Appl. Cryst.,27,892-900.
 Peak tails are ignored  where the intensity is below 0.0025 times the peak
   Aniso. broadening axis   0.0   0.0   1.0
;
_pd_proc_ls_prof_R_factor        0.0504
_pd_proc_ls_prof_wR_expected     0.0361
_pd_proc_ls_prof_wR_factor       0.0657
_pd_proc_number_of_points        6470
_pd_spec_mounting                ' ?'
_refine_ls_goodness_of_fit_all   1.85
_refine_ls_matrix_type           full
_refine_ls_number_parameters     51
_refine_ls_number_restraints     0
_refine_ls_R_Fsqd_factor         0.06626
_refine_ls_shift/su_max          0.03
_refine_ls_shift/su_mean         0.01
_reflns_d_resolution_high        0.890
_reflns_d_resolution_low         6.676
_reflns_limit_h_max              10
_reflns_limit_h_min              0
_reflns_limit_k_max              15
_reflns_limit_k_min              0
_reflns_limit_l_max              10
_reflns_limit_l_min              0
_reflns_number_total             1828
_cod_data_source_file            cm800466y_si_018.cif
_cod_data_source_block           T850K
_cod_depositor_comments
;
The following automatic conversions were performed:

'_chemical_melting_point' value ' 1913K ' was changed to '1913' - the
value should be numeric and without a unit
designator.

'_geom_bond_publ_flag' value 'N' changed to 'n'
according to /home/saulius/struct/CIF-dictionaries/cif_core.dic
dictionary named 'cif_core.dic' version 2.4.1 from 2010-06-29 (26
times).

'_geom_angle_publ_flag' value 'N' changed to 'n' according
to /home/saulius/struct/CIF-dictionaries/cif_core.dic dictionary
named 'cif_core.dic' version 2.4.1 from 2010-06-29 (33 times).

Automatic conversion script
Id: cif_fix_values 1715 2011-07-08 13:25:40Z adriana 
;
_cod_original_cell_volume        1229.280(13)
_cod_database_code               4001199
#BEGIN Tags that were not found in dictionaries:
_gsas_exptl_extinct_corr_t_min   1.00000
_gsas_exptl_extinct_corr_t_max   1.00000
#END Tags that were not found in dictionaries
loop_
_symmetry_equiv_pos_site_id
_symmetry_equiv_pos_as_xyz
1 +x,+y,+z
2 -x+1/2,+y+1/2,+z+1/2
3 +x,-y+1/2,+z+1/2
4 -x+1/2,-y,+z
-1 -x,-y,-z
-2 +x+1/2,-y+1/2,-z+1/2
-3 -x,+y+1/2,-z+1/2
-4 +x+1/2,+y,-z
loop_
_atom_site_type_symbol
_atom_site_label
_atom_site_fract_x
_atom_site_fract_y
_atom_site_fract_z
_atom_site_occupancy
_atom_site_thermal_displace_type
_atom_site_U_iso_or_equiv
_atom_site_symmetry_multiplicity
Sc Sc1 0.4696(4) 0.38149(25) 0.2474(5) 1.0 Uiso 0.0252(12) 8
W W1 0.25 0.0 0.47144(15) 1.0 Uiso 0.02750(31) 4
W W2 0.11304(11) 0.35645(8) 0.39126(11) 1.0 Uiso 0.02750(31) 8
O O1 0.0911(13) 0.1280(9) 0.0681(13) 1.0 Uiso 0.0599(19) 8
O O2 0.1515(13) 0.0749(8) 0.3720(14) 1.0 Uiso 0.0599(19) 8
O O3 0.0068(13) 0.2648(10) 0.3148(12) 1.0 Uiso 0.0599(19) 8
O O4 0.3345(12) 0.4054(8) 0.0756(12) 1.0 Uiso 0.0599(19) 8
O O5 0.0582(12) 0.4762(9) 0.3227(13) 1.0 Uiso 0.0599(19) 8
O O6 0.2911(13) 0.3473(9) 0.3433(13) 1.0 Uiso 0.0599(19) 8
loop_
_atom_type_symbol
_atom_type_number_in_cell
_atom_type_scat_dispersion_real
_atom_type_scat_dispersion_imag
_atom_type_scat_Cromer_Mann_a1
_atom_type_scat_Cromer_Mann_a2
_atom_type_scat_Cromer_Mann_a3
_atom_type_scat_Cromer_Mann_a4
_atom_type_scat_Cromer_Mann_b1
_atom_type_scat_Cromer_Mann_b2
_atom_type_scat_Cromer_Mann_b3
_atom_type_scat_Cromer_Mann_b4
_atom_type_scat_Cromer_Mann_c
_atom_type_scat_source
Sc 8.0 0.000 0.000 9.18900 9.02130 7.36790 0.57290 1.64090 136.108 1.46800
51.3531 1.33290 International_Tables_Vol_C
W 12.0 0.000 0.000 29.0818 1.72029 15.4300 9.22590 14.4327 0.32170 5.11982
57.0560 9.88750 International_Tables_Vol_C
O 48.0 0.000 0.000 3.04850 13.2771 2.28680 5.70110 1.54630 0.32390 0.86700
32.9089 0.25080 International_Tables_Vol_C
loop_
_diffrn_radiation_wavelength
_diffrn_radiation_wavelength_wt
_diffrn_radiation_type
_diffrn_radiation_wavelength_id
1.540500 1.000 K\a~1~ 1
1.544300 0.000 K\a~2~ 2
loop_
_geom_angle_atom_site_label_1
_geom_angle_atom_site_label_2
_geom_angle_atom_site_label_3
_geom_angle
_geom_angle_site_symmetry_1
_geom_angle_site_symmetry_3
_geom_angle_publ_flag
O1 Sc1 O2 90.4(5) -2_666 -2_666 n
O1 Sc1 O3 95.0(5) -2_666 -2_666 n
O1 Sc1 O4 172.9(5) -2_666 1_555 n
O1 Sc1 O5 80.5(5) -2_666 4_565 n
O1 Sc1 O6 94.6(5) -2_666 1_555 n
O2 Sc1 O3 87.8(5) -2_666 -2_666 n
O2 Sc1 O4 92.8(5) -2_666 1_555 n
O2 Sc1 O5 92.4(5) -2_666 4_565 n
O2 Sc1 O6 174.6(6) -2_666 1_555 n
O3 Sc1 O4 91.5(5) -2_666 1_555 n
O3 Sc1 O5 175.5(5) -2_666 4_565 n
O3 Sc1 O6 93.7(5) -2_666 1_555 n
O4 Sc1 O5 93.0(5) 1_555 4_565 n
O4 Sc1 O6 82.0(4) 1_555 1_555 n
O5 Sc1 O6 86.5(5) 4_565 1_555 n
O2 W1 O2 110.9(9) 1_555 4_555 n
O2 W1 O4 118.4(6) 1_555 2_545 n
O2 W1 O4 98.7(5) 1_555 3_555 n
O2 W1 O4 98.7(5) 4_555 2_545 n
O2 W1 O4 118.4(6) 4_555 3_555 n
O4 W1 O4 112.9(8) 2_545 3_555 n
O1 W2 O3 115.0(6) 3_555 1_555 n
O1 W2 O5 102.4(5) 3_555 1_555 n
O1 W2 O6 112.4(6) 3_555 1_555 n
O3 W2 O5 107.2(6) 1_555 1_555 n
O3 W2 O6 114.0(6) 1_555 1_555 n
O5 W2 O6 104.4(5) 1_555 1_555 n
Sc1 O1 W2 153.4(7) -2_466 3_554 n
Sc1 O2 W1 156.3(7) -2_555 1_555 n
Sc1 O3 W2 151.3(7) -2_466 1_555 n
Sc1 O4 W1 144.2(7) 1_555 2_554 n
Sc1 O5 W2 170.4(7) 4_565 1_555 n
Sc1 O6 W2 158.5(7) 1_555 1_555 n
loop_
_geom_bond_atom_site_label_1
_geom_bond_atom_site_label_2
_geom_bond_distance
_geom_bond_site_symmetry_2
_geom_bond_publ_flag
Sc1 O1 2.121(13) -2_555 n
Sc1 O2 2.171(13) -2_555 n
Sc1 O3 2.072(13) -2_555 n
Sc1 O4 2.118(12) 1_555 n
Sc1 O5 2.050(12) 4_565 n
Sc1 O6 2.002(13) 1_555 n
W1 O2 1.674(12) 1_555 n
W1 O2 1.674(12) 4_555 n
W1 O4 1.803(11) 2_545 n
W1 O4 1.803(11) 3_555 n
W2 O1 1.715(12) 3_555 n
W2 O3 1.755(12) 1_555 n
W2 O5 1.806(12) 1_555 n
W2 O6 1.780(13) 1_555 n
O1 Sc1 2.121(13) -2_455 n
O1 W2 1.715(12) 3_554 n
O2 Sc1 2.171(13) -2_455 n
O2 W1 1.674(12) 1_555 n
O3 Sc1 2.072(13) -2_455 n
O3 W2 1.755(12) 1_555 n
O4 Sc1 2.118(12) 1_555 n
O4 W1 1.803(11) 2_554 n
O5 Sc1 2.050(12) 4_565 n
O5 W2 1.806(12) 1_555 n
O6 Sc1 2.002(13) 1_555 n
O6 W2 1.780(13) 1_555 n
loop_
_pd_meas_counts_total
_pd_proc_ls_weight
_pd_proc_intensity_bkg_calc
_pd_calc_intensity_total
303.0 0.0 711.44904 .
329.0 0.0 707.32709 .
363.0 0.0 703.23627 .
323.0 0.0 699.17609 .
338.0 0.0 695.14612 .
335.0 0.0 691.14709 .
356.0 0.0 687.17816 .
340.0 0.0 683.23926 .
314.0 0.0 679.33063 .
322.0 0.0 675.45123 .
299.0 0.0 671.60205 .
324.0 0.0 667.78217 .
332.0 0.0 663.99152 .
329.0 0.0 660.23041 .
324.0 0.0 656.49817 .
315.0 0.0 652.79492 .
311.0 0.0 649.12036 .
299.0 0.0 645.47412 .
291.0 0.0 641.85699 .
320.0 0.0 638.26807 .
321.0 0.0 634.70734 .
330.0 0.0 631.17432 .
325.0 0.0 627.66919 .
303.0 0.0 624.19226 .
328.0 0.0 620.74280 .
348.0 0.0 617.32080 .
348.0 0.0 613.92603 .
364.0 0.0 610.55841 .
381.0 0.0 607.21777 .
369.0 0.0 603.90466 .
351.0 0.0 600.61749 .
351.0 0.0 597.35742 .
375.0 0.0 594.12354 .
356.0 0.0 590.91638 .
329.0 0.0 587.73541 .
347.0 0.0 584.58038 .
356.0 0.0 581.45135 .
336.0 0.0 578.34778 .
334.0 0.0 575.27026 .
344.0 0.0 572.21844 .
343.0 0.0 569.19177 .
346.0 0.0 566.19031 .
357.0 0.0 563.21368 .
360.0 0.0 560.26263 .
333.0 0.0 557.33643 .
314.0 0.0 554.43481 .
332.0 0.0 551.55762 .
314.0 0.0 548.70490 .
337.0 0.0 545.87683 .
341.0 0.0 543.07281 .
353.0 0.0 540.29309 .
335.0 0.0 537.53693 .
356.0 0.0 534.80469 .
335.0 0.0 532.09625 .
334.0 0.0 529.41138 .
328.0 0.0 526.75006 .
314.0 0.0 524.11182 .
349.0 0.0 521.49670 .
348.0 0.0 518.90497 .
312.0 0.0 516.33618 .
332.0 0.0 513.79010 .
327.0 0.0 511.26651 .
374.0 0.0 508.76547 .
330.0 0.0 506.28711 .
354.0 0.0 503.83115 .
336.0 0.0 501.39740 .
308.0 0.0 498.98544 .
349.0 0.0 496.59549 .
327.0 0.0 494.22748 .
327.0 0.0 491.88120 .
350.0 0.0 489.55655 .
354.0 0.0 487.25323 .
330.0 0.0 484.97134 .
339.0 0.0 482.71057 .
326.0 0.0 480.47119 .
352.0 0.0 478.25272 .
367.0 0.0 476.05484 .
336.0 0.0 473.87808 .
337.0 0.0 471.72171 .
355.0 0.0 469.58606 .
367.0 0.0 467.47095 .
360.0 0.0 465.37589 .
345.0 0.0 463.30096 .
368.0 0.0 461.24612 .
374.0 0.0 459.21158 .
367.0 0.0 457.19672 .
367.0 0.0 455.20151 .
351.0 0.0 453.22598 .
342.0 0.0 451.26987 .
338.0 0.0 449.33337 .
342.0 0.0 447.41611 .
351.0 0.0 445.51791 .
359.0 0.0 443.63873 .
348.0 0.0 441.77859 .
343.0 0.0 439.93744 .
335.0 0.0 438.11508 .
331.0 0.0 436.31097 .
325.0 0.0 434.52563 .
333.0 0.0 432.75873 .
334.0 0.0 431.01016 .
317.0 0.0 429.27982 .
337.0 0.0 427.56738 .
342.0 0.0 425.87302 .
343.0 0.0 424.19669 .
333.0 0.0 422.53802 .
342.0 0.0 420.89709 .
396.0 0.0 419.27359 .
362.0 0.0 417.66769 .
363.0 0.0 416.07932 .
353.0 0.0 414.50797 .
322.0 0.0 412.95395 .
316.0 0.0 411.41687 .
354.0 0.0 409.89670 .
369.0 0.0 408.39359 .
346.0 0.0 406.90701 .
360.0 0.0 405.43738 .
346.0 0.0 403.98404 .
364.0 0.002747 402.54715 402.53967
357.0 0.002801 401.12686 401.11951
368.0 0.002717 399.72269 399.71542
361.0 0.002770 398.33475 398.32758
372.0 0.002688 396.96283 396.95578
369.0 0.002710 395.60672 395.59985
348.0 0.002874 394.26675 394.25995
359.0 0.002786 392.94247 392.93570
363.0 0.002755 391.63388 391.62726
368.0 0.002717 390.34082 390.33435
342.0 0.002924 389.06317 389.05670
355.0 0.002817 387.80109 387.79474
339.0 0.002950 386.55423 386.54800
326.0 0.003067 385.32260 385.31650
329.0 0.003040 384.10608 384.09998
318.0 0.003145 382.90451 382.89853
344.0 0.002907 381.71786 381.71204
360.0 0.002778 380.54614 380.54034
332.0 0.003012 379.38922 379.38348
351.0 0.002849 378.24686 378.24121
355.0 0.002817 377.11893 377.11340
360.0 0.002778 376.00558 376.00015
369.0 0.002710 374.90671 374.90131
370.0 0.002703 373.82205 373.81671
353.0 0.002833 372.75146 372.74628
337.0 0.002967 371.69501 371.68991
337.0 0.002967 370.65268 370.64767
347.0 0.002882 369.62427 369.61929
343.0 0.002915 368.60965 368.60480
349.0 0.002865 367.60880 367.60400
355.0 0.002817 366.62155 366.61679
344.0 0.002907 365.64795 365.64331
326.0 0.003067 364.68787 364.68332
327.0 0.003058 363.74109 363.73657
326.0 0.003067 362.80774 362.80325
358.0 0.002793 361.88742 361.88306
374.0 0.002674 360.98038 360.97607
362.0 0.002762 360.08643 360.08224
332.0 0.003012 359.20547 359.20123
330.0 0.003030 358.33731 358.33325
364.0 0.002747 357.48199 357.47791
350.0 0.002857 356.63940 356.63538
351.0 0.002849 355.80951 355.80557
357.0 0.002801 354.99197 354.98819
381.0 0.002625 354.18707 354.18335
346.0 0.002890 353.39453 353.39084
348.0 0.002874 352.61435 356.79703
333.0 0.003003 351.84634 356.38181
352.0 0.002841 351.09052 358.12326
410.0 0.002439 350.34665 358.02646
381.0 0.002625 349.61484 358.05087
394.0 0.002538 348.89496 358.22928
357.0 0.002801 348.18692 358.61087
375.0 0.002667 347.49057 359.27722
404.0 0.002475 346.80591 360.40033
433.0 0.002309 346.13281 362.61295
445.0 0.002247 345.47122 368.10898
433.0 0.002309 344.82111 379.97757
438.0 0.002283 344.18234 398.78061
445.0 0.002247 343.55481 423.52603
511.0 0.001957 342.93845 453.00528
500.0 0.002000 342.33322 485.99347
512.0 0.001953 341.73917 522.19763
515.0 0.001942 341.15598 561.84491
584.0 0.001712 340.58362 605.35748
608.0 0.001645 340.02209 653.33942
641.0 0.001560 339.47147 706.61713
707.0 0.001414 338.93143 766.20258
761.0 0.001314 338.40195 833.26331
857.0 0.001167 337.88300 909.41785
943.0 0.001060 337.37448 997.04065
1084.0 0.000923 336.87634 1099.13977
1188.0 0.000842 336.38852 1220.19800
1395.0 0.000717 335.91089 1366.97046
1680.0 0.000595 335.44345 1549.97729
2064.0 0.000484 334.98608 1787.65759
2567.0 0.000390 334.53873 2116.75659
3285.0 0.0003044 334.10132 2628.77490
4059.0 0.0002464 333.67377 3457.69336
4329.0 0.0002310 333.25601 4102.74121
3596.0 0.0002781 332.84793 3328.57373
2367.0 0.000422 332.44955 2319.72314
1428.0 0.000700 332.06082 1348.52124
724.0 0.001381 331.68152 702.39960
502.0 0.001992 331.31168 501.08530
445.0 0.002247 330.95120 440.36166
424.0 0.002358 330.60010 409.72559
418.0 0.002392 330.25821 390.57742
405.0 0.002469 329.92545 377.62537
402.0 0.002488 329.60181 368.37610
366.0 0.002732 329.28726 361.49207
337.0 0.002967 328.98169 356.19736
348.0 0.002874 328.68497 352.01434
370.0 0.002703 328.39703 348.63510
362.0 0.002762 328.11801 345.85318
363.0 0.002755 327.84763 343.52621
355.0 0.002817 327.58582 341.55249
382.0 0.002618 327.33267 339.85809
396.0 0.002525 327.08801 338.38791
346.0 0.002890 326.85175 337.10037
374.0 0.002674 326.62390 330.10538
347.0 0.002882 326.40436 329.57455
349.0 0.002865 326.19315 326.19147
353.0 0.002833 325.99002 325.98840
369.0 0.002710 325.79507 325.79340
376.0 0.002660 325.60809 325.60657
375.0 0.002667 325.42929 325.42761
352.0 0.002841 325.25827 325.25671
371.0 0.002695 325.09518 325.09366
392.0 0.002551 324.93991 324.93842
337.0 0.002967 324.79245 324.79089
353.0 0.002833 324.65262 324.65112
364.0 0.002747 324.52042 324.51889
384.0 0.002604 324.39572 324.39429
382.0 0.002618 324.27869 324.27719
370.0 0.002703 324.16901 324.16751
387.0 0.002584 324.06674 324.06528
377.0 0.002653 323.97177 323.97031
366.0 0.002732 323.88412 323.88260
335.0 0.002985 323.80365 323.80219
326.0 0.003067 323.73032 323.72885
347.0 0.002882 323.66409 323.66269
361.0 0.002770 323.60492 323.60349
335.0 0.002985 323.55280 323.55136
368.0 0.002717 323.50745 323.50601
382.0 0.002618 323.46909 323.46765
389.0 0.002571 323.43744 323.43600
354.0 0.002825 323.41263 329.00000
369.0 0.002710 323.39441 329.41699
369.0 0.002710 323.38290 332.64999
369.0 0.002710 323.37802 333.41794
410.0 0.002439 323.37961 334.30283
409.0 0.002445 323.38766 335.32950
413.0 0.002421 323.40210 336.53174
430.0 0.002326 323.42294 337.95685
438.0 0.002283 323.45016 339.67380
411.0 0.002433 323.48355 341.79056
413.0 0.002421 323.52316 344.49588
433.0 0.002309 323.56888 348.27499
441.0 0.002268 323.62073 355.05551
459.0 0.002179 323.67856 369.82693
496.0 0.002016 323.74243 396.41736
552.0 0.001812 323.81229 434.06824
583.0 0.001715 323.88794 481.59436
576.0 0.001736 323.96942 537.31732
611.0 0.001637 324.05670 599.66553
679.0 0.001473 324.14972 668.65356
740.0 0.001351 324.24841 745.15247
765.0 0.001307 324.35266 830.47961
841.0 0.001189 324.46255 926.38654
919.0 0.001088 324.57800 1035.04761
1041.0 0.000961 324.69885 1159.28589
1208.0 0.000828 324.82516 1303.31848
1356.0 0.000737 324.95679 1473.31458
1587.0 0.000630 325.09378 1677.58740
1938.0 0.000516 325.23596 1929.75977
2294.0 0.000436 325.38345 2252.79761
2838.0 0.000352 325.53607 2689.85327
3597.0 0.0002780 325.69379 3343.83252
4747.0 0.0002107 325.85666 4421.70166
5467.0 0.0001829 326.02448 5600.19385
4699.0 0.0002128 326.19736 5000.66699
3505.0 0.0002853 326.37515 3517.48975
2271.0 0.000440 326.55777 2399.82275
1171.0 0.000854 326.74527 1188.18762
636.0 0.001572 326.93759 661.68964
462.0 0.002165 327.13455 517.51001
491.0 0.002037 327.33633 459.94601
459.0 0.002179 327.54266 426.54312
418.0 0.002392 327.75363 404.87466
412.0 0.002427 327.96921 389.94806
383.0 0.002611 328.18921 379.20602
418.0 0.002392 328.41370 371.21234
386.0 0.002591 328.64267 365.10666
392.0 0.002551 328.87595 360.34473
350.0 0.002857 329.11368 356.56830
390.0 0.002564 329.35559 353.53265
390.0 0.002564 329.60172 351.06543
384.0 0.002604 329.85217 349.04236
354.0 0.002825 330.10669 347.37207
349.0 0.002865 330.36539 345.98581
357.0 0.002801 330.62802 336.00046
362.0 0.002762 330.89478 335.77338
356.0 0.002809 331.16547 331.16357
344.0 0.002907 331.44019 331.43829
360.0 0.002778 331.71872 331.71683
373.0 0.002681 332.00119 331.99924
387.0 0.002584 332.28738 332.28546
367.0 0.002725 332.57745 332.57541
349.0 0.002865 332.87122 332.86917
331.0 0.003021 333.16864 333.16666
376.0 0.002660 333.46973 333.46771
358.0 0.002793 333.77438 333.77231
353.0 0.002833 334.08264 334.08060
346.0 0.002890 334.39447 334.39233
366.0 0.002732 334.70972 334.70761
365.0 0.002740 335.02844 335.02634
349.0 0.002865 335.35059 335.34842
351.0 0.002849 335.67606 335.67383
342.0 0.002924 336.00491 336.00269
333.0 0.003003 336.33698 336.33481
345.0 0.002899 336.67239 336.67017
351.0 0.002849 337.01102 337.00873
339.0 0.002950 337.35269 337.35043
356.0 0.002809 337.69769 337.69537
361.0 0.002770 338.04562 338.04327
352.0 0.002841 338.39664 338.39435
367.0 0.002725 338.75073 338.74841
365.0 0.002740 339.10776 339.10538
354.0 0.002825 339.46777 339.46539
339.0 0.002950 339.83069 339.82828
326.0 0.003067 340.19644 340.19406
340.0 0.002941 340.56509 340.56259
339.0 0.002950 340.93643 340.93399
352.0 0.002841 341.31070 341.30817
340.0 0.002941 341.68768 341.68503
335.0 0.002985 342.06723 342.06467
336.0 0.002976 342.44946 342.44684
371.0 0.002695 342.83432 342.83170
353.0 0.002833 343.22180 343.21915
348.0 0.002874 343.61179 343.60913
360.0 0.002778 344.00436 344.00174
371.0 0.002695 344.39932 344.39664
364.0 0.002747 344.79678 344.79410
359.0 0.002786 345.19669 345.19394
350.0 0.002857 345.59894 345.59619
354.0 0.002825 346.00348 346.00073
336.0 0.002976 346.41046 346.40759
336.0 0.002976 346.81958 346.81674
301.0 0.003322 347.23105 347.22815
369.0 0.002710 347.64468 347.64178
353.0 0.002833 348.06055 348.05759
377.0 0.002653 348.47849 348.47543
332.0 0.003012 348.89844 348.89548
328.0 0.003049 349.32068 349.31763
345.0 0.002899 349.74487 349.74179
309.0 0.003236 350.17108 350.16800
346.0 0.002890 350.59930 350.59619
363.0 0.002755 351.02945 351.02634
345.0 0.002899 351.46155 351.45834
356.0 0.002809 351.89551 351.89233
362.0 0.002762 352.33133 352.32813
353.0 0.002833 352.76889 352.76575
343.0 0.002915 353.20840 353.20511
385.0 0.002597 353.64963 353.64630
350.0 0.002857 354.09265 354.08932
353.0 0.002833 354.53723 354.53394
355.0 0.002817 354.98361 354.98022
343.0 0.002915 355.43158 355.42813
365.0 0.002740 355.88120 355.87781
356.0 0.002809 356.33240 356.32892
336.0 0.002976 356.78516 356.78171
347.0 0.002882 357.23938 357.23587
345.0 0.002899 357.69516 357.69168
363.0 0.002755 358.15237 358.14890
373.0 0.002681 358.61115 358.60754
354.0 0.002825 359.07123 359.06766
366.0 0.002732 359.53275 359.52911
363.0 0.002755 359.99554 359.99188
340.0 0.002941 360.45981 360.45609
339.0 0.002950 360.92526 360.92151
338.0 0.002959 361.39206 361.38821
351.0 0.002849 361.85999 361.85626
350.0 0.002857 362.32928 362.32538
352.0 0.002841 362.79971 362.79581
361.0 0.002770 363.27124 363.26740
369.0 0.002710 363.74399 363.74008
346.0 0.002890 364.21783 364.21387
333.0 0.003003 364.69272 364.68875
347.0 0.002882 365.16882 365.16476
351.0 0.002849 365.64581 365.64182
342.0 0.002924 366.12390 366.11981
353.0 0.002833 366.60291 366.59879
348.0 0.002874 367.08282 367.07870
328.0 0.003049 367.56372 367.55960
337.0 0.002967 368.04556 368.04132
364.0 0.002747 368.52823 368.52405
347.0 0.002882 369.01178 369.00754
369.0 0.002710 369.49619 369.49191
367.0 0.002725 369.98141 369.97711
334.0 0.002994 370.46741 370.46301
341.0 0.002933 370.95407 370.94980
322.0 0.003106 371.44156 371.43716
314.0 0.003185 371.92978 371.92532
361.0 0.002770 372.41861 372.41418
379.0 0.002639 372.90817 372.90366
333.0 0.003003 373.39832 373.39386
319.0 0.003135 373.88910 373.88461
364.0 0.002747 374.38043 374.37592
339.0 0.002950 374.87247 374.86786
335.0 0.002985 375.36496 375.36035
356.0 0.002809 375.85803 375.85336
378.0 0.002646 376.35147 376.34683
329.0 0.003040 376.84546 376.84073
350.0 0.002857 377.33990 377.33517
368.0 0.002717 377.83484 377.83014
346.0 0.002890 378.33020 378.32544
315.0 0.003175 378.82590 378.82098
324.0 0.003086 379.32190 379.31705
326.0 0.003067 379.81839 379.81351
346.0 0.002890 380.31512 380.31018
333.0 0.003003 380.81204 380.80713
350.0 0.002857 381.30942 381.30447
380.0 0.002632 381.80707 381.80203
363.0 0.002755 382.30484 382.29984
381.0 0.002625 382.80295 382.79785
372.0 0.002688 383.30118 383.29608
347.0 0.002882 383.79965 383.79449
352.0 0.002841 384.29813 384.29309
369.0 0.002710 384.79697 384.79184
343.0 0.002915 385.29581 385.29062
326.0 0.003067 385.79477 385.78949
343.0 0.002915 386.29382 386.28854
339.0 0.002950 386.79285 386.78763
323.0 0.003096 387.29199 387.28665
331.0 0.003021 387.79120 387.78586
349.0 0.002865 388.29034 388.28500
346.0 0.002890 388.78949 388.78403
363.0 0.002755 389.28848 389.28308
364.0 0.002747 389.78763 389.78217
333.0 0.003003 390.28665 390.28113
334.0 0.002994 390.78540 390.77991
345.0 0.002899 391.28424 391.27875
345.0 0.002899 391.78287 391.77734
354.0 0.002825 392.28143 392.27579
344.0 0.002907 392.77972 392.77411
327.0 0.003058 393.27795 393.27225
349.0 0.002865 393.77591 393.77023
333.0 0.003003 394.27362 394.26785
336.0 0.002976 394.77103 394.76532
349.0 0.002865 395.26840 395.26266
367.0 0.002725 395.76532 395.75949
365.0 0.002740 396.26205 396.25623
353.0 0.002833 396.75842 396.75256
351.0 0.002849 397.25449 397.24869
357.0 0.002801 397.75024 397.74435
359.0 0.002786 398.24564 398.23975
346.0 0.002890 398.74054 398.73459
365.0 0.002740 399.23523 399.22925
370.0 0.002703 399.72943 399.72348
374.0 0.002674 400.22333 400.21725
374.0 0.002674 400.71664 400.71057
354.0 0.002825 401.20953 401.20346
361.0 0.002770 401.70203 401.69583
330.0 0.003030 402.19397 402.18787
363.0 0.002755 402.68539 402.67923
344.0 0.002907 403.17645 403.17023
350.0 0.002857 403.66678 403.66058
358.0 0.002793 404.15674 404.16138
372.0 0.002688 404.64603 404.65149
373.0 0.002681 405.13489 405.14114
389.0 0.002571 405.62305 405.63574
400.0 0.002500 406.11063 406.12479
362.0 0.002762 406.59753 406.61337
352.0 0.002841 407.08386 407.10150
357.0 0.002801 407.56952 407.58917
359.0 0.002786 408.05453 408.07663
361.0 0.002770 408.53882 408.56366
341.0 0.002933 409.02252 410.36938
377.0 0.002653 409.50540 410.95151
377.0 0.002653 409.98776 412.17004
374.0 0.002674 410.46921 412.82028
382.0 0.002618 410.94995 414.09985
367.0 0.002725 411.42999 414.83884
367.0 0.002725 411.90927 415.61349
367.0 0.002725 412.38770 416.74319
372.0 0.002688 412.86539 417.65588
376.0 0.002660 413.34216 418.66629
396.0 0.002525 413.81824 419.78976
386.0 0.002591 414.29340 421.04318
414.0 0.002415 414.76782 422.45847
411.0 0.002433 415.24130 424.07697
390.0 0.002564 415.71396 425.96936
401.0 0.002494 416.18561 428.28522
400.0 0.002500 416.65652 431.51642
407.0 0.002457 417.12653 437.18317
433.0 0.002309 417.59549 447.20102
456.0 0.002193 418.06360 461.80365
445.0 0.002247 418.53067 480.70267
467.0 0.002141 418.99689 504.73312
505.0 0.001980 419.46216 535.01538
528.0 0.001894 419.92636 572.38483
545.0 0.001835 420.38956 615.39716
608.0 0.001645 420.85181 661.34186
669.0 0.001495 421.31308 717.08661
771.0 0.001297 421.77335 785.96741
893.0 0.001120 422.23254 869.38373
977.0 0.001024 422.69064 977.27350
1145.0 0.000873 423.14771 1124.71619
1429.0 0.000700 423.60370 1346.82300
1779.0 0.000562 424.05872 1682.67969
1937.0 0.000516 424.51260 1909.35815
1676.0 0.000597 424.96533 1623.90820
1543.0 0.000648 425.41696 1436.91309
1473.0 0.000679 425.86752 1427.15686
1381.0 0.000724 426.31696 1288.45483
1091.0 0.000917 426.76523 1084.14453
830.0 0.001205 427.21225 849.74872
775.0 0.001290 427.65823 768.45215
614.0 0.001629 428.10303 653.66467
505.0 0.001980 428.54666 528.21112
449.0 0.002227 428.98914 479.48669
383.0 0.002611 429.43036 463.88000
402.0 0.002488 429.87036 456.10587
401.0 0.002494 430.30927 451.22565
349.0 0.002865 430.74683 447.91479
378.0 0.002646 431.18320 445.59506
406.0 0.002463 431.61829 443.92334
381.0 0.002625 432.05219 442.70227
395.0 0.002532 432.48474 441.80624
415.0 0.002410 432.91614 441.15204
369.0 0.002710 433.34625 440.68182
428.0 0.002336 433.77499 438.09262
409.0 0.002445 434.20245 438.06638
409.0 0.002445 434.62869 438.10806
445.0 0.002247 435.05365 437.10483
421.0 0.002375 435.47720 437.33478
412.0 0.002427 435.89935 448.00241
399.0 0.002506 436.32028 449.15002
409.0 0.002445 436.73984 449.84067
429.0 0.002331 437.15811 456.97861
426.0 0.002347 437.57498 458.88120
455.0 0.002198 437.99045 460.96109
473.0 0.002114 438.40457 463.24924
467.0 0.002141 438.81732 465.78439
464.0 0.002155 439.22876 468.61450
476.0 0.002101 439.63867 471.80051
511.0 0.001957 440.04727 475.42191
517.0 0.001934 440.45441 479.58344
492.0 0.002033 440.86017 484.42676
515.0 0.001942 441.26450 490.14954
555.0 0.001802 441.66739 497.03860
557.0 0.001795 442.06888 505.53540
580.0 0.001724 442.46890 516.37903
640.0 0.001563 442.86743 531.16852
695.0 0.001439 443.26462 555.45154
749.0 0.001335 443.66019 605.78027
795.0 0.001258 444.05441 700.78967
903.0 0.001107 444.44714 839.77435
1036.0 0.000965 444.83841 1018.78497
1173.0 0.000853 445.22815 1243.44458
1414.0 0.000707 445.61636 1514.35242
1660.0 0.000602 446.00314 1831.69763
1992.0 0.000502 446.38834 2203.47925
2428.0 0.000412 446.77206 2644.87134
3146.0 0.0003179 447.15436 3180.19165
3785.0 0.0002642 447.53500 3848.49023
4691.0 0.0002132 447.91425 4715.95264
6073.0 0.0001647 448.29193 5919.55762
7998.0 0.0001250 448.66794 7789.95996
11142.0 0.0000898 449.04254 10663.46973
12629.0 0.0000792 449.41559 12370.42578
9157.0 0.0001092 449.78708 9130.91016
6794.0 0.0001472 450.15692 6716.49805
5736.0 0.0001743 450.52527 5867.47266
3264.0 0.0003064 450.89212 3320.07715
1497.0 0.000668 451.25720 1544.75574
937.0 0.001067 451.62082 993.42426
752.0 0.001330 451.98288 811.14252
646.0 0.001548 452.34332 715.26776
574.0 0.001742 452.70227 654.94092
548.0 0.001825 453.05948 614.11548
581.0 0.001721 453.41507 585.06757
515.0 0.001942 453.76917 563.60657
558.0 0.001792 454.12161 547.27814
481.0 0.002079 454.47241 534.56122
517.0 0.001934 454.82162 524.46600
510.0 0.001961 455.16928 516.32361
509.0 0.001965 455.51517 509.66800
540.0 0.001852 455.85950 504.16568
489.0 0.002045 456.20218 499.57309
455.0 0.002198 456.54324 495.70834
467.0 0.002141 456.88263 470.94958
441.0 0.002268 457.22037 469.94861
458.0 0.002183 457.55646 469.12955
461.0 0.002169 457.89099 457.88202
456.0 0.002193 458.22382 458.21481
463.0 0.002160 458.55493 458.54593
467.0 0.002141 458.88440 458.87537
458.0 0.002183 459.21222 459.20319
453.0 0.002208 459.53836 459.52933
468.0 0.002137 459.86279 459.85382
456.0 0.002193 460.18555 460.17651
446.0 0.002242 460.50665 460.49759
464.0 0.002155 460.82611 460.81702
462.0 0.002165 461.14386 461.13480
487.0 0.002053 461.45984 477.03104
484.0 0.002066 461.77423 478.43805
488.0 0.002049 462.08685 479.96472
476.0 0.002101 462.39783 489.36322
479.0 0.002088 462.70706 491.73203
467.0 0.002141 463.01465 494.35089
475.0 0.002105 463.32043 497.26422
486.0 0.002058 463.62460 500.52707
492.0 0.002033 463.92703 504.20883
495.0 0.002020 464.22781 508.39731
522.0 0.001916 464.52676 513.20612
548.0 0.001825 464.82407 518.78625
572.0 0.001748 465.11960 525.34174
576.0 0.001736 465.41345 533.15753
594.0 0.001684 465.70566 542.64960
669.0 0.001495 465.99603 554.44373
713.0 0.001403 466.28470 569.59692
750.0 0.001333 466.57162 590.27869
822.0 0.001217 466.85687 623.80121
884.0 0.001131 467.14032 692.60974
1033.0 0.000968 467.42206 823.66687
1232.0 0.000812 467.70209 1020.93298
1379.0 0.000725 467.98035 1276.28162
1518.0 0.000659 468.25681 1598.50110
1738.0 0.000575 468.53168 1994.84192
2275.0 0.000440 468.80472 2466.93335
2727.0 0.000367 469.07602 3028.90942
3268.0 0.0003060 469.34555 3708.56421
4062.0 0.0002462 469.61337 4552.14258
5202.0 0.0001922 469.87949 5638.68896
6615.0 0.0001512 470.14380 7123.68506
8994.0 0.0001112 470.40634 9380.11328
13155.0 0.0000760 470.66708 12926.77246
16015.0 0.0000624 470.92618 15795.34961
12055.0 0.0000830 471.18353 12373.30957
8122.0 0.0001231 471.43906 8551.78809
7604.0 0.0001315 471.69287 7884.13232
5206.0 0.0001921 471.94492 5361.18701
2179.0 0.000459 472.19522 2427.83667
1135.0 0.000881 472.44376 1327.25684
871.0 0.001148 472.69049 1001.29987
740.0 0.001351 472.93558 850.89172
680.0 0.001471 473.17874 759.81348
693.0 0.001443 473.42026 699.36853
613.0 0.001631 473.66006 656.92749
579.0 0.001727 473.89798 625.87946
568.0 0.001761 474.13422 602.40411
595.0 0.001681 474.36868 584.20355
608.0 0.001645 474.60120 569.78778
571.0 0.001751 474.83237 558.16846
585.0 0.001709 475.06143 548.67151
569.0 0.001757 475.28885 540.80554
589.0 0.001698 475.51440 534.22375
607.0 0.001647 475.73834 528.66174
577.0 0.001733 475.96051 495.18335
604.0 0.001656 476.18079 493.53888
599.0 0.001669 476.39941 507.02319
585.0 0.001709 476.61624 492.50662
563.0 0.001776 476.83133 493.86371
573.0 0.001745 477.04468 502.66214
596.0 0.001678 477.25616 504.79889
618.0 0.001618 477.46597 507.16525
630.0 0.001587 477.67398 524.93115
666.0 0.001502 477.88022 528.93939
676.0 0.001479 478.08481 533.44360
695.0 0.001439 478.28754 545.96820
676.0 0.001479 478.48862 552.28577
684.0 0.001462 478.68765 559.52173
740.0 0.001351 478.88519 567.89069
768.0 0.001302 479.08096 577.67828
811.0 0.001233 479.27490 589.26813
809.0 0.001236 479.46710 603.22919
880.0 0.001136 479.65753 620.40192
972.0 0.001029 479.84628 642.19379
1080.0 0.000926 480.03320 671.63184
1148.0 0.000871 480.21835 718.76324
1255.0 0.000797 480.40179 844.68860
1393.0 0.000718 480.58356 1010.02808
1605.0 0.000623 480.76343 1245.61450
1947.0 0.000514 480.94168 1564.43726
2294.0 0.000436 481.11810 1951.32202
2634.0 0.000380 481.29279 2444.17773
3154.0 0.0003171 481.46570 3078.83618
3797.0 0.0002634 481.63687 3898.03003
4689.0 0.0002133 481.80646 4937.52393
6004.0 0.0001666 481.97412 6267.77832
7699.0 0.0001299 482.14014 8041.78125
10710.0 0.0000934 482.30432 10590.89844
15279.0 0.0000654 482.46686 14461.75195
18827.0 0.0000531 482.62762 18291.69531
17370.0 0.0000576 482.78665 16546.12305
13905.0 0.0000719 482.94394 13501.43066
14411.0 0.0000694 483.09949 14425.27930
15731.0 0.0000636 483.25336 15229.60938
16075.0 0.0000622 483.40555 15730.95215
16604.0 0.0000602 483.55588 16615.70898
12533.0 0.0000798 483.70456 12427.00586
9539.0 0.0001048 483.85147 9483.91406
9412.0 0.0001062 483.99670 9648.56445
7971.0 0.0001255 484.14023 8004.85645
5641.0 0.0001773 484.28198 6026.90234
5379.0 0.0001859 484.42209 6016.67090
6135.0 0.0001630 484.56042 7017.50098
7381.0 0.0001355 484.69702 8516.88867
9273.0 0.0001078 484.83203 10539.81934
12508.0 0.0000799 484.96515 13326.17090
17062.0 0.0000586 485.09680 17479.90820
23927.0 0.0000418 485.22656 24164.62305
29544.0 0.00003385 485.35464 31496.84375
26573.0 0.0000376 485.48108 27799.55469
18239.0 0.0000548 485.60583 17925.06836
15120.0 0.0000661 485.72882 15930.94629
12655.0 0.0000790 485.85013 13737.85156
7016.0 0.0001425 485.96976 6822.32910
2945.0 0.0003396 486.08774 3008.09717
1760.0 0.000568 486.20392 1867.37305
1439.0 0.000695 486.31851 1413.73669
1287.0 0.000777 486.43140 1177.23596
1154.0 0.000867 486.54266 1029.83765
1025.0 0.000976 486.65219 911.12695
964.0 0.001037 486.76004 836.94067
901.0 0.001110 486.86621 784.01111
827.0 0.001209 486.97073 741.79260
750.0 0.001333 487.07358 708.76471
704.0 0.001420 487.17480 682.48138
694.0 0.001441 487.27426 661.30365
676.0 0.001479 487.37216 647.27649
686.0 0.001458 487.46835 633.38281
672.0 0.001488 487.56290 622.04028
659.0 0.001517 487.65579 614.38776
634.0 0.001577 487.74716 550.23242
657.0 0.001522 487.83673 549.24969
627.0 0.001595 487.92462 549.23535
631.0 0.001585 488.01099 521.31500
643.0 0.001555 488.09567 525.87085
699.0 0.001431 488.17871 531.55511
690.0 0.001449 488.26013 538.91272
707.0 0.001414 488.33990 549.20270
703.0 0.001422 488.41812 566.73505
798.0 0.001253 488.49463 602.19769
811.0 0.001233 488.56955 664.01776
860.0 0.001163 488.64282 750.25378
981.0 0.001019 488.71457 860.16962
1087.0 0.000920 488.78467 1000.41876
1254.0 0.000797 488.85312 1176.42834
1400.0 0.000714 488.91998 1393.89392
1662.0 0.000602 488.98532 1669.08911
1973.0 0.000507 489.04889 2030.39673
2550.0 0.000392 489.11102 2520.73120
3515.0 0.0002845 489.17151 3232.67896
4638.0 0.0002156 489.23035 4348.69434
5789.0 0.0001727 489.28769 5603.99854
5209.0 0.0001920 489.34335 5207.37598
3865.0 0.0002587 489.39749 3801.15112
3664.0 0.0002729 489.45010 3667.24780
3625.0 0.0002759 489.50113 3725.80566
2984.0 0.0003351 489.55054 3040.48828
2899.0 0.0003449 489.59845 2931.08154
3279.0 0.0003050 489.64471 3498.20508
3313.0 0.0003018 489.68945 3565.20605
2403.0 0.000416 489.73260 2509.99097
1902.0 0.000526 489.77426 2035.26025
1837.0 0.000544 489.81439 2009.54407
1434.0 0.000697 489.85287 1467.20178
886.0 0.001129 489.88995 903.41833
694.0 0.001441 489.92535 695.73279
629.0 0.001590 489.95926 628.59961
634.0 0.001577 489.99170 594.82019
641.0 0.001560 490.02252 573.28387
610.0 0.001639 490.05191 558.34924
573.0 0.001745 490.07977 547.43829
535.0 0.001869 490.10611 539.14679
542.0 0.001845 490.13083 522.87579
536.0 0.001866 490.15421 518.51825
556.0 0.001799 490.17599 515.01117
559.0 0.001789 490.19626 512.14301
560.0 0.001786 490.21506 505.16779
556.0 0.001799 490.23230 503.55167
521.0 0.001919 490.24814 502.19138
534.0 0.001873 490.26248 501.03464
555.0 0.001802 490.27530 494.25421
531.0 0.001883 490.28665 493.87839
516.0 0.001938 490.29654 493.55530
515.0 0.001942 490.30496 490.29568
517.0 0.001934 490.31201 490.30270
518.0 0.001931 490.31738 490.30820
512.0 0.001953 490.32144 500.04361
516.0 0.001938 490.32401 500.71899
531.0 0.001883 490.32510 501.46609
566.0 0.001767 490.32483 506.98029
541.0 0.001848 490.32315 508.22424
527.0 0.001898 490.31982 509.61508
546.0 0.001832 490.31522 511.17682
552.0 0.001812 490.30911 512.94061
554.0 0.001805 490.30170 514.94470
546.0 0.001832 490.29272 517.23511
570.0 0.001754 490.28241 519.87360
576.0 0.001736 490.27063 522.93610
539.0 0.001855 490.25751 526.52570
568.0 0.001761 490.24292 530.77930
559.0 0.001789 490.22696 535.88074
585.0 0.001709 490.20959 542.09875
590.0 0.001695 490.19083 549.82074
638.0 0.001567 490.17065 559.66003
738.0 0.001355 490.14917 572.66150
730.0 0.001370 490.12622 591.14661
776.0 0.001289 490.10193 623.09003
823.0 0.001215 490.07632 689.48810
974.0 0.001027 490.04922 807.85834
1127.0 0.000887 490.02081 982.49567
1292.0 0.000774 489.99109 1205.67749
1592.0 0.000628 489.95999 1488.71985
1907.0 0.000524 489.92758 1848.53430
2270.0 0.000441 489.89374 2301.36279
2703.0 0.000370 489.85861 2875.26172
3545.0 0.0002821 489.82211 3625.25269
4880.0 0.0002049 489.78424 4672.78760
6780.0 0.0001475 489.74512 6300.14355
9189.0 0.0001088 489.70468 8634.84863
9628.0 0.0001039 489.66290 9522.96875
7107.0 0.0001407 489.61978 6579.54395
5103.0 0.0001960 489.57532 4831.36523
5109.0 0.0001957 489.52963 4934.45215
4084.0 0.0002449 489.48264 3887.47217
2080.0 0.000481 489.43420 1958.99487
1089.0 0.000918 489.38458 1103.13403
884.0 0.001131 489.33380 848.23682
778.0 0.001285 489.28159 759.88477
724.0 0.001381 489.22812 698.43420
705.0 0.001418 489.17328 658.76202
642.0 0.001558 489.11731 631.72314
626.0 0.001597 489.06003 622.14679
644.0 0.001553 489.00143 609.07123
626.0 0.001597 488.94168 599.78094
619.0 0.001616 488.88062 593.37268
645.0 0.001550 488.81830 589.24774
627.0 0.001595 488.75473 587.05316
584.0 0.001712 488.68994 586.51447
600.0 0.001667 488.62396 587.55078
623.0 0.001605 488.55670 590.15533
634.0 0.001577 488.48825 576.28937
629.0 0.001590 488.41849 583.91138
650.0 0.001538 488.34760 593.51276
713.0 0.001403 488.27551 596.16937
754.0 0.001326 488.20212 612.43500
797.0 0.001255 488.12756 633.21234
897.0 0.001115 488.05185 660.75031
986.0 0.001014 487.97491 700.00604
1100.0 0.000909 487.89676 767.84473
1290.0 0.000775 487.81747 908.71710
1474.0 0.000678 487.73706 1159.17175
1668.0 0.000600 487.65536 1531.86963
2151.0 0.000465 487.57254 2005.23254
2649.0 0.000378 487.48856 2607.60498
3179.0 0.0003146 487.40341 3385.72437
3952.0 0.0002530 487.31714 4381.84619
5018.0 0.0001993 487.22964 5658.99756
6990.0 0.0001431 487.14111 7356.85254
9632.0 0.0001038 487.05142 9819.06738
14333.0 0.0000698 486.96042 13709.97266
19500.0 0.0000513 486.86847 18167.58789
17354.0 0.0000576 486.77536 16639.86328
10438.0 0.0000958 486.68115 10483.44238
9093.0 0.0001100 486.58578 8914.83789
9665.0 0.0001035 486.48929 9226.20313
6365.0 0.0001571 486.39166 6115.03223
2586.0 0.000387 486.29297 2787.02734
1335.0 0.000749 486.19318 1543.44788
1018.0 0.000982 486.09229 1155.78760
856.0 0.001168 485.99026 975.47388
776.0 0.001289 485.88733 856.75189
733.0 0.001364 485.78314 772.35522
692.0 0.001445 485.67795 716.01898
652.0 0.001534 485.57162 676.32257
654.0 0.001529 485.46429 646.51434
614.0 0.001629 485.35593 623.36285
591.0 0.001692 485.24640 604.94556
569.0 0.001757 485.13589 590.02716
582.0 0.001718 485.02441 577.74701
493.0 0.002028 484.91174 567.50098
522.0 0.001916 484.79810 558.85828
507.0 0.001972 484.68347 512.82257
481.0 0.002079 484.56784 509.81473
525.0 0.001905 484.45111 507.23215
522.0 0.001916 484.33344 504.99426
510.0 0.001961 484.21466 484.42514
505.0 0.001980 484.09491 484.16943
499.0 0.002004 483.97427 484.04025
494.0 0.002024 483.85248 483.91122
534.0 0.001873 483.72971 483.78229
508.0 0.001969 483.60602 483.59805
468.0 0.002137 483.48132 483.47336
463.0 0.002160 483.35568 483.34766
462.0 0.002165 483.22903 483.22107
475.0 0.002105 483.10144 483.09348
470.0 0.002128 482.97287 482.96494
463.0 0.002160 482.84329 482.83536
500.0 0.002000 482.71283 482.70496
498.0 0.002008 482.58148 482.57358
480.0 0.002083 482.44904 482.44110
474.0 0.002110 482.31570 482.30792
488.0 0.002049 482.18149 482.17361
457.0 0.002188 482.04633 482.03845
483.0 0.002070 481.91025 481.90240
473.0 0.002114 481.77322 481.76541
476.0 0.002101 481.63528 481.62747
491.0 0.002037 481.49649 481.48874
470.0 0.002128 481.35672 481.34903
477.0 0.002096 481.21609 481.20837
462.0 0.002165 481.07449 481.06680
462.0 0.002165 480.93219 480.92447
459.0 0.002179 480.78885 480.78116
489.0 0.002045 480.64471 480.63705
494.0 0.002024 480.49966 480.49197
491.0 0.002037 480.35367 480.34604
461.0 0.002169 480.20697 480.19931
474.0 0.002110 480.05933 480.05167
455.0 0.002198 479.91080 479.90323
460.0 0.002174 479.76154 479.75391
462.0 0.002165 479.61124 479.60367
443.0 0.002257 479.46021 479.45267
452.0 0.002212 479.30832 479.30087
464.0 0.002155 479.15573 479.14816
418.0 0.002392 479.00220 478.99469
482.0 0.002075 478.84787 485.45718
486.0 0.002058 478.69266 485.74411
466.0 0.002146 478.53671 486.07645
440.0 0.002273 478.37994 486.46091
512.0 0.001953 478.22241 490.22601
479.0 0.002088 478.06400 490.96344
477.0 0.002096 477.90488 491.80545
445.0 0.002247 477.74487 492.77008
463.0 0.002160 477.58417 493.87842
472.0 0.002119 477.42270 495.15747
479.0 0.002088 477.26044 496.64053
482.0 0.002075 477.09744 498.36859
501.0 0.001996 476.93359 500.39612
494.0 0.002024 476.76907 502.79144
508.0 0.001969 476.60379 505.64758
551.0 0.001815 476.43762 509.08960
540.0 0.001852 476.27094 513.28760
545.0 0.001835 476.10330 518.49219
567.0 0.001764 475.93518 525.07068
551.0 0.001815 475.76614 533.61255
579.0 0.001727 475.59644 545.14771
669.0 0.001495 475.42599 562.10010
714.0 0.001401 475.25491 592.65112
814.0 0.001229 475.08304 656.03058
948.0 0.001055 474.91055 764.70453
1081.0 0.000925 474.73727 923.10614
1183.0 0.000845 474.56332 1130.45227
1393.0 0.000718 474.38873 1391.13074
1730.0 0.000578 474.21341 1731.90576
2198.0 0.000455 474.03745 2182.69531
2843.0 0.000352 473.86075 2792.25635
3833.0 0.0002609 473.68341 3672.35229
5672.0 0.0001763 473.50537 5052.31250
7328.0 0.0001365 473.32684 6623.36475
6412.0 0.0001560 473.14755 6099.41016
4206.0 0.0002378 472.96759 3898.67969
3497.0 0.0002860 472.78696 3276.20972
3751.0 0.0002666 472.60571 3553.33154
2947.0 0.0003393 472.42389 2832.74146
1617.0 0.000618 472.24142 1511.64758
943.0 0.001060 472.05820 924.32465
718.0 0.001393 471.87445 746.93512
633.0 0.001580 471.69009 673.51965
598.0 0.001672 471.50519 632.30493
593.0 0.001686 471.31964 607.35095
602.0 0.001661 471.13339 592.53284
570.0 0.001754 470.94666 585.24976
580.0 0.001724 470.75928 585.51978
657.0 0.001522 470.57129 598.55121
673.0 0.001486 470.38281 636.14191
702.0 0.001425 470.19363 703.66547
866.0 0.001155 470.00406 801.48999
961.0 0.001041 469.81375 929.87177
1118.0 0.000894 469.62292 1095.26868
1319.0 0.000758 469.43164 1301.37537
1608.0 0.000622 469.23965 1599.51184
2046.0 0.000489 469.04721 2012.01282
2839.0 0.000352 468.85413 2634.26196
3894.0 0.0002568 468.66071 3556.96289
4462.0 0.0002241 468.46652 4181.06250
3401.0 0.0002940 468.27191 3177.75879
2250.0 0.000444 468.07678 2185.03101
2243.0 0.000446 467.88110 2152.26685
2316.0 0.000432 467.68494 2235.88159
1657.0 0.000604 467.48822 1554.11145
944.0 0.001059 467.29099 913.47070
659.0 0.001517 467.09332 684.00281
586.0 0.001706 466.89514 610.64087
561.0 0.001783 466.69653 575.60956
508.0 0.001969 466.49731 555.00366
509.0 0.001965 466.29761 542.36865
511.0 0.001957 466.09750 535.05548
503.0 0.001988 465.89685 532.54279
563.0 0.001776 465.69580 537.01166
562.0 0.001779 465.49432 551.58490
572.0 0.001748 465.29221 577.19641
589.0 0.001698 465.08981 611.96259
607.0 0.001647 464.88684 659.10315
676.0 0.001479 464.68359 723.11444
755.0 0.001325 464.47980 808.61200
886.0 0.001129 464.27545 916.90497
1098.0 0.000911 464.07089 1089.15247
1362.0 0.000734 463.86578 1360.73059
1599.0 0.000625 463.66031 1668.02075
1560.0 0.000641 463.45432 1579.05078
1271.0 0.000787 463.24792 1225.71692
1171.0 0.000854 463.04129 1182.82397
1245.0 0.000803 462.83405 1330.01465
1251.0 0.000799 462.62653 1338.93750
1184.0 0.000845 462.41855 1244.65369
1277.0 0.000783 462.21017 1344.19897
1577.0 0.000634 462.00153 1646.94531
2088.0 0.000479 461.79233 2100.87524
2130.0 0.000469 461.58292 2233.82373
1541.0 0.000649 461.37308 1620.79468
1207.0 0.000829 461.16272 1255.16650
1267.0 0.000789 460.95221 1299.96887
1197.0 0.000835 460.74121 1297.84534
902.0 0.001109 460.52994 929.46533
617.0 0.001621 460.31836 653.41479
497.0 0.002012 460.10626 559.49774
474.0 0.002110 459.89392 526.82623
484.0 0.002066 459.68124 509.57898
427.0 0.002342 459.46826 498.56076
410.0 0.002439 459.25494 488.31143
423.0 0.002364 459.04117 482.96609
440.0 0.002273 458.82721 478.92569
445.0 0.002247 458.61292 475.76755
434.0 0.002304 458.39832 471.92578
428.0 0.002336 458.18338 469.95917
419.0 0.002387 457.96811 468.31808
422.0 0.002370 457.75269 466.92596
409.0 0.002445 457.53680 465.72632
393.0 0.002545 457.32077 464.67920
389.0 0.002571 457.10437 459.93750
418.0 0.002392 456.88770 459.43198
417.0 0.002398 456.67075 458.96851
391.0 0.002558 456.45346 458.53888
406.0 0.002463 456.23611 456.23053
424.0 0.002358 456.01837 456.01282
394.0 0.002538 455.80026 455.79471
397.0 0.002519 455.58206 455.57651
402.0 0.002488 455.36353 455.35800
398.0 0.002513 455.14490 455.13931
408.0 0.002451 454.92581 454.92035
416.0 0.002404 454.70657 454.70111
417.0 0.002398 454.48715 454.48175
445.0 0.002247 454.26743 454.26199
427.0 0.002342 454.04755 454.04205
428.0 0.002336 453.82739 453.82199
420.0 0.002381 453.60699 453.60165
418.0 0.002392 453.38647 453.38110
428.0 0.002336 453.16568 453.16031
431.0 0.002320 452.94473 452.93945
419.0 0.002387 452.72357 452.71829
439.0 0.002278 452.50217 452.49686
432.0 0.002315 452.28064 452.27539
432.0 0.002315 452.05887 452.05359
447.0 0.002237 451.83694 451.83176
437.0 0.002288 451.61487 451.60968
426.0 0.002347 451.39258 451.38730
416.0 0.002404 451.17014 451.16498
435.0 0.002299 450.94748 450.94229
439.0 0.002278 450.72473 450.71957
424.0 0.002358 450.50180 450.49664
413.0 0.002421 450.27866 450.27347
394.0 0.002538 450.05548 450.05035
407.0 0.002457 449.83209 449.82693
416.0 0.002404 449.60855 449.60349
456.0 0.002193 449.38489 454.81439
456.0 0.002193 449.16110 454.94464
463.0 0.002160 448.93719 455.11057
430.0 0.002326 448.71313 455.31747
438.0 0.002283 448.48898 459.12668
462.0 0.002165 448.26465 462.50726
478.0 0.002092 448.04022 463.33176
450.0 0.002222 447.81573 464.27740
432.0 0.002315 447.59109 469.24786
438.0 0.002283 447.36639 470.75894
462.0 0.002165 447.14160 472.49265
469.0 0.002132 446.91660 474.48987
467.0 0.002141 446.69162 477.84830
499.0 0.002004 446.46649 480.60626
457.0 0.002188 446.24136 483.83066
495.0 0.002020 446.01617 487.63068
485.0 0.002062 445.79074 492.14996
528.0 0.001894 445.56540 497.57883
555.0 0.001802 445.33990 504.18967
549.0 0.001821 445.11438 512.36560
550.0 0.001818 444.88885 522.69159
613.0 0.001631 444.66318 536.10327
631.0 0.001585 444.43747 554.31055
687.0 0.001456 444.21170 581.91351
728.0 0.001374 443.98596 632.53180
869.0 0.001151 443.76016 728.03870
959.0 0.001043 443.53424 877.88873
1152.0 0.000868 443.30838 1089.91113
1416.0 0.000706 443.08249 1388.51636
1755.0 0.000570 442.85657 1796.42932
2297.0 0.000435 442.63062 2350.70093
3037.0 0.0003293 442.40457 3135.57471
4354.0 0.0002297 442.17859 4315.69678
5889.0 0.0001698 441.95255 5986.30762
6594.0 0.0001517 441.72662 7074.75146
5856.0 0.0001708 441.50055 6098.28125
5804.0 0.0001723 441.27454 5776.88281
6253.0 0.0001599 441.04855 6342.03955
5768.0 0.0001734 440.82254 5819.33838
4638.0 0.0002156 440.59659 4585.00732
4399.0 0.0002273 440.37057 4046.05396
4489.0 0.0002228 440.14462 4266.21777
3515.0 0.0002845 439.91873 3375.05713
2167.0 0.000461 439.69278 2023.60388
1697.0 0.000589 439.46698 1567.01477
1708.0 0.000585 439.24106 1590.72534
1559.0 0.000641 439.01520 1453.65845
1066.0 0.000938 438.78955 995.27509
691.0 0.001447 438.56378 723.04944
589.0 0.001698 438.33820 626.04614
545.0 0.001835 438.11261 583.50031
523.0 0.001912 437.88696 557.50043
520.0 0.001923 437.66147 539.62781
505.0 0.001980 437.43600 526.70203
502.0 0.001992 437.21066 517.09399
475.0 0.002105 436.98538 498.29288
468.0 0.002137 436.76007 493.85333
475.0 0.002105 436.53497 490.75937
470.0 0.002128 436.30988 481.70724
490.0 0.002041 436.08487 475.53561
487.0 0.002053 435.85999 476.77353
513.0 0.001949 435.63513 480.69662
517.0 0.001934 435.41043 476.13977
513.0 0.001949 435.18576 482.17520
536.0 0.001866 434.96130 490.52505
565.0 0.001770 434.73685 503.57712
662.0 0.001511 434.51248 524.78027
681.0 0.001468 434.28830 566.27545
746.0 0.001340 434.06418 646.49866
801.0 0.001248 433.84021 769.04358
886.0 0.001129 433.61642 927.85211
1107.0 0.000903 433.39261 1144.37622
1392.0 0.000718 433.16904 1436.08899
1817.0 0.000550 432.94553 1838.13098
2456.0 0.000407 432.72223 2443.91797
3542.0 0.0002823 432.49899 3376.97729
4469.0 0.0002238 432.27579 4297.75342
3737.0 0.0002676 432.05298 3706.68628
2266.0 0.000441 431.83017 2366.00073
1926.0 0.000519 431.60754 2020.95337
2337.0 0.000428 431.38510 2282.72900
2141.0 0.000467 431.16269 2213.39063
1362.0 0.000734 430.94058 1384.59131
801.0 0.001248 430.71851 846.37036
648.0 0.001543 430.49670 677.72351
607.0 0.001647 430.27499 637.47290
646.0 0.001548 430.05350 642.05096
650.0 0.001538 429.83221 676.30304
692.0 0.001445 429.61099 735.00262
787.0 0.001271 429.39005 820.25842
906.0 0.001104 429.16925 946.87970
1045.0 0.000957 428.94864 1139.86670
1386.0 0.000722 428.72827 1441.93945
1740.0 0.000575 428.50793 1817.69336
1710.0 0.000585 428.28806 1809.38135
1287.0 0.000777 428.06821 1291.41113
1008.0 0.000992 427.84854 1056.93262
1067.0 0.000937 427.62912 1111.98718
1164.0 0.000859 427.40988 1181.00073
998.0 0.001002 427.19092 947.77222
805.0 0.001242 426.97220 714.50366
766.0 0.001305 426.75348 662.70544
810.0 0.001235 426.53519 723.69342
882.0 0.001134 426.31705 851.12286
1005.0 0.000995 426.09915 1024.97253
1232.0 0.000812 425.88150 1265.95972
1593.0 0.000628 425.66400 1604.98157
2192.0 0.000456 425.44687 2087.00830
3102.0 0.0003224 425.22980 2830.36768
4167.0 0.0002400 425.01321 3915.80688
4500.0 0.0002222 424.79669 4580.77393
3460.0 0.0002890 424.58032 3384.32715
2330.0 0.000429 424.36438 2224.84326
2203.0 0.000454 424.14865 2125.32813
2475.0 0.000404 423.93320 2439.67163
2173.0 0.000460 423.71799 2142.23901
1372.0 0.000729 423.50284 1244.78638
804.0 0.001244 423.28824 776.93774
602.0 0.001661 423.07379 630.04718
569.0 0.001757 422.85965 575.09265
560.0 0.001786 422.64572 551.48950
545.0 0.001835 422.43207 539.32764
490.0 0.002041 422.21875 517.44458
512.0 0.001953 422.00568 492.32703
486.0 0.002058 421.79285 480.43552
444.0 0.002252 421.58038 476.86716
444.0 0.002252 421.36816 471.85104
419.0 0.002387 421.15622 459.15118
424.0 0.002358 420.94449 449.42419
383.0 0.002611 420.73322 444.36267
395.0 0.002532 420.52219 430.53656
390.0 0.002564 420.31134 428.97552
384.0 0.002604 420.10095 427.71536
385.0 0.002597 419.89081 426.65643
370.0 0.002703 419.68097 425.74390
397.0 0.002519 419.47144 419.91495
394.0 0.002538 419.26221 419.63858
386.0 0.002591 419.05334 419.37708
388.0 0.002577 418.84467 419.12634
439.0 0.002278 418.63654 418.88379
376.0 0.002660 418.42859 418.64755
437.0 0.002288 418.22089 418.41623
426.0 0.002347 418.01367 418.08960
414.0 0.002415 417.80667 417.87405
389.0 0.002571 417.60004 417.66028
402.0 0.002488 417.39380 417.44791
396.0 0.002525 417.18777 417.18475
385.0 0.002597 416.98224 416.97913
426.0 0.002347 416.77698 416.77386
360.0 0.002778 416.57202 416.56900
369.0 0.002710 416.36743 416.36444
385.0 0.002597 416.16321 416.16013
380.0 0.002632 415.95941 415.95636
362.0 0.002762 415.75583 415.75281
381.0 0.002625 415.55273 415.54971
378.0 0.002646 415.34995 415.34695
386.0 0.002591 415.14740 415.14447
350.0 0.002857 414.94540 414.94235
373.0 0.002681 414.74371 414.74069
382.0 0.002618 414.54236 414.53937
358.0 0.002793 414.34134 414.33844
366.0 0.002732 414.14075 414.13785
371.0 0.002695 413.94052 413.93765
380.0 0.002632 413.74069 413.73776
375.0 0.002667 413.54132 413.53833
389.0 0.002571 413.34216 413.33929
400.0 0.002500 413.14343 413.14056
400.0 0.002500 412.94513 412.94223
379.0 0.002639 412.74719 412.74429
359.0 0.002786 412.54968 412.54678
366.0 0.002732 412.35260 412.34964
364.0 0.002747 412.15579 412.15292
383.0 0.002611 411.95950 411.95667
383.0 0.002611 411.76343 411.76068
377.0 0.002653 411.56796 411.56512
380.0 0.002632 411.37280 411.37006
370.0 0.002703 411.17804 411.17526
406.0 0.002463 410.98373 410.98087
379.0 0.002639 410.78986 410.78699
378.0 0.002646 410.59628 410.59357
380.0 0.002632 410.40323 410.40042
354.0 0.002825 410.21045 410.20767
357.0 0.002801 410.01828 410.01550
367.0 0.002725 409.82635 409.82364
372.0 0.002688 409.63501 409.63223
393.0 0.002545 409.44400 409.44122
408.0 0.002451 409.25336 409.25067
389.0 0.002571 409.06323 409.06055
382.0 0.002618 408.87350 408.87079
403.0 0.002481 408.68423 408.68158
384.0 0.002604 408.49539 408.49271
376.0 0.002660 408.30698 408.30426
408.0 0.002451 408.11896 408.11636
405.0 0.002469 407.93149 407.92877
403.0 0.002481 407.74438 407.74173
408.0 0.002451 407.55768 407.55511
347.0 0.002882 407.37149 407.36884
418.0 0.002392 407.18570 407.18307
369.0 0.002710 407.00037 406.99774
389.0 0.002571 406.81555 406.81302
401.0 0.002494 406.63113 406.62857
390.0 0.002564 406.44711 406.44455
392.0 0.002551 406.26370 406.26114
405.0 0.002469 406.08063 406.07803
375.0 0.002667 405.89801 405.89548
413.0 0.002421 405.71588 405.71335
392.0 0.002551 405.53421 407.51468
415.0 0.002410 405.35297 407.46103
399.0 0.002506 405.17224 407.42072
391.0 0.002558 404.99203 407.39542
388.0 0.002577 404.81219 407.38721
398.0 0.002513 404.63281 408.39749
403.0 0.002481 404.45401 408.49609
397.0 0.002519 404.27557 408.62747
384.0 0.002604 404.09775 408.79660
394.0 0.002538 403.92032 409.01004
441.0 0.002268 403.74335 409.27567
430.0 0.002326 403.56689 417.59750
409.0 0.002445 403.39090 418.51993
398.0 0.002513 403.21542 419.58392
392.0 0.002551 403.04041 420.81711
384.0 0.002604 402.86578 422.25388
404.0 0.002475 402.69183 427.95804
435.0 0.002299 402.51822 430.21075
444.0 0.002252 402.34528 432.87274
431.0 0.002320 402.17270 439.53336
432.0 0.002315 402.00061 443.62308
420.0 0.002381 401.82901 448.64597
445.0 0.002247 401.65793 454.97531
477.0 0.002096 401.48740 463.25342
495.0 0.002020 401.31729 476.75162
515.0 0.001942 401.14774 497.86069
562.0 0.001779 400.97864 535.57758
621.0 0.001610 400.81006 596.13257
679.0 0.001473 400.64206 686.14417
781.0 0.001280 400.47449 802.83160
976.0 0.001025 400.30743 960.75330
1286.0 0.000778 400.14096 1191.57666
1623.0 0.000616 399.97491 1547.76758
2199.0 0.000455 399.80942 2052.80859
2434.0 0.000411 399.64444 2331.05542
1997.0 0.000501 399.47992 1814.10681
1557.0 0.000642 399.31607 1411.47449
1654.0 0.000605 399.15256 1530.28040
1989.0 0.000503 398.98969 1946.36646
2283.0 0.000438 398.82730 2311.35156
2236.0 0.000447 398.66537 2437.99512
2567.0 0.000390 398.50409 2855.40869
3570.0 0.0002801 398.34320 3790.31689
5064.0 0.0001975 398.18298 5377.06396
7009.0 0.0001427 398.02325 7258.49512
6583.0 0.0001519 397.86395 7010.77588
4004.0 0.0002498 397.70529 4502.65479
3102.0 0.0003224 397.54709 3504.66089
3738.0 0.0002675 397.38953 3975.41650
4714.0 0.0002121 397.23239 4863.28223
4508.0 0.0002218 397.07578 4661.32910
3918.0 0.0002552 396.91980 3890.91113
4117.0 0.0002429 396.76431 4006.87476
3802.0 0.0002630 396.60938 3681.77319
2424.0 0.000413 396.45496 2530.07080
1920.0 0.000521 396.30099 2100.43164
2330.0 0.000429 396.14777 2370.93628
2941.0 0.0003400 395.99493 2867.48706
2699.0 0.000371 395.84271 2645.63696
1604.0 0.000623 395.69104 1641.12366
1022.0 0.000978 395.53976 1082.27747
852.0 0.001174 395.38922 965.45728
954.0 0.001048 395.23914 1001.61975
869.0 0.001151 395.08972 946.85773
701.0 0.001427 394.94073 719.96014
572.0 0.001748 394.79233 572.42731
511.0 0.001957 394.64450 515.62134
441.0 0.002268 394.49710 489.94250
453.0 0.002208 394.35043 472.72598
448.0 0.002232 394.20432 461.35104
429.0 0.002331 394.05862 452.78659
437.0 0.002288 393.91364 446.11945
467.0 0.002141 393.76904 440.81818
416.0 0.002404 393.62509 436.57050
386.0 0.002591 393.48169 424.18222
404.0 0.002475 393.33887 422.15091
398.0 0.002513 393.19669 420.90872
403.0 0.002481 393.05490 423.25406
430.0 0.002326 392.91379 425.87646
410.0 0.002439 392.77325 427.59961
415.0 0.002410 392.63315 438.34222
444.0 0.002252 392.49374 453.01340
453.0 0.002208 392.35486 471.75412
469.0 0.002132 392.21655 502.84094
527.0 0.001898 392.07892 551.58862
556.0 0.001799 391.94168 621.16937
545.0 0.001835 391.80511 655.35474
496.0 0.002016 391.66910 572.74341
471.0 0.002123 391.53366 502.11536
462.0 0.002165 391.39880 494.52420
514.0 0.001946 391.26443 517.24615
507.0 0.001972 391.13077 524.47272
439.0 0.002278 390.99756 475.59695
436.0 0.002294 390.86502 433.85104
430.0 0.002326 390.73303 419.57333
409.0 0.002445 390.60156 415.92755
412.0 0.002427 390.47076 415.47665
442.0 0.002262 390.34048 416.68713
440.0 0.002273 390.21078 419.32465
439.0 0.002278 390.08173 425.08023
446.0 0.002242 389.95316 431.72052
514.0 0.001946 389.82523 442.48203
516.0 0.001938 389.69791 463.22885
541.0 0.001848 389.57111 507.88226
562.0 0.001779 389.44501 578.90759
650.0 0.001538 389.31937 687.86658
803.0 0.001245 389.19437 828.01758
962.0 0.001040 389.06985 1027.06946
1425.0 0.000702 388.94611 1331.02197
2002.0 0.000500 388.82278 1799.59155
2449.0 0.000408 388.70010 2335.68115
2277.0 0.000439 388.57809 2220.15381
1417.0 0.000706 388.45654 1463.87146
1114.0 0.000898 388.33560 1132.73853
1211.0 0.000826 388.21533 1197.83704
1448.0 0.000691 388.09558 1387.64258
1303.0 0.000767 387.97647 1280.18127
866.0 0.001155 387.85794 843.59039
558.0 0.001792 387.73999 596.07617
488.0 0.002049 387.62262 514.81506
491.0 0.002037 387.50580 486.03198
462.0 0.002165 387.38968 473.02493
483.0 0.002070 387.27408 469.24390
508.0 0.001969 387.15909 473.20572
540.0 0.001852 387.04477 485.74265
571.0 0.001751 386.93094 515.77258
611.0 0.001637 386.81769 566.64294
699.0 0.001431 386.70511 647.34357
803.0 0.001245 386.59317 762.21136
998.0 0.001002 386.48169 935.67627
1260.0 0.000794 386.37088 1207.50708
1618.0 0.000618 386.26065 1619.63318
1953.0 0.000512 386.15100 2048.46216
1993.0 0.000502 386.04193 2021.09106
1918.0 0.000521 385.93359 1859.88757
2263.0 0.000442 385.82571 2141.78735
2529.0 0.000395 385.71851 2519.44019
2203.0 0.000454 385.61188 2223.37109
1582.0 0.000632 385.50586 1598.08093
1217.0 0.000822 385.40039 1218.73364
1232.0 0.000812 385.29559 1203.00183
1284.0 0.000779 385.19141 1282.54517
1115.0 0.000897 385.08774 1056.35205
817.0 0.001224 384.98474 749.78741
638.0 0.001567 384.88232 645.15393
632.0 0.001582 384.78046 658.65924
709.0 0.001410 384.67923 724.50629
811.0 0.001233 384.57858 838.08936
1027.0 0.000974 384.47864 1015.93665
1334.0 0.000750 384.37918 1307.20972
1713.0 0.000584 384.28033 1693.70557
1711.0 0.000584 384.18213 1783.94653
1314.0 0.000761 384.08450 1386.49951
1119.0 0.000894 383.98758 1216.68262
1359.0 0.000736 383.89111 1373.37183
1746.0 0.000573 383.79529 1742.81860
2236.0 0.000447 383.70013 2112.11206
2101.0 0.000476 383.60553 2044.59656
1362.0 0.000734 383.51154 1443.05762
944.0 0.001059 383.41815 991.25745
818.0 0.001222 383.32541 902.50031
1018.0 0.000982 383.23322 994.01459
1005.0 0.000995 383.14163 1068.18726
876.0 0.001142 383.05069 863.49774
563.0 0.001776 382.96030 609.44183
462.0 0.002165 382.87054 501.04935
450.0 0.002222 382.78137 461.79153
434.0 0.002304 382.69284 443.89197
391.0 0.002558 382.60486 433.98288
398.0 0.002513 382.51755 427.86963
433.0 0.002309 382.43076 424.17017
438.0 0.002283 382.34467 421.21622
409.0 0.002445 382.25909 420.94653
433.0 0.002309 382.17422 422.28275
465.0 0.002151 382.08987 425.54971
432.0 0.002315 382.00613 431.68747
484.0 0.002066 381.92300 443.74286
528.0 0.001894 381.84055 469.89386
537.0 0.001862 381.75867 519.80139
591.0 0.001692 381.67737 598.67261
698.0 0.001433 381.59662 706.07965
843.0 0.001186 381.51654 862.09857
1117.0 0.000895 381.43707 1091.99976
1532.0 0.000653 381.35812 1452.47693
1913.0 0.000523 381.27994 1883.64758
1799.0 0.000556 381.20224 1853.21204
1230.0 0.000813 381.12515 1252.57251
878.0 0.001139 381.04871 946.91730
943.0 0.001060 380.97284 966.83386
1107.0 0.000903 380.89755 1123.74023
1110.0 0.000901 380.82288 1144.16882
872.0 0.001147 380.74887 819.44208
567.0 0.001764 380.67542 567.66644
465.0 0.002151 380.60257 474.78165
429.0 0.002331 380.53033 441.68356
426.0 0.002347 380.45868 424.90735
412.0 0.002427 380.38766 414.50293
377.0 0.002653 380.31723 407.47897
398.0 0.002513 380.24734 402.47125
401.0 0.002494 380.17807 398.74780
371.0 0.002695 380.10941 395.88760
380.0 0.002632 380.04147 395.03299
389.0 0.002571 379.97397 393.30710
373.0 0.002681 379.90714 391.91687
373.0 0.002681 379.84097 390.78528
394.0 0.002538 379.77527 389.85834
400.0 0.002500 379.71033 389.77988
406.0 0.002463 379.64584 389.20087
391.0 0.002558 379.58200 388.74390
400.0 0.002500 379.51877 388.39484
399.0 0.002506 379.45618 388.14426
391.0 0.002558 379.39404 394.61243
401.0 0.002494 379.33264 394.97946
410.0 0.002439 379.27185 395.48285
414.0 0.002415 379.21155 396.13406
417.0 0.002398 379.15186 394.91891
378.0 0.002646 379.09280 399.26767
386.0 0.002591 379.03436 400.80893
435.0 0.002299 378.97653 402.62012
389.0 0.002571 378.91928 404.76257
404.0 0.002475 378.86255 406.29373
362.0 0.002762 378.80655 409.44324
372.0 0.002688 378.75107 413.28696
442.0 0.002262 378.69620 418.08032
456.0 0.002193 378.64191 424.24564
444.0 0.002252 378.58813 432.59488
500.0 0.002000 378.53506 445.70288
531.0 0.001883 378.48254 468.78305
541.0 0.001848 378.43063 510.53650
558.0 0.001792 378.37924 573.08868
701.0 0.001427 378.32855 666.12549
791.0 0.001264 378.27838 792.75098
977.0 0.001024 378.22882 977.05951
1375.0 0.000727 378.17987 1267.86169
1761.0 0.000568 378.13144 1594.63623
1745.0 0.000573 378.08365 1553.91418
1266.0 0.000790 378.03644 1167.45886
1143.0 0.000875 377.98990 1075.51636
1356.0 0.000737 377.94385 1295.27551
1625.0 0.000615 377.89838 1718.47681
2132.0 0.000469 377.85345 2174.55054
2599.0 0.000385 377.80927 2571.40942
3455.0 0.0002894 377.76559 3306.45581
4860.0 0.0002058 377.72244 4636.72656
5607.0 0.0001783 377.67990 5774.66943
4492.0 0.0002226 377.63809 4625.67188
2598.0 0.000385 377.59668 2759.72900
1988.0 0.000503 377.55585 2189.23511
2435.0 0.000411 377.51575 2473.71094
3000.0 0.0003333 377.47607 3024.03125
2761.0 0.000362 377.43707 2822.33032
1756.0 0.000569 377.39868 1661.48108
990.0 0.001010 377.36078 956.78229
685.0 0.001460 377.32349 720.15387
600.0 0.001667 377.28677 646.19458
608.0 0.001645 377.25064 623.60577
636.0 0.001572 377.21509 634.44421
707.0 0.001414 377.18011 679.79883
745.0 0.001342 377.14569 752.68372
758.0 0.001319 377.11188 770.59265
668.0 0.001497 377.07858 667.49243
590.0 0.001695 377.04593 611.36591
613.0 0.001631 377.01382 637.98596
705.0 0.001418 376.98233 718.02374
783.0 0.001277 376.95132 821.26764
914.0 0.001094 376.92090 904.87201
1004.0 0.000996 376.89108 1038.33447
1090.0 0.000917 376.86188 1192.68262
1020.0 0.000980 376.83316 1094.58582
866.0 0.001155 376.80508 932.71899
957.0 0.001045 376.77750 973.93500
1151.0 0.000869 376.75052 1181.94275
1533.0 0.000652 376.72412 1517.68323
1699.0 0.000589 376.69824 1719.16711
1320.0 0.000758 376.67303 1344.54895
821.0 0.001218 376.64825 895.95715
691.0 0.001447 376.62408 753.48315
759.0 0.001318 376.60049 791.81946
938.0 0.001066 376.57748 891.22327
882.0 0.001134 376.55493 862.59290
650.0 0.001538 376.53305 642.04071
526.0 0.001901 376.51169 496.24957
476.0 0.002101 376.49094 442.97672
381.0 0.002625 376.47067 422.39404
414.0 0.002415 376.45099 411.21384
437.0 0.002288 376.43192 404.00381
398.0 0.002513 376.41324 398.99182
402.0 0.002488 376.39529 395.32401
379.0 0.002639 376.37784 392.53735
394.0 0.002538 376.36090 389.95078
380.0 0.002632 376.34454 388.22775
384.0 0.002604 376.32870 386.82349
386.0 0.002591 376.31348 385.65997
379.0 0.002639 376.29877 384.68338
357.0 0.002801 376.28461 383.83835
390.0 0.002564 376.27097 383.15146
370.0 0.002703 376.25787 381.56033
386.0 0.002591 376.24542 381.11282
374.0 0.002674 376.23340 380.72549
377.0 0.002653 376.22198 380.38861
356.0 0.002809 376.21106 380.19257
367.0 0.002725 376.20074 379.94223
358.0 0.002793 376.19095 377.75137
385.0 0.002597 376.18170 377.68988
366.0 0.002732 376.17288 377.64328
345.0 0.002899 376.16476 377.61087
347.0 0.002882 376.15714 377.59250
360.0 0.002778 376.15005 377.58844
370.0 0.002703 376.14340 376.88162
381.0 0.002625 376.13739 376.95407
397.0 0.002519 376.13190 377.04050
398.0 0.002513 376.12692 377.14435
364.0 0.002747 376.12247 377.26996
385.0 0.002597 376.11856 377.95798
392.0 0.002551 376.11517 378.18185
382.0 0.002618 376.11234 378.45813
378.0 0.002646 376.11002 378.80545
370.0 0.002703 376.10822 379.25363
383.0 0.002611 376.10693 379.85107
401.0 0.002494 376.10620 380.96030
379.0 0.002639 376.10596 382.27875
393.0 0.002545 376.10629 384.71603
404.0 0.002475 376.10715 389.58307
374.0 0.002674 376.10849 398.99365
414.0 0.002415 376.11026 411.68396
459.0 0.002179 376.11270 429.00323
451.0 0.002217 376.11557 455.03583
500.0 0.002000 376.11902 495.29962
592.0 0.001689 376.12296 538.56299
587.0 0.001704 376.12744 526.00775
471.0 0.002123 376.13242 464.17804
437.0 0.002288 376.13788 436.67352
454.0 0.002203 376.14386 439.35413
448.0 0.002232 376.15039 456.68472
462.0 0.002165 376.15738 468.51328
448.0 0.002232 376.16486 443.70163
416.0 0.002404 376.17294 414.07321
396.0 0.002525 376.18152 402.99902
389.0 0.002571 376.19052 401.44125
392.0 0.002551 376.20010 404.11304
410.0 0.002439 376.21008 411.69946
462.0 0.002165 376.22067 427.56912
447.0 0.002237 376.23169 453.31442
484.0 0.002066 376.24329 492.39706
556.0 0.001799 376.25528 548.31091
628.0 0.001592 376.26788 632.52356
778.0 0.001285 376.28094 756.07367
878.0 0.001139 376.29449 848.10144
770.0 0.001299 376.30853 743.59222
653.0 0.001531 376.32306 610.60687
595.0 0.001681 376.33804 598.50732
674.0 0.001484 376.35358 672.51544
812.0 0.001232 376.36957 803.15277
914.0 0.001094 376.38611 921.04437
971.0 0.001030 376.40302 1007.89758
1176.0 0.000850 376.42050 1200.64404
1394.0 0.000717 376.43845 1460.54321
1362.0 0.000734 376.45691 1366.37000
939.0 0.001065 376.47586 952.15717
710.0 0.001408 376.49524 760.01080
739.0 0.001353 376.51508 781.48889
893.0 0.001120 376.53546 907.95001
1020.0 0.000980 376.55627 1018.47076
977.0 0.001024 376.57764 909.83502
815.0 0.001227 376.59940 756.41583
734.0 0.001362 376.62167 709.05194
655.0 0.001527 376.64438 620.71405
547.0 0.001828 376.66766 523.93475
510.0 0.001961 376.69128 486.54709
493.0 0.002028 376.71548 490.57886
500.0 0.002000 376.74008 513.44659
541.0 0.001848 376.76523 519.74548
524.0 0.001908 376.79074 471.68640
470.0 0.002128 376.81680 429.87006
428.0 0.002336 376.84329 412.06067
405.0 0.002469 376.87021 405.55200
395.0 0.002532 376.89761 401.78534
403.0 0.002481 376.92548 400.14362
388.0 0.002577 376.95386 399.34326
394.0 0.002538 376.98257 399.14166
401.0 0.002494 377.01181 399.42542
404.0 0.002475 377.04156 400.14899
426.0 0.002347 377.07172 400.98648
466.0 0.002146 377.10226 403.26871
442.0 0.002262 377.13333 405.51498
414.0 0.002415 377.16483 408.43277
442.0 0.002262 377.19687 410.61972
458.0 0.002183 377.22925 415.62430
454.0 0.002203 377.26205 422.18640
470.0 0.002128 377.29538 431.32874
486.0 0.002058 377.32910 443.67844
513.0 0.001949 377.36325 462.08148
574.0 0.001742 377.39789 493.07819
638.0 0.001567 377.43301 557.51691
755.0 0.001325 377.46848 679.97083
928.0 0.001078 377.50446 868.18817
1154.0 0.000867 377.54080 1163.78418
1761.0 0.000568 377.57758 1582.69238
2411.0 0.000415 377.61484 2225.71313
3424.0 0.0002921 377.65253 3039.41895
3558.0 0.0002811 377.69061 3163.59619
2161.0 0.000463 377.72916 2092.31738
1357.0 0.000737 377.76810 1384.50403
1264.0 0.000791 377.80756 1296.08154
1578.0 0.000634 377.84732 1522.39661
1948.0 0.000513 377.88760 1839.49268
1851.0 0.000540 377.92825 1701.02820
1173.0 0.000853 377.96936 1076.71045
738.0 0.001355 378.01083 703.42621
591.0 0.001692 378.05276 573.93042
545.0 0.001835 378.09512 532.60388
550.0 0.001818 378.13788 525.75769
546.0 0.001832 378.18100 540.71674
616.0 0.001623 378.22458 580.24152
658.0 0.001520 378.26855 643.93256
795.0 0.001258 378.31296 748.72809
990.0 0.001010 378.35785 886.03308
1020.0 0.000980 378.40302 910.37305
791.0 0.001264 378.44861 728.77441
647.0 0.001546 378.49466 607.61090
637.0 0.001570 378.54114 592.85175
685.0 0.001460 378.58798 634.32074
770.0 0.001299 378.63522 697.84015
798.0 0.001253 378.68283 691.40472
706.0 0.001416 378.73090 597.36267
628.0 0.001592 378.77933 546.28973
633.0 0.001580 378.82816 545.48590
700.0 0.001429 378.87738 572.61401
784.0 0.001276 378.92703 632.91412
933.0 0.001072 378.97702 761.93933
1090.0 0.000917 379.02744 1003.42175
1394.0 0.000717 379.07819 1387.14966
1895.0 0.000528 379.12933 1974.71521
2859.0 0.0003498 379.18097 2848.17041
4438.0 0.0002253 379.23282 4150.89746
5960.0 0.0001678 379.28522 5569.83447
5346.0 0.0001871 379.33795 5186.91113
3181.0 0.0003144 379.39102 3116.48560
1970.0 0.000508 379.44446 2100.30078
1979.0 0.000505 379.49832 2094.00171
2557.0 0.000391 379.55255 2586.00806
3248.0 0.0003079 379.60718 3144.14209
2835.0 0.000353 379.66211 2719.50513
1705.0 0.000587 379.71750 1584.91357
1063.0 0.000941 379.77313 997.83350
842.0 0.001188 379.82919 836.84564
900.0 0.001111 379.88571 843.86365
1041.0 0.000961 379.94254 931.71570
1243.0 0.000805 379.99966 1117.48083
1565.0 0.000639 380.05722 1406.29004
1942.0 0.000515 380.11517 1639.19617
1660.0 0.000602 380.17337 1444.80396
1217.0 0.000822 380.23206 1206.02795
1219.0 0.000820 380.29099 1214.58691
1541.0 0.000649 380.35031 1435.43652
2123.0 0.000471 380.41000 1796.03699
2185.0 0.000458 380.47003 1891.38550
1572.0 0.000636 380.53043 1386.08789
988.0 0.001012 380.59113 978.64771
931.0 0.001074 380.65228 859.09277
968.0 0.001033 380.71368 892.77521
1087.0 0.000920 380.77545 995.26904
1179.0 0.000848 380.83765 999.14471
1021.0 0.000979 380.90002 850.54242
921.0 0.001086 380.96283 797.37677
1028.0 0.000973 381.02600 899.90723
1268.0 0.000789 381.08945 1127.94482
1638.0 0.000611 381.15332 1534.20313
2163.0 0.000462 381.21744 2139.43579
2724.0 0.000367 381.28198 2774.30176
2851.0 0.000351 381.34680 2960.73193
3155.0 0.0003170 381.41196 3278.87256
3793.0 0.0002636 381.47739 3973.12720
3627.0 0.0002757 381.54324 3754.13574
2633.0 0.000380 381.60934 2638.46021
1981.0 0.000505 381.67584 2132.66284
1841.0 0.000543 381.74261 1918.20752
1851.0 0.000540 381.80975 1929.98779
2018.0 0.000496 381.87717 2164.03687
1876.0 0.000533 381.94485 1929.08850
1314.0 0.000761 382.01303 1207.04846
827.0 0.001209 382.08139 789.27759
656.0 0.001524 382.15002 641.35480
616.0 0.001623 382.21899 593.15918
611.0 0.001637 382.28839 593.85895
681.0 0.001468 382.35803 628.97058
782.0 0.001279 382.42789 709.00403
944.0 0.001059 382.49814 839.86542
1178.0 0.000849 382.56870 1051.64868
1526.0 0.000655 382.63959 1356.76013
1654.0 0.000605 382.71075 1594.27820
1378.0 0.000726 382.78220 1333.65710
1001.0 0.000999 382.85394 933.57806
866.0 0.001155 382.92603 809.37714
913.0 0.001095 382.99835 876.89435
1056.0 0.000947 383.07101 1052.83447
1202.0 0.000832 383.14392 1240.05420
1265.0 0.000791 383.21710 1234.43726
1242.0 0.000805 383.29065 1179.32104
1181.0 0.000847 383.36447 1172.32556
930.0 0.001075 383.43860 950.04413
716.0 0.001397 383.51294 724.59644
643.0 0.001555 383.58765 659.98236
704.0 0.001420 383.66254 689.64807
801.0 0.001248 383.73782 775.49609
936.0 0.001068 383.81329 856.22314
847.0 0.001181 383.88910 829.94788
825.0 0.001212 383.96518 815.21930
957.0 0.001045 384.04147 941.03082
1145.0 0.000873 384.11810 1186.76868
1620.0 0.000617 384.19498 1601.12830
2265.0 0.000442 384.27216 2136.61792
2439.0 0.000410 384.34955 2295.56421
1891.0 0.000529 384.42725 1844.45288
1766.0 0.000566 384.50519 1699.17285
2373.0 0.000421 384.58347 2049.91992
3136.0 0.0003189 384.66190 2669.63110
3455.0 0.0002894 384.74060 2900.54419
2525.0 0.000396 384.81967 2250.73291
1558.0 0.000642 384.89886 1478.63110
1170.0 0.000855 384.97849 1131.52856
1290.0 0.000775 385.05817 1147.74487
1484.0 0.000674 385.13824 1320.85962
1558.0 0.000642 385.21848 1338.84558
1156.0 0.000865 385.29904 968.71222
741.0 0.001350 385.37985 664.75732
596.0 0.001678 385.46091 540.32690
536.0 0.001866 385.54214 493.38727
476.0 0.002101 385.62363 469.74661
475.0 0.002105 385.70535 454.78137
469.0 0.002132 385.78748 446.02377
448.0 0.002232 385.86966 441.03790
468.0 0.002137 385.95209 439.41263
468.0 0.002137 386.03482 442.33954
458.0 0.002183 386.11777 454.04059
494.0 0.002024 386.20099 479.62610
538.0 0.001859 386.28439 520.73285
594.0 0.001684 386.36804 592.26624
669.0 0.001495 386.45190 693.48822
828.0 0.001208 386.53595 842.28015
937.0 0.001067 386.62030 944.05579
819.0 0.001221 386.70486 802.56891
615.0 0.001626 386.78967 613.58966
523.0 0.001912 386.87466 551.91376
534.0 0.001873 386.95984 565.70941
596.0 0.001678 387.04526 623.55304
657.0 0.001522 387.13095 677.31543
599.0 0.001669 387.21686 620.64496
528.0 0.001894 387.30289 509.03641
476.0 0.002101 387.38922 453.45386
453.0 0.002208 387.47571 439.83929
448.0 0.002232 387.56241 446.53305
480.0 0.002083 387.64935 465.82526
497.0 0.002012 387.73645 502.37396
537.0 0.001862 387.82376 558.04919
611.0 0.001637 387.91135 645.61505
690.0 0.001449 387.99902 722.07941
634.0 0.001577 388.08698 667.10254
538.0 0.001859 388.17514 541.03333
498.0 0.002008 388.26346 487.50385
482.0 0.002075 388.35196 488.68332
473.0 0.002114 388.44067 519.13708
573.0 0.001745 388.52963 556.35590
566.0 0.001767 388.61868 544.06183
489.0 0.002045 388.70801 473.11426
434.0 0.002304 388.79745 427.78790
389.0 0.002571 388.88715 410.68896
394.0 0.002538 388.97696 403.99899
386.0 0.002591 389.06705 400.45001
359.0 0.002786 389.15723 397.34415
390.0 0.002564 389.24765 395.88763
420.0 0.002381 389.33817 394.86285
395.0 0.002532 389.42889 394.11716
401.0 0.002494 389.51987 393.56140
372.0 0.002688 389.61090 393.13986
406.0 0.002463 389.70215 392.37531
398.0 0.002513 389.79361 392.15506
384.0 0.002604 389.88516 391.98901
349.0 0.002865 389.97699 391.86523
385.0 0.002597 390.06891 391.77490
395.0 0.002532 390.16104 391.79218
412.0 0.002427 390.25330 391.75613
365.0 0.002740 390.34576 391.88309
364.0 0.002747 390.43832 391.89108
384.0 0.002604 390.53101 391.91367
397.0 0.002519 390.62393 391.94943
367.0 0.002725 390.71701 391.52121
398.0 0.002513 390.81021 391.61499
399.0 0.002506 390.90356 391.78699
397.0 0.002519 390.99707 391.90195
377.0 0.002653 391.09076 392.02670
366.0 0.002732 391.18457 392.16257
372.0 0.002688 391.27847 392.05103
359.0 0.002786 391.37262 392.23325
364.0 0.002747 391.46677 392.43613
392.0 0.002551 391.56119 392.67010
391.0 0.002558 391.65567 392.96149
383.0 0.002611 391.75040 393.37662
366.0 0.002732 391.84521 394.01556
353.0 0.002833 391.94009 394.91223
379.0 0.002639 392.03519 396.28943
381.0 0.002625 392.13034 398.18350
376.0 0.002660 392.22571 401.00836
378.0 0.002646 392.32117 402.78381
379.0 0.002639 392.41672 401.14444
374.0 0.002674 392.51242 399.31247
375.0 0.002667 392.60828 399.58826
389.0 0.002571 392.70428 401.58383
425.0 0.002353 392.80026 405.61853
416.0 0.002404 392.89648 412.31906
424.0 0.002358 392.99289 421.56241
449.0 0.002227 393.08923 436.34836
485.0 0.002062 393.18579 460.42291
504.0 0.001984 393.28247 493.54272
537.0 0.001862 393.37924 518.72968
569.0 0.001757 393.47610 530.20892
541.0 0.001848 393.57312 520.79175
483.0 0.002070 393.67026 478.83771
443.0 0.002257 393.76740 454.03058
445.0 0.002247 393.86478 455.88953
448.0 0.002232 393.96216 466.17682
461.0 0.002169 394.05969 470.07858
462.0 0.002165 394.15732 470.45795
445.0 0.002247 394.25507 451.54575
425.0 0.002353 394.35278 429.47958
421.0 0.002375 394.45071 419.79996
424.0 0.002358 394.54874 417.25800
431.0 0.002320 394.64685 417.32767
424.0 0.002358 394.74500 418.71939
407.0 0.002457 394.84329 421.41394
405.0 0.002469 394.94171 426.28424
431.0 0.002320 395.04019 435.38452
430.0 0.002326 395.13870 450.31543
464.0 0.002155 395.23730 473.85062
547.0 0.001828 395.33600 508.78232
585.0 0.001709 395.43478 561.43652
643.0 0.001555 395.53366 611.05981
601.0 0.001664 395.63266 595.80914
541.0 0.001848 395.73160 536.68237
521.0 0.001919 395.83069 516.77600
564.0 0.001773 395.92990 534.46075
605.0 0.001653 396.02908 577.25305
712.0 0.001404 396.12851 646.57104
819.0 0.001221 396.22784 739.61688
936.0 0.001068 396.32727 871.06329
1123.0 0.000890 396.42679 1109.11072
1574.0 0.000635 396.52640 1555.20691
2291.0 0.000436 396.62604 2219.04224
3189.0 0.0003136 396.72568 3119.73682
3508.0 0.0002851 396.82547 3542.81836
2540.0 0.000394 396.92532 2534.39990
1493.0 0.000670 397.02518 1524.38110
1176.0 0.000850 397.12515 1218.10608
1310.0 0.000763 397.22513 1320.60669
1622.0 0.000617 397.32513 1654.97290
1914.0 0.000522 397.42517 2007.53210
1802.0 0.000555 397.52539 1817.53394
1244.0 0.000804 397.62561 1148.71204
744.0 0.001344 397.72583 752.81812
551.0 0.001815 397.82611 606.83606
542.0 0.001845 397.92642 552.29578
554.0 0.001805 398.02676 531.73016
555.0 0.001802 398.12726 530.60126
602.0 0.001661 398.22769 554.12805
663.0 0.001508 398.32819 603.76312
757.0 0.001321 398.42871 695.56335
947.0 0.001056 398.52930 835.32538
1221.0 0.000819 398.62988 1015.11139
1294.0 0.000773 398.73044 1067.23633
999.0 0.001001 398.83112 839.20203
744.0 0.001344 398.93185 651.59045
647.0 0.001546 399.03256 602.79169
665.0 0.001504 399.13333 630.25342
706.0 0.001416 399.23404 703.00470
873.0 0.001145 399.33481 775.22327
878.0 0.001139 399.43570 729.77722
688.0 0.001453 399.53656 600.88898
533.0 0.001876 399.63745 533.40771
547.0 0.001828 399.73825 512.11438
554.0 0.001805 399.83917 519.12494
609.0 0.001642 399.94009 541.50989
631.0 0.001585 400.04095 589.08478
769.0 0.001300 400.14197 691.71716
964.0 0.001037 400.24289 889.27948
1217.0 0.000822 400.34384 1208.19360
1688.0 0.000592 400.44476 1726.30481
2340.0 0.000427 400.54578 2497.76929
3350.0 0.0002985 400.64679 3333.39258
3267.0 0.0003061 400.74771 3238.37988
2112.0 0.000473 400.84869 2065.54004
1267.0 0.000789 400.94968 1387.28040
1158.0 0.000864 401.05072 1320.29736
1452.0 0.000689 401.15167 1561.72485
1787.0 0.000560 401.25262 1935.84290
2016.0 0.000496 401.35364 2120.38306
1691.0 0.000591 401.45459 1672.38745
1049.0 0.000953 401.55557 1043.10718
703.0 0.001422 401.65656 748.55988
646.0 0.001548 401.75751 661.65918
621.0 0.001610 401.85837 638.64514
590.0 0.001695 401.95926 595.71246
544.0 0.001838 402.06024 534.90149
486.0 0.002058 402.16113 507.19659
479.0 0.002088 402.26196 505.53430
531.0 0.001883 402.36285 523.00922
569.0 0.001757 402.46365 557.98889
602.0 0.001661 402.56448 602.22833
594.0 0.001684 402.66531 603.48767
542.0 0.001845 402.76605 533.98291
489.0 0.002045 402.86676 485.96194
460.0 0.002174 402.96756 473.79419
475.0 0.002105 403.06824 481.18179
499.0 0.002004 403.16891 500.40131
495.0 0.002020 403.26953 519.77594
484.0 0.002066 403.37015 505.73386
481.0 0.002079 403.47076 470.26175
468.0 0.002137 403.57126 452.54401
428.0 0.002336 403.67178 445.65994
441.0 0.002268 403.77222 452.93579
448.0 0.002232 403.87259 468.22220
488.0 0.002049 403.97299 492.69299
540.0 0.001852 404.07336 526.57813
562.0 0.001779 404.17374 547.39966
535.0 0.001869 404.27393 519.77197
471.0 0.002123 404.37415 485.19858
475.0 0.002105 404.47430 479.81061
495.0 0.002020 404.57449 493.51691
550.0 0.001818 404.67453 521.33881
578.0 0.001730 404.77451 566.66803
681.0 0.001468 404.87448 630.76306
774.0 0.001292 404.97443 728.71167
930.0 0.001075 405.07431 912.80359
1194.0 0.000838 405.17410 1230.22864
1821.0 0.000549 405.27383 1711.36792
2360.0 0.000424 405.37350 2210.50879
2306.0 0.000434 405.47311 2169.77417
1588.0 0.000630 405.57272 1554.42468
1007.0 0.000993 405.67224 1058.35400
876.0 0.001142 405.77170 919.43768
988.0 0.001012 405.87100 1003.94366
1212.0 0.000825 405.97040 1221.56787
1495.0 0.000669 406.06961 1422.44763
1405.0 0.000712 406.16882 1312.99231
1086.0 0.000921 406.26797 1014.76147
815.0 0.001227 406.36694 854.05792
890.0 0.001124 406.46594 876.93951
986.0 0.001014 406.56485 970.00592
984.0 0.001016 406.66367 925.20477
709.0 0.001410 406.76242 716.56885
551.0 0.001815 406.86102 593.35016
509.0 0.001965 406.95966 563.89447
563.0 0.001776 407.05817 590.20758
638.0 0.001567 407.15659 642.31146
725.0 0.001379 407.25485 692.38892
640.0 0.001563 407.35318 642.25293
558.0 0.001792 407.45135 538.59033
465.0 0.002151 407.54944 482.73761
440.0 0.002273 407.64746 462.17651
449.0 0.002227 407.74536 454.26389
408.0 0.002451 407.84320 451.01270
452.0 0.002212 407.94092 450.29706
468.0 0.002137 408.03857 451.58026
470.0 0.002128 408.13614 454.90231
467.0 0.002141 408.23361 459.14401
473.0 0.002114 408.33090 469.39917
489.0 0.002045 408.42819 487.45212
562.0 0.001779 408.52536 524.94995
637.0 0.001570 408.62247 588.34125
754.0 0.001326 408.71939 689.85864
948.0 0.001055 408.81616 860.92163
1180.0 0.000847 408.91296 1091.43933
1343.0 0.000745 409.00964 1263.04675
1308.0 0.000765 409.10620 1222.85864
1391.0 0.000719 409.20264 1295.51306
1640.0 0.000610 409.29889 1581.36975
1837.0 0.000544 409.39511 1813.71973
1695.0 0.000590 409.49124 1648.76428
1377.0 0.000726 409.58728 1366.87073
1141.0 0.000876 409.68320 1125.78674
961.0 0.001041 409.77896 949.64880
942.0 0.001062 409.87454 930.63257
1035.0 0.000966 409.97012 1038.42078
1092.0 0.000916 410.06561 1087.48413
924.0 0.001082 410.16092 930.88885
724.0 0.001381 410.25604 729.63342
602.0 0.001661 410.35104 585.14471
521.0 0.001919 410.44601 521.01624
531.0 0.001883 410.54086 498.52853
529.0 0.001890 410.63553 491.83627
494.0 0.002024 410.73010 486.15891
492.0 0.002033 410.82455 480.63840
510.0 0.001961 410.91885 489.08908
528.0 0.001894 411.01312 520.48108
564.0 0.001773 411.10706 576.25885
650.0 0.001538 411.20105 675.91187
777.0 0.001287 411.29486 819.13031
970.0 0.001031 411.38849 969.00281
951.0 0.001052 411.48203 930.42957
704.0 0.001420 411.57541 708.07556
529.0 0.001890 411.66864 576.64838
487.0 0.002053 411.76178 550.80023
527.0 0.001898 411.85477 578.65009
586.0 0.001706 411.94760 638.89539
707.0 0.001414 412.04028 707.64020
694.0 0.001441 412.13275 675.32715
590.0 0.001695 412.22513 557.32520
441.0 0.002268 412.31744 485.46899
448.0 0.002232 412.40958 459.66092
441.0 0.002268 412.50153 448.64166
428.0 0.002336 412.59332 443.54834
404.0 0.002475 412.68500 442.31934
410.0 0.002439 412.77658 441.06339
414.0 0.002415 412.86795 439.61151
433.0 0.002309 412.95911 440.06360
431.0 0.002320 413.05017 441.10950
439.0 0.002278 413.14105 442.71603
432.0 0.002315 413.23184 444.90140
456.0 0.002193 413.32245 447.73029
444.0 0.002252 413.41284 451.28275
471.0 0.002123 413.50311 455.80579
476.0 0.002101 413.59323 461.53113
478.0 0.002092 413.68320 468.85699
493.0 0.002028 413.77298 478.39752
514.0 0.001946 413.86264 491.13037
535.0 0.001869 413.95209 508.72540
580.0 0.001724 414.04141 534.42212
654.0 0.001529 414.13052 575.46393
710.0 0.001408 414.21951 655.08948
875.0 0.001143 414.30829 810.23242
1152.0 0.000868 414.39694 1065.23547
1621.0 0.000617 414.48535 1515.96899
2368.0 0.000422 414.57364 2194.59741
3104.0 0.0003222 414.66174 2958.26416
3265.0 0.0003063 414.74973 3135.69775
3062.0 0.0003266 414.83746 2837.70679
3066.0 0.0003262 414.92508 2888.97900
2755.0 0.000363 415.01251 2574.17065
1979.0 0.000505 415.09973 1914.70898
1624.0 0.000616 415.18680 1730.89319
1800.0 0.000556 415.27362 1904.14270
1837.0 0.000544 415.36032 1912.35120
1725.0 0.000580 415.44684 1699.66895
1710.0 0.000585 415.53326 1658.76636
1425.0 0.000702 415.61935 1440.22791
1049.0 0.000953 415.70526 990.87463
686.0 0.001458 415.79108 716.66058
542.0 0.001845 415.87668 604.34546
510.0 0.001961 415.96213 556.16486
472.0 0.002119 416.04727 529.96289
475.0 0.002105 416.13235 516.93982
489.0 0.002045 416.21719 507.02344
487.0 0.002053 416.30185 501.17709
511.0 0.001957 416.38629 498.41443
485.0 0.002062 416.47052 498.27991
500.0 0.002000 416.55466 500.67804
525.0 0.001905 416.63852 505.83472
543.0 0.001842 416.72217 515.86395
557.0 0.001795 416.80563 529.22736
530.0 0.001887 416.88895 548.99426
599.0 0.001669 416.97198 579.71228
671.0 0.001490 417.05487 632.55316
762.0 0.001312 417.13751 738.22168
965.0 0.001036 417.22000 956.45520
1296.0 0.000772 417.30231 1326.10791
1775.0 0.000563 417.38437 1959.22925
2676.0 0.000374 417.46628 2894.23486
3736.0 0.0002677 417.54794 3852.86597
3455.0 0.0002894 417.62939 3617.28174
2101.0 0.000476 417.71063 2230.06470
1354.0 0.000739 417.79166 1400.92615
1097.0 0.000912 417.87247 1212.29712
1266.0 0.000790 417.95313 1365.61499
1582.0 0.000632 418.03354 1752.17297
2005.0 0.000499 418.11374 2209.92017
2081.0 0.000481 418.19370 2186.25244
1518.0 0.000659 418.27344 1496.31860
1034.0 0.000967 418.35306 1010.73639
859.0 0.001164 418.43240 874.94202
887.0 0.001127 418.51151 950.18707
1037.0 0.000964 418.59042 1166.91943
1398.0 0.000715 418.66910 1593.06519
2057.0 0.000486 418.74756 2157.86206
2430.0 0.000412 418.82581 2546.86353
2008.0 0.000498 418.90393 2027.84326
1274.0 0.000785 418.98169 1270.73962
929.0 0.001076 419.05927 947.09326
890.0 0.001124 419.13669 921.38562
1009.0 0.000991 419.21378 1072.63171
1222.0 0.000818 419.29065 1336.85132
1450.0 0.000690 419.36737 1589.69238
1392.0 0.000718 419.44385 1446.36609
1085.0 0.000922 419.52017 1073.60474
818.0 0.001222 419.59616 822.24084
645.0 0.001550 419.67188 662.80420
566.0 0.001767 419.74744 587.82312
534.0 0.001873 419.82275 563.99127
559.0 0.001789 419.89792 561.99097
566.0 0.001767 419.97269 591.24738
629.0 0.001590 420.04733 647.06293
727.0 0.001376 420.12173 720.22571
804.0 0.001244 420.19595 810.85126
959.0 0.001043 420.26978 1006.82391
1301.0 0.000769 420.34348 1282.09485
1504.0 0.000665 420.41699 1459.05835
1249.0 0.000801 420.49011 1189.77380
812.0 0.001232 420.56308 821.57330
628.0 0.001592 420.63586 665.54462
625.0 0.001600 420.70834 651.98822
662.0 0.001511 420.78061 719.87769
848.0 0.001179 420.85260 840.94250
939.0 0.001065 420.92441 951.78088
882.0 0.001134 420.99588 864.27606
668.0 0.001497 421.06717 652.89630
533.0 0.001876 421.13818 533.91791
497.0 0.002012 421.20901 487.34222
444.0 0.002252 421.27957 468.16299
428.0 0.002336 421.34991 458.05478
454.0 0.002203 421.41989 452.39911
428.0 0.002336 421.48969 450.38516
438.0 0.002283 421.55923 448.65167
449.0 0.002227 421.62857 451.17285
491.0 0.002037 421.69754 455.55597
521.0 0.001919 421.76645 456.83279
475.0 0.002105 421.83499 455.83401
465.0 0.002151 421.90326 461.83865
480.0 0.002083 421.97128 476.06473
524.0 0.001908 422.03906 490.87924
556.0 0.001799 422.10669 487.62201
504.0 0.001984 422.17392 467.59033
474.0 0.002110 422.24088 455.98123
454.0 0.002203 422.30771 450.84576
421.0 0.002375 422.37421 451.24857
443.0 0.002257 422.44046 455.39996
470.0 0.002128 422.50644 464.02963
438.0 0.002283 422.57217 467.70950
435.0 0.002299 422.63763 460.99860
424.0 0.002358 422.70279 461.33862
420.0 0.002381 422.76782 472.29321
424.0 0.002358 422.83246 494.69397
459.0 0.002179 422.89685 533.56702
525.0 0.001905 422.96103 581.16064
535.0 0.001869 423.02493 608.15161
549.0 0.001821 423.08853 583.47552
566.0 0.001767 423.15189 582.37616
626.0 0.001597 423.21494 623.39240
690.0 0.001449 423.27783 668.07709
649.0 0.001541 423.34039 646.87915
569.0 0.001757 423.40268 613.58423
587.0 0.001704 423.46469 627.75800
645.0 0.001550 423.52640 658.82056
715.0 0.001399 423.58789 728.97632
807.0 0.001239 423.64917 840.53827
889.0 0.001125 423.71005 899.87622
821.0 0.001218 423.77075 786.96045
658.0 0.001520 423.83115 656.61261
640.0 0.001563 423.89127 623.41980
689.0 0.001451 423.95111 680.44702
816.0 0.001225 424.01065 823.73431
1056.0 0.000947 424.06998 1069.55457
1438.0 0.000695 424.12900 1409.46558
1640.0 0.000610 424.18774 1669.96631
1409.0 0.000710 424.24622 1506.13953
970.0 0.001031 424.30438 1045.54016
756.0 0.001323 424.36227 789.30737
741.0 0.001350 424.41992 749.14398
778.0 0.001285 424.47729 841.91931
972.0 0.001029 424.53436 1056.05432
1327.0 0.000754 424.59119 1378.41504
1617.0 0.000618 424.64767 1662.27820
1621.0 0.000617 424.70389 1648.43274
1306.0 0.000766 424.75989 1314.81409
986.0 0.001014 424.81549 1009.21600
930.0 0.001075 424.87091 966.57123
1049.0 0.000953 424.92599 1083.11768
1261.0 0.000793 424.98083 1175.32349
1113.0 0.000898 425.03543 1091.79248
984.0 0.001016 425.08966 1018.98315
939.0 0.001065 425.14359 932.76532
762.0 0.001312 425.19724 770.60052
692.0 0.001445 425.25067 692.65576
704.0 0.001420 425.30371 709.46832
773.0 0.001294 425.35654 748.44470
678.0 0.001475 425.40903 698.33936
573.0 0.001745 425.46133 589.33350
505.0 0.001980 425.51324 527.95660
494.0 0.002024 425.56488 506.08261
505.0 0.001980 425.61627 503.83371
503.0 0.001988 425.66736 515.78143
555.0 0.001802 425.71808 548.37793
664.0 0.001506 425.76852 610.22632
744.0 0.001344 425.81876 720.10797
920.0 0.001087 425.86871 874.58337
1042.0 0.000960 425.91830 994.70142
1088.0 0.000919 425.96762 973.03699
1195.0 0.000837 426.01660 953.61566
1175.0 0.000851 426.06540 936.61908
959.0 0.001043 426.11383 791.76941
752.0 0.001330 426.16199 682.69196
694.0 0.001441 426.20975 682.29480
732.0 0.001366 426.25726 731.45483
774.0 0.001292 426.30457 742.04523
778.0 0.001285 426.35150 712.56073
770.0 0.001299 426.39813 708.30438
726.0 0.001377 426.44452 658.56281
626.0 0.001597 426.49051 569.47388
550.0 0.001818 426.53622 523.09253
505.0 0.001980 426.58173 516.58160
514.0 0.001946 426.62689 541.95038
579.0 0.001727 426.67178 595.63336
688.0 0.001453 426.71628 691.88599
771.0 0.001297 426.76053 813.05157
780.0 0.001282 426.80447 871.57928
700.0 0.001429 426.84811 757.97186
633.0 0.001580 426.89145 649.68188
620.0 0.001613 426.93448 651.37384
685.0 0.001460 426.97726 747.30634
867.0 0.001153 427.01968 941.05579
1123.0 0.000890 427.06174 1197.80664
1206.0 0.000829 427.10361 1338.87268
1044.0 0.000958 427.14511 1100.69604
727.0 0.001376 427.18631 782.41559
582.0 0.001718 427.22726 631.27454
572.0 0.001748 427.26779 602.21796
630.0 0.001587 427.30811 636.42102
664.0 0.001506 427.34802 718.00439
737.0 0.001357 427.38773 803.70026
714.0 0.001401 427.42706 775.93109
655.0 0.001527 427.46619 634.74146
526.0 0.001901 427.50500 540.92181
483.0 0.002070 427.54333 504.92590
502.0 0.001992 427.58145 497.40741
477.0 0.002096 427.61932 506.17657
536.0 0.001866 427.65683 530.45551
538.0 0.001859 427.69403 575.81195
626.0 0.001597 427.73090 635.02136
668.0 0.001497 427.76749 667.76593
622.0 0.001608 427.80377 627.66577
608.0 0.001645 427.83978 606.09918
637.0 0.001570 427.87537 660.46991
776.0 0.001289 427.91071 780.26630
1015.0 0.000985 427.94568 995.63672
1256.0 0.000796 427.98038 1192.69482
1251.0 0.000799 428.01480 1146.47534
889.0 0.001125 428.04895 871.16144
675.0 0.001481 428.08267 678.09821
579.0 0.001727 428.11612 617.53198
650.0 0.001538 428.14923 640.18939
720.0 0.001389 428.18207 722.12054
891.0 0.001122 428.21460 882.10229
1022.0 0.000978 428.24677 1031.19116
1082.0 0.000924 428.27859 1102.80750
1155.0 0.000866 428.31027 1175.98486
1145.0 0.000873 428.34146 1148.60901
842.0 0.001188 428.37234 885.57013
615.0 0.001626 428.40302 668.52252
548.0 0.001825 428.43329 584.86786
533.0 0.001876 428.46320 581.43213
577.0 0.001733 428.49292 620.17554
665.0 0.001504 428.52222 704.26385
754.0 0.001326 428.55127 782.24902
727.0 0.001376 428.57999 748.14703
597.0 0.001675 428.60840 611.89905
501.0 0.001996 428.63647 523.88373
467.0 0.002141 428.66418 487.55060
459.0 0.002179 428.69162 472.54037
444.0 0.002252 428.71872 465.23999
441.0 0.002268 428.74551 461.11520
456.0 0.002193 428.77203 462.19641
454.0 0.002203 428.79816 461.38849
437.0 0.002288 428.82394 461.58777
430.0 0.002326 428.84949 461.31989
435.0 0.002299 428.87469 463.25897
472.0 0.002119 428.89954 467.57794
430.0 0.002326 428.92407 472.14001
462.0 0.002165 428.94830 478.47473
449.0 0.002227 428.97217 489.06149
459.0 0.002179 428.99573 502.01984
558.0 0.001792 429.01907 521.79120
579.0 0.001727 429.04199 556.58325
602.0 0.001661 429.06464 625.36395
766.0 0.001305 429.08691 769.50983
971.0 0.001030 429.10886 1019.05646
1270.0 0.000787 429.13049 1410.84814
1806.0 0.000554 429.15179 1945.45325
2153.0 0.000464 429.17282 2125.00684
1616.0 0.000619 429.19348 1584.93860
1074.0 0.000931 429.21387 1029.23853
757.0 0.001321 429.23386 801.60938
756.0 0.001323 429.25357 785.33057
774.0 0.001292 429.27295 879.37286
990.0 0.001010 429.29202 1078.35144
1280.0 0.000781 429.31079 1319.74084
1322.0 0.000756 429.32913 1333.14771
1091.0 0.000917 429.34726 1028.17529
814.0 0.001229 429.36499 801.81702
811.0 0.001233 429.38245 747.33319
863.0 0.001159 429.39954 818.61890
1079.0 0.000927 429.41638 1029.16650
1305.0 0.000766 429.43280 1390.46301
1881.0 0.000532 429.44894 1992.24878
2686.0 0.000372 429.46472 2604.18823
2644.0 0.000378 429.48022 2536.57690
1729.0 0.000578 429.49533 1761.42065
1259.0 0.000794 429.51028 1307.24915
1231.0 0.000812 429.52469 1291.58838
1496.0 0.000668 429.53885 1568.28052
1785.0 0.000560 429.55270 1845.63159
1971.0 0.000507 429.56622 1968.97412
2056.0 0.000486 429.57941 2047.15295
2007.0 0.000498 429.59229 1938.49060
1771.0 0.000565 429.60486 1741.78125
1742.0 0.000574 429.61713 1775.19690
1680.0 0.000595 429.62903 1715.76941
1413.0 0.000708 429.64053 1426.03113
1187.0 0.000842 429.65170 1191.76648
981.0 0.001019 429.66269 981.45032
882.0 0.001134 429.67325 890.14154
976.0 0.001025 429.68353 960.73450
1240.0 0.000806 429.69345 1184.72180
1568.0 0.000638 429.70306 1486.79492
1772.0 0.000564 429.71231 1692.61841
1714.0 0.000583 429.72131 1580.90759
1311.0 0.000763 429.72995 1204.31226
1006.0 0.000994 429.73822 942.24640
1006.0 0.000994 429.74619 927.62579
1186.0 0.000843 429.75381 1126.61646
1571.0 0.000637 429.76111 1508.94592
2215.0 0.000451 429.76816 2127.31958
2708.0 0.000369 429.77475 2556.84814
2349.0 0.000426 429.78107 2175.24756
1516.0 0.000660 429.78711 1391.31555
948.0 0.001055 429.79279 956.09717
807.0 0.001239 429.79813 839.58032
842.0 0.001188 429.80319 896.42169
1014.0 0.000986 429.80780 1068.02380
1278.0 0.000782 429.81219 1327.54504
1411.0 0.000709 429.81628 1427.00427
1205.0 0.000830 429.81992 1166.31970
843.0 0.001186 429.82327 833.07410
617.0 0.001621 429.82632 651.40259
522.0 0.001916 429.82910 576.84448
504.0 0.001984 429.83148 548.84857
482.0 0.002075 429.83353 545.54938
475.0 0.002105 429.83533 541.70270
455.0 0.002198 429.83670 523.68671
471.0 0.002123 429.83774 506.29947
459.0 0.002179 429.83859 496.43420
492.0 0.002033 429.83902 482.21445
461.0 0.002169 429.83908 472.01657
426.0 0.002347 429.83884 465.93137
432.0 0.002315 429.83832 463.49478
442.0 0.002262 429.83746 461.05640
456.0 0.002193 429.83627 460.97369
437.0 0.002288 429.83469 461.72635
431.0 0.002320 429.83282 464.54407
441.0 0.002268 429.83066 467.09177
480.0 0.002083 429.82813 470.88687
482.0 0.002075 429.82529 477.07544
483.0 0.002070 429.82211 482.55655
484.0 0.002066 429.81866 495.74887
544.0 0.001838 429.81488 517.95325
584.0 0.001712 429.81070 557.02692
654.0 0.001529 429.80621 624.90826
766.0 0.001305 429.80139 744.06818
986.0 0.001014 429.79626 937.37616
1324.0 0.000755 429.79077 1255.94116
1706.0 0.000586 429.78494 1574.48840
1678.0 0.000596 429.77893 1510.56982
1150.0 0.000870 429.77252 1072.44373
808.0 0.001238 429.76572 784.21930
672.0 0.001488 429.75858 690.97882
688.0 0.001453 429.75122 704.82666
792.0 0.001263 429.74347 784.83606
974.0 0.001027 429.73541 941.65521
1183.0 0.000845 429.72702 1120.23596
1240.0 0.000806 429.71829 1140.84204
1194.0 0.000838 429.70929 1029.69934
1225.0 0.000816 429.69986 1096.87402
1467.0 0.000682 429.69022 1390.14404
1923.0 0.000520 429.68021 1902.83191
2174.0 0.000460 429.66986 2200.36035
1840.0 0.000543 429.65918 1788.25854
1232.0 0.000812 429.64816 1176.70679
888.0 0.001126 429.63690 889.41962
866.0 0.001155 429.62521 849.52673
1010.0 0.000990 429.61325 947.35669
1140.0 0.000877 429.60098 1104.77551
1313.0 0.000762 429.58841 1333.70898
1538.0 0.000650 429.57550 1507.34924
1492.0 0.000670 429.56216 1391.47107
1262.0 0.000792 429.54865 1201.59680
1152.0 0.000868 429.53473 1131.99329
1082.0 0.000924 429.52045 1060.66931
1109.0 0.000902 429.50595 1062.98743
1233.0 0.000811 429.49100 1130.88721
1166.0 0.000858 429.47589 1055.68164
864.0 0.001157 429.46036 846.27051
754.0 0.001326 429.44446 731.95813
752.0 0.001330 429.42834 733.10297
749.0 0.001335 429.41187 766.26270
770.0 0.001299 429.39511 765.14764
784.0 0.001276 429.37790 791.47723
934.0 0.001071 429.36044 887.89215
1018.0 0.000982 429.34271 967.51593
991.0 0.001009 429.32458 960.12488
886.0 0.001129 429.30615 855.08691
657.0 0.001522 429.28741 683.73450
586.0 0.001706 429.26837 580.38702
553.0 0.001808 429.24905 543.26190
522.0 0.001916 429.22931 539.49390
539.0 0.001855 429.20932 564.27411
603.0 0.001658 429.18896 613.52802
624.0 0.001603 429.16837 676.65472
749.0 0.001335 429.14737 702.99225
691.0 0.001447 429.12601 700.60657
757.0 0.001321 429.10443 779.62878
959.0 0.001043 429.08252 967.22888
1191.0 0.000840 429.06030 1259.37964
1334.0 0.000750 429.03772 1404.79578
1119.0 0.000894 429.01483 1144.51062
784.0 0.001276 428.99161 803.29108
629.0 0.001590 428.96811 637.71191
531.0 0.001883 428.94427 594.74548
588.0 0.001701 428.92014 622.00641
696.0 0.001437 428.89563 701.08527
820.0 0.001220 428.87088 837.94727
895.0 0.001117 428.84567 934.50708
848.0 0.001179 428.82037 838.55701
649.0 0.001541 428.79459 651.93292
535.0 0.001869 428.76852 542.23395
487.0 0.002053 428.74216 495.81903
484.0 0.002066 428.71555 475.88275
422.0 0.002370 428.68857 465.01343
396.0 0.002525 428.66122 459.12601
425.0 0.002353 428.63364 455.25220
435.0 0.002299 428.60565 453.71652
421.0 0.002375 428.57742 455.18668
414.0 0.002415 428.54886 452.23126
417.0 0.002398 428.51993 450.22137
428.0 0.002336 428.49078 449.56516
435.0 0.002299 428.46130 449.86920
448.0 0.002232 428.43149 450.96793
435.0 0.002299 428.40137 452.64569
410.0 0.002439 428.37094 456.11490
416.0 0.002404 428.34018 463.97104
473.0 0.002114 428.30914 475.73309
513.0 0.001949 428.27777 497.33585
524.0 0.001908 428.24612 533.90277
554.0 0.001805 428.21414 589.64355
635.0 0.001575 428.18182 650.50702
713.0 0.001403 428.14917 706.13837
786.0 0.001272 428.11633 784.92871
812.0 0.001232 428.08307 816.46075
706.0 0.001416 428.04953 727.87042
610.0 0.001639 428.01572 612.56958
552.0 0.001812 427.98154 558.32794
558.0 0.001792 427.94711 555.51025
557.0 0.001795 427.91232 576.28888
561.0 0.001783 427.87732 600.08832
606.0 0.001650 427.84189 637.13794
693.0 0.001443 427.80624 669.42145
642.0 0.001558 427.77023 647.19055
578.0 0.001730 427.73395 595.61365
589.0 0.001698 427.69736 572.15588
603.0 0.001658 427.66049 586.66296
677.0 0.001477 427.62326 642.18842
807.0 0.001239 427.58572 772.18439
1041.0 0.000961 427.54791 1046.57507
1438.0 0.000695 427.50983 1509.85767
2114.0 0.000473 427.47137 2195.15649
2736.0 0.000365 427.43268 2649.85986
2221.0 0.000450 427.39362 2188.57544
1308.0 0.000765 427.35431 1370.08203
884.0 0.001131 427.31473 928.08575
757.0 0.001321 427.27478 788.35217
799.0 0.001252 427.23456 815.82318
920.0 0.001087 427.19403 970.69458
1134.0 0.000882 427.15320 1254.28540
1498.0 0.000668 427.11209 1548.90784
1457.0 0.000686 427.07065 1480.81958
1050.0 0.000952 427.02890 1054.74829
736.0 0.001359 426.98691 753.32520
613.0 0.001631 426.94455 626.47675
541.0 0.001848 426.90198 589.43585
552.0 0.001812 426.85904 599.63153
573.0 0.001745 426.81580 648.40167
659.0 0.001517 426.77228 730.01569
714.0 0.001401 426.72849 783.36639
684.0 0.001462 426.68442 733.18494
673.0 0.001486 426.64001 671.08563
721.0 0.001387 426.59525 681.22217
771.0 0.001297 426.55029 727.98901
723.0 0.001383 426.50504 716.45874
661.0 0.001513 426.45947 649.26410
621.0 0.001610 426.41360 625.67017
643.0 0.001555 426.36746 639.95532
634.0 0.001577 426.32095 628.06824
587.0 0.001704 426.27429 587.58734
574.0 0.001742 426.22717 576.87439
585.0 0.001709 426.17987 593.85486
608.0 0.001645 426.13229 604.62292
573.0 0.001745 426.08432 572.95587
544.0 0.001838 426.03613 542.44586
514.0 0.001946 425.98761 536.95404
589.0 0.001698 425.93890 550.99561
655.0 0.001527 425.88983 583.54095
653.0 0.001531 425.84052 646.45886
836.0 0.001196 425.79086 777.55591
1112.0 0.000899 425.74088 1061.34717
1602.0 0.000624 425.69067 1564.30359
2444.0 0.000409 425.64014 2318.96240
3109.0 0.0003216 425.58936 2926.27051
2610.0 0.000383 425.53833 2546.76611
1594.0 0.000627 425.48694 1598.42871
1038.0 0.000963 425.43530 1033.46582
762.0 0.001312 425.38339 832.08521
856.0 0.001168 425.33115 828.42065
933.0 0.001072 425.27872 971.21936
1198.0 0.000835 425.22595 1252.66235
1662.0 0.000602 425.17291 1620.16113
1775.0 0.000563 425.11957 1683.06775
1277.0 0.000783 425.06589 1244.84119
836.0 0.001196 425.01196 838.62964
618.0 0.001618 424.95779 642.92328
514.0 0.001946 424.90335 562.43427
457.0 0.002188 424.84863 523.91309
515.0 0.001942 424.79361 501.59012
469.0 0.002132 424.73831 487.14142
434.0 0.002304 424.68271 477.38766
463.0 0.002160 424.62686 470.74252
460.0 0.002174 424.57071 466.23495
473.0 0.002114 424.51431 463.84201
467.0 0.002141 424.45767 466.55978
457.0 0.002188 424.40073 469.09909
433.0 0.002309 424.34344 476.85706
518.0 0.001931 424.28598 498.63217
554.0 0.001805 424.22815 540.36255
607.0 0.001647 424.17010 610.43250
769.0 0.001300 424.11176 704.92456
857.0 0.001167 424.05325 743.04510
704.0 0.001420 423.99435 650.74530
575.0 0.001739 423.93515 549.89203
495.0 0.002020 423.87570 501.33170
477.0 0.002096 423.81604 487.63058
533.0 0.001876 423.75613 494.94818
517.0 0.001934 423.69586 518.40930
594.0 0.001684 423.63538 558.84656
649.0 0.001541 423.57458 600.78693
622.0 0.001608 423.51361 591.67603
589.0 0.001698 423.45230 538.46625
547.0 0.001828 423.39075 504.03000
518.0 0.001931 423.32889 496.54407
515.0 0.001942 423.26682 507.38431
531.0 0.001883 423.20441 531.25977
551.0 0.001815 423.14182 562.02332
564.0 0.001773 423.07892 572.69000
558.0 0.001792 423.01575 556.29413
555.0 0.001802 422.95236 548.12201
587.0 0.001704 422.88870 561.56958
665.0 0.001504 422.82477 596.59082
740.0 0.001351 422.76050 664.50696
900.0 0.001111 422.69604 801.31329
1174.0 0.000852 422.63132 1078.09082
1591.0 0.000629 422.56628 1557.27966
2206.0 0.000453 422.50116 2265.75000
2840.0 0.000352 422.43564 2864.61230
2880.0 0.0003472 422.36984 2846.80225
2476.0 0.000404 422.30383 2543.87231
1901.0 0.000526 422.23755 2013.30652
1340.0 0.000746 422.17099 1378.77344
1005.0 0.000995 422.10422 1064.87537
1043.0 0.000959 422.03720 1053.82190
1225.0 0.000816 421.96988 1251.66052
1533.0 0.000652 421.90231 1584.29138
1704.0 0.000587 421.83450 1770.44531
1644.0 0.000608 421.76645 1671.87415
1464.0 0.000683 421.69815 1499.12134
1190.0 0.000840 421.62955 1204.87952
926.0 0.001080 421.56070 990.09900
914.0 0.001094 421.49176 1003.69080
1119.0 0.000894 421.42236 1199.70081
1320.0 0.000758 421.35281 1451.25671
1409.0 0.000710 421.28299 1415.85522
973.0 0.001028 421.21289 1053.87683
751.0 0.001332 421.14267 778.54828
622.0 0.001608 421.07205 666.35638
702.0 0.001425 421.00125 656.08484
712.0 0.001404 420.93015 727.10590
900.0 0.001111 420.85889 884.51770
1093.0 0.000915 420.78735 1116.18494
1240.0 0.000806 420.71555 1254.42395
1067.0 0.000937 420.64352 1074.70740
765.0 0.001307 420.57126 785.38837
625.0 0.001600 420.49869 619.90735
546.0 0.001832 420.42599 554.02490
544.0 0.001838 420.35294 532.51929
568.0 0.001761 420.27972 543.11597
605.0 0.001653 420.20618 575.84283
609.0 0.001642 420.13251 613.51465
622.0 0.001608 420.05856 608.09698
588.0 0.001701 419.98434 550.35370
539.0 0.001855 419.90988 507.95117
513.0 0.001949 419.83521 493.92133
531.0 0.001883 419.76031 499.88019
556.0 0.001799 419.68515 531.73157
605.0 0.001653 419.60977 602.06366
679.0 0.001473 419.53409 724.77606
821.0 0.001218 419.45822 887.46869
862.0 0.001160 419.38220 955.67194
736.0 0.001359 419.30582 805.03510
592.0 0.001689 419.22925 629.45758
495.0 0.002020 419.15250 540.39264
464.0 0.002155 419.07547 514.54034
508.0 0.001969 418.99826 523.54578
539.0 0.001855 418.92078 564.13348
594.0 0.001684 418.84302 629.28729
651.0 0.001536 418.76511 704.89606
695.0 0.001439 418.68692 726.87933
656.0 0.001524 418.60849 663.73279
684.0 0.001462 418.52997 641.45935
734.0 0.001362 418.45108 668.11530
771.0 0.001297 418.37204 681.73389
677.0 0.001477 418.29266 602.60638
542.0 0.001845 418.21310 530.40076
502.0 0.001992 418.13345 498.01321
490.0 0.002041 418.05350 490.25620
485.0 0.002062 417.97330 497.30176
494.0 0.002024 417.89285 518.67047
574.0 0.001742 417.81223 552.90106
598.0 0.001672 417.73132 593.48505
625.0 0.001600 417.65027 613.96381
621.0 0.001610 417.56894 600.33929
665.0 0.001504 417.48746 616.80396
777.0 0.001287 417.40576 703.21313
955.0 0.001047 417.32382 918.87665
1279.0 0.000782 417.24161 1329.83862
1810.0 0.000552 417.15924 1850.82593
2390.0 0.000418 417.07663 2330.92725
2295.0 0.000436 416.99380 2089.01807
1399.0 0.000715 416.91077 1368.98279
930.0 0.001075 416.82761 922.14838
798.0 0.001253 416.74402 750.15192
686.0 0.001458 416.66043 719.82660
763.0 0.001311 416.57657 791.35736
928.0 0.001078 416.49246 978.82312
1159.0 0.000863 416.40817 1224.80408
1402.0 0.000713 416.32358 1432.28650
1323.0 0.000756 416.23892 1254.31909
985.0 0.001015 416.15402 917.11768
787.0 0.001271 416.06891 750.49561
763.0 0.001311 415.98349 713.69135
848.0 0.001179 415.89792 721.83948
737.0 0.001357 415.81226 667.70465
604.0 0.001656 415.72623 594.28839
579.0 0.001727 415.64011 560.78766
595.0 0.001681 415.55371 552.20361
562.0 0.001779 415.46719 530.00464
508.0 0.001969 415.38037 512.01849
486.0 0.002058 415.29343 518.31476
520.0 0.001923 415.20624 537.49677
571.0 0.001751 415.11893 556.64575
570.0 0.001754 415.03131 536.66321
537.0 0.001862 414.94354 508.28232
529.0 0.001890 414.85553 498.35999
525.0 0.001905 414.76749 498.71744
516.0 0.001938 414.67902 491.29437
533.0 0.001876 414.59048 484.35632
510.0 0.001961 414.50171 490.37384
509.0 0.001965 414.41278 519.48352
611.0 0.001637 414.32361 587.94879
741.0 0.001350 414.23428 715.62360
920.0 0.001087 414.14474 872.00989
1064.0 0.000940 414.05502 1005.23181
941.0 0.001063 413.96509 902.17181
714.0 0.001401 413.87497 702.75238
637.0 0.001570 413.78467 595.54956
601.0 0.001664 413.69421 567.75146
615.0 0.001626 413.60349 592.83087
725.0 0.001379 413.51266 681.98669
912.0 0.001096 413.42160 880.37714
1181.0 0.000847 413.33041 1195.11462
1543.0 0.000648 413.23898 1531.52258
1706.0 0.000586 413.14731 1645.45459
1345.0 0.000743 413.05554 1263.63770
916.0 0.001092 412.96362 873.89154
656.0 0.001524 412.87146 691.26440
650.0 0.001538 412.77905 651.41583
703.0 0.001422 412.68649 692.28040
817.0 0.001224 412.59384 791.16620
883.0 0.001133 412.50098 913.44104
984.0 0.001016 412.40787 983.29340
991.0 0.001009 412.31464 1018.93640
919.0 0.001088 412.22122 869.47565
748.0 0.001337 412.12759 708.62762
619.0 0.001616 412.03381 627.80853
531.0 0.001883 411.93988 579.03998
524.0 0.001908 411.84576 561.72260
520.0 0.001923 411.75143 567.40900
544.0 0.001838 411.65698 570.48688
551.0 0.001815 411.56235 541.93085
532.0 0.001880 411.46750 524.86060
530.0 0.001887 411.37247 534.97961
608.0 0.001645 411.27728 574.18231
661.0 0.001513 411.18195 655.00757
800.0 0.001250 411.08646 798.90240
1028.0 0.000973 410.99081 995.21143
1235.0 0.000810 410.89493 1180.20740
1183.0 0.000845 410.79892 1103.70203
853.0 0.001172 410.70273 823.61731
647.0 0.001546 410.60641 642.61230
550.0 0.001818 410.50986 571.53424
571.0 0.001751 410.41315 560.66486
581.0 0.001721 410.31631 589.71057
659.0 0.001517 410.21936 676.09747
821.0 0.001218 410.12219 821.58179
986.0 0.001014 410.02484 1021.58575
1134.0 0.000882 409.92734 1179.51379
1223.0 0.000818 409.82965 1243.03284
1215.0 0.000823 409.73184 1255.33167
988.0 0.001012 409.63385 993.90936
728.0 0.001374 409.53577 731.38495
563.0 0.001776 409.43747 598.79663
490.0 0.002041 409.33902 551.81592
488.0 0.002049 409.24039 548.79077
570.0 0.001754 409.14163 585.08405
624.0 0.001603 409.04279 667.56689
712.0 0.001404 408.94363 772.25555
809.0 0.001236 408.84442 853.51617
825.0 0.001212 408.74506 789.98254
778.0 0.001285 408.64557 725.07294
770.0 0.001299 408.54587 788.44940
945.0 0.001058 408.44601 967.70532
1133.0 0.000883 408.34604 1169.07104
1138.0 0.000879 408.24591 1213.19080
957.0 0.001045 408.14560 963.24512
771.0 0.001297 408.04523 765.93353
673.0 0.001486 407.94464 688.92780
622.0 0.001608 407.84393 639.78131
553.0 0.001808 407.74304 596.41486
581.0 0.001721 407.64200 610.95477
682.0 0.001466 407.54092 687.89374
750.0 0.001333 407.43958 784.45209
825.0 0.001212 407.33817 829.04346
711.0 0.001406 407.23651 716.35907
558.0 0.001792 407.13486 603.83069
529.0 0.001890 407.03299 553.19080
502.0 0.001992 406.93094 524.08960
461.0 0.002169 406.82877 486.58740
455.0 0.002198 406.72653 464.18237
435.0 0.002299 406.62418 457.36133
477.0 0.002096 406.52158 461.74570
455.0 0.002198 406.41882 474.82315
490.0 0.002041 406.31607 494.54791
526.0 0.001901 406.21310 515.76501
571.0 0.001751 406.10995 538.54712
556.0 0.001799 406.00671 529.34845
478.0 0.002092 405.90341 483.88528
438.0 0.002283 405.79987 453.26306
442.0 0.002262 405.69623 441.23132
396.0 0.002525 405.59247 440.03085
443.0 0.002257 405.48859 444.68872
453.0 0.002208 405.38458 452.56534
439.0 0.002278 405.28040 463.28168
465.0 0.002151 405.17615 475.50461
488.0 0.002049 405.07181 478.20392
472.0 0.002119 404.96725 458.39545
409.0 0.002445 404.86255 441.97070
415.0 0.002410 404.75778 435.47726
393.0 0.002545 404.65289 435.26459
415.0 0.002410 404.54794 438.72375
438.0 0.002283 404.44272 445.25223
434.0 0.002304 404.33752 457.94986
454.0 0.002203 404.23209 480.58868
530.0 0.001887 404.12659 525.21832
627.0 0.001595 404.02094 615.97412
752.0 0.001330 403.91516 778.84314
924.0 0.001082 403.80936 975.28021
1046.0 0.000956 403.70331 1100.18042
918.0 0.001089 403.59726 933.08673
676.0 0.001479 403.49106 696.32489
540.0 0.001852 403.38470 568.65216
494.0 0.002024 403.27826 525.20807
504.0 0.001984 403.17166 528.52985
561.0 0.001783 403.06503 564.73633
633.0 0.001580 402.95828 639.68518
730.0 0.001370 402.85135 731.84393
780.0 0.001282 402.74435 808.43591
700.0 0.001429 402.63724 768.96356
596.0 0.001678 402.53006 633.14813
517.0 0.001934 402.42270 543.26746
465.0 0.002151 402.31528 513.98358
496.0 0.002016 402.20773 530.89111
570.0 0.001754 402.10007 597.20813
706.0 0.001416 401.99228 701.32019
792.0 0.001263 401.88449 801.13574
782.0 0.001279 401.77649 790.48718
649.0 0.001541 401.66840 652.96875
494.0 0.002024 401.56021 547.56329
469.0 0.002132 401.45187 495.42316
455.0 0.002198 401.34357 476.85782
486.0 0.002058 401.23508 477.93719
493.0 0.002028 401.12650 499.49747
485.0 0.002062 401.01779 543.68616
548.0 0.001825 400.90900 596.62811
627.0 0.001595 400.80020 625.60925
579.0 0.001727 400.69125 576.34265
544.0 0.001838 400.58215 521.11536
495.0 0.002020 400.47293 501.71698
541.0 0.001848 400.36371 513.88214
568.0 0.001761 400.25439 558.08099
696.0 0.001437 400.14496 645.92749
772.0 0.001295 400.03537 780.98212
929.0 0.001076 399.92572 922.25311
1058.0 0.000945 399.81610 1024.40381
1053.0 0.000950 399.70627 1051.81714
1039.0 0.000962 399.59637 1054.20129
1022.0 0.000978 399.48639 1024.75623
888.0 0.001126 399.37631 844.06848
676.0 0.001479 399.26611 706.29626
683.0 0.001464 399.15591 680.85797
785.0 0.001274 399.04553 746.61212
956.0 0.001046 398.93515 885.71936
1123.0 0.000890 398.82462 1077.64014
1407.0 0.000711 398.71405 1314.10547
1835.0 0.000545 398.60342 1548.03345
1900.0 0.000526 398.49261 1637.90747
1602.0 0.000624 398.38177 1457.20825
1372.0 0.000729 398.27081 1252.78589
1053.0 0.000950 398.15991 981.12000
742.0 0.001348 398.04877 764.83154
666.0 0.001502 397.93768 670.59381
689.0 0.001451 397.82635 667.89349
775.0 0.001290 397.71506 729.85297
908.0 0.001101 397.60373 831.14124
978.0 0.001022 397.49225 924.53967
966.0 0.001035 397.38077 900.59039
903.0 0.001107 397.26910 858.04492
829.0 0.001206 397.15744 810.19617
761.0 0.001314 397.04572 762.54102
742.0 0.001348 396.93387 801.49023
781.0 0.001280 396.82196 886.76746
770.0 0.001299 396.71002 893.70422
691.0 0.001447 396.59796 751.27203
580.0 0.001724 396.48584 624.87268
538.0 0.001859 396.37369 575.66998
576.0 0.001736 396.26144 593.02124
644.0 0.001553 396.14908 672.91089
783.0 0.001277 396.03665 796.78955
861.0 0.001161 395.92432 917.03668
877.0 0.001140 395.81180 918.93750
791.0 0.001264 395.69925 851.62323
667.0 0.001499 395.58658 739.26764
622.0 0.001608 395.47388 634.43353
589.0 0.001698 395.36115 591.13037
553.0 0.001808 395.24832 611.15466
689.0 0.001451 395.13541 705.04468
829.0 0.001206 395.02249 887.21967
993.0 0.001007 394.90942 1108.43860
1129.0 0.000886 394.79642 1237.16492
1156.0 0.000865 394.68326 1162.41382
1183.0 0.000845 394.57016 1168.04126
1340.0 0.000746 394.45691 1367.25476
1614.0 0.000620 394.34357 1605.94019
1532.0 0.000653 394.23029 1500.16357
1056.0 0.000947 394.11688 1093.82922
778.0 0.001285 394.00345 845.09741
707.0 0.001414 393.88989 783.06781
715.0 0.001399 393.77634 805.16241
772.0 0.001295 393.66278 800.34277
749.0 0.001335 393.54916 771.92157
764.0 0.001309 393.43546 827.89600
933.0 0.001072 393.32166 950.62292
1014.0 0.000986 393.20782 1028.49573
949.0 0.001054 393.09402 878.82263
702.0 0.001425 392.98010 687.41919
634.0 0.001577 392.86612 596.17749
574.0 0.001742 392.75217 596.99982
590.0 0.001695 392.63812 662.89197
722.0 0.001385 392.52408 746.79205
767.0 0.001304 392.40997 769.14349
650.0 0.001538 392.29584 655.81165
532.0 0.001880 392.18158 547.82117
433.0 0.002309 392.06732 493.57690
441.0 0.002268 391.95306 474.07471
479.0 0.002088 391.83881 472.90729
477.0 0.002096 391.72437 488.43567
534.0 0.001873 391.60995 528.52405
633.0 0.001580 391.49548 599.46899
723.0 0.001383 391.38104 697.13257
788.0 0.001269 391.26654 791.94226
903.0 0.001107 391.15198 863.02539
944.0 0.001059 391.03741 895.01849
813.0 0.001230 390.92279 763.88440
591.0 0.001692 390.80807 600.58191
471.0 0.002123 390.69351 509.48755
457.0 0.002188 390.57877 471.73337
453.0 0.002208 390.46396 460.39832
460.0 0.002174 390.34918 466.15363
505.0 0.001980 390.23441 495.44388
566.0 0.001767 390.11957 552.01794
614.0 0.001629 390.00470 612.89020
623.0 0.001605 389.88983 625.55048
564.0 0.001773 389.77484 553.11646
493.0 0.002028 389.65991 486.66562
458.0 0.002183 389.54495 455.50400
447.0 0.002237 389.42990 447.83591
447.0 0.002237 389.31494 456.75580
480.0 0.002083 389.19986 487.32886
526.0 0.001901 389.08484 554.38055
605.0 0.001653 388.96973 654.24023
715.0 0.001399 388.85455 737.91400
657.0 0.001522 388.73944 697.43298
565.0 0.001770 388.62430 573.08405
470.0 0.002128 388.50919 489.99545
421.0 0.002375 388.39392 453.14282
425.0 0.002353 388.27869 440.69449
411.0 0.002433 388.16345 441.90405
468.0 0.002137 388.04822 457.71033
508.0 0.001969 387.93295 494.11890
525.0 0.001905 387.81772 543.40356
557.0 0.001795 387.70242 574.07513
583.0 0.001715 387.58710 535.78894
494.0 0.002024 387.47177 475.84396
426.0 0.002347 387.35641 440.91382
448.0 0.002232 387.24109 426.16904
438.0 0.002283 387.12570 420.90796
448.0 0.002232 387.01031 419.74100
424.0 0.002358 386.89493 421.04474
415.0 0.002410 386.77960 425.03049
416.0 0.002404 386.66418 431.38443
412.0 0.002427 386.54880 441.33453
480.0 0.002083 386.43332 459.50595
508.0 0.001969 386.31790 495.15378
618.0 0.001618 386.20251 571.90863
720.0 0.001389 386.08710 726.07739
896.0 0.001116 385.97162 949.06012
1037.0 0.000964 385.85617 1136.74316
1024.0 0.000977 385.74075 1067.16504
808.0 0.001238 385.62534 844.03406
695.0 0.001439 385.50992 739.33905
735.0 0.001361 385.39444 742.75958
743.0 0.001346 385.27896 748.03119
659.0 0.001517 385.16351 668.63678
606.0 0.001650 385.04807 613.83160
612.0 0.001634 384.93262 642.20331
660.0 0.001515 384.81717 728.58032
742.0 0.001348 384.70172 796.81744
698.0 0.001433 384.58627 730.09784
625.0 0.001600 384.47086 617.00708
559.0 0.001789 384.35544 570.73627
532.0 0.001880 384.23996 571.38910
526.0 0.001901 384.12454 561.92365
500.0 0.002000 384.00909 508.51303
467.0 0.002141 383.89377 463.20731
458.0 0.002183 383.77835 439.48608
431.0 0.002320 383.66299 429.92419
432.0 0.002315 383.54758 429.38785
445.0 0.002247 383.43216 433.06335
472.0 0.002119 383.31683 446.18637
521.0 0.001919 383.20154 477.85886
564.0 0.001773 383.08615 535.81592
664.0 0.001506 382.97086 601.02490
650.0 0.001538 382.85547 622.39490
575.0 0.001739 382.74020 556.16638
484.0 0.002066 382.62494 489.63901
447.0 0.002237 382.50967 455.25162
456.0 0.002193 382.39441 447.34695
468.0 0.002137 382.27917 452.43042
497.0 0.002012 382.16394 468.48819
537.0 0.001862 382.04877 497.22861
540.0 0.001852 381.93356 542.70514
654.0 0.001529 381.81836 607.98883
704.0 0.001420 381.70325 696.33429
792.0 0.001263 381.58813 828.53278
1037.0 0.000964 381.47302 1032.40234
1114.0 0.000898 381.35794 1196.61609
1004.0 0.000996 381.24283 1070.91370
766.0 0.001305 381.12778 794.12756
589.0 0.001698 381.01279 620.46448
516.0 0.001938 380.89780 548.36627
540.0 0.001852 380.78281 528.42444
501.0 0.001996 380.66791 535.55127
607.0 0.001647 380.55292 568.36041
627.0 0.001595 380.43808 645.78528
706.0 0.001416 380.32321 765.73676
847.0 0.001181 380.20834 867.48517
816.0 0.001225 380.09354 836.77759
762.0 0.001312 379.97876 775.96057
823.0 0.001215 379.86401 853.17871
967.0 0.001034 379.74933 1083.84399
1317.0 0.000759 379.63458 1333.65222
1319.0 0.000758 379.51993 1326.72925
1011.0 0.000989 379.40527 1015.15387
762.0 0.001312 379.29071 776.29266
677.0 0.001477 379.17618 672.56555
596.0 0.001678 379.06171 622.31696
578.0 0.001730 378.94711 582.45209
569.0 0.001757 378.83261 588.37457
573.0 0.001745 378.71826 654.29150
751.0 0.001332 378.60388 790.38135
927.0 0.001079 378.48950 940.98730
921.0 0.001086 378.37518 970.41638
841.0 0.001189 378.26093 834.10956
723.0 0.001383 378.14664 710.90967
675.0 0.001481 378.03256 669.84631
730.0 0.001370 377.91840 700.35480
808.0 0.001238 377.80426 818.82007
991.0 0.001009 377.69012 1091.97644
1336.0 0.000749 377.57611 1467.21484
1545.0 0.000647 377.46213 1703.89465
1384.0 0.000723 377.34814 1473.21631
1103.0 0.000907 377.23419 1130.99072
921.0 0.001086 377.12039 939.93219
777.0 0.001287 377.00656 800.10205
715.0 0.001399 376.89282 691.15820
697.0 0.001435 376.77908 658.22400
730.0 0.001370 376.66534 713.89478
825.0 0.001212 376.55176 873.43640
1009.0 0.000991 376.43814 1092.51367
1113.0 0.000898 376.32462 1221.03125
1046.0 0.000956 376.21115 1085.47998
954.0 0.001048 376.09775 885.51752
844.0 0.001185 375.98428 794.30322
823.0 0.001215 375.87094 778.70990
844.0 0.001185 375.75775 823.50873
911.0 0.001098 375.64450 935.46637
1113.0 0.000898 375.53128 1078.91150
1366.0 0.000732 375.41815 1250.93542
1661.0 0.000602 375.30505 1621.07568
2223.0 0.000450 375.19205 2230.28394
2933.0 0.0003409 375.07907 2847.07104
3047.0 0.0003282 374.96613 2898.46509
2121.0 0.000471 374.85327 2070.18457
1332.0 0.000751 374.74042 1337.50500
1009.0 0.000991 374.62778 989.57532
834.0 0.001199 374.51498 889.79529
887.0 0.001127 374.40237 897.29895
942.0 0.001062 374.28983 942.20026
1096.0 0.000912 374.17731 1069.28381
1297.0 0.000771 374.06485 1317.18884
1612.0 0.000620 373.95251 1612.49060
1726.0 0.000579 373.84012 1700.94043
1440.0 0.000694 373.72784 1316.84070
941.0 0.001063 373.61566 902.46478
710.0 0.001408 373.50354 670.87537
593.0 0.001686 373.39145 567.27557
537.0 0.001862 373.27942 523.38220
496.0 0.002016 373.16742 503.31552
532.0 0.001880 373.05551 487.97348
505.0 0.001980 372.94373 468.56775
457.0 0.002188 372.83197 451.23770
477.0 0.002096 372.72021 440.17706
472.0 0.002119 372.60855 433.30313
465.0 0.002151 372.49707 427.79279
438.0 0.002283 372.38559 424.67679
430.0 0.002326 372.27411 423.38922
446.0 0.002242 372.16278 425.48578
430.0 0.002326 372.05145 430.64114
448.0 0.002232 371.94028 442.93021
481.0 0.002079 371.82910 470.69196
580.0 0.001724 371.71805 524.00378
663.0 0.001508 371.60706 625.60297
739.0 0.001353 371.49603 730.09174
761.0 0.001314 371.38519 740.29517
665.0 0.001504 371.27444 628.00763
565.0 0.001770 371.16373 534.15631
524.0 0.001908 371.05310 498.11270
579.0 0.001727 370.94250 509.06931
652.0 0.001534 370.83203 562.56305
717.0 0.001395 370.72162 643.65417
791.0 0.001264 370.61124 709.19250
796.0 0.001256 370.50095 707.46710
764.0 0.001309 370.39081 705.58386
737.0 0.001357 370.28070 728.05554
765.0 0.001307 370.17065 750.29340
850.0 0.001176 370.06067 815.04132
893.0 0.001120 369.95087 881.18982
847.0 0.001181 369.84100 829.94623
758.0 0.001319 369.73129 723.25342
715.0 0.001399 369.62177 667.69019
703.0 0.001422 369.51212 668.26361
727.0 0.001376 369.40265 686.39783
795.0 0.001258 369.29330 757.64380
948.0 0.001055 369.18396 972.91144
1248.0 0.000801 369.07477 1330.38953
1541.0 0.000649 368.96567 1635.08118
1452.0 0.000689 368.85660 1527.01367
1079.0 0.000927 368.74759 1135.76917
772.0 0.001295 368.63879 814.17297
620.0 0.001613 368.52997 634.16632
557.0 0.001795 368.42117 553.91797
551.0 0.001815 368.31262 529.32227
534.0 0.001873 368.20404 548.05627
642.0 0.001558 368.09558 624.53082
688.0 0.001453 367.98730 771.37115
889.0 0.001125 367.87900 923.20410
887.0 0.001127 367.77081 923.03217
768.0 0.001302 367.66269 734.33594
605.0 0.001653 367.55469 571.41937
488.0 0.002049 367.44684 486.44550
462.0 0.002165 367.33896 450.97037
451.0 0.002217 367.23129 436.79340
499.0 0.002004 367.12360 427.45087
426.0 0.002347 367.01608 415.97003
407.0 0.002457 366.90860 405.18900
414.0 0.002415 366.80130 399.48602
410.0 0.002439 366.69394 396.25095
420.0 0.002381 366.58673 396.44958
432.0 0.002315 366.47974 399.54330
442.0 0.002262 366.37271 407.68179
427.0 0.002342 366.26590 418.18759
440.0 0.002273 366.15909 422.05875
446.0 0.002242 366.05237 411.94638
430.0 0.002326 365.94577 400.64520
412.0 0.002427 365.83932 394.18002
424.0 0.002358 365.73288 393.80695
415.0 0.002410 365.62659 398.50266
410.0 0.002439 365.52039 403.72546
431.0 0.002320 365.41431 402.86987
452.0 0.002212 365.30832 398.93994
436.0 0.002294 365.20233 398.87851
393.0 0.002545 365.09653 399.51144
395.0 0.002532 364.99088 395.64203
434.0 0.002304 364.88525 390.27945
434.0 0.002304 364.77975 387.71637
415.0 0.002410 364.67444 386.85791
416.0 0.002404 364.56912 390.27258
448.0 0.002232 364.46393 394.84650
455.0 0.002198 364.35880 398.57886
435.0 0.002299 364.25388 398.62454
425.0 0.002353 364.14899 399.79416
421.0 0.002375 364.04422 404.81488
438.0 0.002283 363.93948 414.07028
473.0 0.002114 363.83502 431.07233
487.0 0.002053 363.73053 464.63129
567.0 0.001764 363.62616 534.57007
660.0 0.001515 363.52191 660.02905
818.0 0.001222 363.41776 810.36700
830.0 0.001205 363.31375 868.96973
720.0 0.001389 363.20993 749.14966
597.0 0.001675 363.10611 619.83838
579.0 0.001727 363.00241 572.15338
618.0 0.001618 362.89877 615.26178
722.0 0.001385 362.79526 769.29449
899.0 0.001112 362.69193 1045.87805
1145.0 0.000873 362.58868 1254.20557
1196.0 0.000836 362.48550 1122.75220
983.0 0.001017 362.38245 941.85950
845.0 0.001183 362.27957 814.83508
739.0 0.001353 362.17676 668.84052
590.0 0.001695 362.07404 566.75873
541.0 0.001848 361.97144 522.86298
521.0 0.001919 361.86902 526.29834
595.0 0.001681 361.76672 585.95386
641.0 0.001560 361.66446 727.69379
828.0 0.001208 361.56229 934.66187
1009.0 0.000991 361.46024 997.63934
984.0 0.001016 361.35840 818.80212
710.0 0.001408 361.25662 643.18860
649.0 0.001541 361.15494 567.11584
616.0 0.001623 361.05344 574.23425
642.0 0.001558 360.95197 641.70929
691.0 0.001447 360.85074 697.80280
763.0 0.001311 360.74948 668.24152
692.0 0.001445 360.64835 651.96313
687.0 0.001456 360.54742 677.27594
715.0 0.001399 360.44662 669.75525
684.0 0.001462 360.34583 615.26831
621.0 0.001610 360.24530 546.66559
546.0 0.001832 360.14487 509.84674
557.0 0.001795 360.04446 510.04788
576.0 0.001736 359.94424 545.83118
609.0 0.001642 359.84406 610.80786
663.0 0.001508 359.74420 669.62195
735.0 0.001361 359.64429 750.50525
918.0 0.001089 359.54456 956.41675
1143.0 0.000875 359.44492 1256.41370
1343.0 0.000745 359.34534 1359.11755
1261.0 0.000793 359.24603 1145.27649
1104.0 0.000906 359.14682 992.76044
1037.0 0.000964 359.04767 985.43817
1038.0 0.000963 358.94867 905.68390
866.0 0.001155 358.84973 739.84674
694.0 0.001441 358.75098 632.67609
615.0 0.001626 358.65237 605.46558
601.0 0.001664 358.55389 651.46991
693.0 0.001443 358.45547 774.34119
875.0 0.001143 358.35724 931.44690
998.0 0.001002 358.25909 967.04718
962.0 0.001040 358.16110 938.85883
1019.0 0.000981 358.06323 1068.81226
1277.0 0.000783 357.96548 1398.20349
1549.0 0.000646 357.86789 1733.92358
1635.0 0.000612 357.77042 1642.30994
1350.0 0.000741 357.67310 1212.94592
953.0 0.001049 357.57581 907.30426
791.0 0.001264 357.47876 789.15942
855.0 0.001170 357.38177 815.37726
987.0 0.001013 357.28500 1001.59912
1336.0 0.000749 357.18823 1431.90515
1844.0 0.000542 357.09167 2094.28979
2409.0 0.000415 356.99524 2461.64575
2408.0 0.000415 356.89890 2247.97485
2099.0 0.000476 356.80273 2065.10327
1946.0 0.000514 356.70667 1870.89734
1714.0 0.000583 356.61069 1468.73657
1281.0 0.000781 356.51501 1056.61340
948.0 0.001055 356.41931 822.59363
792.0 0.001263 356.32388 749.60162
789.0 0.001267 356.22849 812.02704
901.0 0.001110 356.13321 1022.71368
1259.0 0.000794 356.03809 1311.52234
1380.0 0.000725 355.94312 1351.05005
1295.0 0.000772 355.84827 1150.19495
1176.0 0.000850 355.75357 1042.09900
1183.0 0.000845 355.65900 997.27179
1081.0 0.000925 355.56451 866.22827
860.0 0.001163 355.47018 758.75769
783.0 0.001277 355.37607 720.61847
720.0 0.001389 355.28207 649.95929
611.0 0.001637 355.18817 552.98358
523.0 0.001912 355.09439 487.93921
500.0 0.002000 355.00079 452.93317
491.0 0.002037 354.90732 443.59137
474.0 0.002110 354.81396 449.03891
508.0 0.001969 354.72076 459.47076
494.0 0.002024 354.62769 456.14935
448.0 0.002232 354.53476 453.78204
455.0 0.002198 354.44199 471.20148
531.0 0.001883 354.34940 485.71439
526.0 0.001901 354.25687 463.90564
497.0 0.002012 354.16443 426.47925
453.0 0.002208 354.07224 401.96249
414.0 0.002415 353.98013 389.73648
435.0 0.002299 353.88821 383.95746
437.0 0.002288 353.79642 380.95709
396.0 0.002525 353.70474 379.29724
407.0 0.002457 353.61325 378.48050
417.0 0.002398 353.52185 378.30896
384.0 0.002604 353.43060 378.70999
403.0 0.002481 353.33951 377.28659
429.0 0.002331 353.24857 377.97293
431.0 0.002320 353.15775 380.54471
427.0 0.002342 353.06714 384.07541
437.0 0.002288 352.97659 388.92416
432.0 0.002315 352.88620 394.58008
450.0 0.002222 352.79599 403.54300
447.0 0.002237 352.70593 418.15793
452.0 0.002212 352.61594 442.35413
483.0 0.002070 352.52618 487.75223
565.0 0.001770 352.43652 580.10809
719.0 0.001391 352.34695 749.55371
932.0 0.001073 352.25754 975.81158
1097.0 0.000912 352.16843 1159.33484
1266.0 0.000790 352.07935 1303.55359
1296.0 0.000772 351.99042 1191.22546
1114.0 0.000898 351.90152 880.61011
802.0 0.001247 351.81287 653.99896
589.0 0.001698 351.72449 543.10333
507.0 0.001972 351.63617 503.54129
510.0 0.001961 351.54794 507.65598
531.0 0.001883 351.45993 557.58759
616.0 0.001623 351.37195 667.41852
734.0 0.001362 351.28421 807.66931
839.0 0.001192 351.19669 881.99921
912.0 0.001096 351.10922 905.34717
884.0 0.001131 351.02188 806.72644
806.0 0.001241 350.93469 634.18933
614.0 0.001629 350.84769 514.93085
496.0 0.002016 350.76083 454.89542
470.0 0.002128 350.67416 428.93283
451.0 0.002217 350.58752 421.49362
438.0 0.002283 350.50113 430.16348
492.0 0.002033 350.41486 459.02484
567.0 0.001764 350.32877 500.33551
566.0 0.001767 350.24283 507.94589
479.0 0.002088 350.15698 464.90860
434.0 0.002304 350.07129 421.63016
447.0 0.002237 349.98584 396.85532
421.0 0.002375 349.90051 385.33578
432.0 0.002315 349.81534 380.36404
394.0 0.002538 349.73022 378.43835
408.0 0.002451 349.64532 378.39880
410.0 0.002439 349.56055 381.39188
427.0 0.002342 349.47601 389.78024
430.0 0.002326 349.39157 403.88730
433.0 0.002309 349.30722 413.00513
405.0 0.002469 349.22305 404.62714
412.0 0.002427 349.13910 393.74728
396.0 0.002525 349.05524 389.47092
419.0 0.002387 348.97153 391.38971
443.0 0.002257 348.88803 398.42877
437.0 0.002288 348.80463 411.49902
475.0 0.002105 348.72147 435.89828
486.0 0.002058 348.63837 488.18567
572.0 0.001748 348.55542 601.97461
695.0 0.001439 348.47266 807.09143
843.0 0.001186 348.38998 1028.45325
897.0 0.001115 348.30759 983.71729
800.0 0.001250 348.22531 746.78186
628.0 0.001592 348.14313 568.61658
505.0 0.001980 348.06116 478.80145
449.0 0.002227 347.97925 441.39337
449.0 0.002227 347.89758 428.35300
469.0 0.002132 347.81607 430.51129
479.0 0.002088 347.73468 452.44839
515.0 0.001942 347.65353 511.53549
622.0 0.001608 347.57248 628.76013
729.0 0.001372 347.49152 770.01318
762.0 0.001312 347.41077 766.38312
673.0 0.001486 347.33023 620.20160
543.0 0.001842 347.24976 498.91293
472.0 0.002119 347.16949 433.94482
440.0 0.002273 347.08939 404.10327
406.0 0.002463 347.00946 389.73828
381.0 0.002625 346.92960 382.41479
409.0 0.002445 346.84991 379.38351
395.0 0.002532 346.77045 381.09775
389.0 0.002571 346.69116 389.27914
399.0 0.002506 346.61191 402.63168
432.0 0.002315 346.53299 406.83105
432.0 0.002315 346.45404 393.12408
423.0 0.002364 346.37534 379.13489
400.0 0.002500 346.29678 371.31320
399.0 0.002506 346.21835 368.05350
408.0 0.002451 346.14017 367.12875
430.0 0.002326 346.06210 367.59009
367.0 0.002725 345.98419 369.12921
373.0 0.002681 345.90643 371.83768
404.0 0.002475 345.82886 376.29382
411.0 0.002433 345.75143 383.91156
360.0 0.002778 345.67410 396.94778
425.0 0.002353 345.59702 417.92786
434.0 0.002304 345.52008 446.37109
498.0 0.002008 345.44321 484.96326
523.0 0.001912 345.36652 568.97076
659.0 0.001517 345.29007 734.72510
782.0 0.001279 345.21375 930.80634
953.0 0.001049 345.13757 921.32849
771.0 0.001297 345.06165 718.78577
618.0 0.001618 344.98569 554.01807
473.0 0.002114 344.90997 467.74136
433.0 0.002309 344.83453 432.08957
422.0 0.002370 344.75912 421.38394
430.0 0.002326 344.68396 423.29190
435.0 0.002299 344.60886 432.92990
480.0 0.002083 344.53397 462.15918
536.0 0.001866 344.45920 530.63904
573.0 0.001745 344.38467 629.38586
649.0 0.001541 344.31021 658.36438
608.0 0.001645 344.23602 569.26129
549.0 0.001821 344.16193 480.45602
485.0 0.002062 344.08798 427.81076
435.0 0.002299 344.01422 398.97025
406.0 0.002463 343.94064 383.68192
410.0 0.002439 343.86719 375.63599
390.0 0.002564 343.79382 371.36502
372.0 0.002688 343.72073 369.45975
398.0 0.002513 343.64780 369.41992
402.0 0.002488 343.57498 371.46097
384.0 0.002604 343.50238 377.32379
406.0 0.002463 343.42987 391.36166
471.0 0.002123 343.35757 421.28802
548.0 0.001825 343.28537 470.84515
601.0 0.001664 343.21341 514.56061
566.0 0.001767 343.14163 494.43378
486.0 0.002058 343.06985 441.09152
438.0 0.002283 342.99838 405.01874
403.0 0.002481 342.92700 388.71652
416.0 0.002404 342.85577 386.02182
445.0 0.002247 342.78482 391.81882
431.0 0.002320 342.71393 400.73203
453.0 0.002208 342.64322 407.93790
485.0 0.002062 342.57263 426.10843
496.0 0.002016 342.50235 467.84308
517.0 0.001934 342.43213 519.07397
578.0 0.001730 342.36200 517.79712
521.0 0.001919 342.29208 466.68436
485.0 0.002062 342.22241 427.67987
482.0 0.002075 342.15283 412.61819
458.0 0.002183 342.08340 417.29953
465.0 0.002151 342.01416 444.01907
471.0 0.002123 341.94510 507.61041
548.0 0.001825 341.87613 620.80548
661.0 0.001513 341.80743 759.97437
711.0 0.001406 341.73877 780.42621
609.0 0.001642 341.67035 661.47064
517.0 0.001934 341.60211 548.95251
488.0 0.002049 341.53391 473.22675
413.0 0.002421 341.46606 433.97241
412.0 0.002427 341.39828 419.30771
463.0 0.002160 341.33063 421.93268
445.0 0.002247 341.26312 443.58585
509.0 0.001965 341.19580 491.80969
529.0 0.001890 341.12875 564.04742
561.0 0.001783 341.06174 635.03387
649.0 0.001541 340.99490 668.12610
625.0 0.001600 340.92822 614.59229
569.0 0.001757 340.86176 551.19318
555.0 0.001802 340.79541 503.33350
494.0 0.002024 340.72934 457.98929
432.0 0.002315 340.66327 427.99484
441.0 0.002268 340.59741 415.63763
398.0 0.002513 340.53177 417.03452
419.0 0.002387 340.46622 431.16214
482.0 0.002075 340.40085 455.71301
531.0 0.001883 340.33566 481.58380
532.0 0.001880 340.27066 517.08533
610.0 0.001639 340.20578 590.00464
703.0 0.001422 340.14108 727.41541
852.0 0.001174 340.07654 894.42041
963.0 0.001038 340.01215 942.55737
829.0 0.001206 339.94794 803.89716
652.0 0.001534 339.88379 629.65619
536.0 0.001866 339.81998 521.72522
486.0 0.002058 339.75623 471.79028
443.0 0.002257 339.69260 454.51147
448.0 0.002232 339.62918 455.02319
472.0 0.002119 339.56598 470.47122
508.0 0.001969 339.50290 506.63672
578.0 0.001730 339.43994 575.79987
678.0 0.001475 339.37720 688.11298
799.0 0.001252 339.31464 818.48163
916.0 0.001092 339.25220 939.40759
1048.0 0.000954 339.18991 1115.68652
1314.0 0.000761 339.12781 1389.15845
1457.0 0.000686 339.06583 1468.98096
1335.0 0.000749 339.00400 1269.56006
1185.0 0.000844 338.94238 1166.81189
1163.0 0.000860 338.88098 1210.93677
1090.0 0.000917 338.81967 1121.24670
886.0 0.001129 338.75848 874.96234
710.0 0.001408 338.69745 687.15253
614.0 0.001629 338.63660 599.35724
610.0 0.001639 338.57599 592.75555
630.0 0.001587 338.51547 660.68341
730.0 0.001370 338.45514 803.90967
869.0 0.001151 338.39496 944.63593
931.0 0.001074 338.33493 920.34344
858.0 0.001166 338.27509 841.50616
852.0 0.001174 338.21539 861.31885
949.0 0.001054 338.15585 938.79254
1022.0 0.000978 338.09644 981.40594
1064.0 0.000940 338.03729 1081.03479
1174.0 0.000852 337.97818 1178.83325
1147.0 0.000872 337.91934 1029.83020
832.0 0.001202 337.86057 785.29626
628.0 0.001592 337.80197 629.65289
555.0 0.001802 337.74362 574.62549
565.0 0.001770 337.68536 596.77820
632.0 0.001582 337.62732 664.52472
665.0 0.001504 337.56927 693.85254
675.0 0.001481 337.51151 652.03723
646.0 0.001548 337.45398 633.63007
637.0 0.001570 337.39655 667.34058
755.0 0.001325 337.33917 739.82495
750.0 0.001333 337.28207 754.04572
681.0 0.001468 337.22510 645.49518
569.0 0.001757 337.16830 535.35712
497.0 0.002012 337.11160 476.42535
453.0 0.002208 337.05508 463.02527
485.0 0.002062 336.99884 482.92148
490.0 0.002041 336.94260 513.35583
500.0 0.002000 336.88657 508.09027
472.0 0.002119 336.83072 476.16647
500.0 0.002000 336.77509 452.47864
447.0 0.002237 336.71945 434.45178
436.0 0.002294 336.66409 429.59570
457.0 0.002188 336.60889 447.56940
491.0 0.002037 336.55383 502.24515
566.0 0.001767 336.49896 609.34302
641.0 0.001560 336.44415 734.76349
685.0 0.001460 336.38962 733.85211
616.0 0.001623 336.33514 607.44666
509.0 0.001965 336.28088 499.03107
480.0 0.002083 336.22678 441.78482
447.0 0.002237 336.17282 421.51395
474.0 0.002110 336.11902 421.55289
513.0 0.001949 336.06540 428.59448
492.0 0.002033 336.01190 429.25543
479.0 0.002088 335.95859 434.61023
496.0 0.002016 335.90540 460.75180
505.0 0.001980 335.85242 517.46375
537.0 0.001862 335.79950 571.57855
547.0 0.001828 335.74692 549.99524
516.0 0.001938 335.69431 487.15927
466.0 0.002146 335.64191 449.17966
463.0 0.002160 335.58969 449.63489
528.0 0.001894 335.53760 487.20105
568.0 0.001761 335.48572 546.73578
578.0 0.001730 335.43396 562.07172
516.0 0.001938 335.38235 504.23572
451.0 0.002217 335.33090 444.55759
437.0 0.002288 335.27963 409.67191
400.0 0.002500 335.22849 395.97775
428.0 0.002336 335.17749 394.71231
382.0 0.002618 335.12665 401.33774
455.0 0.002198 335.07599 413.69882
495.0 0.002020 335.02545 429.39261
474.0 0.002110 334.97513 457.80038
531.0 0.001883 334.92490 519.99554
668.0 0.001497 334.87482 612.20837
666.0 0.001502 334.82495 657.09161
618.0 0.001618 334.77524 589.93713
532.0 0.001880 334.72568 500.97983
433.0 0.002309 334.67624 446.87363
464.0 0.002155 334.62692 426.81506
460.0 0.002174 334.57779 431.77853
466.0 0.002146 334.52881 462.09534
500.0 0.002000 334.48001 524.09052
641.0 0.001560 334.43134 608.44592
677.0 0.001477 334.38284 654.89819
675.0 0.001481 334.33441 637.67120
646.0 0.001548 334.28622 650.92773
703.0 0.001422 334.23825 715.93427
831.0 0.001203 334.19028 783.29449
782.0 0.001279 334.14258 765.16931
654.0 0.001529 334.09497 646.16528
521.0 0.001919 334.04755 546.66467
495.0 0.002020 334.00021 505.49503
500.0 0.002000 333.95316 522.25232
545.0 0.001835 333.90610 603.69989
659.0 0.001517 333.85928 754.23749
816.0 0.001225 333.81259 907.78937
850.0 0.001176 333.76605 905.42261
779.0 0.001284 333.71960 761.09924
668.0 0.001497 333.67340 656.58820
620.0 0.001613 333.62729 624.06525
620.0 0.001613 333.58139 584.51727
533.0 0.001876 333.53564 512.88928
467.0 0.002141 333.49005 457.60675
432.0 0.002315 333.44452 430.54572
421.0 0.002375 333.39920 429.19925
439.0 0.002278 333.35400 454.52399
464.0 0.002155 333.30896 510.96616
524.0 0.001908 333.26404 579.85730
550.0 0.001818 333.21930 583.88483
528.0 0.001894 333.17474 519.31866
492.0 0.002033 333.13034 462.81534
445.0 0.002247 333.08603 430.63696
422.0 0.002370 333.04187 419.07977
425.0 0.002353 332.99780 425.00159
467.0 0.002141 332.95398 439.58362
456.0 0.002193 332.91034 444.56537
457.0 0.002188 332.86676 449.23093
495.0 0.002020 332.82336 483.25342
550.0 0.001818 332.78009 565.12250
637.0 0.001570 332.73697 680.97485
729.0 0.001372 332.69400 745.66138
733.0 0.001364 332.65118 679.93646
580.0 0.001724 332.60855 558.77612
449.0 0.002227 332.56601 471.55374
401.0 0.002494 332.52362 427.07941
384.0 0.002604 332.48138 411.78378
411.0 0.002433 332.43936 409.86710
411.0 0.002433 332.39734 406.96161
384.0 0.002604 332.35553 406.10764
405.0 0.002469 332.31387 421.06989
447.0 0.002237 332.27240 460.82245
469.0 0.002132 332.23105 519.31921
501.0 0.001996 332.18976 556.31464
571.0 0.001751 332.14868 533.42957
502.0 0.001992 332.10776 483.24249
403.0 0.002481 332.06699 439.10715
407.0 0.002457 332.02634 402.40366
364.0 0.002747 331.98587 379.22345
372.0 0.002688 331.94550 366.56812
382.0 0.002618 331.90530 360.23309
337.0 0.002967 331.86520 357.76202
357.0 0.002801 331.82526 357.06009
315.0 0.003175 331.78552 357.25800
344.0 0.002907 331.74588 358.53323
390.0 0.002564 331.70633 361.75632
374.0 0.002674 331.66699 368.64389
389.0 0.002571 331.62775 378.05896
385.0 0.002597 331.58862 385.42090
371.0 0.002695 331.54971 391.32834
370.0 0.002703 331.51089 406.73215
378.0 0.002646 331.47223 435.63239
440.0 0.002273 331.43372 468.99426
458.0 0.002183 331.39532 505.80865
509.0 0.001965 331.35709 554.14429
555.0 0.001802 331.31900 569.29053
492.0 0.002033 331.28098 538.83307
471.0 0.002123 331.24316 526.68567
474.0 0.002110 331.20547 540.20404
471.0 0.002123 331.16794 524.67407
424.0 0.002358 331.13052 481.21375
408.0 0.002451 331.09323 451.13452
428.0 0.002336 331.05615 437.74112
404.0 0.002475 331.01913 438.49854
412.0 0.002427 330.98227 451.39594
447.0 0.002237 330.94553 471.34644
460.0 0.002174 330.90894 499.51474
455.0 0.002198 330.87253 522.44647
500.0 0.002000 330.83618 538.94214
548.0 0.001825 330.79999 593.59375
651.0 0.001536 330.76392 703.11652
762.0 0.001312 330.72806 808.53387
781.0 0.001280 330.69226 853.77118
743.0 0.001346 330.65659 809.72778
642.0 0.001558 330.62109 666.70117
522.0 0.001916 330.58569 538.26807
441.0 0.002268 330.55048 464.41690
401.0 0.002494 330.51541 430.56796
377.0 0.002653 330.48041 417.50998
388.0 0.002577 330.44559 417.36005
432.0 0.002315 330.41089 431.01379
435.0 0.002299 330.37631 459.09653
447.0 0.002237 330.34189 503.10849
491.0 0.002037 330.30759 557.71179
522.0 0.001916 330.27341 601.46344
580.0 0.001724 330.23938 619.12531
563.0 0.001776 330.20544 599.77112
523.0 0.001912 330.17163 607.10577
590.0 0.001695 330.13803 655.31207
581.0 0.001721 330.10449 655.19495
510.0 0.001961 330.07114 571.89368
438.0 0.002283 330.03787 494.62292
412.0 0.002427 330.00473 458.30261
425.0 0.002353 329.97177 458.33789
436.0 0.002294 329.93893 482.31546
489.0 0.002045 329.90616 505.59253
504.0 0.001984 329.87350 501.40292
469.0 0.002132 329.84106 502.78308
467.0 0.002141 329.80869 534.12744
437.0 0.002288 329.77646 565.41589
489.0 0.002045 329.74435 568.43719
470.0 0.002128 329.71240 549.40527
445.0 0.002247 329.68054 494.27377
398.0 0.002513 329.64883 441.02563
367.0 0.002725 329.61725 412.74200
382.0 0.002618 329.58578 407.76239
392.0 0.002551 329.55441 419.37415
407.0 0.002457 329.52328 432.31363
411.0 0.002433 329.49216 428.78677
412.0 0.002427 329.46124 419.89429
406.0 0.002463 329.43036 423.67001
381.0 0.002625 329.39963 429.80103
392.0 0.002551 329.36905 416.27185
360.0 0.002778 329.33862 398.16907
348.0 0.002874 329.30829 391.56052
389.0 0.002571 329.27805 402.57166
428.0 0.002336 329.24802 438.41376
484.0 0.002066 329.21802 504.98602
512.0 0.001953 329.18817 580.41870
503.0 0.001988 329.15842 581.89618
470.0 0.002128 329.12885 506.16174
428.0 0.002336 329.09933 436.38589
385.0 0.002597 329.07001 396.18756
358.0 0.002793 329.04080 377.77792
352.0 0.002841 329.01175 370.30447
344.0 0.002907 328.98264 367.69711
344.0 0.002907 328.95377 368.63394
348.0 0.002874 328.92511 375.40292
363.0 0.002755 328.89645 394.46414
429.0 0.002331 328.86789 433.52328
464.0 0.002155 328.83948 495.60843
484.0 0.002066 328.81125 553.06610
527.0 0.001898 328.78308 561.09711
508.0 0.001969 328.75504 515.32422
421.0 0.002375 328.72711 456.88821
379.0 0.002639 328.69931 418.44333
350.0 0.002857 328.67163 392.12848
351.0 0.002849 328.64407 373.15063
343.0 0.002915 328.61661 361.56320
338.0 0.002959 328.58923 355.37378
329.0 0.003040 328.56204 353.08438
363.0 0.002755 328.53494 355.81186
330.0 0.003030 328.50797 365.19553
351.0 0.002849 328.48114 383.62833
388.0 0.002577 328.45435 406.79684
378.0 0.002646 328.42767 412.48575
398.0 0.002513 328.40112 393.99329
387.0 0.002584 328.37479 375.19199
345.0 0.002899 328.34848 362.02121
353.0 0.002833 328.32224 351.60352
355.0 0.002817 328.29620 344.73532
327.0 0.003058 328.27023 340.66269
329.0 0.003040 328.24438 338.34616
302.0 0.003311 328.21866 337.29471
303.0 0.003300 328.19299 337.15353
330.0 0.003030 328.16757 337.95737
318.0 0.003145 328.14212 339.47983
312.0 0.003205 328.11679 340.14294
285.0 0.00351 328.09164 338.14310
294.0 0.003401 328.06656 336.20721
329.0 0.003040 328.04163 334.99756
323.0 0.003096 328.01678 334.48727
307.0 0.003257 327.99200 334.44739
350.0 0.002857 327.96741 334.66388
361.0 0.002770 327.94287 335.11588
324.0 0.003086 327.91843 335.83539
304.0 0.003289 327.89413 336.87439
311.0 0.003215 327.86996 338.46451
347.0 0.002882 327.84586 341.12131
353.0 0.002833 327.82184 345.84332
344.0 0.002907 327.79797 353.59869
356.0 0.002809 327.77423 364.48959
399.0 0.002506 327.75055 372.17441
383.0 0.002611 327.72699 371.90186
373.0 0.002681 327.70352 374.29700
407.0 0.002457 327.68021 388.91379
429.0 0.002331 327.65695 422.58191
479.0 0.002088 327.63379 476.98138
532.0 0.001880 327.61075 530.34906
550.0 0.001818 327.58783 560.27911
591.0 0.001692 327.56500 564.38507
543.0 0.001842 327.54230 512.98846
443.0 0.002257 327.51965 447.52094
406.0 0.002463 327.49713 405.62524
370.0 0.002703 327.47479 385.53534
353.0 0.002833 327.45242 374.73459
351.0 0.002849 327.43021 367.42874
355.0 0.002817 327.40811 366.22452
351.0 0.002849 327.38611 373.69910
384.0 0.002604 327.36420 392.35788
406.0 0.002463 327.34232 419.41327
417.0 0.002398 327.32065 439.84692
444.0 0.002252 327.29904 449.84784
470.0 0.002128 327.27759 440.69699
430.0 0.002326 327.25613 407.34186
353.0 0.002833 327.23477 376.36874
367.0 0.002725 327.21359 357.43307
363.0 0.002755 327.19247 347.43396
351.0 0.002849 327.17154 342.32080
331.0 0.003021 327.15054 339.46396
324.0 0.003086 327.12970 337.64975
319.0 0.003135 327.10904 336.47150
345.0 0.002899 327.08832 336.01633
341.0 0.002933 327.06781 336.12152
334.0 0.002994 327.04736 336.96136
346.0 0.002890 327.02698 339.35709
339.0 0.002950 327.00681 344.20261
310.0 0.003226 326.98666 351.33322
342.0 0.002924 326.96655 356.35364
341.0 0.002933 326.94656 354.18558
376.0 0.002660 326.92670 347.32010
318.0 0.003145 326.90692 341.09970
355.0 0.002817 326.88721 337.48325
355.0 0.002817 326.86774 335.82443
306.0 0.003268 326.84811 335.29398
350.0 0.002857 326.82870 335.45776
330.0 0.003030 326.80942 336.17517
343.0 0.002915 326.79019 337.55334
335.0 0.002985 326.77103 340.11697
363.0 0.002755 326.75198 344.20786
334.0 0.002994 326.73306 349.99002
361.0 0.002770 326.71414 354.85287
359.0 0.002786 326.69531 359.31631
365.0 0.002740 326.67667 368.63153
377.0 0.002653 326.65808 390.10718
424.0 0.002358 326.63956 426.09775
433.0 0.002309 326.62115 458.17346
440.0 0.002273 326.60284 448.20038
430.0 0.002326 326.58459 410.18692
380.0 0.002632 326.56638 379.19629
378.0 0.002646 326.54831 362.19724
341.0 0.002933 326.53033 355.73880
332.0 0.003012 326.51248 356.02405
366.0 0.002732 326.49463 361.18619
368.0 0.002717 326.47687 367.78079
375.0 0.002667 326.45920 370.75021
390.0 0.002564 326.44168 373.98071
392.0 0.002551 326.42416 386.80655
400.0 0.002500 326.40680 411.60715
427.0 0.002342 326.38947 436.01166
440.0 0.002273 326.37222 437.88538
421.0 0.002375 326.35516 421.78235
398.0 0.002513 326.33801 406.53284
383.0 0.002611 326.32104 406.90439
394.0 0.002538 326.30417 427.95496
448.0 0.002232 326.28732 463.34595
451.0 0.002217 326.27054 491.50464
457.0 0.002188 326.25394 498.47324
479.0 0.002088 326.23737 500.35046
475.0 0.002105 326.22079 488.32471
429.0 0.002331 326.20447 458.23975
413.0 0.002421 326.18814 441.42255
431.0 0.002320 326.17181 447.83664
461.0 0.002169 326.15570 473.13007
491.0 0.002037 326.13959 510.10992
503.0 0.001988 326.12360 526.33551
454.0 0.002203 326.10760 495.38297
432.0 0.002315 326.09167 460.04089
408.0 0.002451 326.07593 444.60147
405.0 0.002469 326.06018 438.36719
386.0 0.002591 326.04456 431.58807
377.0 0.002653 326.02899 428.95490
376.0 0.002660 326.01355 420.95920
438.0 0.002283 325.99814 405.98364
421.0 0.002375 325.98279 399.01321
427.0 0.002342 325.96750 404.80533
401.0 0.002494 325.95227 425.77963
431.0 0.002320 325.93719 463.49652
490.0 0.002041 325.92218 502.58203
478.0 0.002092 325.90726 522.02026
487.0 0.002053 325.89227 514.47552
463.0 0.002160 325.87744 492.12369
433.0 0.002309 325.86273 467.96167
410.0 0.002439 325.84802 437.72485
384.0 0.002604 325.83337 418.08881
419.0 0.002387 325.81885 420.36200
447.0 0.002237 325.80447 449.68979
514.0 0.001946 325.78995 506.27243
532.0 0.001880 325.77567 563.54553
552.0 0.001812 325.76141 558.76373
465.0 0.002151 325.74722 508.03220
475.0 0.002105 325.73309 474.31042
477.0 0.002096 325.71906 466.96426
448.0 0.002232 325.70502 460.75790
423.0 0.002364 325.69119 445.90372
394.0 0.002538 325.67728 429.91849
384.0 0.002604 325.66354 414.37875
385.0 0.002597 325.64972 408.31500
433.0 0.002309 325.63614 419.91425
470.0 0.002128 325.62253 458.18311
525.0 0.001905 325.60904 533.30017
613.0 0.001631 325.59555 642.49316
696.0 0.001437 325.58218 736.61847
680.0 0.001471 325.56882 732.78290
591.0 0.001692 325.55551 625.22467
516.0 0.001938 325.54239 518.82806
451.0 0.002217 325.52924 451.19287
421.0 0.002375 325.51617 411.95786
381.0 0.002625 325.50314 390.50446
368.0 0.002717 325.49017 380.16904
360.0 0.002778 325.47736 377.04993
384.0 0.002604 325.46451 381.00296
392.0 0.002551 325.45172 395.61487
416.0 0.002404 325.43896 425.03156
444.0 0.002252 325.42642 472.20889
502.0 0.001992 325.41376 522.88019
530.0 0.001887 325.40125 537.26691
515.0 0.001942 325.38882 499.98862
478.0 0.002092 325.37640 457.91757
461.0 0.002169 325.36404 432.65634
436.0 0.002294 325.35178 430.81351
447.0 0.002237 325.33954 458.86084
480.0 0.002083 325.32739 520.45239
576.0 0.001736 325.31522 597.13074
566.0 0.001767 325.30319 617.50543
537.0 0.001862 325.29120 560.56396
472.0 0.002119 325.27930 496.77365
460.0 0.002174 325.26736 460.98312
427.0 0.002342 325.25555 440.48990
412.0 0.002427 325.24374 418.15683
396.0 0.002525 325.23203 400.03159
393.0 0.002545 325.22034 390.85837
378.0 0.002646 325.20874 387.38406
370.0 0.002703 325.19714 389.97064
396.0 0.002525 325.18567 404.52264
357.0 0.002801 325.17426 434.81863
447.0 0.002237 325.16278 475.96457
458.0 0.002183 325.15146 496.38681
415.0 0.002410 325.14017 477.74246
450.0 0.002222 325.12894 454.86768
459.0 0.002179 325.11774 455.54837
513.0 0.001949 325.10657 489.15717
585.0 0.001709 325.09549 558.95850
700.0 0.001429 325.08444 661.98474
843.0 0.001186 325.07346 727.00519
725.0 0.001379 325.06247 663.11591
578.0 0.001730 325.05157 548.95306
494.0 0.002024 325.04074 464.65985
399.0 0.002506 325.02991 418.37469
398.0 0.002513 325.01920 397.05362
410.0 0.002439 325.00851 389.42310
400.0 0.002500 324.99783 390.12769
366.0 0.002732 324.98721 399.22974
424.0 0.002358 324.97665 422.47113
457.0 0.002188 324.96619 472.84671
555.0 0.001802 324.95569 566.87079
682.0 0.001466 324.94525 704.82202
787.0 0.001271 324.93484 808.57843
781.0 0.001280 324.92453 752.81537
612.0 0.001634 324.91422 611.60754
495.0 0.002020 324.90393 498.18954
435.0 0.002299 324.89377 431.77502
393.0 0.002545 324.88364 398.18219
382.0 0.002618 324.87347 381.88123
399.0 0.002506 324.86343 374.01834
401.0 0.002494 324.85336 371.04575
406.0 0.002463 324.84338 374.17822
408.0 0.002451 324.83347 385.44452
418.0 0.002392 324.82358 409.73639
443.0 0.002257 324.81363 448.99442
457.0 0.002188 324.80380 486.83005
446.0 0.002242 324.79410 482.52344
457.0 0.002188 324.78430 443.97430
449.0 0.002227 324.77460 410.57047
398.0 0.002513 324.76495 393.63629
396.0 0.002525 324.75534 393.17136
389.0 0.002571 324.74567 410.33591
430.0 0.002326 324.73611 450.99890
500.0 0.002000 324.72659 518.55975
592.0 0.001689 324.71716 589.23584
586.0 0.001706 324.70776 589.67865
528.0 0.001894 324.69830 521.27197
442.0 0.002262 324.68896 458.03610
397.0 0.002519 324.67966 422.19019
385.0 0.002597 324.67035 412.89148
435.0 0.002299 324.66101 422.69891
451.0 0.002217 324.65182 451.29919
469.0 0.002132 324.64264 498.26447
529.0 0.001890 324.63348 535.63043
542.0 0.001845 324.62436 520.31140
491.0 0.002037 324.61523 485.04739
450.0 0.002222 324.60623 473.83636
460.0 0.002174 324.59720 488.38315
465.0 0.002151 324.58817 494.21802
467.0 0.002141 324.57928 463.75186
439.0 0.002278 324.57028 427.07742
409.0 0.002445 324.56143 403.76215
383.0 0.002611 324.55258 397.97986
419.0 0.002387 324.54376 404.74542
434.0 0.002304 324.53491 426.12137
466.0 0.002146 324.52618 468.69589
550.0 0.001818 324.51743 532.32050
596.0 0.001678 324.50867 591.75348
645.0 0.001550 324.50003 610.53375
586.0 0.001706 324.49133 564.71375
510.0 0.001961 324.48279 499.08923
441.0 0.002268 324.47415 458.81284
425.0 0.002353 324.46558 452.53973
466.0 0.002146 324.45703 480.52142
555.0 0.001802 324.44849 540.38611
606.0 0.001650 324.43997 611.99939
641.0 0.001560 324.43152 648.98761
631.0 0.001585 324.42310 615.77722
579.0 0.001727 324.41473 568.41260
567.0 0.001764 324.40634 561.74438
588.0 0.001701 324.39795 592.32123
593.0 0.001686 324.38965 609.16901
553.0 0.001808 324.38129 574.73004
525.0 0.001905 324.37308 516.04218
526.0 0.001901 324.36475 475.33725
490.0 0.002041 324.35648 464.74133
476.0 0.002101 324.34830 487.53806
585.0 0.001709 324.34012 552.71021
719.0 0.001391 324.33194 670.33337
862.0 0.001160 324.32379 827.08374
984.0 0.001016 324.31564 940.14404
899.0 0.001112 324.30756 887.28973
754.0 0.001326 324.29947 739.91791
643.0 0.001555 324.29144 626.09979
555.0 0.001802 324.28329 561.82568
501.0 0.001996 324.27530 513.43262
456.0 0.002193 324.26730 475.20630
446.0 0.002242 324.25934 454.72900
448.0 0.002232 324.25137 452.25989
478.0 0.002092 324.24344 469.53900
520.0 0.001923 324.23550 515.73926
605.0 0.001653 324.22754 607.34125
791.0 0.001264 324.21964 756.27197
940.0 0.001064 324.21179 926.67603
1033.0 0.000968 324.20395 996.91327
965.0 0.001036 324.19611 963.07452
1009.0 0.000991 324.18820 979.76080
1063.0 0.000941 324.18048 1079.19336
993.0 0.001007 324.17267 1097.35742
855.0 0.001170 324.16486 923.56891
676.0 0.001479 324.15707 718.42035
560.0 0.001786 324.14938 578.82825
517.0 0.001934 324.14163 504.39481
479.0 0.002088 324.13388 474.47678
465.0 0.002151 324.12622 473.53149
501.0 0.001996 324.11844 498.29694
567.0 0.001764 324.11084 542.55511
603.0 0.001658 324.10321 579.09534
589.0 0.001698 324.09546 583.14349
589.0 0.001698 324.08792 595.10046
639.0 0.001565 324.08023 649.78864
716.0 0.001397 324.07260 715.50922
722.0 0.001385 324.06506 697.14026
597.0 0.001675 324.05743 602.02759
563.0 0.001776 324.04984 515.44995
436.0 0.002294 324.04224 463.16425
429.0 0.002331 324.03467 438.74750
435.0 0.002299 324.02719 431.72070
441.0 0.002268 324.01959 435.14221
522.0 0.001916 324.01208 449.04086
481.0 0.002079 324.00452 475.65097
564.0 0.001773 323.99704 524.06903
622.0 0.001608 323.98950 611.40277
749.0 0.001335 323.98206 758.26880
1019.0 0.000981 323.97449 972.98047
1337.0 0.000748 323.96698 1261.16028
1555.0 0.000643 323.95950 1588.66467
1611.0 0.000621 323.95200 1665.74670
1259.0 0.000794 323.94458 1354.03638
939.0 0.001065 323.93713 985.90210
695.0 0.001439 323.92963 737.45331
546.0 0.001832 323.92224 606.20239
521.0 0.001919 323.91473 551.76416
553.0 0.001808 323.90732 542.35370
558.0 0.001792 323.89990 558.76929
546.0 0.001832 323.89249 580.36627
599.0 0.001669 323.88498 603.01147
681.0 0.001468 323.87769 659.24994
745.0 0.001342 323.87024 760.86902
879.0 0.001138 323.86276 913.65015
1029.0 0.000972 323.85535 1074.84265
1029.0 0.000972 323.84790 1075.97925
873.0 0.001145 323.84055 910.85571
749.0 0.001335 323.83307 753.46558
695.0 0.001439 323.82562 664.57367
638.0 0.001567 323.81827 627.71765
671.0 0.001490 323.81091 645.54022
780.0 0.001282 323.80347 738.43176
973.0 0.001028 323.79608 903.97607
1121.0 0.000892 323.78867 1057.24377
989.0 0.001011 323.78122 1037.26794
806.0 0.001241 323.77380 854.27252
651.0 0.001536 323.76642 672.40753
545.0 0.001835 323.75900 557.69421
518.0 0.001931 323.75162 501.33310
487.0 0.002053 323.74417 478.13425
463.0 0.002160 323.73679 469.71661
460.0 0.002174 323.72934 471.43320
464.0 0.002155 323.72195 482.46017
502.0 0.001992 323.71454 503.11523
508.0 0.001969 323.70709 554.04993
640.0 0.001563 323.69968 662.02063
828.0 0.001208 323.69223 834.95374
1047.0 0.000955 323.68475 1006.71954
1061.0 0.000943 323.67731 1012.95300
794.0 0.001259 323.66983 835.70831
603.0 0.001658 323.66245 652.02002
464.0 0.002155 323.65500 531.84998
473.0 0.002114 323.64752 470.14880
394.0 0.002538 323.64005 447.51706
460.0 0.002174 323.63257 449.77148
461.0 0.002169 323.62512 463.64880
420.0 0.002381 323.61758 467.38153
439.0 0.002278 323.61014 451.51093
468.0 0.002137 323.60260 440.24915
424.0 0.002358 323.59509 451.18628
508.0 0.001969 323.58762 485.65094
559.0 0.001789 323.58008 528.71661
551.0 0.001815 323.57254 532.39783
499.0 0.002004 323.56497 484.90707
435.0 0.002299 323.55740 435.61609
417.0 0.002398 323.54996 403.88245
406.0 0.002463 323.54227 389.02811
410.0 0.002439 323.53470 386.40842
438.0 0.002283 323.52713 392.75290
440.0 0.002273 323.51956 403.25778
434.0 0.002304 323.51196 407.28629
419.0 0.002387 323.50436 400.49307
423.0 0.002364 323.49664 395.06754
440.0 0.002273 323.48901 398.17673
439.0 0.002278 323.48141 412.69019
455.0 0.002198 323.47369 442.67169
526.0 0.001901 323.46603 493.73074
587.0 0.001704 323.45840 556.78918
633.0 0.001580 323.45068 603.62830
667.0 0.001499 323.44293 631.42261
714.0 0.001401 323.43524 666.53613
809.0 0.001236 323.42743 741.09314
892.0 0.001121 323.41965 832.38123
876.0 0.001142 323.41193 829.71716
775.0 0.001290 323.40417 731.03424
673.0 0.001486 323.39633 652.17035
639.0 0.001565 323.38852 637.87506
689.0 0.001451 323.38071 681.32227
760.0 0.001316 323.37289 752.93164
754.0 0.001326 323.36502 774.30444
716.0 0.001397 323.35712 715.24286
643.0 0.001555 323.34927 644.82281
599.0 0.001669 323.34134 596.86877
578.0 0.001730 323.33337 570.45093
593.0 0.001686 323.32550 568.23291
620.0 0.001613 323.31750 597.34137
662.0 0.001511 323.30951 644.98157
704.0 0.001420 323.30164 658.59082
628.0 0.001592 323.29361 638.50220
700.0 0.001429 323.28552 654.95697
744.0 0.001344 323.27747 748.00824
936.0 0.001068 323.26941 913.81030
999.0 0.001001 323.26129 1068.54565
967.0 0.001034 323.25320 1038.42578
810.0 0.001235 323.24512 846.09515
608.0 0.001645 323.23700 656.41736
487.0 0.002053 323.22882 531.02283
454.0 0.002203 323.22064 461.36713
409.0 0.002445 323.21240 425.66644
415.0 0.002410 323.20416 407.58197
410.0 0.002439 323.19595 399.20398
389.0 0.002571 323.18771 398.14435
436.0 0.002294 323.17944 406.10159
423.0 0.002364 323.17108 428.95541
459.0 0.002179 323.16275 474.47598
516.0 0.001938 323.15445 544.03552
608.0 0.001645 323.14606 609.72662
596.0 0.001678 323.13770 604.09003
521.0 0.001919 323.12930 531.66235
449.0 0.002227 323.12082 460.91211
404.0 0.002475 323.11237 416.76892
395.0 0.002532 323.10382 396.97202
414.0 0.002415 323.09537 394.50198
435.0 0.002299 323.08688 400.52472
442.0 0.002262 323.07831 404.73767
452.0 0.002212 323.06964 395.25784
431.0 0.002320 323.06113 378.48590
382.0 0.002618 323.05246 365.23538
366.0 0.002732 323.04385 357.77664
381.0 0.002625 323.03516 356.98959
396.0 0.002525 323.02640 362.18460
394.0 0.002538 323.01773 373.23401
396.0 0.002525 323.00903 385.70605
394.0 0.002538 323.00024 388.87552
388.0 0.002577 322.99139 381.47598
395.0 0.002532 322.98251 373.40604
405.0 0.002469 322.97369 368.92285
412.0 0.002427 322.96484 369.57571
411.0 0.002433 322.95590 372.91791
393.0 0.002545 322.94699 372.29056
398.0 0.002513 322.93799 368.96487
416.0 0.002404 322.92902 368.78128
403.0 0.002481 322.92001 371.95132
395.0 0.002532 322.91092 385.05685
430.0 0.002326 322.90186 408.76736
452.0 0.002212 322.89273 434.31293
457.0 0.002188 322.88364 438.67239
425.0 0.002353 322.87448 419.14563
426.0 0.002347 322.86530 393.91077
426.0 0.002347 322.85605 374.50137
389.0 0.002571 322.84686 362.27148
375.0 0.002667 322.83749 356.02737
390.0 0.002564 322.82825 354.35867
384.0 0.002604 322.81888 356.36685
409.0 0.002445 322.80951 362.06308
408.0 0.002451 322.80008 372.03021
427.0 0.002342 322.79071 385.85593
420.0 0.002381 322.78125 407.57611
447.0 0.002237 322.77182 444.62509
552.0 0.001812 322.76221 500.64087
623.0 0.001605 322.75269 556.08020
585.0 0.001709 322.74310 567.39594
531.0 0.001883 322.73349 533.55548
516.0 0.001938 322.72379 501.03625
504.0 0.001984 322.71420 479.74591
438.0 0.002283 322.70441 457.12686
468.0 0.002137 322.69467 443.68231
462.0 0.002165 322.68494 449.05606
441.0 0.002268 322.67508 462.00043
437.0 0.002288 322.66525 461.66895
465.0 0.002151 322.65536 446.95007
427.0 0.002342 322.64548 430.32098
431.0 0.002320 322.63556 424.02725
470.0 0.002128 322.62558 435.80994
496.0 0.002016 322.61560 465.83505
490.0 0.002041 322.60553 501.99286
533.0 0.001876 322.59543 530.61877
557.0 0.001795 322.58527 562.56915
569.0 0.001757 322.57516 585.45691
551.0 0.001815 322.56494 567.08563
563.0 0.001776 322.55472 529.66199
516.0 0.001938 322.54453 516.21619
540.0 0.001852 322.53418 540.43231
586.0 0.001706 322.52390 585.95062
605.0 0.001653 322.51352 616.97852
595.0 0.001681 322.50317 591.78357
518.0 0.001931 322.49268 522.10010
478.0 0.002092 322.48227 459.44107
425.0 0.002353 322.47174 421.58578
404.0 0.002475 322.46121 406.12756
413.0 0.002421 322.45065 407.94211
438.0 0.002283 322.44003 422.42245
447.0 0.002237 322.42938 440.77753
433.0 0.002309 322.41867 444.90451
425.0 0.002353 322.40793 434.04855
430.0 0.002326 322.39716 425.03799
437.0 0.002288 322.38635 428.42398
462.0 0.002165 322.37555 444.42459
485.0 0.002062 322.36465 466.39804
487.0 0.002053 322.35373 475.43457
468.0 0.002137 322.34277 456.57663
444.0 0.002252 322.33179 430.60507
409.0 0.002445 322.32080 414.54755
429.0 0.002331 322.30972 411.40167
417.0 0.002398 322.29858 420.99084
457.0 0.002188 322.28748 446.00751
503.0 0.001988 322.27631 495.30542
604.0 0.001656 322.26505 582.44684
748.0 0.001337 322.25378 713.23346
970.0 0.001031 322.24246 872.94434
1038.0 0.000963 322.23120 1004.37689
1014.0 0.000986 322.21976 990.00446
922.0 0.001085 322.20834 867.40607
750.0 0.001333 322.19693 754.58447
662.0 0.001511 322.18533 657.83252
572.0 0.001748 322.17383 574.32532
515.0 0.001942 322.16223 521.10822
486.0 0.002058 322.15060 499.99249
510.0 0.001961 322.13898 513.37433
557.0 0.001795 322.12726 569.35071
698.0 0.001433 322.11551 674.21405
812.0 0.001232 322.10376 810.65625
968.0 0.001033 322.09192 897.61365
825.0 0.001212 322.08002 885.14886
782.0 0.001279 322.06815 848.57477
802.0 0.001247 322.05615 804.86383
706.0 0.001416 322.04422 717.51373
678.0 0.001475 322.03214 627.68951
567.0 0.001764 322.02005 562.20972
539.0 0.001855 322.00793 508.78763
489.0 0.002045 321.99579 470.67599
472.0 0.002119 321.98364 453.19043
473.0 0.002114 321.97134 453.98633
502.0 0.001992 321.95908 468.15515
520.0 0.001923 321.94666 494.36716
514.0 0.001946 321.93436 539.44501
613.0 0.001631 321.92194 588.35779
602.0 0.001661 321.90945 586.98212
563.0 0.001776 321.89700 529.06927
473.0 0.002114 321.88443 463.69220
427.0 0.002342 321.87183 417.24167
394.0 0.002538 321.85922 389.02115
358.0 0.002793 321.84650 372.54221
354.0 0.002825 321.83380 363.29636
348.0 0.002874 321.82098 358.69330
354.0 0.002825 321.80820 357.73004
365.0 0.002740 321.79538 359.81842
375.0 0.002667 321.78244 363.24670
383.0 0.002611 321.76959 363.91168
368.0 0.002717 321.75653 362.02887
376.0 0.002660 321.74353 361.98099
388.0 0.002577 321.73044 365.23782
379.0 0.002639 321.71738 368.96417
362.0 0.002762 321.70413 368.80441
384.0 0.002604 321.69098 365.18524
391.0 0.002558 321.67767 360.44711
370.0 0.002703 321.66437 355.75592
351.0 0.002849 321.65103 352.90002
359.0 0.002786 321.63763 351.64233
359.0 0.002786 321.62418 351.72583
356.0 0.002809 321.61072 354.59360
368.0 0.002717 321.59720 362.41605
405.0 0.002469 321.58365 377.97913
406.0 0.002463 321.57001 402.18024
437.0 0.002288 321.55634 432.61215
439.0 0.002278 321.54266 448.07462
426.0 0.002347 321.52893 432.18915
396.0 0.002525 321.51505 406.86142
389.0 0.002571 321.50125 389.07443
376.0 0.002660 321.48734 380.57068
390.0 0.002564 321.47342 379.85120
402.0 0.002488 321.45941 387.15512
424.0 0.002358 321.44537 405.13422
450.0 0.002222 321.43134 436.23645
461.0 0.002169 321.41714 478.90747
574.0 0.001742 321.40298 517.20441
542.0 0.001845 321.38879 531.85767
525.0 0.001905 321.37448 534.34338
546.0 0.001832 321.36023 563.59711
668.0 0.001497 321.34586 640.60590
809.0 0.001236 321.33145 754.29382
913.0 0.001095 321.31699 846.61646
874.0 0.001144 321.30255 826.76392
703.0 0.001422 321.28796 712.93005
557.0 0.001795 321.27338 591.64581
497.0 0.002012 321.25873 503.25967
424.0 0.002358 321.24402 453.97653
428.0 0.002336 321.22931 435.68008
434.0 0.002304 321.21451 440.29395
464.0 0.002155 321.19965 459.93420
477.0 0.002096 321.18481 480.08447
517.0 0.001934 321.16989 482.75516
470.0 0.002128 321.15491 471.07678
480.0 0.002083 321.13992 469.68304
516.0 0.001938 321.12485 494.18616
579.0 0.001727 321.10968 544.86780
630.0 0.001587 321.09451 592.99329
580.0 0.001724 321.07935 589.70776
553.0 0.001808 321.06412 548.07483
525.0 0.001905 321.04877 509.96066
506.0 0.001976 321.03339 488.47260
490.0 0.002041 321.01807 468.73804
455.0 0.002198 321.00259 440.27631
436.0 0.002294 320.98706 416.57504
420.0 0.002381 320.97150 405.51456
410.0 0.002439 320.95593 408.04160
425.0 0.002353 320.94025 421.17673
441.0 0.002268 320.92459 443.86252
478.0 0.002092 320.90881 473.03110
491.0 0.002037 320.89301 485.54749
471.0 0.002123 320.87717 461.82837
434.0 0.002304 320.86136 425.93906
402.0 0.002488 320.84534 400.34509
410.0 0.002439 320.82941 389.80405
408.0 0.002451 320.81332 391.49823
427.0 0.002342 320.79730 399.69907
437.0 0.002288 320.78113 402.46298
394.0 0.002538 320.76495 395.92465
385.0 0.002597 320.74875 390.99603
422.0 0.002370 320.73245 395.65756
419.0 0.002387 320.71613 418.14514
466.0 0.002146 320.69980 460.38470
547.0 0.001828 320.68335 515.91150
604.0 0.001656 320.66690 552.99609
572.0 0.001748 320.65030 539.88025
520.0 0.001923 320.63379 494.78137
464.0 0.002155 320.61722 449.58078
395.0 0.002532 320.60046 413.89362
389.0 0.002571 320.58383 388.51251
389.0 0.002571 320.56702 373.18289
364.0 0.002747 320.55020 365.57062
362.0 0.002762 320.53336 362.60593
369.0 0.002710 320.51645 362.90082
371.0 0.002695 320.49951 366.02771
361.0 0.002770 320.48242 371.79437
412.0 0.002427 320.46545 382.43442
420.0 0.002381 320.44830 399.99713
478.0 0.002092 320.43121 423.17508
446.0 0.002242 320.41406 438.34894
442.0 0.002262 320.39670 434.44452
473.0 0.002114 320.37939 426.03534
465.0 0.002151 320.36203 428.32111
425.0 0.002353 320.34467 445.62692
495.0 0.002020 320.32724 480.76782
546.0 0.001832 320.30972 531.52448
647.0 0.001546 320.29214 580.06122
634.0 0.001577 320.27457 623.08386
714.0 0.001401 320.25687 675.11237
717.0 0.001395 320.23926 698.51599
656.0 0.001524 320.22147 655.77570
556.0 0.001799 320.20367 597.96674
544.0 0.001838 320.18585 567.30298
576.0 0.001736 320.16797 549.49316
530.0 0.001887 320.15005 512.28204
483.0 0.002070 320.13205 465.54355
434.0 0.002304 320.11401 430.87601
427.0 0.002342 320.09592 413.63760
413.0 0.002421 320.07779 412.77750
445.0 0.002247 320.05963 426.85641
464.0 0.002155 320.04135 453.60638
509.0 0.001965 320.02310 485.25443
563.0 0.001776 320.00476 517.34442
579.0 0.001727 319.98639 555.74420
570.0 0.001754 319.96799 579.59381
549.0 0.001821 319.94952 558.23260
497.0 0.002012 319.93100 518.98102
482.0 0.002075 319.91245 496.30908
513.0 0.001949 319.89377 491.60324
496.0 0.002016 319.87509 491.14426
485.0 0.002062 319.85635 500.99539
562.0 0.001779 319.83762 542.22363
669.0 0.001495 319.81882 623.23682
773.0 0.001294 319.79993 722.05121
781.0 0.001280 319.78104 761.72150
629.0 0.001590 319.76202 694.12653
500.0 0.002000 319.74307 586.66003
459.0 0.002179 319.72403 503.00049
423.0 0.002364 319.70490 453.63364
396.0 0.002525 319.68579 427.60602
373.0 0.002681 319.66660 410.22302
378.0 0.002646 319.64728 397.75067
386.0 0.002591 319.62805 392.23801
397.0 0.002519 319.60870 396.20584
418.0 0.002392 319.58929 412.99460
441.0 0.002268 319.56979 448.38550
524.0 0.001908 319.55032 506.65930
590.0 0.001695 319.53079 578.86676
668.0 0.001497 319.51120 632.34064
591.0 0.001692 319.49158 637.18121
603.0 0.001658 319.47189 585.80566
515.0 0.001942 319.45221 509.31293
439.0 0.002278 319.43243 446.62631
396.0 0.002525 319.41257 407.79825
352.0 0.002841 319.39270 388.12842
388.0 0.002577 319.37277 380.24094
357.0 0.002801 319.35284 376.14282
330.0 0.003030 319.33286 370.15582
344.0 0.002907 319.31271 364.29895
355.0 0.002817 319.29266 362.75851
403.0 0.002481 319.27249 367.76480
388.0 0.002577 319.25226 379.52719
376.0 0.002660 319.23209 395.09512
417.0 0.002398 319.21170 401.76117
402.0 0.002488 319.19138 390.08139
388.0 0.002577 319.17099 371.86981
383.0 0.002611 319.15057 357.47522
365.0 0.002740 319.13016 348.74850
360.0 0.002778 319.10962 344.38336
359.0 0.002786 319.08902 343.14175
365.0 0.002740 319.06839 343.93552
361.0 0.002770 319.04773 345.45862
367.0 0.002725 319.02704 345.75806
391.0 0.002558 319.00626 344.60132
361.0 0.002770 318.98541 343.07437
342.0 0.002924 318.96460 341.51511
345.0 0.002899 318.94376 339.95764
328.0 0.003049 318.92276 339.59985
351.0 0.002849 318.90170 340.32346
386.0 0.002591 318.88077 342.07904
363.0 0.002755 318.85962 345.37277
375.0 0.002667 318.83847 350.86722
400.0 0.002500 318.81735 359.98849
419.0 0.002387 318.79614 374.61282
405.0 0.002469 318.77487 395.62686
441.0 0.002268 318.75354 421.00018
468.0 0.002137 318.73221 441.37756
490.0 0.002041 318.71078 456.52777
542.0 0.001845 318.68939 485.24973
602.0 0.001661 318.66788 535.40820
643.0 0.001555 318.64630 589.79156
624.0 0.001603 318.62473 614.21667
562.0 0.001779 318.60318 584.32440
485.0 0.002062 318.58145 519.16663
413.0 0.002421 318.55975 461.33612
417.0 0.002398 318.53802 425.86502
428.0 0.002336 318.51620 411.87158
405.0 0.002469 318.49432 416.72064
430.0 0.002326 318.47250 441.86981
463.0 0.002160 318.45050 490.28189
553.0 0.001808 318.42853 560.98438
648.0 0.001543 318.40659 632.05389
622.0 0.001608 318.38443 650.80151
591.0 0.001692 318.36237 606.77405
561.0 0.001783 318.34021 557.99438
533.0 0.001876 318.31799 534.43134
556.0 0.001799 318.29581 526.41315
506.0 0.001976 318.27353 512.34772
493.0 0.002028 318.25119 481.18790
478.0 0.002092 318.22882 448.32697
437.0 0.002288 318.20642 430.34674
437.0 0.002288 318.18396 432.48636
490.0 0.002041 318.16156 454.04602
530.0 0.001887 318.13892 488.90225
564.0 0.001773 318.11630 517.23975
485.0 0.002062 318.09378 525.91748
546.0 0.001832 318.07104 531.52484
483.0 0.002070 318.04840 533.46454
427.0 0.002342 318.02557 509.07614
459.0 0.002179 318.00284 466.54108
404.0 0.002475 317.98001 431.87875
417.0 0.002398 317.95718 414.88757
439.0 0.002278 317.93427 415.58316
458.0 0.002183 317.91129 430.32043
472.0 0.002119 317.88828 449.25287
449.0 0.002227 317.86523 456.18558
470.0 0.002128 317.84216 453.55359
494.0 0.002024 317.81912 462.81955
514.0 0.001946 317.79587 495.79745
553.0 0.001808 317.77271 547.44098
609.0 0.001642 317.74945 587.01569
591.0 0.001692 317.72617 573.98315
473.0 0.002114 317.70291 518.91705
409.0 0.002445 317.67947 462.52036
413.0 0.002421 317.65607 421.95038
393.0 0.002545 317.63266 398.44479
395.0 0.002532 317.60919 388.52420
369.0 0.002710 317.58572 388.73007
359.0 0.002786 317.56213 397.52063
384.0 0.002604 317.53854 413.89145
430.0 0.002326 317.51492 435.25589
455.0 0.002198 317.49124 459.51422
504.0 0.001984 317.46756 496.78180
587.0 0.001704 317.44379 559.68555
675.0 0.001481 317.42001 638.88983
733.0 0.001364 317.39618 689.87543
677.0 0.001477 317.37228 678.78131
587.0 0.001704 317.34839 622.14850
520.0 0.001923 317.32449 549.61560
454.0 0.002203 317.30054 493.28296
452.0 0.002212 317.27646 467.20419
489.0 0.002045 317.25238 472.33517
528.0 0.001894 317.22833 504.53113
573.0 0.001745 317.20428 551.94989
611.0 0.001637 317.18011 588.40942
577.0 0.001733 317.15588 584.13348
562.0 0.001779 317.13165 549.98993
516.0 0.001938 317.10739 521.11200
472.0 0.002119 317.08307 508.07040
505.0 0.001980 317.05878 512.31769
501.0 0.001996 317.03433 525.09015
483.0 0.002070 317.00995 521.31195
458.0 0.002183 316.98547 496.09076
456.0 0.002193 316.96103 468.29468
422.0 0.002370 316.93646 450.03192
450.0 0.002222 316.91193 450.80591
468.0 0.002137 316.88733 476.83261
567.0 0.001764 316.86273 526.53394
625.0 0.001600 316.83807 579.99548
599.0 0.001669 316.81339 598.36914
598.0 0.001672 316.78860 573.85437
501.0 0.001996 316.76382 525.23303
447.0 0.002237 316.73907 474.09827
419.0 0.002387 316.71423 434.86594
443.0 0.002257 316.68933 407.33112
401.0 0.002494 316.66449 388.41318
388.0 0.002577 316.63953 375.80518
378.0 0.002646 316.61456 367.53979
387.0 0.002584 316.58963 363.68192
379.0 0.002639 316.56458 364.93411
400.0 0.002500 316.53952 372.06174
416.0 0.002404 316.51440 384.65836
456.0 0.002193 316.48929 402.70868
470.0 0.002128 316.46414 426.49875
491.0 0.002037 316.43900 448.72403
490.0 0.002041 316.41367 450.36554
410.0 0.002439 316.38846 428.10449
404.0 0.002475 316.36319 398.48190
368.0 0.002717 316.33789 374.85144
374.0 0.002674 316.31256 360.97156
369.0 0.002710 316.28717 355.13385
372.0 0.002688 316.26172 356.12457
376.0 0.002660 316.23639 362.79016
387.0 0.002584 316.21091 373.06686
399.0 0.002506 316.18539 379.97391
399.0 0.002506 316.15985 376.08386
380.0 0.002632 316.13431 366.22177
359.0 0.002786 316.10873 357.82721
360.0 0.002778 316.08307 352.10812
387.0 0.002584 316.05750 349.35599
365.0 0.002740 316.03180 349.89059
361.0 0.002770 316.00607 351.65109
367.0 0.002725 315.98035 350.32672
361.0 0.002770 315.95459 346.04083
342.0 0.002924 315.92886 341.93344
324.0 0.003086 315.90305 339.52136
328.0 0.003049 315.87714 339.91537
346.0 0.002890 315.85141 342.96283
357.0 0.002801 315.82544 349.02887
373.0 0.002681 315.79950 357.44730
379.0 0.002639 315.77353 364.94830
369.0 0.002710 315.74759 366.25891
367.0 0.002725 315.72162 362.90067
356.0 0.002809 315.69562 359.57364
341.0 0.002933 315.66949 360.33801
377.0 0.002653 315.64337 366.65295
398.0 0.002513 315.61737 379.10260
384.0 0.002604 315.59125 396.90549
415.0 0.002410 315.56506 417.31006
495.0 0.002020 315.53888 442.82288
506.0 0.001976 315.51270 469.49521
473.0 0.002114 315.48642 479.10919
443.0 0.002257 315.46021 467.83893
465.0 0.002151 315.43390 458.46863
454.0 0.002203 315.40762 471.40192
515.0 0.001942 315.38129 518.39972
637.0 0.001570 315.35495 604.20447
736.0 0.001359 315.32861 715.66010
853.0 0.001172 315.30215 792.84814
658.0 0.001520 315.27579 762.33002
586.0 0.001706 315.24930 663.68488
492.0 0.002033 315.22287 572.35004
472.0 0.002119 315.19641 508.77008
476.0 0.002101 315.16989 470.08640
445.0 0.002247 315.14337 452.03381
454.0 0.002203 315.11676 450.85544
470.0 0.002128 315.09024 461.94943
446.0 0.002242 315.06372 475.84079
513.0 0.001949 315.03702 486.53748
481.0 0.002079 315.01047 496.61957
469.0 0.002132 314.98380 500.80518
455.0 0.002198 314.95709 501.30270
497.0 0.002012 314.93042 516.76337
550.0 0.001818 314.90369 553.84424
583.0 0.001715 314.87698 591.20703
561.0 0.001783 314.85019 587.34906
498.0 0.002008 314.82346 544.81958
455.0 0.002198 314.79672 503.82574
454.0 0.002203 314.76993 483.43170
483.0 0.002070 314.74307 489.16983
505.0 0.001980 314.71622 526.07898
574.0 0.001742 314.68936 593.84875
687.0 0.001456 314.66251 672.22522
691.0 0.001447 314.63553 707.63464
633.0 0.001580 314.60867 680.12451
606.0 0.001650 314.58173 643.10669
634.0 0.001577 314.55484 626.89270
645.0 0.001550 314.52786 616.40570
590.0 0.001695 314.50092 585.49988
496.0 0.002016 314.47391 531.63275
446.0 0.002242 314.44687 475.95880
403.0 0.002481 314.41983 434.90906
386.0 0.002591 314.39279 410.64651
398.0 0.002513 314.36575 400.20071
390.0 0.002564 314.33868 401.26349
395.0 0.002532 314.31161 414.41925
423.0 0.002364 314.28452 442.93890
482.0 0.002075 314.25748 490.30786
551.0 0.001815 314.23029 554.57458
586.0 0.001706 314.20316 614.68353
644.0 0.001553 314.17596 642.14618
647.0 0.001546 314.14883 646.72437
631.0 0.001585 314.12167 639.70233
574.0 0.001742 314.09445 618.10596
527.0 0.001898 314.06726 583.18347
507.0 0.001972 314.04001 532.32068
478.0 0.002092 314.01282 479.55563
403.0 0.002481 313.98563 442.28314
413.0 0.002421 313.95831 425.57205
404.0 0.002475 313.93112 426.94952
414.0 0.002415 313.90378 441.51160
503.0 0.001988 313.87646 453.91385
417.0 0.002398 313.84924 446.93353
408.0 0.002451 313.82187 427.50549
400.0 0.002500 313.79459 413.48022
400.0 0.002500 313.76733 410.93414
393.0 0.002545 313.73993 418.01849
399.0 0.002506 313.71268 429.16711
442.0 0.002262 313.68530 437.68982
438.0 0.002283 313.65790 435.43738
422.0 0.002370 313.63058 425.15387
416.0 0.002404 313.60318 410.59341
400.0 0.002500 313.57584 393.70547
401.0 0.002494 313.54843 380.35455
384.0 0.002604 313.52103 374.55267
375.0 0.002667 313.49359 376.99170
389.0 0.002571 313.46622 386.89719
392.0 0.002551 313.43884 401.66809
414.0 0.002415 313.41147 414.16058
420.0 0.002381 313.38397 423.19467
448.0 0.002232 313.35654 438.26242
473.0 0.002114 313.32907 462.08450
508.0 0.001969 313.30170 480.26392
463.0 0.002160 313.27420 477.65228
478.0 0.002092 313.24680 465.69540
471.0 0.002123 313.21936 457.94543
505.0 0.001980 313.19186 462.80618
520.0 0.001923 313.16440 479.26700
481.0 0.002079 313.13690 487.51083
445.0 0.002247 313.10944 466.98169
430.0 0.002326 313.08194 430.92557
386.0 0.002591 313.05447 399.60992
392.0 0.002551 313.02701 379.34576
387.0 0.002584 312.99951 368.70282
388.0 0.002577 312.97208 365.44424
360.0 0.002778 312.94449 369.12292
364.0 0.002747 312.91708 380.55240
386.0 0.002591 312.88959 400.55066
438.0 0.002283 312.86212 426.74823
485.0 0.002062 312.83466 450.20184
492.0 0.002033 312.80716 466.29889
482.0 0.002075 312.77963 471.31622
465.0 0.002151 312.75220 460.54468
464.0 0.002155 312.72467 446.00302
447.0 0.002237 312.69717 436.47537
406.0 0.002463 312.66965 424.56592
396.0 0.002525 312.64227 404.28696
393.0 0.002545 312.61475 383.83051
384.0 0.002604 312.58722 369.48911
391.0 0.002558 312.55978 361.71231
361.0 0.002770 312.53229 359.10513
351.0 0.002849 312.50479 360.44073
360.0 0.002778 312.47742 364.63812
388.0 0.002577 312.44983 371.77063
379.0 0.002639 312.42242 382.83347
388.0 0.002577 312.39490 401.97089
400.0 0.002500 312.36743 432.46265
490.0 0.002041 312.34006 475.85342
566.0 0.001767 312.31259 529.59857
618.0 0.001618 312.28513 586.25165
618.0 0.001618 312.25775 624.58679
568.0 0.001761 312.23029 623.55176
531.0 0.001883 312.20288 603.33905
538.0 0.001859 312.17542 581.20831
546.0 0.001832 312.14804 561.75909
510.0 0.001961 312.12061 552.35303
509.0 0.001965 312.09320 543.93170
452.0 0.002212 312.06586 522.23688
435.0 0.002299 312.03854 490.67651
412.0 0.002427 312.01105 467.12393
459.0 0.002179 311.98370 460.84003
432.0 0.002315 311.95633 467.61734
427.0 0.002342 311.92902 472.26242
455.0 0.002198 311.90164 465.32608
453.0 0.002208 311.87433 459.19547
445.0 0.002247 311.84698 466.40118
483.0 0.002070 311.81967 485.11298
464.0 0.002155 311.79242 498.37476
476.0 0.002101 311.76505 494.82013
488.0 0.002049 311.73782 485.38364
448.0 0.002232 311.71048 478.46973
493.0 0.002028 311.68332 479.00476
521.0 0.001919 311.65598 492.09241
542.0 0.001845 311.62875 512.46899
570.0 0.001754 311.60153 527.93176
550.0 0.001818 311.57434 523.46576
462.0 0.002165 311.54712 495.15363
465.0 0.002151 311.51996 462.43491
427.0 0.002342 311.49280 438.58801
404.0 0.002475 311.46558 419.73291
398.0 0.002513 311.43839 400.60651
385.0 0.002597 311.41125 385.43759
372.0 0.002688 311.38422 378.01282
381.0 0.002625 311.35712 379.58102
418.0 0.002392 311.32999 390.08911
433.0 0.002309 311.30289 408.12018
425.0 0.002353 311.27582 427.27133
425.0 0.002353 311.24881 434.46091
425.0 0.002353 311.22177 425.89319
412.0 0.002427 311.19485 416.28851
425.0 0.002353 311.16782 416.34775
460.0 0.002174 311.14084 425.52356
485.0 0.002062 311.11383 435.56558
469.0 0.002132 311.08685 442.60052
495.0 0.002020 311.06000 456.51788
571.0 0.001751 311.03305 482.68060
604.0 0.001656 311.00620 508.10175
577.0 0.001733 310.97934 506.83783
492.0 0.002033 310.95242 479.09351
461.0 0.002169 310.92569 450.62772
442.0 0.002262 310.89886 438.11392
493.0 0.002028 310.87207 446.20847
493.0 0.002028 310.84525 472.21350
498.0 0.002008 310.81854 499.72418
481.0 0.002079 310.79178 501.25980
427.0 0.002342 310.76508 474.67664
445.0 0.002247 310.73840 445.97806
394.0 0.002538 310.71170 430.73291
425.0 0.002353 310.68509 430.24765
475.0 0.002105 310.65845 440.46933
438.0 0.002283 310.63184 460.22574
518.0 0.001931 310.60526 481.55829
514.0 0.001946 310.57874 489.08002
512.0 0.001953 310.55219 480.07755
442.0 0.002262 310.52567 457.18869
399.0 0.002506 310.49921 426.19437
434.0 0.002304 310.47278 399.75412
364.0 0.002747 310.44632 384.33960
388.0 0.002577 310.41992 380.27121
390.0 0.002564 310.39355 385.32861
402.0 0.002488 310.36719 392.60004
349.0 0.002865 310.34085 391.61511
390.0 0.002564 310.31451 381.25800
348.0 0.002874 310.28827 370.72427
350.0 0.002857 310.26202 365.64355
323.0 0.003096 310.23578 366.01199
360.0 0.002778 310.20956 370.21173
364.0 0.002747 310.18344 377.24332
384.0 0.002604 310.15726 383.65341
376.0 0.002660 310.13126 382.16690
378.0 0.002646 310.10510 373.07315
354.0 0.002825 310.07904 362.14590
338.0 0.002959 310.05301 353.08865
341.0 0.002933 310.02707 348.37411
384.0 0.002604 310.00107 348.77805
368.0 0.002717 309.97513 353.38358
349.0 0.002865 309.94922 359.04364
347.0 0.002882 309.92334 360.46991
349.0 0.002865 309.89752 357.20950
343.0 0.002915 309.87167 354.63959
366.0 0.002732 309.84589 357.12292
391.0 0.002558 309.82013 365.44104
393.0 0.002545 309.79446 378.29825
410.0 0.002439 309.76874 394.03918
442.0 0.002262 309.74310 413.50284
460.0 0.002174 309.71750 432.91873
476.0 0.002101 309.69186 437.09741
452.0 0.002212 309.66632 419.47803
386.0 0.002591 309.64084 393.01382
372.0 0.002688 309.61536 370.02856
346.0 0.002890 309.58984 354.38947
311.0 0.003215 309.56445 346.49487
341.0 0.002933 309.53909 344.19736
350.0 0.002857 309.51373 344.96017
354.0 0.002825 309.48843 345.32541
345.0 0.002899 309.46317 344.47803
347.0 0.002882 309.43793 344.80939
346.0 0.002890 309.41278 349.33774
346.0 0.002890 309.38763 359.63943
350.0 0.002857 309.36243 374.33881
385.0 0.002597 309.33737 389.00259
412.0 0.002427 309.31232 397.58533
402.0 0.002488 309.28735 399.08426
367.0 0.002725 309.26233 393.96222
367.0 0.002725 309.23740 379.68848
338.0 0.002959 309.21249 361.52417
332.0 0.003012 309.18762 346.17523
353.0 0.002833 309.16284 335.43945
332.0 0.003012 309.13806 328.85681
303.0 0.003300 309.11328 325.03323
318.0 0.003145 309.08859 322.90741
325.0 0.003077 309.06396 321.73813
338.0 0.002959 309.03940 321.49634
339.0 0.002950 309.01480 322.11725
325.0 0.003077 308.99030 323.88348
331.0 0.003021 308.96576 327.11462
335.0 0.002985 308.94131 331.78711
356.0 0.002809 308.91696 336.75073
349.0 0.002865 308.89258 339.34290
310.0 0.003226 308.86826 337.97214
355.0 0.002817 308.84396 335.84106
343.0 0.002915 308.81973 336.19809
355.0 0.002817 308.79565 340.87433
341.0 0.002933 308.77148 351.19922
395.0 0.002532 308.74741 367.14383
392.0 0.002551 308.72330 385.30313
375.0 0.002667 308.69928 394.88138
355.0 0.002817 308.67542 386.94983
360.0 0.002778 308.65143 369.36157
354.0 0.002825 308.62756 353.33191
336.0 0.002976 308.60376 342.56253
317.0 0.003155 308.57999 337.08038
332.0 0.003012 308.55624 335.86700
351.0 0.002849 308.53256 338.22095
358.0 0.002793 308.50897 343.96066
363.0 0.002755 308.48541 354.01840
376.0 0.002660 308.46185 368.98810
388.0 0.002577 308.43835 385.50531
401.0 0.002494 308.41495 394.19278
398.0 0.002513 308.39157 388.47122
366.0 0.002732 308.36823 377.10446
341.0 0.002933 308.34497 369.84613
351.0 0.002849 308.32172 369.19464
369.0 0.002710 308.29849 371.43799
367.0 0.002725 308.27536 369.51062
359.0 0.002786 308.25232 361.99323
361.0 0.002770 308.22928 354.05756
331.0 0.003021 308.20630 348.59421
328.0 0.003049 308.18335 346.71628
349.0 0.002865 308.16049 349.19781
342.0 0.002924 308.13766 357.28018
346.0 0.002890 308.11490 373.19525
375.0 0.002667 308.09213 400.18024
423.0 0.002364 308.06949 440.87558
528.0 0.001894 308.04694 491.36768
542.0 0.001845 308.02435 532.17950
521.0 0.001919 308.00180 535.27374
523.0 0.001912 307.97937 501.87411
435.0 0.002299 307.95700 459.87881
408.0 0.002451 307.93469 427.33154
377.0 0.002653 307.91229 403.48062
359.0 0.002786 307.89014 383.63431
341.0 0.002933 307.86804 368.34317
329.0 0.003040 307.84586 358.78479
329.0 0.003040 307.82388 354.69220
334.0 0.002994 307.80179 355.40463
340.0 0.002941 307.77988 360.80515
359.0 0.002786 307.75800 370.36111
349.0 0.002865 307.73618 381.99481
357.0 0.002801 307.71442 395.02805
429.0 0.002331 307.69269 412.98215
427.0 0.002342 307.67108 437.95563
503.0 0.001988 307.64948 461.77420
450.0 0.002222 307.62793 469.16870
436.0 0.002294 307.60648 456.13782
438.0 0.002283 307.58502 435.27463
393.0 0.002545 307.56369 419.51770
364.0 0.002747 307.54245 410.20331
385.0 0.002597 307.52124 399.89279
384.0 0.002604 307.50006 386.17761
349.0 0.002865 307.47897 374.34476
361.0 0.002770 307.45789 367.35461
364.0 0.002747 307.43692 365.62482
369.0 0.002710 307.41599 369.41547
394.0 0.002538 307.39502 377.49985
381.0 0.002625 307.37430 385.57883
363.0 0.002755 307.35355 389.39243
372.0 0.002688 307.33295 392.00354
408.0 0.002451 307.31226 400.21170
431.0 0.002320 307.29178 416.81055
461.0 0.002169 307.27124 439.18106
458.0 0.002183 307.25082 460.94626
484.0 0.002066 307.23053 476.56592
512.0 0.001953 307.21027 489.31213
536.0 0.001866 307.19000 502.37823
497.0 0.002012 307.16992 503.94025
465.0 0.002151 307.14978 488.18109
468.0 0.002137 307.12976 469.81808
440.0 0.002273 307.10977 458.31628
440.0 0.002273 307.08987 452.02615
447.0 0.002237 307.07007 449.03250
470.0 0.002128 307.05035 449.67050
479.0 0.002088 307.03070 452.65323
458.0 0.002183 307.01105 451.19489
428.0 0.002336 306.99149 439.41104
381.0 0.002625 306.97208 425.42700
396.0 0.002525 306.95264 421.57690
452.0 0.002212 306.93332 432.37393
487.0 0.002053 306.91403 457.25562
486.0 0.002058 306.89484 488.95544
482.0 0.002075 306.87561 514.67981
496.0 0.002016 306.85657 535.27777
559.0 0.001789 306.83762 561.37451
617.0 0.001621 306.81870 587.85699
604.0 0.001656 306.79987 597.67999
565.0 0.001770 306.78116 579.79004
524.0 0.001908 306.76233 538.74255
434.0 0.002304 306.74371 493.55460
421.0 0.002375 306.72513 458.97772
437.0 0.002288 306.70670 439.36676
461.0 0.002169 306.68829 433.49493
455.0 0.002198 306.66989 435.70554
456.0 0.002193 306.65167 439.75769
464.0 0.002155 306.63348 440.00604
484.0 0.002066 306.61536 430.94113
398.0 0.002513 306.59729 416.34854
394.0 0.002538 306.57932 405.69128
424.0 0.002358 306.56146 401.60074
381.0 0.002625 306.54358 400.25500
404.0 0.002475 306.52585 401.07111
406.0 0.002463 306.50818 407.68146
436.0 0.002294 306.49057 418.90372
464.0 0.002155 306.47305 425.43549
427.0 0.002342 306.45560 418.34259
386.0 0.002591 306.43829 398.89105
376.0 0.002660 306.42096 377.11240
363.0 0.002755 306.40372 360.58096
361.0 0.002770 306.38657 351.00021
356.0 0.002809 306.36954 348.15973
353.0 0.002833 306.35254 350.65894
380.0 0.002632 306.33563 356.58234
344.0 0.002907 306.31879 361.57336
358.0 0.002793 306.30203 360.67175
357.0 0.002801 306.28543 354.34406
350.0 0.002857 306.26880 346.46170
335.0 0.002985 306.25229 338.61340
325.0 0.003077 306.23590 332.63364
336.0 0.002976 306.21948 328.95779
330.0 0.003030 306.20325 327.43866
348.0 0.002874 306.18707 327.79315
321.0 0.003115 306.17093 330.06195
316.0 0.003165 306.15491 333.86566
340.0 0.002941 306.13895 338.70642
360.0 0.002778 306.12314 344.01672
387.0 0.002584 306.10736 351.51199
392.0 0.002551 306.09164 362.66812
392.0 0.002551 306.07596 376.77893
422.0 0.002370 306.06049 390.04535
414.0 0.002415 306.04498 394.38089
407.0 0.002457 306.02963 384.44119
369.0 0.002710 306.01434 367.87769
353.0 0.002833 305.99915 353.41202
360.0 0.002778 305.98404 343.15125
347.0 0.002882 305.96899 336.04593
317.0 0.003155 305.95404 332.18088
327.0 0.003058 305.93921 330.83804
332.0 0.003012 305.92438 331.63696
324.0 0.003086 305.90970 335.07629
329.0 0.003040 305.89514 341.25668
349.0 0.002865 305.88062 349.74237
347.0 0.002882 305.86609 358.80984
334.0 0.002994 305.85178 365.40817
367.0 0.002725 305.83752 370.89258
380.0 0.002632 305.82330 380.90082
435.0 0.002299 305.80923 399.93079
469.0 0.002132 305.79523 429.87424
496.0 0.002016 305.78128 467.56827
559.0 0.001789 305.76743 503.58585
516.0 0.001938 305.75369 521.76855
506.0 0.001976 305.74014 507.16779
445.0 0.002247 305.72653 466.73904
403.0 0.002481 305.71304 422.93674
367.0 0.002725 305.69965 388.86371
336.0 0.002976 305.68634 366.72446
348.0 0.002874 305.67310 353.89539
327.0 0.003058 305.66003 347.57758
361.0 0.002770 305.64697 345.49832
333.0 0.003003 305.63406 346.99103
392.0 0.002551 305.62125 351.51846
381.0 0.002625 305.60840 358.07758
382.0 0.002618 305.59570 366.29501
387.0 0.002584 305.58322 376.58844
389.0 0.002571 305.57071 386.53781
388.0 0.002577 305.55826 393.04364
412.0 0.002427 305.54596 399.67834
422.0 0.002370 305.53384 410.53091
447.0 0.002237 305.52161 420.77484
405.0 0.002469 305.50958 419.74615
390.0 0.002564 305.49765 405.62949
388.0 0.002577 305.48584 387.90610
384.0 0.002604 305.47409 374.89197
375.0 0.002667 305.46240 368.45135
365.0 0.002740 305.45090 366.69699
356.0 0.002809 305.43942 365.54031
350.0 0.002857 305.42804 361.99960
375.0 0.002667 305.41678 357.58875
360.0 0.002778 305.40552 355.21094
342.0 0.002924 305.39447 357.31812
355.0 0.002817 305.38348 366.07047
362.0 0.002762 305.37259 382.43774
394.0 0.002538 305.36179 404.89670
428.0 0.002336 305.35107 428.45621
465.0 0.002151 305.34042 445.28845
474.0 0.002110 305.32990 443.61212
428.0 0.002336 305.31949 421.94858
378.0 0.002646 305.30917 394.91083
353.0 0.002833 305.29898 373.15744
353.0 0.002833 305.28876 358.80573
351.0 0.002849 305.27872 350.76837
353.0 0.002833 305.26883 347.58112
360.0 0.002778 305.25900 347.60089
343.0 0.002915 305.24924 349.06866
348.0 0.002874 305.23959 350.51337
361.0 0.002770 305.23013 352.19696
347.0 0.002882 305.22061 355.79883
370.0 0.002703 305.21130 362.48459
416.0 0.002404 305.20203 372.43460
426.0 0.002347 305.19281 385.12665
436.0 0.002294 305.18381 403.63574
449.0 0.002227 305.17487 429.63635
482.0 0.002075 305.16602 459.33038
483.0 0.002070 305.15729 477.90582
423.0 0.002364 305.14862 474.79474
435.0 0.002299 305.14001 462.65454
476.0 0.002101 305.13159 457.99619
498.0 0.002008 305.12320 461.73822
438.0 0.002283 305.11499 463.05505
453.0 0.002208 305.10687 454.67822
482.0 0.002075 305.09879 445.25330
452.0 0.002212 305.09082 441.80899
443.0 0.002257 305.08298 439.27792
410.0 0.002439 305.07532 430.21988
406.0 0.002463 305.06763 416.20074
391.0 0.002558 305.06012 401.03900
432.0 0.002315 305.05261 387.70483
392.0 0.002551 305.04532 378.26974
351.0 0.002849 305.03806 372.92334
372.0 0.002688 305.03098 372.08017
383.0 0.002611 305.02396 376.37103
398.0 0.002513 305.01706 383.19736
358.0 0.002793 305.01019 387.90372
395.0 0.002532 305.00351 391.07083
408.0 0.002451 304.99686 396.26981
426.0 0.002347 304.99033 403.66394
435.0 0.002299 304.98401 407.53217
375.0 0.002667 304.97763 403.70056
368.0 0.002717 304.97147 395.28958
400.0 0.002500 304.96542 388.90442
392.0 0.002551 304.95944 386.00882
401.0 0.002494 304.95358 382.50217
380.0 0.002632 304.94781 376.09573
336.0 0.002976 304.94208 368.46008
355.0 0.002817 304.93655 361.56772
351.0 0.002849 304.93112 357.32047
384.0 0.002604 304.92575 358.13043
392.0 0.002551 304.92047 364.64838
411.0 0.002433 304.91537 377.31155
471.0 0.002123 304.91037 394.96155
448.0 0.002232 304.90546 411.66672
411.0 0.002433 304.90057 418.34109
426.0 0.002347 304.89587 415.96896
422.0 0.002370 304.89133 412.71805
404.0 0.002475 304.88684 410.30423
394.0 0.002538 304.88245 404.45938
396.0 0.002525 304.87817 395.21143
377.0 0.002653 304.87399 384.64023
370.0 0.002703 304.86996 373.63324
381.0 0.002625 304.86606 364.62543
355.0 0.002817 304.86221 359.78668
341.0 0.002933 304.85852 360.10236
362.0 0.002762 304.85483 366.27094
395.0 0.002532 304.85135 378.66684
406.0 0.002463 304.84796 397.18073
418.0 0.002392 304.84470 418.99066
445.0 0.002247 304.84149 439.07959
476.0 0.002101 304.83844 458.36362
463.0 0.002160 304.83542 483.24631
512.0 0.001953 304.83261 514.25214
555.0 0.001802 304.82986 539.11072
526.0 0.001901 304.82724 541.29291
476.0 0.002101 304.82477 516.31427
434.0 0.002304 304.82233 479.74496
438.0 0.002283 304.82004 446.41110
382.0 0.002618 304.81787 422.05896
399.0 0.002506 304.81580 407.45975
396.0 0.002525 304.81378 402.08588
376.0 0.002660 304.81195 407.53702
421.0 0.002375 304.81021 426.15665
450.0 0.002222 304.80856 459.27200
579.0 0.001727 304.80707 503.81522
548.0 0.001825 304.80569 546.42224
553.0 0.001808 304.80438 561.98438
519.0 0.001927 304.80322 546.40009
476.0 0.002101 304.80212 521.87427
482.0 0.002075 304.80127 509.09564
473.0 0.002114 304.80032 519.32855
565.0 0.001770 304.79962 554.31958
647.0 0.001546 304.79901 602.07971
656.0 0.001524 304.79858 633.52960
599.0 0.001669 304.79810 619.32159
553.0 0.001808 304.79785 569.90381
480.0 0.002083 304.79773 513.97717
433.0 0.002309 304.79770 464.63644
390.0 0.002564 304.79776 426.40863
381.0 0.002625 304.79800 401.83276
391.0 0.002558 304.79825 390.05524
396.0 0.002525 304.79871 389.67621
419.0 0.002387 304.79916 398.98300
424.0 0.002358 304.79987 414.72147
431.0 0.002320 304.80066 429.38913
433.0 0.002309 304.80151 430.38986
406.0 0.002463 304.80246 416.55713
400.0 0.002500 304.80362 400.00385
395.0 0.002532 304.80478 390.32101
390.0 0.002564 304.80612 391.23917
418.0 0.002392 304.80759 403.12708
413.0 0.002421 304.80914 422.68811
448.0 0.002232 304.81082 440.05423
458.0 0.002183 304.81265 442.50385
423.0 0.002364 304.81461 429.50226
396.0 0.002525 304.81662 409.54361
356.0 0.002809 304.81879 387.58441
351.0 0.002849 304.82104 367.72806
350.0 0.002857 304.82343 352.62415
343.0 0.002915 304.82596 342.69824
332.0 0.003012 304.82855 336.65518
324.0 0.003086 304.83130 333.48953
340.0 0.002941 304.83414 332.49069
352.0 0.002841 304.83710 333.63312
357.0 0.002801 304.84024 337.05585
362.0 0.002762 304.84341 343.06238
353.0 0.002833 304.84674 350.89819
381.0 0.002625 304.85013 359.30057
371.0 0.002695 304.85376 363.69748
366.0 0.002732 304.85742 362.09613
366.0 0.002732 304.86121 357.66678
362.0 0.002762 304.86517 354.48303
342.0 0.002924 304.86917 354.51266
347.0 0.002882 304.87332 357.81815
374.0 0.002674 304.87759 363.82825
356.0 0.002809 304.88202 373.95868
393.0 0.002545 304.88644 391.35345
460.0 0.002174 304.89114 419.17053
482.0 0.002075 304.89590 455.38467
478.0 0.002092 304.90079 488.69342
440.0 0.002273 304.90573 498.15924
436.0 0.002294 304.91086 477.86670
374.0 0.002674 304.91611 446.77109
409.0 0.002445 304.92145 420.04877
370.0 0.002703 304.92691 402.07983
389.0 0.002571 304.93250 391.50702
394.0 0.002538 304.93817 388.59668
395.0 0.002532 304.94397 392.23331
410.0 0.002439 304.94992 401.44922
450.0 0.002222 304.95599 417.44641
474.0 0.002110 304.96222 439.88663
504.0 0.001984 304.96851 461.25345
471.0 0.002123 304.97485 467.78375
461.0 0.002169 304.98148 457.88565
463.0 0.002160 304.98807 446.18442
456.0 0.002193 304.99487 443.41129
484.0 0.002066 305.00180 450.58801
471.0 0.002123 305.00879 460.31299
461.0 0.002169 305.01602 463.97128
423.0 0.002364 305.02328 455.89633
422.0 0.002370 305.03061 434.54660
397.0 0.002519 305.03815 408.32535
356.0 0.002809 305.04581 386.13718
351.0 0.002849 305.05353 370.41867
372.0 0.002688 305.06146 360.12662
373.0 0.002681 305.06940 354.81177
324.0 0.003086 305.07755 354.42218
347.0 0.002882 305.08585 358.90292
361.0 0.002770 305.09418 368.15198
367.0 0.002725 305.10263 380.92624
414.0 0.002415 305.11127 393.16687
418.0 0.002392 305.12000 398.03778
383.0 0.002611 305.12885 392.85358
374.0 0.002674 305.13782 383.97870
396.0 0.002525 305.14688 378.49158
416.0 0.002404 305.15613 378.22598
407.0 0.002457 305.16547 380.56778
396.0 0.002525 305.17493 381.97760
382.0 0.002618 305.18448 381.94379
363.0 0.002755 305.19418 381.21329
353.0 0.002833 305.20404 377.41971
344.0 0.002907 305.21405 370.27771
358.0 0.002793 305.22403 363.55624
365.0 0.002740 305.23428 358.72818
344.0 0.002907 305.24463 353.65161
343.0 0.002915 305.25507 347.00668
334.0 0.002994 305.26559 340.42511
328.0 0.003049 305.27631 335.44379
332.0 0.003012 305.28711 332.26233
341.0 0.002933 305.29797 330.23050
352.0 0.002841 305.30911 328.57666
332.0 0.003012 305.32025 327.52240
328.0 0.003049 305.33160 327.54718
350.0 0.002857 305.34299 329.99496
337.0 0.002967 305.35452 335.08258
371.0 0.002695 305.36624 342.82458
394.0 0.002538 305.37796 352.03656
376.0 0.002660 305.38989 359.70529
411.0 0.002433 305.40192 362.77505
378.0 0.002646 305.41415 360.65714
331.0 0.003021 305.42642 354.35324
348.0 0.002874 305.43890 347.36835
377.0 0.002653 305.45139 341.98532
389.0 0.002571 305.46402 338.14624
355.0 0.002817 305.47681 334.60229
360.0 0.002778 305.48978 331.34018
323.0 0.003096 305.50281 329.13040
323.0 0.003096 305.51590 328.79526
331.0 0.003021 305.52924 329.31830
313.0 0.003195 305.54263 329.90994
304.0 0.003289 305.55615 330.32852
344.0 0.002907 305.56982 330.96780
346.0 0.002890 305.58359 332.43399
344.0 0.002907 305.59750 334.55273
349.0 0.002865 305.61151 338.22809
350.0 0.002857 305.62567 344.69244
368.0 0.002717 305.63989 354.20221
371.0 0.002695 305.65430 365.47803
403.0 0.002481 305.66882 376.69385
424.0 0.002358 305.68347 384.61420
381.0 0.002625 305.69824 383.56772
353.0 0.002833 305.71323 373.01624
341.0 0.002933 305.72818 358.91141
336.0 0.002976 305.74335 346.73117
314.0 0.003185 305.75861 338.36429
303.0 0.003300 305.77393 333.46750
323.0 0.003096 305.78952 331.31958
348.0 0.002874 305.80515 331.38144
356.0 0.002809 305.82089 332.55206
354.0 0.002825 305.83679 334.40533
330.0 0.003030 305.85281 337.45743
326.0 0.003067 305.86896 342.45264
372.0 0.002688 305.88519 349.76376
423.0 0.002364 305.90161 359.99298
428.0 0.002336 305.91809 372.94931
434.0 0.002304 305.93478 386.45062
415.0 0.002410 305.95148 396.72495
405.0 0.002469 305.96835 404.15082
406.0 0.002463 305.98544 413.20758
444.0 0.002252 306.00250 425.80438
472.0 0.002119 306.01974 439.70801
476.0 0.002101 306.03717 450.60294
478.0 0.002092 306.05460 454.73312
487.0 0.002053 306.07227 454.12927
453.0 0.002208 306.09003 456.03296
472.0 0.002119 306.10791 462.83148
469.0 0.002132 306.12592 474.20697
481.0 0.002079 306.14410 489.53275
493.0 0.002028 306.16229 503.78210
473.0 0.002114 306.18069 514.41492
539.0 0.001855 306.19913 524.57941
530.0 0.001887 306.21780 531.67535
519.0 0.001927 306.23654 526.36047
464.0 0.002155 306.25546 503.23636
446.0 0.002242 306.27444 471.93979
430.0 0.002326 306.29352 444.53210
397.0 0.002519 306.31277 424.20496
431.0 0.002320 306.33215 411.96262
388.0 0.002577 306.35168 408.32138
416.0 0.002404 306.37128 411.58047
418.0 0.002392 306.39099 416.92010
378.0 0.002646 306.41092 418.80338
416.0 0.002404 306.43085 415.87662
397.0 0.002519 306.45099 411.55322
356.0 0.002809 306.47125 410.43771
390.0 0.002564 306.49164 413.71777
425.0 0.002353 306.51215 420.97058
425.0 0.002353 306.53265 430.92880
412.0 0.002427 306.55344 439.91089
453.0 0.002208 306.57431 446.70444
471.0 0.002123 306.59531 454.12231
488.0 0.002049 306.61639 461.16061
453.0 0.002208 306.63760 464.43024
426.0 0.002347 306.65900 463.93246
463.0 0.002160 306.68045 466.50952
493.0 0.002028 306.70209 477.44995
502.0 0.001992 306.72385 491.90335
507.0 0.001972 306.74564 494.87488
475.0 0.002105 306.76761 478.75241
420.0 0.002381 306.78973 454.01453
440.0 0.002273 306.81195 431.83176
427.0 0.002342 306.83435 417.08380
400.0 0.002500 306.85675 412.31128
391.0 0.002558 306.87936 418.57910
428.0 0.002336 306.90210 434.12372
456.0 0.002193 306.92496 453.57541
480.0 0.002083 306.94791 469.04742
469.0 0.002132 306.97098 475.85541
477.0 0.002096 306.99423 475.42688
505.0 0.001980 307.01755 470.39722
487.0 0.002053 307.04108 463.89551
469.0 0.002132 307.06461 455.92834
440.0 0.002273 307.08832 444.21954
427.0 0.002342 307.11215 432.59161
426.0 0.002347 307.13611 428.10800
455.0 0.002198 307.16016 433.54721
488.0 0.002049 307.18433 445.98117
470.0 0.002128 307.20871 456.91116
442.0 0.002262 307.23309 458.63669
439.0 0.002278 307.25772 452.41687
455.0 0.002198 307.28241 442.17908
432.0 0.002315 307.30722 429.27286
381.0 0.002625 307.33212 417.88812
397.0 0.002519 307.35724 413.24948
450.0 0.002222 307.38239 417.18381
432.0 0.002315 307.40771 428.49527
437.0 0.002288 307.43311 444.51865
475.0 0.002105 307.45862 463.10886
533.0 0.001876 307.48431 483.44501
546.0 0.001832 307.51013 500.88867
528.0 0.001894 307.53604 504.79846
476.0 0.002101 307.56210 488.73105
401.0 0.002494 307.58832 459.15259
424.0 0.002358 307.61456 427.76346
399.0 0.002506 307.64093 402.23480
366.0 0.002732 307.66745 385.86932
398.0 0.002513 307.69412 378.00241
372.0 0.002688 307.72089 377.01917
411.0 0.002433 307.74780 380.43509
388.0 0.002577 307.77478 386.23044
390.0 0.002564 307.80200 393.47119
405.0 0.002469 307.82922 402.51874
430.0 0.002326 307.85660 416.24680
469.0 0.002132 307.88406 439.18021
524.0 0.001908 307.91171 472.76135
591.0 0.001692 307.93948 511.58243
606.0 0.001650 307.96735 539.18964
533.0 0.001876 307.99530 538.55103
482.0 0.002075 308.02344 515.47742
478.0 0.002092 308.05164 488.60297
443.0 0.002257 308.07999 464.77533
407.0 0.002457 308.10840 442.24237
364.0 0.002747 308.13705 421.39545
400.0 0.002500 308.16574 404.40918
383.0 0.002611 308.19458 390.10562
350.0 0.002857 308.22351 376.96936
345.0 0.002899 308.25269 365.50760
375.0 0.002667 308.28183 356.97940
370.0 0.002703 308.31116 351.69250
371.0 0.002695 308.34055 349.44122
360.0 0.002778 308.37009 350.06247
367.0 0.002725 308.39981 354.47165
384.0 0.002604 308.42960 363.46600
414.0 0.002415 308.45950 378.50443
450.0 0.002222 308.48950 400.70868
487.0 0.002053 308.51968 429.44202
493.0 0.002028 308.54996 459.09894
508.0 0.001969 308.58029 479.00186
501.0 0.001996 308.61084 482.50189
466.0 0.002146 308.64145 470.14236
428.0 0.002336 308.67221 446.03970
382.0 0.002618 308.70309 419.65500
397.0 0.002519 308.73410 398.89304
379.0 0.002639 308.76523 385.92648
384.0 0.002604 308.79639 379.75769
376.0 0.002660 308.82776 378.27719
357.0 0.002801 308.85925 381.21603
378.0 0.002646 308.89078 389.13318
436.0 0.002294 308.92249 401.62680
446.0 0.002242 308.95432 415.62933
459.0 0.002179 308.98627 428.53632
510.0 0.001961 309.01834 438.69443
475.0 0.002105 309.05054 441.26498
422.0 0.002370 309.08276 432.36609
395.0 0.002532 309.11517 418.37036
377.0 0.002653 309.14774 408.30011
420.0 0.002381 309.18036 406.52951
418.0 0.002392 309.21310 413.23938
434.0 0.002304 309.24600 426.46161
433.0 0.002309 309.27899 440.47330
432.0 0.002315 309.31213 446.14188
426.0 0.002347 309.34531 441.01288
438.0 0.002283 309.37872 433.44818
388.0 0.002577 309.41217 431.34616
462.0 0.002165 309.44577 436.31668
412.0 0.002427 309.47943 441.95969
393.0 0.002545 309.51328 439.42477
390.0 0.002564 309.54715 428.53860
391.0 0.002558 309.58121 417.56250
370.0 0.002703 309.61536 411.99054
392.0 0.002551 309.64966 412.56448
404.0 0.002475 309.68402 418.62476
440.0 0.002273 309.71857 427.92599
445.0 0.002247 309.75317 434.54074
404.0 0.002475 309.78793 432.47168
397.0 0.002519 309.82281 420.40344
352.0 0.002841 309.85779 403.63010
344.0 0.002907 309.89276 388.84943
356.0 0.002809 309.92804 379.15155
344.0 0.002907 309.96329 374.22662
369.0 0.002710 309.99881 372.55399
396.0 0.002525 310.03433 370.63434
358.0 0.002793 310.07001 367.72522
342.0 0.002924 310.10577 366.13828
352.0 0.002841 310.14163 367.45020
364.0 0.002747 310.17776 370.81366
362.0 0.002762 310.21384 372.11697
369.0 0.002710 310.25000 367.73209
370.0 0.002703 310.28635 359.07898
337.0 0.002967 310.32285 350.40656
331.0 0.003021 310.35938 344.26218
342.0 0.002924 310.39615 341.53299
362.0 0.002762 310.43289 341.99130
363.0 0.002755 310.46979 344.96466
344.0 0.002907 310.50684 348.70831
359.0 0.002786 310.54401 350.19220
369.0 0.002710 310.58124 347.47275
347.0 0.002882 310.61856 341.91385
339.0 0.002950 310.65604 336.29300
342.0 0.002924 310.69370 331.78021
331.0 0.003021 310.73135 328.94034
330.0 0.003030 310.76923 327.49261
329.0 0.003040 310.80707 327.49368
325.0 0.003077 310.84518 328.80801
325.0 0.003077 310.88327 332.06812
347.0 0.002882 310.92154 337.42923
344.0 0.002907 310.95993 344.83630
362.0 0.002762 310.99835 353.30951
378.0 0.002646 311.03699 360.43933
375.0 0.002667 311.07565 362.64374
354.0 0.002825 311.11456 358.59921
347.0 0.002882 311.15347 350.77075
320.0 0.003125 311.19250 342.28342
340.0 0.002941 311.23160 335.28308
334.0 0.002994 311.27084 330.29721
340.0 0.002941 311.31027 327.24396
327.0 0.003058 311.34973 325.69937
295.0 0.003390 311.38928 325.71011
340.0 0.002941 311.42905 327.17770
332.0 0.003012 311.46890 330.19400
386.0 0.002591 311.50882 335.01181
377.0 0.002653 311.54886 341.54257
362.0 0.002762 311.58887 348.78662
349.0 0.002865 311.62924 354.09164
355.0 0.002817 311.66946 354.39584
369.0 0.002710 311.71002 350.76025
362.0 0.002762 311.75061 346.63831
331.0 0.003021 311.79126 344.30103
355.0 0.002817 311.83206 344.02206
363.0 0.002755 311.87286 344.67108
372.0 0.002688 311.91403 343.85120
332.0 0.003012 311.95514 340.56488
340.0 0.002941 311.99622 335.98358
332.0 0.003012 312.03766 331.31317
330.0 0.003030 312.07907 327.50848
323.0 0.003096 312.12061 324.80966
344.0 0.002907 312.16226 323.08115
319.0 0.003135 312.20395 322.27875
331.0 0.003021 312.24588 322.20062
325.0 0.003077 312.28784 322.85413
331.0 0.003021 312.32996 324.23410
336.0 0.002976 312.37210 326.61215
343.0 0.002915 312.41440 329.81140
355.0 0.002817 312.45679 333.41028
355.0 0.002817 312.49930 336.14291
343.0 0.002915 312.54190 336.31567
332.0 0.003012 312.58456 334.18597
330.0 0.003030 312.62741 331.30038
306.0 0.003268 312.67032 328.91153
330.0 0.003030 312.71335 327.51416
336.0 0.002976 312.75653 327.27850
330.0 0.003030 312.79974 328.06802
346.0 0.002890 312.84308 330.06552
342.0 0.002924 312.88654 333.78925
336.0 0.002976 312.93005 339.51935
359.0 0.002786 312.97375 347.91504
391.0 0.002558 313.01752 358.72437
369.0 0.002710 313.06134 370.78006
371.0 0.002695 313.10532 380.47183
390.0 0.002564 313.14938 383.58368
395.0 0.002532 313.19357 381.17133
386.0 0.002591 313.23792 378.58560
396.0 0.002525 313.28226 379.87738
414.0 0.002415 313.32663 386.28830
433.0 0.002309 313.37134 397.16360
439.0 0.002278 313.41599 410.24319
429.0 0.002331 313.46078 421.32333
422.0 0.002370 313.50568 424.87048
408.0 0.002451 313.55069 421.03033
399.0 0.002506 313.59576 414.95050
396.0 0.002525 313.64099 408.04886
365.0 0.002740 313.68631 397.56299
364.0 0.002747 313.73166 383.55551
356.0 0.002809 313.77725 370.08441
363.0 0.002755 313.82269 360.02484
349.0 0.002865 313.86847 354.13153
316.0 0.003165 313.91431 352.33234
345.0 0.002899 313.96017 354.16287
374.0 0.002674 314.00623 358.60101
376.0 0.002660 314.05228 363.86032
373.0 0.002681 314.09857 367.37622
390.0 0.002564 314.14487 368.20050
363.0 0.002755 314.19122 368.20105
377.0 0.002653 314.23782 369.76294
388.0 0.002577 314.28436 374.26352
389.0 0.002571 314.33112 380.97034
421.0 0.002375 314.37784 388.22318
401.0 0.002494 314.42477 393.80359
392.0 0.002551 314.47180 395.24796
367.0 0.002725 314.51886 392.16931
388.0 0.002577 314.56607 387.75165
400.0 0.002500 314.61343 384.42456
396.0 0.002525 314.66068 381.69305
370.0 0.002703 314.70828 379.09106
361.0 0.002770 314.75586 378.78778
413.0 0.002421 314.80353 383.32645
399.0 0.002506 314.85135 393.93005
416.0 0.002404 314.89920 410.21594
430.0 0.002326 314.94717 430.75366
477.0 0.002096 314.99521 452.11148
493.0 0.002028 315.04346 465.73880
451.0 0.002217 315.09174 462.06622
429.0 0.002331 315.14008 443.18573
411.0 0.002433 315.18857 419.45853
396.0 0.002525 315.23706 398.36093
375.0 0.002667 315.28580 382.86627
359.0 0.002786 315.33450 373.53607
369.0 0.002710 315.38336 369.30255
374.0 0.002674 315.43231 368.96786
406.0 0.002463 315.48129 371.85959
414.0 0.002415 315.53049 377.51575
412.0 0.002427 315.57977 385.07898
447.0 0.002237 315.62897 392.48654
425.0 0.002353 315.67844 396.92596
392.0 0.002551 315.72787 397.35410
390.0 0.002564 315.77756 395.80423
390.0 0.002564 315.82724 396.27353
388.0 0.002577 315.87704 401.17926
427.0 0.002342 315.92688 410.62042
439.0 0.002278 315.97687 423.64252
468.0 0.002137 316.02698 440.82858
503.0 0.001988 316.07715 460.86398
501.0 0.001996 316.12732 477.64404
495.0 0.002020 316.17773 484.90387
478.0 0.002092 316.22815 483.55832
480.0 0.002083 316.27869 477.69440
467.0 0.002141 316.32938 466.69955
405.0 0.002469 316.38007 448.05011
383.0 0.002611 316.43091 425.92133
361.0 0.002770 316.48175 407.41815
358.0 0.002793 316.53284 395.99246
378.0 0.002646 316.58392 392.69714
391.0 0.002558 316.63501 396.32181
410.0 0.002439 316.68637 404.14999
374.0 0.002674 316.73761 411.31146
392.0 0.002551 316.78912 411.95102
381.0 0.002625 316.84073 404.43396
358.0 0.002793 316.89230 393.41855
369.0 0.002710 316.94406 383.77274
351.0 0.002849 316.99591 377.53116
379.0 0.002639 317.04776 374.46030
387.0 0.002584 317.09976 373.65149
361.0 0.002770 317.15173 374.92343
383.0 0.002611 317.20395 378.37048
422.0 0.002370 317.25629 383.41327
401.0 0.002494 317.30865 388.51990
379.0 0.002639 317.36105 392.87857
342.0 0.002924 317.41360 396.14325
388.0 0.002577 317.46622 396.53168
365.0 0.002740 317.51889 393.61661
394.0 0.002538 317.57169 390.96930
405.0 0.002469 317.62460 393.06793
416.0 0.002404 317.67746 402.71918
396.0 0.002525 317.73062 420.68921
443.0 0.002257 317.78369 445.08743
491.0 0.002037 317.83698 469.21863
470.0 0.002128 317.89029 480.85574
429.0 0.002331 317.94366 471.81802
388.0 0.002577 317.99719 447.71448
357.0 0.002801 318.05075 419.83078
372.0 0.002688 318.10446 395.38049
374.0 0.002674 318.15826 377.04156
337.0 0.002967 318.21194 364.20004
326.0 0.003067 318.26593 355.99792
317.0 0.003155 318.31998 350.54065
346.0 0.002890 318.37415 346.82800
345.0 0.002899 318.42825 344.44891
335.0 0.002985 318.48248 343.20200
344.0 0.002907 318.53687 342.85916
346.0 0.002890 318.59128 343.48743
335.0 0.002985 318.64581 345.27249
333.0 0.003003 318.70041 348.53329
348.0 0.002874 318.75504 353.80783
375.0 0.002667 318.80988 361.94324
398.0 0.002513 318.86469 373.70572
398.0 0.002513 318.91974 389.38492
436.0 0.002294 318.97479 407.90680
434.0 0.002304 319.02982 425.60809
425.0 0.002353 319.08499 437.54465
451.0 0.002217 319.14029 442.64249
448.0 0.002232 319.19571 445.64218
463.0 0.002160 319.25116 450.98495
476.0 0.002101 319.30661 457.68378
456.0 0.002193 319.36224 461.19000
475.0 0.002105 319.41800 459.95770
440.0 0.002273 319.47372 458.21088
459.0 0.002179 319.52954 455.66956
428.0 0.002336 319.58548 447.20862
408.0 0.002451 319.64160 430.20676
381.0 0.002625 319.69766 409.71442
374.0 0.002674 319.75381 391.72324
391.0 0.002558 319.81009 378.44284
362.0 0.002762 319.86642 369.96564
359.0 0.002786 319.92285 365.74402
371.0 0.002695 319.97934 365.18890
378.0 0.002646 320.03601 367.56982
358.0 0.002793 320.09271 371.58453
371.0 0.002695 320.14938 375.38882
374.0 0.002674 320.20618 378.35568
379.0 0.002639 320.26315 380.81100
378.0 0.002646 320.32016 383.20126
376.0 0.002660 320.37723 385.90970
390.0 0.002564 320.43433 390.06772
409.0 0.002445 320.49155 396.62723
383.0 0.002611 320.54889 404.25940
432.0 0.002315 320.60632 409.71906
413.0 0.002421 320.66376 411.67596
393.0 0.002545 320.72128 412.82187
400.0 0.002500 320.77899 414.33954
420.0 0.002381 320.83661 413.73703
424.0 0.002358 320.89444 408.55078
394.0 0.002538 320.95227 400.40134
389.0 0.002571 321.01019 392.39230
385.0 0.002597 321.06827 384.78183
369.0 0.002710 321.12634 378.02179
354.0 0.002825 321.18451 373.47501
339.0 0.002950 321.24289 372.38699
352.0 0.002841 321.30106 375.00476
388.0 0.002577 321.35947 380.23486
394.0 0.002538 321.41797 386.30246
401.0 0.002494 321.47659 389.83035
388.0 0.002577 321.53522 388.93323
393.0 0.002545 321.59381 385.14734
363.0 0.002755 321.65274 381.36969
351.0 0.002849 321.71155 379.76938
361.0 0.002770 321.77054 381.84280
373.0 0.002681 321.82956 388.35483
410.0 0.002439 321.88861 399.30179
440.0 0.002273 321.94775 414.17337
467.0 0.002141 322.00699 430.94510
468.0 0.002137 322.06635 444.74307
436.0 0.002294 322.12576 450.49274
444.0 0.002252 322.18521 449.12457
475.0 0.002105 322.24481 445.17197
465.0 0.002151 322.30438 440.96936
417.0 0.002398 322.36420 436.26492
394.0 0.002538 322.42392 429.73563
382.0 0.002618 322.48364 420.16489
369.0 0.002710 322.54364 408.23309
362.0 0.002762 322.60364 396.74628
368.0 0.002717 322.66382 388.06476
349.0 0.002865 322.72394 383.31049
372.0 0.002688 322.78400 381.46661
348.0 0.002874 322.84436 381.08420
358.0 0.002793 322.90472 381.87445
375.0 0.002667 322.96524 385.01443
380.0 0.002632 323.02576 391.33841
411.0 0.002433 323.08624 400.89014
407.0 0.002457 323.14697 411.64627
394.0 0.002538 323.20767 421.47046
427.0 0.002342 323.26849 431.49438
461.0 0.002169 323.32941 445.44418
534.0 0.001873 323.39029 464.25452
578.0 0.001730 323.45135 486.25174
558.0 0.001792 323.51242 507.03296
558.0 0.001792 323.57361 520.76953
573.0 0.001745 323.63489 521.17651
472.0 0.002119 323.69611 507.24420
422.0 0.002370 323.75754 483.88654
414.0 0.002415 323.81900 457.47305
403.0 0.002481 323.88055 432.01877
388.0 0.002577 323.94220 409.59229
365.0 0.002740 324.00381 391.53159
356.0 0.002809 324.06555 378.29129
342.0 0.002924 324.12738 369.50717
359.0 0.002786 324.18930 364.40469
333.0 0.003003 324.25122 362.29022
338.0 0.002959 324.31323 362.68332
399.0 0.002506 324.37534 365.27124
403.0 0.002481 324.43753 369.89838
398.0 0.002513 324.49976 375.88855
401.0 0.002494 324.56207 382.31882
382.0 0.002618 324.62442 389.00800
384.0 0.002604 324.68686 397.82074
405.0 0.002469 324.74936 411.37271
446.0 0.002242 324.81204 431.46930
499.0 0.002004 324.87469 457.88605
550.0 0.001818 324.93732 486.44788
542.0 0.001845 325.00018 507.40729
516.0 0.001938 325.06305 510.68073
471.0 0.002123 325.12601 494.54419
433.0 0.002309 325.18900 466.27515
388.0 0.002577 325.25195 435.68378
369.0 0.002710 325.31522 409.10446
373.0 0.002681 325.37842 388.55765
382.0 0.002618 325.44174 373.78665
376.0 0.002660 325.50507 363.83069
363.0 0.002755 325.56845 357.59567
358.0 0.002793 325.63202 353.71054
363.0 0.002755 325.69547 351.58157
347.0 0.002882 325.75916 350.76462
346.0 0.002890 325.82278 350.97415
351.0 0.002849 325.88651 351.97195
348.0 0.002874 325.95041 353.47479
357.0 0.002801 326.01428 355.36493
380.0 0.002632 326.07834 357.77179
379.0 0.002639 326.14230 361.24612
374.0 0.002674 326.20636 366.41483
389.0 0.002571 326.27054 373.88229
392.0 0.002551 326.33472 384.15903
415.0 0.002410 326.39911 396.39832
425.0 0.002353 326.46353 408.13617
466.0 0.002146 326.52789 416.38544
451.0 0.002217 326.59244 420.40485
497.0 0.002012 326.65692 421.23773
468.0 0.002137 326.72165 418.84448
420.0 0.002381 326.78635 411.78171
393.0 0.002545 326.85114 400.40402
396.0 0.002525 326.91595 387.61142
371.0 0.002695 326.98087 376.28015
377.0 0.002653 327.04584 367.79529
369.0 0.002710 327.11087 362.20847
349.0 0.002865 327.17593 359.22906
344.0 0.002907 327.24118 358.69867
375.0 0.002667 327.30637 360.11655
384.0 0.002604 327.37167 363.63330
388.0 0.002577 327.43707 369.38403
387.0 0.002584 327.50244 379.01175
379.0 0.002639 327.56802 392.45190
424.0 0.002358 327.63358 411.02499
484.0 0.002066 327.69922 435.14423
566.0 0.001767 327.76492 462.41110
505.0 0.001980 327.83057 486.58942
520.0 0.001923 327.89645 500.83493
468.0 0.002137 327.96240 503.60638
489.0 0.002045 328.02835 496.85971
462.0 0.002165 328.09436 483.02701
433.0 0.002309 328.16043 465.74908
466.0 0.002146 328.22665 447.93500
422.0 0.002370 328.29282 430.10648
417.0 0.002398 328.35910 412.20853
396.0 0.002525 328.42542 395.76379
388.0 0.002577 328.49185 382.32236
368.0 0.002717 328.55841 372.31769
381.0 0.002625 328.62488 365.41776
362.0 0.002762 328.69159 361.09973
370.0 0.002703 328.75824 358.90518
386.0 0.002591 328.82486 358.34778
380.0 0.002632 328.89175 359.42368
375.0 0.002667 328.95859 362.22562
380.0 0.002632 329.02557 367.40942
370.0 0.002703 329.09259 375.65588
384.0 0.002604 329.15952 386.99335
413.0 0.002421 329.22672 401.66296
427.0 0.002342 329.29395 418.27664
436.0 0.002294 329.36127 433.90002
436.0 0.002294 329.42856 445.35229
443.0 0.002257 329.49588 450.71140
465.0 0.002151 329.56339 449.83597
439.0 0.002278 329.63086 442.93604
423.0 0.002364 329.69852 432.66916
395.0 0.002532 329.76617 423.75558
405.0 0.002469 329.83383 419.32538
417.0 0.002398 329.90158 420.15060
441.0 0.002268 329.96942 425.35181
455.0 0.002198 330.03735 432.00452
453.0 0.002208 330.10532 434.96310
444.0 0.002252 330.17325 429.83627
395.0 0.002532 330.24146 417.60028
351.0 0.002849 330.30951 403.02213
402.0 0.002488 330.37775 389.79672
382.0 0.002618 330.44608 379.65433
374.0 0.002674 330.51437 372.98444
383.0 0.002611 330.58279 369.55081
381.0 0.002625 330.65128 368.92554
370.0 0.002703 330.71982 370.76993
379.0 0.002639 330.78848 374.57727
364.0 0.002747 330.85706 379.73169
419.0 0.002387 330.92581 385.23651
402.0 0.002488 330.99460 390.37866
422.0 0.002370 331.06348 394.04077
369.0 0.002710 331.13239 395.39655
409.0 0.002445 331.20139 395.29227
389.0 0.002571 331.27042 395.40356
390.0 0.002564 331.33942 397.72491
398.0 0.002513 331.40872 404.20590
441.0 0.002268 331.47797 416.17221
461.0 0.002169 331.54715 434.70251
528.0 0.001894 331.61655 460.23730
567.0 0.001764 331.68600 492.09433
594.0 0.001684 331.75555 528.83484
634.0 0.001577 331.82513 568.95630
715.0 0.001399 331.89456 610.03363
766.0 0.001305 331.96432 647.90375
833.0 0.001200 332.03406 676.16431
725.0 0.001379 332.10394 683.90448
644.0 0.001553 332.17377 662.17914
548.0 0.001825 332.24368 615.38928
469.0 0.002132 332.31369 560.38019
466.0 0.002146 332.38379 511.24606
442.0 0.002262 332.45389 473.77316
429.0 0.002331 332.52408 448.29178
436.0 0.002294 332.59433 432.66321
433.0 0.002309 332.66461 423.64166
433.0 0.002309 332.73505 418.27533
411.0 0.002433 332.80542 415.16299
414.0 0.002415 332.87598 413.86615
427.0 0.002342 332.94653 413.89813
425.0 0.002353 333.01721 415.04379
410.0 0.002439 333.08789 416.83340
426.0 0.002347 333.15863 419.66879
430.0 0.002326 333.22949 423.72412
432.0 0.002315 333.30023 430.33591
440.0 0.002273 333.37128 441.63214
469.0 0.002132 333.44226 458.86218
490.0 0.002041 333.51340 481.54599
563.0 0.001776 333.58453 507.40521
598.0 0.001672 333.65573 533.82928
584.0 0.001712 333.72702 557.34119
610.0 0.001639 333.79834 573.20850
593.0 0.001686 333.86975 579.50610
586.0 0.001706 333.94119 580.75354
573.0 0.001745 334.01266 581.65332
585.0 0.001709 334.08429 580.35498
547.0 0.001828 334.15591 573.21362
529.0 0.001890 334.22766 561.97931
527.0 0.001898 334.29947 549.15002
511.0 0.001957 334.37119 534.07635
509.0 0.001965 334.44318 516.24500
508.0 0.001969 334.51511 496.14087
457.0 0.002188 334.58722 474.58215
435.0 0.002299 334.65933 454.80493
418.0 0.002392 334.73141 439.11731
419.0 0.002387 334.80368 427.66922
407.0 0.002457 334.87595 419.21350
434.0 0.002304 334.94836 411.47964
416.0 0.002404 335.02081 403.19214
396.0 0.002525 335.09329 394.80566
360.0 0.002778 335.16580 387.58768
377.0 0.002653 335.23834 382.52750
385.0 0.002597 335.31110 380.09589
365.0 0.002740 335.38382 380.57571
393.0 0.002545 335.45660 384.24887
395.0 0.002532 335.52948 391.36624
425.0 0.002353 335.60242 401.92871
423.0 0.002364 335.67548 415.26224
458.0 0.002183 335.74854 429.04453
394.0 0.002538 335.82159 439.51764
428.0 0.002336 335.89490 444.72287
418.0 0.002392 335.96811 445.83005
435.0 0.002299 336.04153 444.07175
417.0 0.002398 336.11487 439.59610
416.0 0.002404 336.18826 433.26236
405.0 0.002469 336.26181 426.18573
424.0 0.002358 336.33539 419.44604
432.0 0.002315 336.40912 414.20331
434.0 0.002304 336.48285 410.44342
433.0 0.002309 336.55649 407.06619
408.0 0.002451 336.63046 402.61099
403.0 0.002481 336.70435 396.99490
386.0 0.002591 336.77838 390.83337
375.0 0.002667 336.85242 384.59396
396.0 0.002525 336.92648 380.42184
400.0 0.002500 337.00070 378.32285
366.0 0.002732 337.07486 378.05807
367.0 0.002725 337.14920 379.72812
402.0 0.002488 337.22360 383.62143
391.0 0.002558 337.29797 390.43790
393.0 0.002545 337.37262 401.26038
436.0 0.002294 337.44711 417.22562
460.0 0.002174 337.52179 439.21268
493.0 0.002028 337.59653 467.31848
567.0 0.001764 337.67120 500.91806
626.0 0.001597 337.74615 537.81604
667.0 0.001499 337.82098 571.22351
651.0 0.001536 337.89606 590.22144
579.0 0.001727 337.97110 586.32635
517.0 0.001934 338.04617 560.93744
501.0 0.001996 338.12140 524.25397
443.0 0.002257 338.19656 487.10385
420.0 0.002381 338.27200 455.45541
418.0 0.002392 338.34738 430.69553
380.0 0.002632 338.42276 411.85159
384.0 0.002604 338.49829 397.84897
376.0 0.002660 338.57388 387.80399
365.0 0.002740 338.64960 380.78320
384.0 0.002604 338.72534 376.46542
361.0 0.002770 338.80103 374.20135
363.0 0.002755 338.87689 373.41507
349.0 0.002865 338.95279 373.65216
388.0 0.002577 339.02881 375.06876
368.0 0.002717 339.10492 377.91397
350.0 0.002857 339.18100 382.35651
375.0 0.002667 339.25729 389.09094
385.0 0.002597 339.33356 398.82034
407.0 0.002457 339.40991 411.36160
465.0 0.002151 339.48630 426.49222
492.0 0.002033 339.56274 443.53601
508.0 0.001969 339.63934 459.80368
521.0 0.001919 339.71597 470.29504
460.0 0.002174 339.79272 470.14706
456.0 0.002193 339.86942 458.72995
436.0 0.002294 339.94620 440.34280
435.0 0.002299 340.02313 420.69513
362.0 0.002762 340.10016 403.65158
379.0 0.002639 340.17719 390.44727
366.0 0.002732 340.25424 381.20374
363.0 0.002755 340.33139 375.34583
390.0 0.002564 340.40872 372.04303
372.0 0.002688 340.48596 370.71255
376.0 0.002660 340.56345 370.85254
369.0 0.002710 340.64093 372.12408
368.0 0.002717 340.71832 374.38004
369.0 0.002710 340.79608 377.80328
383.0 0.002611 340.87366 383.25732
373.0 0.002681 340.95148 391.51212
396.0 0.002525 341.02936 403.34695
463.0 0.002160 341.10712 419.05716
505.0 0.001980 341.18515 438.21753
515.0 0.001942 341.26312 457.74005
488.0 0.002049 341.34131 472.34198
484.0 0.002066 341.41949 477.31033
489.0 0.002045 341.49768 473.68057
457.0 0.002188 341.57608 465.10403
422.0 0.002370 341.65442 453.43839
407.0 0.002457 341.73288 440.21704
421.0 0.002375 341.81149 428.61658
432.0 0.002315 341.89011 421.48688
433.0 0.002309 341.96878 420.05710
447.0 0.002237 342.04755 424.14917
456.0 0.002193 342.12640 432.20258
463.0 0.002160 342.20535 441.07385
451.0 0.002217 342.28424 445.58185
425.0 0.002353 342.36337 441.92834
428.0 0.002336 342.44247 431.19992
418.0 0.002392 342.52176 417.95993
414.0 0.002415 342.60107 405.82971
385.0 0.002597 342.68033 396.61981
380.0 0.002632 342.75983 390.79556
355.0 0.002817 342.83926 388.35278
394.0 0.002538 342.91898 389.38052
398.0 0.002513 342.99860 393.59445
399.0 0.002506 343.07825 400.53461
432.0 0.002315 343.15811 409.58734
429.0 0.002331 343.23798 418.44287
398.0 0.002513 343.31799 424.28699
420.0 0.002381 343.39801 426.01883
410.0 0.002439 343.47809 425.23169
428.0 0.002336 343.55835 423.74963
418.0 0.002392 343.63858 422.55722
413.0 0.002421 343.71896 423.03232
425.0 0.002353 343.79941 426.81461
432.0 0.002315 343.87979 434.36893
463.0 0.002160 343.96039 444.08163
460.0 0.002174 344.04105 452.24072
469.0 0.002132 344.12180 455.30167
433.0 0.002309 344.20264 452.64694
454.0 0.002203 344.28348 445.25568
437.0 0.002288 344.36450 434.67413
423.0 0.002364 344.44547 423.53430
391.0 0.002558 344.52667 414.45926
383.0 0.002611 344.60791 408.97156
379.0 0.002639 344.68909 407.79385
403.0 0.002481 344.77054 411.15607
420.0 0.002381 344.85190 419.11057
470.0 0.002128 344.93344 431.14224
490.0 0.002041 345.01508 445.82275
468.0 0.002137 345.09671 460.48895
510.0 0.001961 345.17844 471.88638
496.0 0.002016 345.26028 479.31128
509.0 0.001965 345.34222 485.28940
500.0 0.002000 345.42429 492.07202
514.0 0.001946 345.50632 498.77771
547.0 0.001828 345.58844 502.36584
510.0 0.001961 345.67065 501.24442
497.0 0.002012 345.75302 496.96750
481.0 0.002079 345.83548 491.17484
481.0 0.002079 345.91782 482.95645
422.0 0.002370 346.00043 471.13965
409.0 0.002445 346.08307 456.53192
417.0 0.002398 346.16586 440.77219
400.0 0.002500 346.24869 426.01807
378.0 0.002646 346.33148 413.97479
389.0 0.002571 346.41455 405.29553
377.0 0.002653 346.49753 399.77206
379.0 0.002639 346.58072 396.83838
411.0 0.002433 346.66385 396.11371
407.0 0.002457 346.74713 397.30066
390.0 0.002564 346.83063 401.06055
400.0 0.002500 346.91400 406.96115
403.0 0.002481 346.99762 414.89877
416.0 0.002404 347.08130 424.68289
451.0 0.002217 347.16489 435.62653
474.0 0.002110 347.24875 446.93613
505.0 0.001980 347.33264 458.97952
542.0 0.001845 347.41663 473.28641
583.0 0.001715 347.50073 490.43466
585.0 0.001709 347.58478 509.11661
586.0 0.001706 347.66901 525.46686
585.0 0.001709 347.75333 536.10645
602.0 0.001661 347.83780 540.86499
593.0 0.001686 347.92227 541.20129
570.0 0.001754 348.00674 537.12769
556.0 0.001799 348.09146 527.57996
521.0 0.001919 348.17615 512.17102
458.0 0.002183 348.26102 492.23679
466.0 0.002146 348.34598 471.25543
421.0 0.002375 348.43088 453.35498
407.0 0.002457 348.51602 441.16537
426.0 0.002347 348.60123 435.64960
464.0 0.002155 348.68640 436.53848
496.0 0.002016 348.77182 442.79349
487.0 0.002053 348.85721 451.97977
537.0 0.001862 348.94269 460.20813
476.0 0.002101 349.02835 461.77859
426.0 0.002347 349.11407 454.46899
422.0 0.002370 349.19989 441.65958
411.0 0.002433 349.28568 428.43936
411.0 0.002433 349.37170 417.98975
427.0 0.002342 349.45770 411.90863
424.0 0.002358 349.54388 410.36157
428.0 0.002336 349.63010 412.73987
445.0 0.002247 349.71634 418.20087
476.0 0.002101 349.80283 424.96774
460.0 0.002174 349.88928 430.93683
461.0 0.002169 349.97592 434.70654
488.0 0.002049 350.06262 436.15677
462.0 0.002165 350.14926 435.56311
450.0 0.002222 350.23621 432.92535
441.0 0.002268 350.32309 427.89886
387.0 0.002584 350.41022 420.36383
386.0 0.002591 350.49734 411.53220
389.0 0.002571 350.58441 403.36432
374.0 0.002674 350.67178 397.44138
387.0 0.002584 350.75919 394.55212
391.0 0.002558 350.84677 394.84454
407.0 0.002457 350.93430 398.00229
432.0 0.002315 351.02185 403.10663
435.0 0.002299 351.10968 408.28210
413.0 0.002421 351.19748 410.67355
416.0 0.002404 351.28561 408.04062
401.0 0.002494 351.37366 401.47638
365.0 0.002740 351.46164 393.45697
366.0 0.002732 351.54990 386.01477
368.0 0.002717 351.63821 380.12103
366.0 0.002732 351.72668 375.99414
385.0 0.002597 351.81522 373.60056
382.0 0.002618 351.90372 372.72610
375.0 0.002667 351.99246 373.07477
369.0 0.002710 352.08121 374.36081
374.0 0.002674 352.17010 376.23758
381.0 0.002625 352.25916 378.39307
380.0 0.002632 352.34811 380.56091
389.0 0.002571 352.43732 382.27283
359.0 0.002786 352.52652 382.88251
355.0 0.002817 352.61594 382.21170
358.0 0.002793 352.70541 380.78595
335.0 0.002985 352.79483 379.52390
331.0 0.003021 352.88452 379.02081
359.0 0.002786 352.97427 379.13031
362.0 0.002762 353.06415 379.37463
361.0 0.002770 353.15411 379.52878
332.0 0.003012 353.24402 379.62454
331.0 0.003021 353.33414 380.17267
349.0 0.002865 353.42432 381.43106
394.0 0.002538 353.51468 383.66092
396.0 0.002525 353.60510 386.44113
381.0 0.002625 353.69547 389.31488
415.0 0.002410 353.78616 391.70163
406.0 0.002463 353.87674 392.75116
390.0 0.002564 353.96765 391.96069
379.0 0.002639 354.05856 389.37341
389.0 0.002571 354.14938 385.37283
380.0 0.002632 354.24054 380.97876
308.0 0.003247 354.33167 377.16113
357.0 0.002801 354.42300 374.41916
352.0 0.002841 354.51434 372.74966
338.0 0.002959 354.60574 372.23474
371.0 0.002695 354.69739 372.39124
423.0 0.002364 354.78894 372.70313
392.0 0.002551 354.88080 372.72522
381.0 0.002625 354.97266 372.36456
389.0 0.002571 355.06448 371.92352
375.0 0.002667 355.15662 371.70490
362.0 0.002762 355.24872 371.85352
365.0 0.002740 355.34103 372.26813
330.0 0.003030 355.43344 372.76358
342.0 0.002924 355.52579 373.25546
369.0 0.002710 355.61832 373.95932
362.0 0.002762 355.71094 375.26352
368.0 0.002717 355.80374 377.48535
378.0 0.002646 355.89667 380.80508
391.0 0.002558 355.98950 385.15668
386.0 0.002591 356.08258 390.42075
376.0 0.002660 356.17569 395.78146
401.0 0.002494 356.26892 400.66220
394.0 0.002538 356.36237 403.65186
371.0 0.002695 356.45566 403.98807
382.0 0.002618 356.54926 402.22528
393.0 0.002545 356.64291 399.93661
367.0 0.002725 356.73663 398.11606
382.0 0.002618 356.83047 396.97577
395.0 0.002532 356.92429 396.45999
386.0 0.002591 357.01843 396.80893
416.0 0.002404 357.11249 398.50626
441.0 0.002268 357.20682 401.62167
420.0 0.002381 357.30115 405.37842
427.0 0.002342 357.39545 408.48724
428.0 0.002336 357.49014 410.24567
410.0 0.002439 357.58469 411.27951
433.0 0.002309 357.67941 412.73285
404.0 0.002475 357.77432 414.92923
399.0 0.002506 357.86914 417.01846
442.0 0.002262 357.96420 417.31290
376.0 0.002660 358.05939 414.50989
364.0 0.002747 358.15469 409.32123
374.0 0.002674 358.24997 403.58951
407.0 0.002457 358.34531 398.74353
408.0 0.002451 358.44095 395.20187
377.0 0.002653 358.53653 392.81195
359.0 0.002786 358.63235 391.51041
414.0 0.002415 358.72815 391.04364
389.0 0.002571 358.82404 391.01749
396.0 0.002525 358.92014 391.11157
410.0 0.002439 359.01624 391.46280
376.0 0.002660 359.11258 392.55957
364.0 0.002747 359.20892 394.61160
391.0 0.002558 359.30521 397.38873
384.0 0.002604 359.40189 400.26630
419.0 0.002387 359.49847 402.47879
368.0 0.002717 359.59531 403.55725
455.0 0.002198 359.69214 403.70642
428.0 0.002336 359.78903 403.58047
405.0 0.002469 359.88608 403.40146
431.0 0.002320 359.98328 403.33466
416.0 0.002404 360.08057 403.88992
432.0 0.002315 360.17795 405.66849
414.0 0.002415 360.27521 409.03186
433.0 0.002309 360.37280 413.59546
462.0 0.002165 360.47055 418.35858
444.0 0.002252 360.56830 422.08258
425.0 0.002353 360.66614 424.01883
399.0 0.002506 360.76407 424.14484
388.0 0.002577 360.86218 423.51059
426.0 0.002347 360.96024 423.89404
476.0 0.002101 361.05859 426.88016
486.0 0.002058 361.15695 433.38303
536.0 0.001866 361.25531 443.35028
588.0 0.001701 361.35397 455.46393
563.0 0.001776 361.45255 466.60318
531.0 0.001883 361.55136 472.55832
514.0 0.001946 361.65027 470.49603
454.0 0.002203 361.74902 461.48975
434.0 0.002304 361.84824 448.96680
426.0 0.002347 361.94733 436.18475
379.0 0.002639 362.04669 424.80417
385.0 0.002597 362.14600 415.30350
404.0 0.002475 362.24542 407.67978
383.0 0.002611 362.34497 401.93604
374.0 0.002674 362.44461 397.97028
398.0 0.002513 362.54443 395.56479
390.0 0.002564 362.64429 394.66367
376.0 0.002660 362.74420 395.42053
396.0 0.002525 362.84427 398.09125
419.0 0.002387 362.94434 402.79651
446.0 0.002242 363.04462 409.52542
451.0 0.002217 363.14502 417.93762
467.0 0.002141 363.24530 426.92303
467.0 0.002141 363.34595 434.47552
459.0 0.002179 363.44653 438.39035
454.0 0.002203 363.54727 438.34454
441.0 0.002268 363.64819 436.57928
443.0 0.002257 363.74905 435.95383
471.0 0.002123 363.85013 438.23517
424.0 0.002358 363.95117 443.64743
492.0 0.002033 364.05243 450.90427
516.0 0.001938 364.15381 457.06760
459.0 0.002179 364.25507 458.92941
489.0 0.002045 364.35660 455.14267
458.0 0.002183 364.45819 447.40582
440.0 0.002273 364.55997 438.93878
432.0 0.002315 364.66177 432.14563
425.0 0.002353 364.76355 428.06277
441.0 0.002268 364.86566 426.34091
455.0 0.002198 364.96765 425.72250
422.0 0.002370 365.06989 424.04089
380.0 0.002632 365.17212 420.27353
419.0 0.002387 365.27441 415.11655
387.0 0.002584 365.37686 410.04236
373.0 0.002681 365.47934 406.12097
364.0 0.002747 365.58215 404.00305
384.0 0.002604 365.68478 404.08954
427.0 0.002342 365.78754 406.39645
390.0 0.002564 365.89053 411.00922
393.0 0.002545 365.99344 417.39078
416.0 0.002404 366.09668 424.54340
451.0 0.002217 366.19986 431.16324
448.0 0.002232 366.30301 436.26190
441.0 0.002268 366.40646 439.02979
408.0 0.002451 366.50986 438.39017
431.0 0.002320 366.61349 434.53317
410.0 0.002439 366.71710 429.19037
410.0 0.002439 366.82074 424.13290
388.0 0.002577 366.92462 420.00516
409.0 0.002445 367.02844 416.45438
392.0 0.002551 367.13251 413.29190
386.0 0.002591 367.23657 410.47073
394.0 0.002538 367.34073 408.84833
391.0 0.002558 367.44498 408.94827
393.0 0.002545 367.54922 410.89685
414.0 0.002415 367.65375 414.53726
410.0 0.002439 367.75824 419.44284
413.0 0.002421 367.86282 425.06055
416.0 0.002404 367.96744 431.56830
429.0 0.002331 368.07224 439.53824
481.0 0.002079 368.17715 449.13647
485.0 0.002062 368.28210 459.09015
461.0 0.002169 368.38699 466.51599
460.0 0.002174 368.49213 468.49075
423.0 0.002364 368.59726 465.05304
407.0 0.002457 368.70258 458.48154
423.0 0.002364 368.80795 451.41891
419.0 0.002387 368.91324 445.42554
407.0 0.002457 369.01883 441.43399
429.0 0.002331 369.12433 439.73050
445.0 0.002247 369.23004 439.33240
417.0 0.002398 369.33585 438.58841
382.0 0.002618 369.44150 436.13861
378.0 0.002646 369.54749 431.73822
402.0 0.002488 369.65341 426.43576
415.0 0.002410 369.75952 421.67761
391.0 0.002558 369.86563 418.41901
400.0 0.002500 369.97168 417.26895
426.0 0.002347 370.07806 418.66605
446.0 0.002242 370.18436 422.56485
456.0 0.002193 370.29080 428.87860
500.0 0.002000 370.39734 436.85052
471.0 0.002123 370.50375 444.88693
495.0 0.002020 370.61050 450.79257
495.0 0.002020 370.71713 453.36557
483.0 0.002070 370.82407 453.90854
464.0 0.002155 370.93079 455.05618
515.0 0.001942 371.03760 458.72546
511.0 0.001957 371.14465 465.18579
509.0 0.001965 371.25165 473.07120
467.0 0.002141 371.35886 480.40024
514.0 0.001946 371.46600 485.49670
514.0 0.001946 371.57315 487.73083
504.0 0.001984 371.68057 486.63135
470.0 0.002128 371.78781 481.71115
446.0 0.002242 371.89532 472.85446
443.0 0.002257 372.00290 461.32275
414.0 0.002415 372.11026 449.43948
435.0 0.002299 372.21799 438.88855
410.0 0.002439 372.32562 430.16916
380.0 0.002632 372.43338 423.16156
355.0 0.002817 372.54126 417.65005
399.0 0.002506 372.64896 413.90463
408.0 0.002451 372.75687 412.01971
390.0 0.002564 372.86490 412.30130
409.0 0.002445 372.97296 414.80948
395.0 0.002532 373.08096 419.51746
423.0 0.002364 373.18906 426.11591
458.0 0.002183 373.29724 434.13342
442.0 0.002262 373.40549 441.96564
460.0 0.002174 373.51385 447.39432
457.0 0.002188 373.62213 448.23535
443.0 0.002257 373.73047 444.43451
426.0 0.002347 373.83896 438.22763
410.0 0.002439 373.94736 432.31372
426.0 0.002347 374.05594 428.14713
427.0 0.002342 374.16446 426.36871
435.0 0.002299 374.27298 426.91290
429.0 0.002331 374.38171 429.13846
408.0 0.002451 374.49033 432.00928
417.0 0.002398 374.59918 434.68341
422.0 0.002370 374.70792 436.47345
413.0 0.002421 374.81668 437.05408
418.0 0.002392 374.92560 436.66153
418.0 0.002392 375.03442 436.44244
441.0 0.002268 375.14346 437.50058
463.0 0.002160 375.25241 440.29645
468.0 0.002137 375.36130 444.44647
451.0 0.002217 375.47040 448.89282
460.0 0.002174 375.57938 452.80573
443.0 0.002257 375.68854 456.88736
468.0 0.002137 375.79767 462.94089
510.0 0.001961 375.90671 472.48489
552.0 0.001812 376.01590 485.93765
611.0 0.001637 376.12509 501.87711
601.0 0.001664 376.23438 516.74976
561.0 0.001783 376.34369 525.30774
512.0 0.001953 376.45279 524.17780
532.0 0.001880 376.56213 514.72961
496.0 0.002016 376.67136 501.56201
480.0 0.002083 376.78079 488.62375
459.0 0.002179 376.89020 478.32462
493.0 0.002028 376.99942 471.31076
467.0 0.002141 377.10889 467.22974
522.0 0.001916 377.21829 465.32523
495.0 0.002020 377.32770 463.92981
463.0 0.002160 377.43710 461.52615
500.0 0.002000 377.54642 458.13129
423.0 0.002364 377.65591 455.26346
448.0 0.002232 377.76535 454.49820
473.0 0.002114 377.87485 456.60370
504.0 0.001984 377.98428 461.19431
499.0 0.002004 378.09369 466.76300
476.0 0.002101 378.20313 471.48569
491.0 0.002037 378.31250 473.96664
484.0 0.002066 378.42209 474.08380
497.0 0.002012 378.53149 471.66019
499.0 0.002004 378.64084 466.92010
480.0 0.002083 378.75034 461.22760
470.0 0.002128 378.85971 456.98685
440.0 0.002273 378.96918 455.38895
477.0 0.002096 379.07864 456.80948
506.0 0.001976 379.18784 460.31741
471.0 0.002123 379.29733 463.87280
448.0 0.002232 379.40668 464.96243
408.0 0.002451 379.51611 462.57950
428.0 0.002336 379.62537 458.14575
470.0 0.002128 379.73456 453.92386
466.0 0.002146 379.84390 451.33560
450.0 0.002222 379.95316 450.57944
444.0 0.002252 380.06244 451.20248
447.0 0.002237 380.17166 452.28470
460.0 0.002174 380.28079 452.59149
440.0 0.002273 380.38998 450.80869
427.0 0.002342 380.49902 446.63687
426.0 0.002347 380.60825 441.16785
427.0 0.002342 380.71719 436.06085
445.0 0.002247 380.82614 432.48663
431.0 0.002320 380.93518 430.81198
412.0 0.002427 381.04404 430.75385
421.0 0.002375 381.15298 431.47702
428.0 0.002336 381.26187 432.03461
421.0 0.002375 381.37057 431.87631
410.0 0.002439 381.47934 431.13931
425.0 0.002353 381.58798 430.12537
440.0 0.002273 381.69672 428.90933
407.0 0.002457 381.80533 428.01523
415.0 0.002410 381.91373 428.10870
458.0 0.002183 382.02225 429.25287
421.0 0.002375 382.13068 431.28815
428.0 0.002336 382.23911 433.99133
447.0 0.002237 382.34744 437.48795
463.0 0.002160 382.45547 442.01331
467.0 0.002141 382.56369 447.82935
464.0 0.002155 382.67175 454.62302
492.0 0.002033 382.77975 461.63806
502.0 0.001992 382.88776 467.95792
493.0 0.002028 382.99554 473.54355
516.0 0.001938 383.10336 479.10580
504.0 0.001984 383.21103 484.64014
520.0 0.001923 383.31870 488.82224
472.0 0.002119 383.42624 489.22485
490.0 0.002041 383.53354 484.37088
469.0 0.002132 383.64099 474.96237
425.0 0.002353 383.74820 463.50653
424.0 0.002358 383.85538 452.46463
403.0 0.002481 383.96246 443.24771
427.0 0.002342 384.06931 435.93961
378.0 0.002646 384.17627 430.36484
384.0 0.002604 384.28299 426.17169
418.0 0.002392 384.38968 423.43088
396.0 0.002525 384.49622 422.07755
393.0 0.002545 384.60257 422.39862
436.0 0.002294 384.70892 424.24857
412.0 0.002427 384.81503 427.92142
458.0 0.002183 384.92130 432.92639
428.0 0.002336 385.02722 438.55621
461.0 0.002169 385.13290 443.62878
435.0 0.002299 385.23880 446.99820
456.0 0.002193 385.34427 448.54269
423.0 0.002364 385.44980 449.47552
452.0 0.002212 385.55518 451.19672
464.0 0.002155 385.66019 454.62595
464.0 0.002155 385.76532 459.96286
489.0 0.002045 385.87015 466.91089
486.0 0.002058 385.97501 475.06610
503.0 0.001988 386.07962 483.87216
525.0 0.001905 386.18396 492.05707
544.0 0.001838 386.28836 498.00943
544.0 0.001838 386.39249 500.34354
531.0 0.001883 386.49649 498.89120
502.0 0.001992 386.60037 494.51987
476.0 0.002101 386.70389 489.09387
484.0 0.002066 386.80750 485.07755
512.0 0.001953 386.91077 484.15186
521.0 0.001919 387.01398 486.75397
515.0 0.001942 387.11700 491.41507
530.0 0.001887 387.21964 496.13992
528.0 0.001894 387.32230 499.22409
532.0 0.001880 387.42465 500.45319
528.0 0.001894 387.52704 500.04291
505.0 0.001980 387.62915 497.48840
466.0 0.002146 387.73087 492.24451
457.0 0.002188 387.83255 484.40866
484.0 0.002066 387.93405 475.19202
439.0 0.002278 388.03540 465.65012
415.0 0.002410 388.13641 456.38983
412.0 0.002427 388.23715 447.75116
415.0 0.002410 388.33780 440.14359
424.0 0.002358 388.43820 434.11743
414.0 . . .
loop_
_refln_index_h
_refln_index_k
_refln_index_l
_pd_refln_wavelength_id
_refln_observed_status
_refln_F_squared_meas
_refln_F_squared_calc
_refln_phase_calc
_refln_d_spacing
_gsas_i100_meas
0 2 0 1 o 42900.63 38820.66 0.00 6.67600 15.16
0 2 0 2 o 42435.82 38820.66 0.00 6.67600 7.45
1 1 1 1 o 19890.654 19258.076 0.00 6.04859 19.61
1 1 1 2 o 19504.930 19258.076 0.00 6.04859 9.55
2 0 0 1 o 809.137 1049.334 180.00 4.81720 0.00
2 0 0 2 o 809.137 1049.334 180.00 4.81720 0.00
0 0 2 1 o 35464.87 38254.54 0.00 4.77804 3.93
0 0 2 2 o 36648.47 38254.54 0.00 4.77804 2.05
1 2 1 1 o 5623.921 5816.680 0.00 4.75861 1.95
1 2 1 2 o 5340.130 5816.680 0.00 4.75861 0.87
2 1 0 1 o 162915.64 161761.23 180.00 4.53131 40.64
2 1 0 2 o 160645.44 161761.23 180.00 4.53131 19.89
1 0 2 1 o 226481.59 231107.30 0.00 4.28054 50.20
1 0 2 2 o 224055.59 231107.30 0.00 4.28054 24.67
2 1 1 1 o 124626.02 117855.20 0.00 4.09433 52.23
2 1 1 2 o 121927.85 117855.20 0.00 4.09433 25.34
1 1 2 1 o 121998.74 119314.92 0.00 4.07619 50.25
1 1 2 2 o 119606.76 119314.92 0.00 4.07619 24.43
0 3 1 1 o 433280.5 451177.5 180.00 4.03455 100.00
0 3 1 2 o 438426.0 451177.5 180.00 4.03455 50.44
2 2 0 1 o 88780.60 82883.38 180.00 3.90641 17.47
2 2 0 2 o 85052.13 82883.38 180.00 3.90641 8.27
0 2 2 1 o 52125.57 52521.07 0.00 3.88544 10.02
0 2 2 2 o 52278.39 52521.07 0.00 3.88544 5.00
1 3 1 1 o 83450.05 78436.03 180.00 3.72142 32.73
1 3 1 2 o 83149.84 78436.03 180.00 3.72142 16.21
2 2 1 1 o 186582.75 181693.44 180.00 3.61595 62.32
2 2 1 2 o 184517.86 181693.44 180.00 3.61595 30.61
1 2 2 1 o 533.662 511.666 0.00 3.60344 0.19
1 2 2 2 o 867.232 511.666 0.00 3.60344 0.16
2 0 2 1 o 154854.67 143015.38 180.00 3.39234 22.86
2 0 2 2 o 152253.33 143015.38 180.00 3.39234 11.17
0 4 0 1 o 147024.28 138545.80 180.00 3.33800 13.09
0 4 0 2 o 144685.61 138545.80 180.00 3.33800 6.40
2 1 2 1 o 13499.483 14110.976 180.00 3.28788 3.68
2 1 2 2 o 13305.707 14110.976 180.00 3.28788 1.80
2 3 0 1 o 39503.94 42950.05 180.00 3.26901 5.36
2 3 0 2 o 35251.25 42950.05 180.00 3.26901 2.32
0 1 3 1 o 149161.78 150139.45 180.00 3.09841 17.03
2 3 1 1 o 42167.57 42441.91 0.00 3.09303 10.46
0 1 3 2 o 150339.00 150139.45 180.00 3.09841 8.55
2 3 1 2 o 43930.63 42441.91 0.00 3.09303 5.46
1 3 2 1 o 27428.232 26481.324 0.00 3.08519 6.78
1 3 2 2 o 28149.297 26481.324 0.00 3.08519 3.48
2 2 2 1 o 59850.59 58315.70 180.00 3.02429 13.36
2 2 2 2 o 57625.82 58315.70 180.00 3.02429 6.36
1 4 1 1 o 17434.283 18403.238 180.00 2.99513 4.45
1 4 1 2 o 18446.301 18403.238 180.00 2.99513 2.36
3 1 1 1 o 66390.53 64337.38 0.00 2.96800 14.28
3 1 1 2 o 64980.37 64337.38 0.00 2.96800 6.94
1 1 3 1 o 568.247 806.154 0.00 2.94962 0.08
1 1 3 2 o 232.044 806.154 0.00 2.94962 0.00
3 2 1 1 o 32949.402 31398.725 180.00 2.76980 6.32
3 2 1 2 o 31977.875 31398.725 180.00 2.76980 3.04
1 2 3 1 o 119303.12 126034.66 0.00 2.75485 22.05
1 2 3 2 o 120122.80 126034.66 0.00 2.75485 11.05
2 4 0 1 o 99105.61 100452.88 180.00 2.74367 10.03
2 4 0 2 o 98514.30 100452.88 180.00 2.74367 4.96
0 4 2 1 o 29745.191 30389.656 0.00 2.73638 3.13
0 4 2 2 o 27585.332 30389.656 0.00 2.73638 1.43
2 3 2 1 o 3143.935 4353.347 180.00 2.69798 0.60
2 3 2 2 o 3597.656 4353.347 180.00 2.69798 0.35
3 0 2 1 o 88329.35 84936.28 0.00 2.66536 7.12
3 0 2 2 o 86721.57 84936.28 0.00 2.66536 3.46
2 4 1 1 o 24415.320 23751.533 0.00 2.63713 4.37
1 4 2 1 o 30876.551 30366.424 180.00 2.63227 5.48
2 4 1 2 o 23968.859 23751.533 0.00 2.63713 2.13
1 4 2 2 o 31106.316 30366.424 180.00 2.63227 2.75
3 1 2 1 o 28144.373 28613.961 180.00 2.61379 4.27
3 1 2 2 o 28435.576 28613.961 180.00 2.61379 2.15
2 1 3 1 o 28148.857 28412.117 0.00 2.60591 4.31
2 1 3 2 o 26951.371 28412.117 0.00 2.60591 2.03
0 3 3 1 o 0.707 1.418 0.00 2.59029 0.00
0 3 3 2 o 2.343 1.418 0.00 2.59029 0.00
0 5 1 1 o 61763.82 61356.66 180.00 2.57187 5.41
0 5 1 2 o 59955.54 61356.66 180.00 2.57187 2.59
3 3 1 1 o 28495.469 26147.545 180.00 2.51264 4.35
3 3 1 2 o 26690.473 26147.545 180.00 2.51264 2.00
1 3 3 1 o 121753.33 121863.74 180.00 2.50146 18.18
1 3 3 2 o 119936.59 121863.74 180.00 2.50146 8.88
1 5 1 1 o 6034.334 6121.855 180.00 2.48486 1.01
1 5 1 2 o 5862.276 6121.855 180.00 2.48486 0.49
3 2 2 1 o 16203.801 17197.230 180.00 2.47537 2.14
3 2 2 2 o 16633.893 17197.230 180.00 2.47537 1.10
2 2 3 1 o 24803.439 25693.572 0.00 2.46867 3.30
2 2 3 2 o 24972.783 25693.572 0.00 2.46867 1.65
4 0 0 1 o 22142.850 19420.840 180.00 2.40860 0.66
4 0 0 2 o 19641.971 19420.840 180.00 2.40860 0.28
0 0 4 1 o 51472.19 49434.29 180.00 2.38902 1.59
0 0 4 2 o 49767.68 49434.29 180.00 2.38902 0.76
2 4 2 1 o 28464.441 28990.041 180.00 2.37930 3.64
2 4 2 2 o 29361.838 28990.041 180.00 2.37930 1.89
4 1 0 1 o 14367.089 13261.667 180.00 2.37034 0.92
4 1 0 2 o 15214.196 13261.667 180.00 2.37034 0.49
2 5 0 1 o 159605.13 144271.19 0.00 2.33555 11.30
2 5 0 2 o 154187.75 144271.19 0.00 2.33555 5.39
1 0 4 1 o 35202.10 31147.219 0.00 2.31879 1.99
1 0 4 2 o 37775.23 31147.219 0.00 2.31879 1.08
4 1 1 1 o 165660.64 158062.64 180.00 2.30062 19.57
4 1 1 2 o 162400.77 158062.64 180.00 2.30062 9.50
3 3 2 1 o 30649.160 26741.348 180.00 2.28667 4.12
1 1 4 1 o 3205.779 2971.341 0.00 2.28460 0.32
2 3 3 1 o 31316.121 28038.285 0.00 2.28139 3.70
3 3 2 2 o 30369.438 26741.348 180.00 2.28667 2.03
1 1 4 2 o 3247.130 2971.341 0.00 2.28460 0.16
2 3 3 2 o 32347.107 28038.285 0.00 2.28139 1.91
2 5 1 1 o 38194.15 36899.81 0.00 2.26877 5.03
4 2 0 1 o 70009.48 71011.08 0.00 2.26565 3.92
1 5 2 1 o 57839.85 58641.41 180.00 2.26567 7.16
2 5 1 2 o 35953.80 36899.81 0.00 2.26877 2.33
4 2 0 2 o 70111.97 71011.08 0.00 2.26565 1.95
1 5 2 2 o 57900.55 58641.41 180.00 2.26567 3.57
0 2 4 1 o 65497.38 59749.27 0.00 2.24933 3.79
3 4 1 1 o 5084.617 4641.128 0.00 2.24927 0.63
0 2 4 2 o 61446.89 59749.27 0.00 2.24933 1.75
3 4 1 2 o 4772.775 4641.128 0.00 2.24927 0.29
1 4 3 1 o 18683.646 18335.699 180.00 2.24124 2.28
1 4 3 2 o 19268.367 18335.699 180.00 2.24124 1.18
3 1 3 1 o 59151.41 56777.50 0.00 2.22980 6.15
3 1 3 2 o 63351.33 56777.50 0.00 2.22980 3.33
0 6 0 1 o 213883.14 190283.92 0.00 2.22533 7.20
0 6 0 2 o 220782.78 190283.92 0.00 2.22533 3.72
4 2 1 1 o 16412.506 16331.735 180.00 2.20454 1.89
4 2 1 2 o 15640.383 16331.735 180.00 2.20454 0.89
1 2 4 1 o 10019.050 10888.787 0.00 2.19043 1.04
1 2 4 2 o 9942.897 10888.787 0.00 2.19043 0.51
4 0 2 1 o -380.032 66.934 180.00 2.15078 0.00
4 0 2 2 o -191.012 66.934 180.00 2.15078 0.01
3 2 3 1 o 3533.607 3649.803 180.00 2.14199 0.19
2 0 4 1 o 9778.751 10114.607 180.00 2.14027 0.35
3 2 3 2 o 3284.057 3649.803 180.00 2.14199 0.08
2 0 4 2 o 8959.271 10114.607 180.00 2.14027 0.15
4 1 2 1 o 5625.186 5268.591 180.00 2.12341 0.66
4 1 2 2 o 6080.342 5268.591 180.00 2.12341 0.36
4 3 0 1 o 1393.919 1255.068 180.00 2.11830 0.06
1 6 1 1 o 128.542 126.682 180.00 2.11450 0.01
2 1 4 1 o 111320.20 109420.38 0.00 2.11329 11.20
4 3 0 2 o 1270.290 1255.068 180.00 2.11830 0.03
1 6 1 2 o 126.118 126.682 180.00 2.11450 0.00
2 1 4 2 o 108994.39 109420.38 0.00 2.11329 5.44
2 5 2 1 o 23636.318 18759.410 0.00 2.09829 2.87
2 5 2 2 o 22938.764 18759.410 0.00 2.09829 1.38
3 4 2 1 o 108204.19 107860.37 180.00 2.08283 10.71
2 4 3 1 o 7343.921 7826.844 180.00 2.07884 0.74
3 4 2 2 o 103161.30 107860.37 180.00 2.08283 5.02
2 4 3 2 o 7501.170 7826.844 180.00 2.07884 0.38
4 3 1 1 o 6165.652 6232.659 0.00 2.06810 0.60
4 3 1 2 o 5771.112 6232.659 0.00 2.06810 0.28
1 3 4 1 o 3932.791 3912.719 0.00 2.05643 0.39
1 3 4 2 o 4256.607 3912.719 0.00 2.05643 0.21
4 2 2 1 o 53007.09 50905.17 0.00 2.04716 5.01
0 5 3 1 o 40152.93 38905.97 180.00 2.04641 2.20
4 2 2 2 o 51947.05 50905.17 0.00 2.04716 2.43
0 5 3 2 o 40219.34 38905.97 180.00 2.04641 1.10
2 2 4 1 o 19348.598 19170.016 180.00 2.03810 1.77
2 2 4 2 o 18690.520 19170.016 180.00 2.03810 0.84
2 6 0 1 o 43874.34 39525.62 180.00 2.02019 2.44
0 6 2 1 o 68344.14 65238.52 0.00 2.01727 3.65
3 3 3 1 o 15947.396 15485.733 180.00 2.01620 1.34
2 6 0 2 o 40571.52 39525.62 180.00 2.02019 1.11
0 6 2 2 o 66124.90 65238.52 0.00 2.01727 1.75
3 3 3 2 o 15723.058 15485.733 180.00 2.01620 0.65
3 5 1 1 o 661.483 550.720 180.00 2.00747 0.08
3 5 1 2 o 528.079 550.720 180.00 2.00747 0.03
1 5 3 1 o 19755.365 20479.643 180.00 2.00176 1.87
1 5 3 2 o 18522.664 20479.643 180.00 2.00176 0.86
2 6 1 1 o 76508.38 71688.80 0.00 1.97651 7.87
1 6 2 1 o 71403.45 68019.72 0.00 1.97446 7.27
2 6 1 2 o 70311.88 71688.80 0.00 1.97651 3.54
1 6 2 2 o 67385.64 68019.72 0.00 1.97446 3.38
4 4 0 1 o 272616.03 285466.75 0.00 1.95321 11.74
4 4 0 2 o 268124.78 285466.75 0.00 1.95321 5.72
0 4 4 1 o 165044.17 174094.81 0.00 1.94272 6.77
0 4 4 2 o 163435.02 174094.81 0.00 1.94272 3.32
4 3 2 1 o 5795.176 6112.622 180.00 1.93652 0.60
4 3 2 2 o 5768.400 6112.622 180.00 1.93652 0.30
2 3 4 1 o 40574.83 40648.23 0.00 1.92884 3.56
2 3 4 2 o 39591.15 40648.23 0.00 1.92884 1.72
3 0 4 1 o 1769.941 1144.247 180.00 1.91681 0.09
4 4 1 1 o 3193.640 2295.268 0.00 1.91364 0.29
3 0 4 2 o 1583.721 1144.247 180.00 1.91681 0.04
4 4 1 2 o 1566.590 2295.268 0.00 1.91364 0.06
1 4 4 1 o 3359.111 5438.973 0.00 1.90439 0.29
4 1 3 1 o 7290.518 7828.365 180.00 1.90161 0.60
1 4 4 2 o 4882.137 5438.973 0.00 1.90439 0.22
3 1 4 1 o 13625.569 14118.017 180.00 1.89736 1.15
4 1 3 2 o 7692.649 7828.365 180.00 1.90161 0.32
3 1 4 2 o 13846.124 14118.017 180.00 1.89736 0.58
0 1 5 1 o 99960.75 103576.88 180.00 1.89193 3.72
0 1 5 2 o 98731.02 103576.88 180.00 1.89193 1.82
3 5 2 1 o 32777.883 33907.000 0.00 1.88647 2.69
2 5 3 1 o 22568.289 22573.980 0.00 1.88351 1.83
3 5 2 2 o 33777.688 33907.000 0.00 1.88647 1.39
2 5 3 2 o 22242.945 22573.980 0.00 1.88351 0.89
3 4 3 1 o 19000.195 16773.822 0.00 1.87230 1.66
5 1 1 1 o 97.093 94.367 180.00 1.87024 0.00
0 7 1 1 o 37766.49 29760.109 0.00 1.87053 1.91
3 4 3 2 o 18844.553 16773.822 0.00 1.87230 0.82
5 1 1 2 o 96.178 94.367 180.00 1.87024 0.00
0 7 1 2 o 34935.137 29760.109 0.00 1.87053 0.87
2 6 2 1 o 16427.402 17973.826 180.00 1.86071 1.26
1 1 5 1 o 30893.574 34373.281 180.00 1.85647 2.18
2 6 2 2 o 16255.498 17973.826 180.00 1.86071 0.62
1 1 5 2 o 30845.840 34373.281 180.00 1.85647 1.08
4 2 3 1 o 7711.947 8167.917 0.00 1.84627 0.62
3 2 4 1 o 33550.637 32692.438 180.00 1.84237 2.54
4 2 3 2 o 8376.645 8167.917 0.00 1.84627 0.34
3 2 4 2 o 31883.145 32692.438 180.00 1.84237 1.19
1 7 1 1 o 24538.592 25942.289 0.00 1.83624 2.23
1 7 1 2 o 22537.549 25942.289 0.00 1.83624 1.00
5 2 1 1 o 76159.45 79848.59 180.00 1.81752 5.70
5 2 1 2 o 77134.27 79848.59 180.00 1.81752 2.88
4 4 2 1 o 98964.56 99048.45 0.00 1.80798 7.69
1 2 5 1 o 32111.398 33012.855 180.00 1.80487 2.59
4 4 2 2 o 99149.48 99048.45 0.00 1.80798 3.84
2 4 4 1 o 39837.49 39979.56 180.00 1.80172 3.30
1 2 5 2 o 32908.129 33012.855 180.00 1.80487 1.32
2 4 4 2 o 42261.95 39979.56 180.00 1.80172 1.75
3 6 1 1 o 35991.18 33517.660 0.00 1.79650 3.18
1 6 3 1 o 75801.02 72143.98 180.00 1.79240 6.38
3 6 1 2 o 35247.04 33517.660 0.00 1.79650 1.55
4 5 0 1 o 9404.901 9914.972 0.00 1.78855 0.33
1 6 3 2 o 68420.79 72143.98 180.00 1.79240 2.83
5 0 2 1 o 4342.770 4651.456 180.00 1.78704 0.14
4 5 0 2 o 6222.373 9914.972 0.00 1.78855 0.09
5 0 2 2 o 3063.535 4651.456 180.00 1.78704 0.04
2 7 0 1 o 2585.637 2371.549 180.00 1.77346 0.12
5 1 2 1 o 67644.20 63068.27 180.00 1.77124 4.50
2 7 0 2 o 2413.403 2371.549 180.00 1.77346 0.06
5 1 2 2 o 67895.24 63068.27 180.00 1.77124 2.25
4 3 3 1 o 94369.22 90857.72 180.00 1.76388 6.39
2 1 5 1 o 6249.925 5994.950 0.00 1.76098 0.40
3 3 4 1 o 1723.693 1658.001 180.00 1.76048 0.12
4 3 3 2 o 94440.92 90857.72 180.00 1.76388 3.18
4 5 1 1 o 19040.607 18177.254 180.00 1.75803 1.38
2 1 5 2 o 6391.637 5994.950 0.00 1.76098 0.21
3 3 4 2 o 1788.342 1658.001 180.00 1.76048 0.06
0 3 5 1 o 57475.50 53373.62 0.00 1.75614 1.99
4 5 1 2 o 18584.252 18177.254 180.00 1.75803 0.67
0 3 5 2 o 55419.88 53373.62 0.00 1.75614 0.95
1 5 4 1 o 17928.162 17417.121 180.00 1.75084 1.31
1 5 4 2 o 16600.021 17417.121 180.00 1.75084 0.60
2 7 1 1 o 42959.54 45681.75 0.00 1.74369 3.18
1 7 2 1 o 14.895 16.018 0.00 1.74228 0.00
5 3 1 1 o 681.342 731.988 0.00 1.73876 0.03
2 7 1 2 o 41729.97 45681.75 0.00 1.74369 1.52
1 7 2 2 o 14.396 16.018 0.00 1.74228 0.00
5 3 1 2 o 285.758 731.988 0.00 1.73876 0.00
1 3 5 1 o 4772.650 5373.292 180.00 1.72768 0.29
5 2 2 1 o 10131.043 10740.982 0.00 1.72626 0.64
3 5 3 1 o 7754.292 8264.718 0.00 1.72581 0.61
1 3 5 2 o 4968.817 5373.292 180.00 1.72768 0.15
5 2 2 2 o 10190.417 10740.982 0.00 1.72626 0.32
3 5 3 2 o 7938.013 8264.718 0.00 1.72581 0.31
2 2 5 1 o 124214.53 126118.43 0.00 1.71676 7.80
2 2 5 2 o 119360.15 126118.43 0.00 1.71676 3.70
3 6 2 1 o 12921.281 14802.614 0.00 1.70822 0.84
2 6 3 1 o 12798.459 12426.522 180.00 1.70602 0.86
3 6 2 2 o 14918.588 14802.614 0.00 1.70822 0.50
2 6 3 2 o 12407.663 12426.522 180.00 1.70602 0.41
4 0 4 1 o 299797.19 289879.84 0.00 1.69617 9.42
4 0 4 2 o 287741.28 289879.84 0.00 1.69617 4.46
4 1 4 1 o 18883.287 16485.133 0.00 1.68265 1.25
4 1 4 2 o 19922.244 16485.133 0.00 1.68265 0.66
4 5 2 1 o 4168.347 4021.216 0.00 1.67504 0.31
4 5 2 2 o 4315.141 4021.216 0.00 1.67504 0.16
2 5 4 1 o 104911.09 103267.88 180.00 1.67007 6.64
0 8 0 1 o 258567.91 262225.00 0.00 1.66900 4.91
2 5 4 2 o 100242.71 103267.88 180.00 1.67007 3.12
4 4 3 1 o 128.492 131.761 180.00 1.66510 0.01
0 8 0 2 o 253224.44 262225.00 0.00 1.66900 2.38
3 4 4 1 o 52811.09 56395.57 180.00 1.66224 3.18
2 7 2 1 o 719.386 790.953 0.00 1.66263 0.06
4 4 3 2 o 126.227 131.761 180.00 1.66510 0.00
5 3 2 1 o 19156.070 19300.182 180.00 1.65835 1.13
3 4 4 2 o 55948.36 56395.57 180.00 1.66224 1.70
2 7 2 2 o 784.073 790.953 0.00 1.66263 0.03
5 3 2 2 o 21115.912 19300.182 180.00 1.65835 0.63
2 3 5 1 o 28554.660 31679.008 0.00 1.64992 1.67
2 3 5 2 o 29280.242 31679.008 0.00 1.64992 0.86
4 2 4 1 o 7737.656 6698.836 0.00 1.64394 0.47
5 4 1 1 o 7942.084 6946.231 0.00 1.64392 0.47
4 2 4 2 o 7004.959 6698.836 0.00 1.64394 0.21
5 4 1 2 o 7245.068 6946.231 0.00 1.64392 0.21
5 1 3 1 o 55128.45 53096.39 180.00 1.63627 3.31
0 7 3 1 o 122843.95 118851.28 180.00 1.63646 4.08
1 4 5 1 o 332.321 328.385 0.00 1.63454 0.02
4 6 0 1 o 1512.332 1492.551 180.00 1.63450 0.05
5 1 3 2 o 54361.16 53096.39 180.00 1.63627 1.62
0 7 3 2 o 119980.70 118851.28 180.00 1.63646 1.97
1 4 5 2 o 365.529 328.385 0.00 1.63454 0.01
4 6 0 2 o 1713.223 1492.551 180.00 1.63450 0.03
3 1 5 1 o 14265.868 12163.767 0.00 1.63009 0.86
0 6 4 1 o 8442.931 7406.545 180.00 1.62834 0.28
3 1 5 2 o 13103.283 12163.767 0.00 1.63009 0.39
0 6 4 2 o 9251.242 7406.545 180.00 1.62834 0.15
1 8 1 1 o 31766.764 29106.986 0.00 1.62068 2.25
1 8 1 2 o 30304.285 29106.986 0.00 1.62068 1.06
3 7 1 1 o 58324.54 56096.05 0.00 1.61634 3.77
1 7 3 1 o 10821.239 10775.928 0.00 1.61336 0.66
3 7 1 2 o 56336.38 56096.05 0.00 1.61634 1.80
4 6 1 1 o 4135.379 4272.221 0.00 1.61111 0.25
1 7 3 2 o 9752.811 10775.928 0.00 1.61336 0.29
4 6 1 2 o 4413.203 4272.221 0.00 1.61111 0.13
6 0 0 1 o 78207.01 75455.62 180.00 1.60573 1.00
1 6 4 1 o 31869.635 30661.646 0.00 1.60557 1.91
6 0 0 2 o 72899.48 75455.62 180.00 1.60573 0.45
1 6 4 2 o 29526.305 30661.646 0.00 1.60557 0.86
5 2 3 1 o 50698.20 52841.99 180.00 1.60061 2.53
5 2 3 2 o 49794.19 52841.99 180.00 1.60061 1.23
3 2 5 1 o 826.836 873.714 180.00 1.59482 0.08
6 1 0 1 o 95508.25 99699.52 0.00 1.59425 2.64
0 0 6 1 o 30382.494 32473.469 180.00 1.59268 0.44
3 2 5 2 o 754.560 873.714 180.00 1.59482 0.04
6 1 0 2 o 92599.95 99699.52 0.00 1.59425 1.27
0 0 6 2 o 27501.285 32473.469 180.00 1.59268 0.19
3 6 3 1 o 2366.307 2460.166 0.00 1.58620 0.08
4 3 4 1 o 7011.041 6905.782 0.00 1.58497 0.43
3 6 3 2 o 2134.886 2460.166 0.00 1.58620 0.03
4 3 4 2 o 5786.072 6905.782 0.00 1.58497 0.17
2 8 0 1 o 1951.224 2091.225 180.00 1.57703 0.03
5 4 2 1 o 35477.86 38610.19 0.00 1.57547 1.90
0 8 2 1 o 15744.740 16880.764 0.00 1.57564 0.40
6 1 1 1 o 3186.823 3399.796 0.00 1.57251 0.14
2 8 0 2 o 1984.367 2091.225 180.00 1.57703 0.01
5 4 2 2 o 34834.230 38610.19 0.00 1.57547 0.92
1 0 6 1 o 3524.523 4019.603 180.00 1.57135 0.10
0 8 2 2 o 15646.981 16880.764 0.00 1.57564 0.20
6 1 1 2 o 3167.738 3399.796 0.00 1.57251 0.07
2 4 5 1 o 23475.504 25281.189 180.00 1.56824 1.24
1 0 6 2 o 3518.128 4019.603 180.00 1.57135 0.05
2 4 5 2 o 23554.146 25281.189 180.00 1.56824 0.62
6 2 0 1 o 22466.010 21705.420 180.00 1.56121 0.58
1 1 6 1 o 25748.264 25219.621 180.00 1.56058 1.28
4 5 3 1 o 34100.035 33653.219 180.00 1.55953 1.85
6 2 0 2 o 23193.896 21705.420 180.00 1.56121 0.30
3 5 4 1 o 3472.165 3246.437 0.00 1.55718 0.18
1 1 6 2 o 27413.881 25219.621 180.00 1.56058 0.69
4 5 3 2 o 37527.34 33653.219 180.00 1.55953 1.03
2 8 1 1 o 48075.66 43155.25 180.00 1.55598 2.93
1 8 2 1 o 34059.723 31245.988 0.00 1.55498 2.04
0 5 5 1 o 1114.304 1067.247 180.00 1.55418 0.03
3 5 4 2 o 3405.460 3246.437 0.00 1.55718 0.09
2 8 1 2 o 46377.61 43155.25 180.00 1.55598 1.40
3 7 2 1 o 54.528 51.892 0.00 1.55115 0.00
1 8 2 2 o 32314.061 31245.988 0.00 1.55498 0.95
0 5 5 2 o 1027.587 1067.247 180.00 1.55418 0.01
0 2 6 1 o 11236.426 12781.797 0.00 1.54920 0.26
2 7 3 1 o 19747.129 22423.801 0.00 1.54950 1.14
3 7 2 2 o 45.222 51.892 0.00 1.55115 0.00
4 6 2 1 o 18574.832 20215.754 0.00 1.54652 1.04
5 3 3 1 o 3921.113 4362.795 0.00 1.54603 0.24
0 2 6 2 o 11630.509 12781.797 0.00 1.54920 0.14
2 7 3 2 o 20292.189 22423.801 0.00 1.54950 0.58
4 6 2 2 o 18544.287 20215.754 0.00 1.54652 0.52
5 3 3 2 o 4069.529 4362.795 0.00 1.54603 0.12
2 6 4 1 o 28987.217 31395.746 180.00 1.54260 1.59
5 5 1 1 o 2605.922 2776.180 180.00 1.54209 0.17
6 2 1 1 o 55670.74 57260.51 0.00 1.54078 2.75
3 3 5 1 o 28296.369 29040.250 0.00 1.54081 1.33
2 6 4 2 o 28334.713 31395.746 180.00 1.54260 0.77
5 5 1 2 o 2507.414 2776.180 180.00 1.54209 0.08
6 2 1 2 o 56377.13 57260.51 0.00 1.54078 1.39
3 3 5 2 o 28560.596 29040.250 0.00 1.54081 0.67
1 5 5 1 o 21389.953 23070.934 180.00 1.53434 1.15
1 5 5 2 o 23697.725 23070.934 180.00 1.53434 0.64
1 2 6 1 o 35512.51 34662.352 0.00 1.52955 1.72
1 2 6 2 o 34967.820 34662.352 0.00 1.52955 0.84
6 0 2 1 o 46342.83 51549.28 180.00 1.52208 1.13
6 0 2 2 o 52963.11 51549.28 180.00 1.52208 0.66
6 1 2 1 o 6.783 7.424 0.00 1.51229 0.00
2 0 6 1 o 26169.586 27521.568 180.00 1.51217 0.68
4 4 4 1 o 36250.38 38120.55 180.00 1.51215 1.91
6 3 0 1 o 37167.29 38765.24 0.00 1.51044 0.97
6 1 2 2 o 6.217 7.424 0.00 1.51229 0.00
2 0 6 2 o 25292.656 27521.568 180.00 1.51217 0.32
4 4 4 2 o 35118.81 38120.55 180.00 1.51215 0.92
6 3 0 2 o 36176.50 38765.24 0.00 1.51044 0.47
2 1 6 1 o 20708.398 18382.723 0.00 1.50257 0.96
5 0 4 1 o 2702.044 2394.801 0.00 1.49983 0.06
2 1 6 2 o 19302.387 18382.723 0.00 1.50257 0.44
2 8 2 1 o 47515.98 49487.75 180.00 1.49757 2.81
5 0 4 2 o 2256.855 2394.801 0.00 1.49983 0.02
4 7 0 1 o 2220.545 2318.111 180.00 1.49532 0.07
2 8 2 2 o 47046.30 49487.75 180.00 1.49757 1.38
6 3 1 1 o 72365.68 75116.46 0.00 1.49192 3.37
4 7 0 2 o 2227.296 2318.111 180.00 1.49532 0.04
5 1 4 1 o 7402.014 7694.481 180.00 1.49046 0.33
6 3 1 2 o 71533.13 75116.46 0.00 1.49192 1.65
4 1 5 1 o 5895.683 6048.559 0.00 1.48782 0.26
5 1 4 2 o 7676.204 7694.481 180.00 1.49046 0.17
5 5 2 1 o 88727.99 94520.02 0.00 1.48516 4.25
4 1 5 2 o 5876.179 6048.559 0.00 1.48782 0.13
6 2 2 1 o 16686.559 17064.955 180.00 1.48400 0.73
1 3 6 1 o 9843.591 10204.896 180.00 1.48171 0.46
5 5 2 2 o 91747.43 94520.02 0.00 1.48516 2.20
6 2 2 2 o 17796.377 17064.955 180.00 1.48400 0.39
2 5 5 1 o 20802.172 20103.541 0.00 1.47910 1.05
5 4 3 1 o 16256.527 15730.650 0.00 1.47822 0.77
1 3 6 2 o 10527.455 10204.896 180.00 1.48171 0.25
4 7 1 1 o 188693.31 183796.44 180.00 1.47735 9.69
2 5 5 2 o 20063.236 20103.541 0.00 1.47910 0.50
2 2 6 1 o 5161.762 5102.469 180.00 1.47481 0.23
5 4 3 2 o 15973.845 15730.650 0.00 1.47822 0.37
3 4 5 1 o 821.028 784.147 180.00 1.47366 0.04
4 7 1 2 o 191427.17 183796.44 180.00 1.47735 4.91
1 7 4 1 o 118.199 108.767 0.00 1.47308 0.01
2 2 6 2 o 5971.948 5102.469 180.00 1.47481 0.14
3 4 5 2 o 1039.143 784.147 180.00 1.47366 0.03
1 7 4 2 o 151.095 108.767 0.00 1.47308 0.00
0 9 1 1 o 55878.63 50161.00 180.00 1.46599 1.54
5 2 4 1 o 16080.222 13467.504 0.00 1.46336 0.73
3 8 1 1 o 7142.160 5974.808 180.00 1.46348 0.37
0 9 1 2 o 55400.01 50161.00 180.00 1.46599 0.76
4 2 5 1 o 7211.230 6779.318 0.00 1.46086 0.31
1 8 3 1 o 28657.111 27045.352 0.00 1.46126 1.45
5 2 4 2 o 14490.218 13467.504 0.00 1.46336 0.32
3 8 1 2 o 6438.174 5974.808 180.00 1.46348 0.16
3 7 3 1 o 87340.62 89006.68 0.00 1.45807 4.13
4 2 5 2 o 6630.280 6779.318 0.00 1.46086 0.14
1 8 3 2 o 26413.008 27045.352 0.00 1.46126 0.65
3 7 3 2 o 90569.79 89006.68 0.00 1.45807 2.15
4 6 3 1 o 627.345 604.075 180.00 1.45423 0.03
3 6 4 1 o 1924.490 1450.058 180.00 1.45232 0.10
4 6 3 2 o 863.331 604.075 180.00 1.45423 0.02
1 9 1 1 o 3982.526 2803.687 180.00 1.44931 0.21
3 6 4 2 o 2194.553 1450.058 180.00 1.45232 0.06
6 4 0 1 o 5563.099 3409.950 180.00 1.44701 0.14
1 9 1 2 o 4326.420 2803.687 180.00 1.44931 0.12
6 4 0 2 o 7047.001 3409.950 180.00 1.44701 0.09
6 3 2 1 o 736.630 663.591 180.00 1.44019 0.05
5 6 1 1 o 37685.84 35747.99 0.00 1.44005 1.87
0 4 6 1 o 119766.95 120976.74 0.00 1.43744 2.84
6 3 2 2 o 732.230 663.591 180.00 1.44019 0.03
5 6 1 2 o 38414.61 35747.99 0.00 1.44005 0.95
0 4 6 2 o 125282.13 120976.74 0.00 1.43744 1.49
1 6 5 1 o 15536.821 14448.302 0.00 1.43374 0.84
2 3 6 1 o 2564.990 2366.184 0.00 1.43179 0.10
4 5 4 1 o 17707.760 15960.744 180.00 1.43177 0.87
6 4 1 1 o 14744.606 13134.200 180.00 1.43071 0.67
1 6 5 2 o 17108.498 14448.302 0.00 1.43374 0.46
2 3 6 2 o 2451.989 2366.184 0.00 1.43179 0.04
4 5 4 2 o 16672.486 15960.744 180.00 1.43177 0.40
6 4 1 2 o 13129.605 13134.200 180.00 1.43071 0.29
3 0 6 1 o 139124.80 136084.61 180.00 1.42685 2.91
4 7 2 1 o 3924.402 3899.129 0.00 1.42707 0.24
6 1 3 1 o 40281.74 36072.39 0.00 1.42566 1.74
2 7 4 1 o 181.157 190.430 180.00 1.42399 0.01
3 0 6 2 o 132782.11 136084.61 180.00 1.42685 1.37
4 7 2 2 o 3720.720 3899.129 0.00 1.42707 0.11
6 1 3 2 o 34908.191 36072.39 0.00 1.42566 0.73
1 4 6 1 o 95811.16 96998.51 0.00 1.42170 4.14
5 3 4 1 o 255.141 251.538 180.00 1.42130 0.01
2 7 4 2 o 198.476 190.430 180.00 1.42399 0.01
4 3 5 1 o 136937.81 137390.77 180.00 1.41901 5.74
4 3 5 2 o 144424.52 137390.77 180.00 1.41901 3.05
3 1 6 1 o 15826.801 15525.542 0.00 1.41877 0.67
3 1 6 2 o 16865.748 15525.542 0.00 1.41877 0.36
1 4 6 2 o 102998.34 96998.51 0.00 1.42170 2.25
5 3 4 2 o 268.008 251.538 180.00 1.42130 0.00
3 8 2 1 o 9204.225 7825.178 0.00 1.41456 0.44
2 9 0 1 o 104202.38 94969.36 180.00 1.41784 2.64
2 9 0 2 o 114341.25 94969.36 180.00 1.41784 1.47
2 8 3 1 o 18925.805 15506.021 0.00 1.41330 0.94
3 8 2 2 o 9986.699 7825.178 0.00 1.41456 0.24
2 8 3 2 o 21332.523 15506.021 0.00 1.41330 0.54
5 5 3 1 o 29.677 29.272 180.00 1.40287 0.00
6 2 3 1 o 17901.385 16237.740 180.00 1.40188 0.74
2 9 1 1 o 27326.098 25795.641 0.00 1.40249 1.36
1 9 2 1 o 55225.28 49179.76 0.00 1.40175 2.72
5 5 3 2 o 29.298 29.272 180.00 1.40287 0.00
3 5 5 1 o 11437.021 11197.745 0.00 1.39897 0.44
6 2 3 2 o 18168.605 16237.740 180.00 1.40188 0.37
2 9 1 2 o 26229.918 25795.641 0.00 1.40249 0.65
1 9 2 2 o 56664.43 49179.76 0.00 1.40175 1.40
3 5 5 2 o 14340.805 11197.745 0.00 1.39897 0.29
3 2 6 1 o 10156.771 7725.867 180.00 1.39533 0.43
5 6 2 1 o 177.135 116.960 180.00 1.39337 0.01
3 2 6 2 o 10464.987 7725.867 180.00 1.39533 0.22
5 6 2 2 o 143.932 116.960 180.00 1.39337 0.00
2 6 5 1 o 60245.16 60479.75 180.00 1.38836 2.60
6 4 2 1 o 9886.548 9059.141 180.00 1.38490 0.38
2 6 5 2 o 66305.96 60479.75 180.00 1.38836 1.45
6 4 2 2 o 12431.526 9059.141 180.00 1.38490 0.25
2 4 6 1 o 1657.391 1561.711 0.00 1.37742 0.11
6 5 0 1 o 109989.63 108614.23 180.00 1.37611 2.35
2 4 6 2 o 1772.451 1561.711 0.00 1.37742 0.06
6 5 0 2 o 121301.24 108614.23 180.00 1.37611 1.31
4 8 0 1 o 2069.766 1317.512 0.00 1.37184 0.06
5 4 4 1 o 21593.607 15458.798 0.00 1.36808 0.88
4 8 0 2 o 2166.417 1317.512 0.00 1.37184 0.03
0 8 4 1 o 583.378 277.723 0.00 1.36819 0.02
4 4 5 1 o 2981.860 1989.353 180.00 1.36604 0.13
6 3 3 1 o 10493.575 8116.634 0.00 1.36478 0.44
5 4 4 2 o 19699.064 15458.798 0.00 1.36808 0.39
0 8 4 2 o 483.404 277.723 0.00 1.36819 0.01
4 4 5 2 o 2010.677 1989.353 180.00 1.36604 0.04
6 5 1 1 o 36348.59 38887.55 0.00 1.36206 1.47
6 3 3 2 o 7752.679 8116.634 0.00 1.36478 0.15
3 3 6 1 o 3804.894 3825.859 0.00 1.35873 0.15
2 9 2 1 o 5987.671 6067.986 180.00 1.35926 0.29
6 5 1 2 o 38767.07 38887.55 0.00 1.36206 0.79
0 1 7 1 o 931.747 861.514 180.00 1.35807 0.02
4 8 1 1 o 6417.679 5773.201 180.00 1.35792 0.30
7 1 1 1 o 796.871 776.703 180.00 1.35525 0.01
3 3 6 2 o 4098.309 3825.859 0.00 1.35873 0.08
2 9 2 2 o 6648.279 6067.986 180.00 1.35926 0.16
0 1 7 2 o 875.353 861.514 180.00 1.35807 0.01
4 8 1 2 o 5867.251 5773.201 180.00 1.35792 0.13
1 8 4 1 o 18979.285 18700.787 0.00 1.35460 0.80
1 5 6 1 o 37226.61 36401.99 0.00 1.35429 1.48
4 7 3 1 o 113.975 109.267 0.00 1.35360 0.01
7 1 1 2 o 775.198 776.703 180.00 1.35525 0.01
3 7 4 1 o 186.757 187.680 0.00 1.35206 0.01
1 8 4 2 o 18379.863 18700.787 0.00 1.35460 0.38
1 5 6 2 o 35508.63 36401.99 0.00 1.35429 0.69
5 1 5 1 o 7690.707 7767.863 180.00 1.34998 0.27
4 7 3 2 o 106.392 109.267 0.00 1.35360 0.00
0 7 5 1 o 163934.16 166489.11 180.00 1.35009 3.39
4 6 4 1 o 65935.57 66257.37 0.00 1.34899 2.55
3 7 4 2 o 187.596 187.680 0.00 1.35206 0.01
5 1 5 2 o 7573.566 7767.863 180.00 1.34998 0.13
0 7 5 2 o 161002.48 166489.11 180.00 1.35009 1.65
4 6 4 2 o 66871.23 66257.37 0.00 1.34899 1.29
1 1 7 1 o 70310.03 68474.77 180.00 1.34478 2.60
0 9 3 1 o 9624.773 9395.600 180.00 1.34485 0.21
3 8 3 1 o 20808.826 21351.928 180.00 1.34291 0.92
5 7 1 1 o 6085.864 6065.170 180.00 1.34214 0.22
1 1 7 2 o 70318.71 68474.77 180.00 1.34478 1.29
0 9 3 2 o 9613.680 9395.600 180.00 1.34485 0.11
3 8 3 2 o 21490.504 21351.928 180.00 1.34291 0.48
5 7 1 2 o 6513.064 6065.170 180.00 1.34214 0.12
1 7 5 1 o 37281.81 37859.39 180.00 1.33703 1.53
7 2 1 1 o 1572.953 1220.873 0.00 1.33478 0.06
0 10 0 1 o 16434.805 12085.546 180.00 1.33520 0.19
1 7 5 2 o 40727.89 37859.39 180.00 1.33703 0.85
3 9 1 1 o 662.716 595.729 0.00 1.33362 0.04
6 0 4 1 o 521.758 452.339 0.00 1.33268 0.01
7 2 1 2 o 1342.814 1220.873 0.00 1.33478 0.02
1 9 3 1 o 18408.813 16596.568 180.00 1.33194 0.82
0 10 0 2 o 13310.739 12085.546 180.00 1.33520 0.07
3 9 1 2 o 755.286 595.729 0.00 1.33362 0.02
5 2 5 1 o 3420.437 2865.471 0.00 1.32975 0.12
6 0 4 2 o 563.996 452.339 0.00 1.33268 0.01
4 0 6 1 o 52431.57 47674.90 0.00 1.32850 0.93
1 9 3 2 o 18467.891 16596.568 180.00 1.33194 0.41
5 2 5 2 o 2990.708 2865.471 0.00 1.32975 0.05
6 1 4 1 o 27929.564 26697.449 180.00 1.32609 0.95
4 0 6 2 o 48790.14 47674.90 0.00 1.32850 0.42
1 2 7 1 o 22409.059 22112.201 180.00 1.32477 0.70
5 6 3 1 o 19520.568 19274.566 0.00 1.32474 0.68
6 1 4 2 o 24610.492 26697.449 180.00 1.32609 0.40
7 0 2 1 o 96273.09 102401.29 180.00 1.32257 1.67
6 5 2 1 o 133.748 134.906 180.00 1.32236 0.00
4 1 6 1 o 99.145 99.253 0.00 1.32198 0.00
1 2 7 2 o 22548.453 22112.201 180.00 1.32477 0.35
5 6 3 2 o 19701.498 19274.566 0.00 1.32474 0.34
3 6 5 1 o 96.471 89.444 0.00 1.32145 0.01
7 0 2 2 o 96317.45 102401.29 180.00 1.32257 0.83
6 5 2 2 o 134.033 134.906 180.00 1.32236 0.00
4 1 6 2 o 100.123 99.253 0.00 1.32198 0.00
4 8 2 1 o 2307.324 2240.051 0.00 1.31857 0.06
3 6 5 2 o 103.605 89.444 0.00 1.32145 0.01
6 4 3 1 o 5708.377 5367.134 0.00 1.31745 0.22
7 1 2 1 o 7708.723 7870.850 0.00 1.31612 0.29
2 8 4 1 o 6849.262 6957.870 180.00 1.31613 0.22
2 5 6 1 o 29744.768 30168.201 180.00 1.31585 1.10
4 8 2 2 o 2174.497 2240.051 0.00 1.31857 0.03
6 4 3 2 o 4835.398 5367.134 0.00 1.31745 0.09
7 1 2 2 o 6973.393 7870.850 0.00 1.31612 0.13
2 8 4 2 o 6362.381 6957.870 180.00 1.31613 0.10
2 5 6 2 o 27857.453 30168.201 180.00 1.31585 0.51
3 4 6 1 o 4081.496 4357.078 0.00 1.31201 0.15
1 10 1 1 o 362.063 427.040 0.00 1.31007 0.01
3 4 6 2 o 4099.530 4357.078 0.00 1.31201 0.08
5 5 4 1 o 5025.135 6379.967 0.00 1.30769 0.15
2 1 7 1 o 1417.389 1722.568 0.00 1.30712 0.05
6 2 4 1 o 16338.816 19760.133 180.00 1.30690 0.55
1 10 1 2 o 388.458 427.040 0.00 1.31007 0.00
4 5 5 1 o 13274.507 16882.238 180.00 1.30591 0.43
0 3 7 1 o 3981.228 5113.441 180.00 1.30514 0.07
5 5 4 2 o 5176.206 6379.967 0.00 1.30769 0.08
2 1 7 2 o 1398.646 1722.568 0.00 1.30712 0.02
5 7 2 1 o 822.511 1076.165 180.00 1.30411 0.04
6 2 4 2 o 16019.178 19760.133 180.00 1.30690 0.26
4 2 6 1 o 342.196 389.319 0.00 1.30295 0.01
7 3 1 1 o 19162.936 21734.631 0.00 1.30263 0.59
4 5 5 2 o 14734.023 16882.238 180.00 1.30591 0.25
6 6 0 1 o 64450.60 73797.65 180.00 1.30214 1.21
0 3 7 2 o 4472.812 5113.441 180.00 1.30514 0.04
5 7 2 2 o 812.703 1076.165 180.00 1.30411 0.02
4 2 6 2 o 326.857 389.319 0.00 1.30295 0.00
2 7 5 1 o 1592.057 1927.749 0.00 1.30000 0.05
7 3 1 2 o 17790.719 21734.631 0.00 1.30263 0.26
6 6 0 2 o 59793.66 73797.65 180.00 1.30214 0.55
5 3 5 1 o 24086.176 30471.107 180.00 1.29795 0.85
7 2 2 1 o 135.919 175.751 0.00 1.29735 0.00
2 7 5 2 o 1533.352 1927.749 0.00 1.30000 0.03
3 9 2 1 o 10034.726 11900.457 180.00 1.29628 0.35
0 6 6 1 o 36.799 38.611 180.00 1.29515 0.00
2 9 3 1 o 10170.385 13670.023 0.00 1.29532 0.36
5 3 5 2 o 21500.924 30471.107 180.00 1.29795 0.37
7 2 2 2 o 124.084 175.751 0.00 1.29735 0.00
1 3 7 1 o 1181.585 1570.579 0.00 1.29332 0.04
3 9 2 2 o 9553.647 11900.457 180.00 1.29628 0.16
0 6 6 2 o 36.737 38.611 180.00 1.29515 0.00
2 9 3 2 o 10152.257 13670.023 0.00 1.29532 0.18
6 6 1 1 o 21624.607 27392.916 180.00 1.29022 0.75
1 3 7 2 o 1226.382 1570.579 0.00 1.29332 0.02
2 2 7 1 o 102.315 253.818 0.00 1.28873 0.01
6 6 1 2 o 21014.232 27392.916 180.00 1.29022 0.36
2 10 0 1 o 20824.859 26659.387 180.00 1.28669 0.38
2 2 7 2 o 73.618 253.818 0.00 1.28873 0.00
0 10 2 1 o 3330.264 4999.813 0.00 1.28594 0.05
1 6 6 1 o 877.895 1349.923 0.00 1.28360 0.03
2 10 0 2 o 18629.816 26659.387 180.00 1.28669 0.16
0 10 2 2 o 3695.940 4999.813 0.00 1.28594 0.03
1 6 6 2 o 194.630 1349.923 0.00 1.28360 0.00
6 3 4 1 o 3874.463 3996.543 180.00 1.27668 0.11
2 10 1 1 o 10815.013 11061.871 180.00 1.27518 0.45
1 10 2 1 o 17712.154 18104.205 180.00 1.27463 0.73
6 3 4 2 o 3382.893 3996.543 180.00 1.27668 0.04
4 3 6 1 o -2.885 10.004 180.00 1.27300 0.00
2 10 1 2 o 9746.278 11061.871 180.00 1.27518 0.20
1 10 2 2 o 17780.756 18104.205 180.00 1.27463 0.37
4 3 6 2 o -5.061 10.004 180.00 1.27300 0.00
7 3 2 1 o 1211.941 1722.498 0.00 1.26777 0.04
4 7 4 1 o 775.166 985.740 180.00 1.26751 0.04
7 3 2 2 o 1734.239 1722.498 0.00 1.26777 0.03
4 7 4 2 o 967.039 985.740 180.00 1.26751 0.02
6 5 3 1 o 11028.490 11484.661 0.00 1.26327 0.37
4 9 0 1 o 7621.798 7870.384 180.00 1.26317 0.14
7 4 1 1 o 2167.048 2197.249 180.00 1.26129 0.08
6 5 3 2 o 11063.724 11484.661 0.00 1.26327 0.18
2 3 7 1 o 2443.369 2623.981 0.00 1.25972 0.08
4 9 0 2 o 7533.444 7870.384 180.00 1.26317 0.07
4 8 3 1 o 1835.043 1934.910 0.00 1.25996 0.07
3 8 4 1 o 1982.695 2354.018 180.00 1.25872 0.07
3 5 6 1 o 9404.024 10950.398 180.00 1.25847 0.29
7 4 1 2 o 1843.670 2197.249 180.00 1.26129 0.03
7 1 3 1 o 10360.475 12099.468 180.00 1.25783 0.36
5 4 5 1 o 1652.619 1915.521 180.00 1.25704 0.06
2 3 7 2 o 2294.856 2623.981 0.00 1.25972 0.04
4 8 3 2 o 1683.445 1934.910 0.00 1.25996 0.03
6 6 2 1 o 16646.639 19148.840 180.00 1.25632 0.54
3 8 4 2 o 1869.964 2354.018 180.00 1.25872 0.03
3 5 6 2 o 8718.829 10950.398 180.00 1.25847 0.13
7 1 3 2 o 9923.985 12099.468 180.00 1.25783 0.17
5 4 5 2 o 1901.028 1915.521 180.00 1.25704 0.03
6 6 2 2 o 17132.346 19148.840 180.00 1.25632 0.28
1 4 7 1 o 10897.517 12549.333 0.00 1.25284 0.36
4 9 1 1 o 6368.817 7472.345 180.00 1.25228 0.23
3 1 7 1 o 782.732 851.774 180.00 1.25083 0.03
2 6 6 1 o 6469.553 6948.691 180.00 1.25073 0.22
5 8 1 1 o 16517.182 17759.223 180.00 1.25071 0.58
1 4 7 2 o 11512.593 12549.333 0.00 1.25284 0.19
1 9 4 1 o 2472.156 2673.406 0.00 1.24967 0.08
4 9 1 2 o 6417.280 7472.345 180.00 1.25228 0.12
3 1 7 2 o 793.413 851.774 180.00 1.25083 0.02
2 6 6 2 o 6527.869 6948.691 180.00 1.25073 0.11
5 8 1 2 o 16660.383 17759.223 180.00 1.25071 0.29
5 7 3 1 o 36082.75 38820.66 180.00 1.24733 1.29
1 8 5 1 o 735.634 762.165 180.00 1.24656 0.02
1 9 4 2 o 2571.936 2673.406 0.00 1.24967 0.04
3 7 5 1 o 2763.974 2948.170 0.00 1.24458 0.10
5 7 3 2 o 37747.41 38820.66 180.00 1.24733 0.68
5 6 4 1 o 2170.657 2112.929 0.00 1.24372 0.07
1 8 5 2 o 778.552 762.165 180.00 1.24656 0.01
4 6 5 1 o 3713.259 4046.927 180.00 1.24219 0.12
2 10 2 1 o 23956.824 26152.643 180.00 1.24243 0.93
7 2 3 1 o 4843.311 5214.625 0.00 1.24141 0.16
3 7 5 2 o 2733.909 2948.170 0.00 1.24458 0.05
5 6 4 2 o 1940.920 2112.929 0.00 1.24372 0.03
3 9 3 1 o 238.813 296.584 180.00 1.24047 0.02
4 6 5 2 o 3508.048 4046.927 180.00 1.24219 0.06
2 10 2 2 o 21615.281 26152.643 180.00 1.24243 0.41
7 2 3 2 o 5370.681 5214.625 0.00 1.24141 0.09
6 4 4 1 o 53298.68 48776.72 180.00 1.23768 1.80
3 9 3 2 o 340.885 296.584 180.00 1.24047 0.01
3 2 7 1 o 36213.21 36340.32 0.00 1.23468 1.23
6 4 4 2 o 48733.14 48776.72 180.00 1.23768 0.80
4 4 6 1 o 1113.686 1103.637 180.00 1.23434 0.02
3 2 7 2 o 36870.01 36340.32 0.00 1.23468 0.63
4 4 6 2 o 1132.029 1103.637 180.00 1.23434 0.01
7 4 2 1 o 33608.512 34840.438 0.00 1.22957 1.07
6 7 0 1 o 1626.708 1783.414 180.00 1.22841 0.04
5 0 6 1 o 47157.31 48388.31 0.00 1.22761 0.73
7 4 2 2 o 33332.559 34840.438 0.00 1.22957 0.53
6 7 0 2 o 1830.230 1783.414 180.00 1.22841 0.02
5 0 6 2 o 49868.08 48388.31 0.00 1.22761 0.39
6 1 5 1 o 28079.285 27276.602 0.00 1.22424 0.88
5 1 6 1 o 30982.537 30890.063 0.00 1.22245 0.98
3 10 1 1 o 5962.890 6021.893 180.00 1.22275 0.26
2 4 7 1 o 361.770 357.959 0.00 1.22222 0.01
6 1 5 2 o 27678.498 27276.602 0.00 1.22424 0.43
1 10 3 1 o 13616.767 13529.464 0.00 1.22146 0.56
4 9 2 1 o 497.921 489.289 180.00 1.22121 0.02
5 1 6 2 o 32333.891 30890.063 0.00 1.22245 0.51
5 8 2 1 o 31.105 29.927 180.00 1.21976 0.00
3 10 1 2 o 6431.133 6021.893 180.00 1.22275 0.14
2 4 7 2 o 372.305 357.959 0.00 1.22222 0.01
2 9 4 1 o 59294.96 57113.49 0.00 1.21928 2.11
6 7 1 1 o 1677.204 1695.873 0.00 1.21838 0.06
1 10 3 2 o 13430.475 13529.464 0.00 1.22146 0.28
4 9 2 2 o 477.882 489.289 180.00 1.22121 0.01
5 8 2 2 o 30.261 29.927 180.00 1.21976 0.00
2 8 5 1 o 40951.49 40320.70 0.00 1.21639 1.38
2 9 4 2 o 57898.36 57113.49 0.00 1.21928 1.02
7 3 3 1 o 88851.41 91885.32 0.00 1.21542 2.80
0 5 7 1 o 2320.155 2381.888 180.00 1.21553 0.04
6 7 1 2 o 1638.398 1695.873 0.00 1.21838 0.03
7 5 1 1 o 134.897 134.418 0.00 1.21350 0.00
2 8 5 2 o 41366.79 40320.70 0.00 1.21639 0.70
1 7 6 1 o 83.503 82.464 180.00 1.21281 0.00
7 3 3 2 o 93538.46 91885.32 0.00 1.21542 1.48
0 5 7 2 o 2417.471 2381.888 180.00 1.21553 0.02
7 5 1 2 o 136.088 134.418 0.00 1.21350 0.00
5 5 5 1 o 20492.070 19895.701 180.00 1.20972 0.70
1 7 6 2 o 85.653 82.464 180.00 1.21281 0.00
6 2 5 1 o 51428.30 52325.63 180.00 1.20909 1.56
3 3 7 1 o 130293.14 132441.13 0.00 1.20910 4.07
5 2 6 1 o 11023.265 11371.440 0.00 1.20737 0.34
5 5 5 2 o 19477.350 19895.701 180.00 1.20972 0.33
6 2 5 2 o 50975.84 52325.63 180.00 1.20909 0.77
3 3 7 2 o 128920.64 132441.13 0.00 1.20910 2.00
1 5 7 1 o 6410.530 6549.172 180.00 1.20597 0.19
6 6 3 1 o 9205.920 9041.820 0.00 1.20532 0.30
8 0 0 1 o 121631.02 119528.76 0.00 1.20430 0.91
5 2 6 2 o 11663.035 11371.440 0.00 1.20737 0.18
0 11 1 1 o 114439.79 113931.34 180.00 1.20414 2.15
1 5 7 2 o 6490.767 6549.172 180.00 1.20597 0.10
6 6 3 2 o 8640.134 9041.820 0.00 1.20532 0.14
8 0 0 2 o 116724.62 119528.76 0.00 1.20430 0.43
3 6 6 1 o 50647.09 52059.65 180.00 1.20115 1.57
0 11 1 2 o 110919.10 113931.34 180.00 1.20414 1.03
8 1 0 1 o 21825.984 23166.623 0.00 1.19943 0.35
3 6 6 2 o 55737.45 52059.65 180.00 1.20115 0.88
8 1 0 2 o 29751.563 23166.623 0.00 1.19943 0.25
0 0 8 1 o 57164.36 51364.88 0.00 1.19451 0.45
1 11 1 1 o 17023.072 15170.133 180.00 1.19485 0.64
3 10 2 1 o 62082.33 57295.09 180.00 1.19379 2.19
7 0 4 1 o 38427.53 37682.52 180.00 1.19259 0.57
2 10 3 1 o 3870.674 3716.521 0.00 1.19303 0.14
6 5 4 1 o 36492.21 35922.65 0.00 1.19244 1.07
0 0 8 2 o 53281.59 51364.88 0.00 1.19451 0.21
1 11 1 2 o 15513.556 15170.133 180.00 1.19485 0.28
3 10 2 2 o 59875.07 57295.09 180.00 1.19379 1.04
8 1 1 1 o 872.153 861.694 180.00 1.19009 0.03
7 0 4 2 o 36720.35 37682.52 180.00 1.19259 0.27
2 10 3 2 o 3766.723 3716.521 0.00 1.19303 0.07
6 7 2 1 o 2080.106 2136.632 0.00 1.18972 0.09
6 5 4 2 o 34701.992 35922.65 0.00 1.19244 0.50
4 8 4 1 o 69278.16 71120.09 0.00 1.18965 2.33
4 5 6 1 o 609.614 628.394 180.00 1.18944 0.01
7 1 4 1 o 191.982 186.491 0.00 1.18786 0.00
8 1 1 2 o 863.787 861.694 180.00 1.19009 0.01
6 7 2 2 o 2144.283 2136.632 0.00 1.18972 0.05
4 8 4 2 o 71459.41 71120.09 0.00 1.18965 1.20
4 5 6 2 o 633.807 628.394 180.00 1.18944 0.01
1 0 8 1 o 857.678 654.003 0.00 1.18543 0.02
8 2 0 1 o 5405.563 4095.339 0.00 1.18517 0.08
7 5 2 1 o 6210.872 4612.059 180.00 1.18517 0.20
6 3 5 1 o 1044.014 739.046 180.00 1.18504 0.04
7 1 4 2 o 250.854 186.491 0.00 1.18786 0.00
2 7 6 1 o 746.464 496.331 0.00 1.18497 0.03
5 3 6 1 o 9004.350 6984.917 0.00 1.18342 0.28
4 1 7 1 o 2095.956 1587.985 180.00 1.18298 0.06
1 0 8 2 o 1033.180 654.003 0.00 1.18543 0.01
8 2 0 2 o 5927.753 4095.339 0.00 1.18517 0.04
7 5 2 2 o 6852.775 4612.059 180.00 1.18517 0.11
6 3 5 2 o 1121.949 739.046 180.00 1.18504 0.02
2 7 6 2 o 797.937 496.331 0.00 1.18497 0.02
7 4 3 1 o 1624.779 1110.916 180.00 1.18164 0.05
1 1 8 1 o 17487.184 13747.321 180.00 1.18079 0.54
5 3 6 2 o 9135.722 6984.917 0.00 1.18342 0.14
4 1 7 2 o 2248.389 1587.985 180.00 1.18298 0.03
5 7 4 1 o 8.666 4.345 0.00 1.17900 0.00
7 4 3 2 o 1620.670 1110.916 180.00 1.18164 0.03
2 5 7 1 o 2003.051 1466.995 0.00 1.17859 0.06
1 1 8 2 o 16218.967 13747.321 180.00 1.18079 0.25
4 7 5 1 o 29709.748 25867.719 0.00 1.17770 0.96
2 11 0 1 o 20054.135 18528.420 0.00 1.17703 0.37
8 2 1 1 o 12649.479 12330.939 0.00 1.17616 0.37
5 7 4 2 o 4.542 4.345 0.00 1.17900 0.00
0 2 8 1 o 213.988 207.941 180.00 1.17584 0.00
3 4 7 1 o 4222.708 4075.896 180.00 1.17583 0.13
2 5 7 2 o 1534.301 1466.995 0.00 1.17859 0.02
4 7 5 2 o 27104.027 25867.719 0.00 1.17770 0.43
7 2 4 1 o 4466.841 4391.507 180.00 1.17400 0.13
4 9 3 1 o 19750.990 19492.039 180.00 1.17421 0.65
2 11 0 2 o 18791.734 18528.420 0.00 1.17703 0.17
8 2 1 2 o 12515.304 12330.939 0.00 1.17616 0.18
0 2 8 2 o 210.433 207.941 180.00 1.17584 0.00
3 4 7 2 o 4135.946 4075.896 180.00 1.17583 0.06
3 9 4 1 o 3607.613 3556.879 180.00 1.17321 0.12
5 8 3 1 o 29766.383 29328.162 180.00 1.17292 0.95
0 9 5 1 o 231.777 223.783 180.00 1.17192 0.00
7 2 4 2 o 4476.329 4391.507 180.00 1.17400 0.07
4 9 3 2 o 19949.979 19492.039 180.00 1.17421 0.33
3 8 5 1 o 1344.617 1279.934 0.00 1.17064 0.05
3 9 4 2 o 3787.795 3556.879 180.00 1.17321 0.06
5 8 3 2 o 31206.117 29328.162 180.00 1.17292 0.50
4 2 7 1 o 131.572 124.458 180.00 1.16930 0.00
0 9 5 2 o 234.674 223.783 180.00 1.17192 0.00
8 0 2 1 o 26193.664 24979.268 0.00 1.16778 0.37
2 11 1 1 o 10685.205 10081.105 0.00 1.16820 0.38
3 8 5 2 o 1346.426 1279.934 0.00 1.17064 0.02
4 10 0 1 o 131414.02 125236.87 0.00 1.16777 2.23
1 11 2 1 o 8596.794 8193.267 180.00 1.16778 0.30
1 2 8 1 o 24658.186 24198.951 0.00 1.16717 0.71
4 2 7 2 o 123.592 124.458 180.00 1.16930 0.00
5 9 1 1 o 891.449 893.387 0.00 1.16671 0.04
8 0 2 2 o 25177.672 24979.268 0.00 1.16778 0.18
0 10 4 1 o 114037.66 113055.71 0.00 1.16552 1.94
2 11 1 2 o 10095.031 10081.105 0.00 1.16820 0.17
4 10 0 2 o 126273.35 125236.87 0.00 1.16777 1.06
1 11 2 2 o 8259.587 8193.267 180.00 1.16778 0.14
1 2 8 2 o 25664.422 24198.951 0.00 1.16717 0.37
5 9 1 2 o 1005.973 893.387 0.00 1.16671 0.02
8 1 2 1 o 5.622 1.975 180.00 1.16334 0.00
1 9 5 1 o 6024.594 5565.653 180.00 1.16335 0.19
8 3 0 1 o 12464.555 11704.916 0.00 1.16249 0.21
0 10 4 2 o 119510.66 113055.71 0.00 1.16552 1.03
7 6 1 1 o 781.638 772.139 180.00 1.16187 0.02
8 1 2 2 o 8.584 1.975 180.00 1.16334 0.00
1 9 5 2 o 6379.757 5565.653 180.00 1.16335 0.10
8 3 0 2 o 14375.871 11704.916 0.00 1.16249 0.12
2 0 8 1 o 2050.944 1610.150 0.00 1.15940 0.04
7 6 1 2 o 940.834 772.139 180.00 1.16187 0.01
4 10 1 1 o 1260.218 1007.815 180.00 1.15915 0.05
5 6 5 1 o 989.017 875.244 180.00 1.15854 0.02
6 8 0 1 o 33841.762 32732.223 180.00 1.15715 0.51
1 10 4 1 o 557.551 542.394 0.00 1.15709 0.02
2 0 8 2 o 1657.882 1610.150 0.00 1.15940 0.02
4 10 1 2 o 1061.083 1007.815 180.00 1.15915 0.02
5 6 5 2 o 931.765 875.244 180.00 1.15854 0.01
1 6 7 1 o 12550.009 11902.475 0.00 1.15525 0.33
2 1 8 1 o 15230.028 14513.405 180.00 1.15505 0.42
8 3 1 1 o 76605.54 73916.52 180.00 1.15399 2.19
6 8 0 2 o 34133.410 32732.223 180.00 1.15715 0.26
1 10 4 2 o 566.695 542.394 0.00 1.15709 0.01
6 4 5 1 o 9348.105 9320.564 0.00 1.15366 0.27
1 6 7 2 o 12130.156 11902.475 0.00 1.15525 0.16
2 1 8 2 o 15051.423 14513.405 180.00 1.15505 0.20
5 4 6 1 o 1955.032 1873.729 0.00 1.15216 0.06
7 3 4 1 o 814.192 767.424 0.00 1.15195 0.03
0 8 6 1 o 5967.364 5707.809 180.00 1.15223 0.11
8 3 1 2 o 78433.26 73916.52 180.00 1.15399 1.12
6 4 5 2 o 9853.538 9320.564 0.00 1.15366 0.14
8 2 2 1 o 14758.923 13626.032 0.00 1.15031 0.43
3 10 3 1 o 290.582 279.416 180.00 1.14977 0.00
5 4 6 2 o 1981.313 1873.729 0.00 1.15216 0.03
7 3 4 2 o 810.396 767.424 0.00 1.15195 0.01
0 8 6 2 o 6124.122 5707.809 180.00 1.15223 0.06
6 8 1 1 o 22134.412 20975.879 0.00 1.14875 0.69
8 2 2 2 o 15653.540 13626.032 0.00 1.15031 0.23
4 3 7 1 o 1149.883 992.596 180.00 1.14750 0.04
4 3 7 2 o 1060.979 992.596 180.00 1.14750 0.02
3 10 3 2 o 292.260 279.416 180.00 1.14977 0.00
6 7 3 1 o 27570.059 25072.637 0.00 1.14614 0.84
1 8 6 1 o 1184.019 1069.869 0.00 1.14408 0.04
6 8 1 2 o 22954.783 20975.879 0.00 1.14875 0.36
6 6 4 1 o 650.113 563.368 180.00 1.14333 0.02
1 3 8 1 o 4325.246 4076.421 180.00 1.14550 0.13
6 7 3 2 o 29092.373 25072.637 0.00 1.14614 0.45
1 3 8 2 o 4554.863 4076.421 180.00 1.14550 0.07
3 7 6 1 o 20.096 17.328 180.00 1.14255 0.00
2 11 2 1 o 70.184 66.188 0.00 1.14286 0.00
2 2 8 1 o 271.321 252.913 180.00 1.14230 0.01
7 5 3 1 o 20723.070 19063.053 0.00 1.14207 0.65
5 9 2 1 o 48265.93 46403.15 180.00 1.14147 1.51
1 8 6 2 o 1094.405 1069.869 0.00 1.14408 0.02
4 6 6 1 o 23672.600 22861.846 0.00 1.14069 0.70
6 6 4 2 o 588.566 563.368 180.00 1.14333 0.01
3 7 6 2 o 19.194 17.328 180.00 1.14255 0.00
2 11 2 2 o 67.950 66.188 0.00 1.14286 0.00
2 2 8 2 o 268.749 252.913 180.00 1.14230 0.00
7 5 3 2 o 20574.164 19063.053 0.00 1.14207 0.32
5 9 2 2 o 47438.66 46403.15 180.00 1.14147 0.74
2 9 5 1 o 8052.374 7832.317 0.00 1.13871 0.25
4 6 6 2 o 23040.840 22861.846 0.00 1.14069 0.34
7 6 2 1 o 34630.492 35269.95 180.00 1.13693 0.98
3 5 7 1 o 33899.008 35370.13 0.00 1.13682 1.00
2 9 5 2 o 6669.306 7832.317 0.00 1.13871 0.10
7 6 2 2 o 34985.051 35269.95 180.00 1.13693 0.50
4 10 2 1 o 21765.707 21716.139 0.00 1.13438 0.67
3 5 7 2 o 34859.387 35370.13 0.00 1.13682 0.52
0 11 3 1 o 15.542 15.603 0.00 1.13426 0.00
8 4 0 1 o 2414.741 2825.769 180.00 1.13283 0.03
2 10 4 1 o 1843.772 2121.184 180.00 1.13283 0.05
4 10 2 2 o 24770.771 21716.139 0.00 1.13438 0.39
2 6 7 1 o 1.375 0.096 0.00 1.13111 0.00
0 11 3 2 o 20.992 15.603 0.00 1.13426 0.00
6 0 6 1 o 444.645 279.762 180.00 1.13078 0.01
8 4 0 2 o 4346.699 2825.769 180.00 1.13283 0.03
8 3 2 1 o 771.804 440.317 180.00 1.12954 0.03
2 10 4 2 o 3148.935 2121.184 180.00 1.13283 0.05
2 6 7 2 o 2.252 0.096 0.00 1.13111 0.00
6 0 6 2 o 450.163 279.762 180.00 1.13078 0.00
3 11 1 1 o 12245.107 9806.333 180.00 1.12749 0.42
8 3 2 2 o 532.984 440.317 180.00 1.12954 0.01
6 1 6 1 o 18433.195 16277.404 180.00 1.12675 0.55
1 11 3 1 o 32071.166 30602.029 180.00 1.12648 1.03
8 4 1 1 o 2012.015 2047.661 180.00 1.12495 0.05
0 4 8 1 o 34073.949 34357.703 180.00 1.12467 0.52
6 8 2 1 o 23589.516 23753.523 180.00 1.12463 0.74
3 11 1 2 o 9715.585 9806.333 180.00 1.12749 0.16
6 1 6 2 o 16811.910 16277.404 180.00 1.12675 0.25
1 11 3 2 o 31999.730 30602.029 180.00 1.12648 0.51
7 4 4 1 o 41.418 37.030 180.00 1.12306 0.00
8 1 3 1 o 23588.908 22502.398 180.00 1.12249 0.63
8 4 1 2 o 2019.755 2047.661 180.00 1.12495 0.03
2 3 8 1 o 3566.485 3756.848 180.00 1.12195 0.09
0 4 8 2 o 32093.078 34357.703 180.00 1.12467 0.24
6 8 2 2 o 22177.189 23753.523 180.00 1.12463 0.34
2 8 6 1 o 13202.135 12319.072 180.00 1.12062 0.44
7 4 4 2 o 40.338 37.030 180.00 1.12306 0.00
8 1 3 2 o 22757.814 22502.398 180.00 1.12249 0.30
3 0 8 1 o 69058.66 69947.76 180.00 1.11957 0.91
2 3 8 2 o 3495.864 3756.848 180.00 1.12195 0.04
4 4 7 1 o 7.095 8.176 180.00 1.11894 0.00
2 8 6 2 o 11366.632 12319.072 180.00 1.12062 0.19
1 4 8 1 o 44625.62 44347.71 0.00 1.11708 1.20
3 0 8 2 o 68713.40 69947.76 180.00 1.11957 0.45
6 5 5 1 o 1980.939 2028.230 0.00 1.11675 0.05
4 9 4 1 o 7175.434 7425.705 0.00 1.11668 0.23
4 4 7 2 o 7.849 8.176 180.00 1.11894 0.00
3 1 8 1 o 6062.863 5944.249 0.00 1.11566 0.16
5 8 4 1 o 2769.626 2719.469 0.00 1.11557 0.08
5 5 6 1 o 32818.797 32467.205 180.00 1.11539 0.91
6 2 6 1 o 7019.996 7261.979 180.00 1.11490 0.20
1 4 8 2 o 41348.78 44347.71 0.00 1.11708 0.54
4 8 5 1 o 2644.169 2819.783 0.00 1.11446 0.07
6 5 5 2 o 1902.182 2028.230 0.00 1.11675 0.02
4 9 4 2 o 6928.976 7425.705 0.00 1.11668 0.11
7 1 5 1 o 31452.699 30201.959 0.00 1.11299 0.91
3 1 8 2 o 6165.831 5944.249 0.00 1.11566 0.08
5 8 4 2 o 2810.232 2719.469 0.00 1.11557 0.04
5 5 6 2 o 33349.066 32467.205 180.00 1.11539 0.46
6 2 6 2 o 7810.798 7261.979 180.00 1.11490 0.11
0 12 0 1 o 1980.169 1941.091 0.00 1.11267 0.01
4 8 5 2 o 3273.943 2819.783 0.00 1.11446 0.05
8 2 3 1 o 3696.938 2906.943 180.00 1.11078 0.10
7 1 5 2 o 36741.00 30201.959 0.00 1.11299 0.54
5 1 7 1 o 7412.093 6306.286 180.00 1.11007 0.22
0 7 7 1 o 222.524 193.886 180.00 1.11013 0.00
0 12 0 2 o 2131.794 1941.091 0.00 1.11267 0.01
7 7 1 1 o 11044.032 9214.367 180.00 1.10858 0.30
8 2 3 2 o 3598.560 2906.943 180.00 1.11078 0.05
5 1 7 2 o 7952.839 6306.286 180.00 1.11007 0.12
0 7 7 2 o 235.737 193.886 180.00 1.11013 0.00
7 7 1 2 o 9956.164 9214.367 180.00 1.10858 0.13
5 7 5 1 o 2095.583 1984.047 180.00 1.10569 0.05
3 11 2 1 o 3896.659 3706.363 0.00 1.10466 0.12
3 2 8 1 o 6351.757 6063.616 180.00 1.10415 0.17
2 11 3 1 o 14414.810 13904.342 0.00 1.10406 0.46
5 7 5 2 o 1955.953 1984.047 180.00 1.10569 0.02
1 7 7 1 o 69625.66 72299.82 180.00 1.10283 1.94
5 9 3 1 o 6800.659 7140.837 180.00 1.10281 0.24
8 4 2 1 o 5501.631 5996.575 0.00 1.10227 0.15
7 2 5 1 o 731.821 760.299 180.00 1.10157 0.02
3 11 2 2 o 3516.636 3706.363 0.00 1.10466 0.05
3 2 8 2 o 5859.539 6063.616 180.00 1.10415 0.07
2 11 3 2 o 13385.492 13904.342 0.00 1.10406 0.21
3 9 5 1 o 13595.288 14616.366 0.00 1.10091 0.41
1 7 7 2 o 66545.44 72299.82 180.00 1.10283 0.91
5 9 3 2 o 6458.385 7140.837 180.00 1.10281 0.11
8 4 2 2 o 5437.907 5996.575 0.00 1.10227 0.07
7 2 5 2 o 715.532 760.299 180.00 1.10157 0.01
5 2 7 1 o 52778.84 55661.64 0.00 1.09873 1.42
7 6 3 1 o 3134.907 3315.960 180.00 1.09871 0.09
3 9 5 2 o 13960.338 14616.366 0.00 1.10091 0.21
8 5 0 1 o 25015.830 26818.865 180.00 1.09782 0.36
1 12 1 1 o 16268.865 17114.361 180.00 1.09800 0.55
4 10 3 1 o 237.053 257.139 0.00 1.09642 0.01
5 2 7 2 o 52559.80 55661.64 0.00 1.09873 0.71
6 3 6 1 o 6938.527 7380.000 180.00 1.09596 0.21
7 6 3 2 o 3123.073 3315.960 180.00 1.09871 0.05
3 10 4 1 o 21467.195 22851.279 180.00 1.09560 0.63
8 5 0 2 o 24279.660 26818.865 180.00 1.09782 0.17
2 4 8 1 o 7478.126 8339.099 180.00 1.09521 0.24
1 12 1 2 o 15645.779 17114.361 180.00 1.09800 0.26
3 6 7 1 o 15725.443 16955.281 180.00 1.09404 0.47
4 10 3 2 o 235.088 257.139 0.00 1.09642 0.00
6 3 6 2 o 6684.195 7380.000 180.00 1.09596 0.10
3 10 4 2 o 21957.199 22851.279 180.00 1.09560 0.33
2 4 8 2 o 8485.994 8339.099 180.00 1.09521 0.14
6 7 4 1 o 2095.544 2033.569 180.00 1.09245 0.08
8 3 3 1 o 218.100 208.833 180.00 1.09204 0.01
3 6 7 2 o 17152.703 16955.281 180.00 1.09404 0.26
8 5 1 1 o 22550.666 21628.648 180.00 1.09065 0.61
4 7 6 1 o 231.658 211.122 0.00 1.09015 0.01
5 10 1 1 o 5240.147 4933.908 180.00 1.09030 0.17
6 7 4 2 o 2166.446 2033.569 180.00 1.09245 0.04
8 3 3 2 o 213.783 208.833 180.00 1.09204 0.00
6 9 0 1 o 48590.17 46750.89 0.00 1.08967 0.73
7 5 4 1 o 577.505 541.305 180.00 1.08893 0.02
8 5 1 2 o 22643.650 21628.648 180.00 1.09065 0.31
6 8 3 1 o 7201.126 6799.445 180.00 1.08761 0.21
4 7 6 2 o 227.889 211.122 0.00 1.09015 0.00
5 10 1 2 o 5250.870 4933.908 180.00 1.09030 0.09
1 10 5 1 o 6467.420 6035.065 180.00 1.08756 0.24
7 7 2 1 o 112.966 107.302 180.00 1.08686 0.00
6 9 0 2 o 48368.01 46750.89 0.00 1.08967 0.36
7 5 4 2 o 583.714 541.305 180.00 1.08893 0.01
3 3 8 1 o 1465.505 1448.973 0.00 1.08575 0.04
4 5 7 1 o 1500.048 1536.379 180.00 1.08517 0.04
6 8 3 2 o 6722.673 6799.445 180.00 1.08761 0.10
1 10 5 2 o 5954.949 6035.065 180.00 1.08756 0.11
3 8 6 1 o 38226.61 39868.27 180.00 1.08454 1.06
7 7 2 2 o 94.208 107.302 180.00 1.08686 0.00
2 12 0 1 o 25682.711 28622.650 180.00 1.08412 0.44
4 11 0 1 o 2585.983 2942.593 0.00 1.08395 0.05
1 5 8 1 o 14870.908 17382.234 0.00 1.08347 0.38
7 3 5 1 o 1.173 3.456 0.00 1.08329 0.00
0 12 2 1 o 16289.592 18905.873 0.00 1.08367 0.28
3 3 8 2 o 1244.755 1448.973 0.00 1.08575 0.02
6 9 1 1 o 14843.961 16675.082 0.00 1.08265 0.41
4 5 7 2 o 1379.758 1536.379 180.00 1.08517 0.02
3 8 6 2 o 37507.41 39868.27 180.00 1.08454 0.52
2 7 7 1 o 1134.775 1197.329 0.00 1.08177 0.03
2 12 0 2 o 27868.723 28622.650 180.00 1.08412 0.24
4 11 0 2 o 2937.983 2942.593 0.00 1.08395 0.03
1 5 8 2 o 18073.465 17382.234 0.00 1.08347 0.25
7 3 5 2 o 3.872 3.456 0.00 1.08329 0.00
5 3 7 1 o 27336.332 26732.314 180.00 1.08059 0.67
0 12 2 2 o 19592.826 18905.873 0.00 1.08367 0.17
6 9 1 2 o 16382.654 16675.082 0.00 1.08265 0.23
2 7 7 2 o 1272.985 1197.329 0.00 1.08177 0.02
1 9 6 1 o 17367.518 16534.313 180.00 1.07874 0.49
5 3 7 2 o 30713.328 26732.314 180.00 1.08059 0.39
2 12 1 1 o 31435.762 26532.068 0.00 1.07721 1.01
4 11 1 1 o 2049.389 1760.575 0.00 1.07705 0.07
1 12 2 1 o 581.471 510.474 0.00 1.07688 0.02
6 6 5 1 o 23064.789 22931.561 0.00 1.07611 0.62
1 9 6 2 o 16526.422 16534.313 180.00 1.07874 0.23
8 0 4 1 o 6550.563 6601.954 180.00 1.07539 0.08
1 11 4 1 o 1726.827 1741.380 180.00 1.07539 0.06
5 6 6 1 o 20366.549 19697.885 0.00 1.07490 0.54
2 12 1 2 o 27027.119 26532.068 0.00 1.07721 0.42
4 11 1 2 o 1771.308 1760.575 0.00 1.07705 0.03
1 12 2 2 o 510.108 510.474 0.00 1.07688 0.01
6 6 5 2 o 21123.592 22931.561 0.00 1.07611 0.28
8 0 4 2 o 5510.110 6601.954 180.00 1.07539 0.03
1 11 4 2 o 1428.648 1741.380 180.00 1.07539 0.02
5 6 6 2 o 18124.045 19697.885 0.00 1.07490 0.23
8 1 4 1 o 2928.590 3037.014 180.00 1.07192 0.06
6 4 6 1 o 7130.093 7109.579 180.00 1.07100 0.17
4 0 8 1 o 12053.240 10919.297 180.00 1.07014 0.14
8 5 2 1 o 7.221 6.740 180.00 1.06994 0.00
8 1 4 2 o 3094.754 3037.014 180.00 1.07192 0.03
5 10 2 1 o 16766.004 15186.457 0.00 1.06962 0.50
3 11 3 1 o 6387.967 5913.313 180.00 1.06951 0.18
6 4 6 2 o 6950.816 7109.579 180.00 1.07100 0.08
4 0 8 2 o 10210.279 10919.297 180.00 1.07014 0.06
8 4 3 1 o 277.015 293.273 0.00 1.06734 0.01
8 5 2 2 o 6.490 6.740 180.00 1.06994 0.00
2 10 5 1 o 6789.986 7258.898 0.00 1.06735 0.19
4 1 8 1 o 10.356 10.853 180.00 1.06672 0.00
5 10 2 2 o 13932.914 15186.457 0.00 1.06962 0.20
3 11 3 2 o 5411.895 5913.313 180.00 1.06951 0.07
8 4 3 2 o 327.324 293.273 0.00 1.06734 0.00
2 10 5 2 o 8244.280 7258.898 0.00 1.06735 0.12
4 1 8 2 o 11.409 10.853 180.00 1.06672 0.00
2 5 8 1 o 16912.465 17423.125 0.00 1.06349 0.42
6 9 2 1 o 681.721 663.742 0.00 1.06239 0.02
8 2 4 1 o 15334.646 15362.194 0.00 1.06170 0.39
3 4 8 1 o 177.493 188.234 0.00 1.06146 0.00
2 5 8 2 o 15827.521 17423.125 0.00 1.06349 0.19
9 1 1 1 o 294.042 365.266 0.00 1.06047 0.01
6 9 2 2 o 581.905 663.742 0.00 1.06239 0.01
8 2 4 2 o 14316.329 15362.194 0.00 1.06170 0.18
7 4 5 1 o 215.990 234.282 0.00 1.05916 0.01
8 6 0 1 o 44148.25 47280.51 0.00 1.05915 0.56
3 4 8 2 o 170.734 188.234 0.00 1.06146 0.00
2 9 6 1 o 13939.938 15028.161 0.00 1.05901 0.38
0 1 9 1 o 12335.626 14948.278 0.00 1.05844 0.14
9 1 1 2 o 196.599 365.266 0.00 1.06047 0.00
2 12 2 1 o 4156.201 4950.897 180.00 1.05725 0.09
4 11 2 1 o 470.979 615.671 180.00 1.05709 0.02
4 2 8 1 o 2783.629 3012.408 0.00 1.05665 0.07
5 4 7 1 o 7063.219 7609.260 180.00 1.05664 0.17
7 4 5 2 o 214.436 234.282 0.00 1.05916 0.00
8 6 0 2 o 43859.35 47280.51 0.00 1.05915 0.28
2 9 6 2 o 13786.492 15028.161 0.00 1.05901 0.19
0 1 9 2 o 13125.802 14948.278 0.00 1.05844 0.07
2 11 4 1 o 5918.600 6725.683 180.00 1.05584 0.15
7 8 1 1 o 1015.727 1119.915 0.00 1.05536 0.03
5 9 4 1 o 5390.321 5639.646 180.00 1.05474 0.15
2 12 2 2 o 4760.011 4950.897 180.00 1.05725 0.06
4 11 2 2 o 577.684 615.671 180.00 1.05709 0.01
4 2 8 2 o 3052.395 3012.408 0.00 1.05665 0.04
5 4 7 2 o 7708.588 7609.260 180.00 1.05664 0.10
4 9 5 1 o 14409.118 14103.295 180.00 1.05380 0.40
7 7 3 1 o 22917.959 22822.055 180.00 1.05333 0.64
2 11 4 2 o 6697.677 6725.683 180.00 1.05584 0.09
8 6 1 1 o 5537.661 5622.371 180.00 1.05270 0.14
5 8 5 1 o 4097.634 4194.837 0.00 1.05287 0.12
7 8 1 2 o 1098.613 1119.915 0.00 1.05536 0.02
0 6 8 1 o 10096.999 10101.256 0.00 1.05247 0.13
1 1 9 1 o 14576.811 14807.601 180.00 1.05211 0.36
5 9 4 2 o 5572.116 5639.646 180.00 1.05474 0.08
7 6 4 1 o 14845.749 15198.835 180.00 1.05115 0.38
4 9 5 2 o 13809.219 14103.295 180.00 1.05380 0.19
9 2 1 1 o 19332.969 19782.842 0.00 1.05058 0.49
7 7 3 2 o 22307.500 22822.055 180.00 1.05333 0.31
1 8 7 1 o 21561.334 22313.123 180.00 1.05039 0.60
8 6 1 2 o 5377.851 5622.371 180.00 1.05270 0.07
5 8 5 2 o 4010.175 4194.837 0.00 1.05287 0.06
0 6 8 2 o 9932.377 10101.256 0.00 1.05247 0.06
1 1 9 2 o 15543.793 14807.601 180.00 1.05211 0.20
3 7 7 1 o 9624.882 8972.688 180.00 1.04921 0.27
4 10 4 1 o 6368.865 5997.806 180.00 1.04914 0.17
7 6 4 2 o 15591.947 15198.835 180.00 1.05115 0.20
9 2 1 2 o 20928.234 19782.842 0.00 1.05058 0.27
4 6 7 1 o 2.560 2.269 180.00 1.04777 0.00
1 8 7 2 o 23562.238 22313.123 180.00 1.05039 0.33
3 7 7 2 o 9339.140 8972.688 180.00 1.04921 0.13
4 10 4 2 o 6180.455 5997.806 180.00 1.04914 0.08
1 6 8 1 o 1936.708 1889.302 0.00 1.04625 0.05
8 3 4 1 o 49.493 49.487 180.00 1.04531 0.00
4 6 7 2 o 2.697 2.269 180.00 1.04777 0.00
9 0 2 1 o 5282.596 4359.753 0.00 1.04459 0.07
3 12 1 1 o 2461.242 2243.851 0.00 1.04505 0.06
1 12 3 1 o 17155.994 14890.073 180.00 1.04424 0.50
1 6 8 2 o 2015.202 1889.302 0.00 1.04625 0.03
8 3 4 2 o 49.477 49.487 180.00 1.04531 0.00
1 2 9 1 o 3695.895 4131.083 180.00 1.04245 0.12
9 0 2 2 o 4488.226 4359.753 0.00 1.04459 0.03
3 12 1 2 o 2081.369 2243.851 0.00 1.04505 0.02
9 1 2 1 o 25766.209 25253.020 0.00 1.04141 0.64
7 0 6 1 o 5297.744 5235.794 0.00 1.04137 0.06
6 8 4 1 o 50.025 49.817 180.00 1.04142 0.00
6 5 6 1 o 15045.708 15232.997 0.00 1.04127 0.40
1 12 3 2 o 15762.400 14890.073 180.00 1.04424 0.22
4 3 8 1 o 318.558 352.409 0.00 1.04048 0.01
1 2 9 2 o 4802.400 4131.083 180.00 1.04245 0.08
4 8 6 1 o 10698.761 9984.494 0.00 1.03942 0.27
9 1 2 2 o 26036.775 25253.020 0.00 1.04141 0.32
7 0 6 2 o 5378.468 5235.794 0.00 1.04137 0.03
6 8 4 2 o 50.122 49.817 180.00 1.04142 0.00
6 5 6 2 o 15530.273 15232.997 0.00 1.04127 0.21
7 1 6 1 o 1132.066 1124.741 180.00 1.03822 0.03
8 5 3 1 o 5561.510 5618.000 180.00 1.03791 0.14
4 3 8 2 o 346.303 352.409 0.00 1.04048 0.01
5 10 3 1 o 1540.773 1560.955 180.00 1.03761 0.03
6 1 7 1 o 1248.622 1297.456 0.00 1.03693 0.03
4 8 6 2 o 9746.012 9984.494 0.00 1.03942 0.12
7 8 2 1 o 24555.982 24545.588 180.00 1.03657 0.65
7 1 6 2 o 1151.977 1124.741 180.00 1.03822 0.01
3 10 5 1 o 453.307 468.570 180.00 1.03603 0.02
8 5 3 2 o 5860.841 5618.000 180.00 1.03791 0.08
9 3 1 1 o 4253.571 3600.054 180.00 1.03469 0.13
5 10 3 2 o 1654.952 1560.955 180.00 1.03761 0.02
6 1 7 2 o 1477.538 1297.456 0.00 1.03693 0.02
8 6 2 1 o 18385.568 17508.043 0.00 1.03405 0.49
7 8 2 2 o 25584.898 24545.588 180.00 1.03657 0.34
2 1 9 1 o 57.604 56.941 0.00 1.03378 0.00
6 7 5 1 o 22483.654 21843.330 0.00 1.03337 0.58
3 10 5 2 o 489.385 468.570 180.00 1.03603 0.01
0 3 9 1 o 32992.027 32241.881 180.00 1.03280 0.41
3 5 8 1 o 6727.754 6567.734 180.00 1.03250 0.17
9 3 1 2 o 3760.502 3600.054 180.00 1.03469 0.06
5 7 6 1 o 8.847 8.180 180.00 1.03229 0.00
9 2 2 1 o 1165.005 1130.222 0.00 1.03204 0.03
2 8 7 1 o 326.812 313.598 180.00 1.03215 0.01
8 6 2 2 o 17779.521 17508.043 0.00 1.03405 0.23
2 1 9 2 o 58.003 56.941 0.00 1.03378 0.00
6 9 3 1 o 5689.551 5518.834 0.00 1.03101 0.15
6 7 5 2 o 22217.400 21843.330 0.00 1.03337 0.29
7 5 5 1 o 700.834 695.308 0.00 1.03038 0.01
0 3 9 2 o 32829.590 32241.881 180.00 1.03280 0.20
3 5 8 2 o 6667.438 6567.734 180.00 1.03250 0.08
5 7 6 2 o 9.116 8.180 180.00 1.03229 0.00
9 2 2 2 o 1299.968 1130.222 0.00 1.03204 0.02
2 8 7 2 o 350.060 313.598 180.00 1.03215 0.01
7 2 6 1 o 20826.086 18099.664 180.00 1.02893 0.53
6 9 3 2 o 5710.080 5518.834 0.00 1.03101 0.08
3 9 6 1 o 8255.252 8060.061 0.00 1.02840 0.23
2 6 8 1 o 62.404 61.745 180.00 1.02822 0.00
5 5 7 1 o 6567.410 6556.661 180.00 1.02806 0.14
7 5 5 2 o 694.925 695.308 0.00 1.03038 0.00
6 2 7 1 o 332.393 335.265 0.00 1.02768 0.01
1 3 9 1 o 10050.834 9942.603 180.00 1.02692 0.26
7 2 6 2 o 17622.127 18099.664 180.00 1.02893 0.22
6 10 0 1 o 113.262 113.643 180.00 1.02664 0.00
3 12 2 1 o 4052.626 4033.220 180.00 1.02679 0.12
2 12 3 1 o 7160.016 7413.665 180.00 1.02631 0.20
4 11 3 1 o 26476.906 27957.064 180.00 1.02617 0.73
3 9 6 2 o 7369.413 8060.061 0.00 1.02840 0.10
2 6 8 2 o 53.738 61.745 180.00 1.02822 0.00
5 5 7 2 o 6071.584 6556.661 180.00 1.02806 0.06
6 2 7 2 o 315.789 335.265 0.00 1.02768 0.00
3 11 4 1 o 398.944 435.638 0.00 1.02550 0.01
2 2 9 1 o 37417.41 38407.87 180.00 1.02461 0.91
1 3 9 2 o 9452.104 9942.603 180.00 1.02692 0.12
0 11 5 1 o 13437.771 13768.131 0.00 1.02464 0.19
6 10 0 2 o 109.571 113.643 180.00 1.02664 0.00
3 12 2 2 o 3819.015 4033.220 180.00 1.02679 0.05
8 4 4 1 o 46548.26 48070.47 0.00 1.02358 1.15
2 12 3 2 o 7213.200 7413.665 180.00 1.02631 0.10
4 11 3 2 o 27168.199 27957.064 180.00 1.02617 0.38
0 10 6 1 o 16163.449 17248.258 0.00 1.02321 0.20
3 11 4 2 o 405.849 435.638 0.00 1.02550 0.01
2 2 9 2 o 38743.05 38407.87 180.00 1.02461 0.47
0 11 5 2 o 13902.586 13768.131 0.00 1.02464 0.10
8 4 4 2 o 47645.63 48070.47 0.00 1.02358 0.59
5 11 1 1 o 195.990 196.304 0.00 1.02115 0.00
0 13 1 1 o 8.271 8.267 0.00 1.02120 0.00
6 10 1 1 o 3176.145 3328.995 0.00 1.02077 0.09
0 10 6 2 o 16362.327 17248.258 0.00 1.02321 0.10
4 4 8 1 o 10011.640 9081.676 0.00 1.01905 0.22
1 11 5 1 o 1888.688 1742.876 180.00 1.01889 0.05
5 11 1 2 o 201.245 196.304 0.00 1.02115 0.00
8 7 0 1 o 1911.934 1916.319 180.00 1.01832 0.04
0 13 1 2 o 8.581 8.267 0.00 1.02120 0.00
6 10 1 2 o 3320.642 3328.995 0.00 1.02077 0.05
1 10 6 1 o 35709.01 38029.42 0.00 1.01749 0.97
9 3 2 1 o 4355.178 4684.140 0.00 1.01696 0.10
4 4 8 2 o 9263.159 9081.676 0.00 1.01905 0.10
8 1 5 1 o 31956.199 29731.197 180.00 1.01594 0.80
1 11 5 2 o 1834.559 1742.876 180.00 1.01889 0.03
8 7 0 2 o 2095.571 1916.319 180.00 1.01832 0.02
5 0 8 1 o 29118.768 28636.648 0.00 1.01525 0.36
1 13 1 1 o 1099.564 1052.666 0.00 1.01551 0.03
1 10 6 2 o 36733.53 38029.42 0.00 1.01749 0.50
9 3 2 2 o 4420.628 4684.140 0.00 1.01696 0.05
7 3 6 1 o 621.249 661.896 180.00 1.01399 0.02
9 4 1 1 o 3057.886 3062.031 180.00 1.01360 0.07
8 1 5 2 o 30500.514 29731.197 180.00 1.01594 0.38
6 3 7 1 o 1019.802 950.283 0.00 1.01279 0.02
5 0 8 2 o 30745.002 28636.648 0.00 1.01525 0.19
8 7 1 1 o 672.329 654.993 0.00 1.01258 0.02
1 13 1 2 o 1134.807 1052.666 0.00 1.01551 0.02
5 1 8 1 o 9653.799 10047.095 0.00 1.01233 0.23
9 1 3 1 o 4871.257 5044.670 180.00 1.01180 0.14
7 3 6 2 o 679.777 661.896 180.00 1.01399 0.01
9 4 1 2 o 3609.141 3062.031 180.00 1.01360 0.05
7 7 4 1 o 12.801 10.877 0.00 1.01121 0.00
6 3 7 2 o 1247.645 950.283 0.00 1.01279 0.02
8 7 1 2 o 856.768 654.993 0.00 1.01258 0.01
5 1 8 2 o 12881.390 10047.095 0.00 1.01233 0.16
2 3 9 1 o 1451.886 1124.402 180.00 1.00985 0.04
4 12 0 1 o 16147.379 12436.220 0.00 1.01010 0.23
9 1 3 2 o 7226.411 5044.670 180.00 1.01180 0.11
7 7 4 2 o 11.373 10.877 0.00 1.01121 0.00
0 12 4 1 o 4267.474 4234.171 0.00 1.00864 0.05
4 7 7 1 o 1720.193 1567.331 180.00 1.00819 0.04
6 6 6 1 o 159.114 143.163 180.00 1.00810 0.00
2 3 9 2 o 1213.249 1124.402 180.00 1.00985 0.02
8 2 5 1 o 13923.866 13570.867 180.00 1.00723 0.35
7 8 3 1 o 2042.545 1893.707 0.00 1.00736 0.06
4 7 7 2 o 1915.459 1567.331 180.00 1.00819 0.02
6 6 6 2 o 176.220 143.163 180.00 1.00810 0.00
4 12 0 2 o 13884.078 12436.220 0.00 1.01010 0.10
3 1 9 1 o 12877.923 10358.397 0.00 1.00525 0.34
8 6 3 1 o 1456.613 1261.377 0.00 1.00505 0.04
1 7 8 1 o 8.087 10.453 0.00 1.00683 0.00
8 2 5 2 o 15187.554 13570.867 180.00 1.00723 0.19
7 8 3 2 o 2147.043 1893.707 0.00 1.00736 0.03
1 4 9 1 o 4.975 4.913 0.00 1.00630 0.00
0 9 7 1 o 1213.324 1103.328 180.00 1.00456 0.02
1 7 8 2 o 12.007 10.453 0.00 1.00683 0.00
4 12 1 1 o 2972.449 2701.948 0.00 1.00450 0.09
0 12 4 2 o 4685.913 4234.171 0.00 1.00864 0.03
2 13 0 1 o 25720.027 23442.518 0.00 1.00450 0.39
5 11 2 1 o 8831.068 8497.002 0.00 1.00410 0.25
1 4 9 2 o 4.912 4.913 0.00 1.00630 0.00
5 2 8 1 o 7675.964 7762.210 0.00 1.00371 0.19
3 8 7 1 o 6296.490 6342.097 0.00 1.00375 0.16
6 10 2 1 o 6287.349 6345.707 180.00 1.00374 0.17
9 2 3 1 o 28658.236 29961.166 0.00 1.00320 0.69
7 9 1 1 o 8275.640 8566.020 0.00 1.00342 0.26
3 1 9 2 o 9721.490 10358.397 0.00 1.00525 0.12
1 12 4 1 o 2943.674 3086.496 0.00 1.00315 0.08
8 6 3 2 o 1196.606 1261.377 0.00 1.00505 0.01
2 11 5 1 o 6702.947 7189.822 0.00 1.00222 0.18
0 9 7 2 o 1017.311 1103.328 180.00 1.00456 0.01
4 12 1 2 o 2461.817 2701.948 0.00 1.00450 0.04
2 13 0 2 o 21417.451 23442.518 0.00 1.00450 0.16
5 11 2 2 o 7681.655 8497.002 0.00 1.00410 0.11
5 2 8 2 o 7411.530 7762.210 0.00 1.00371 0.09
3 8 7 2 o 6035.461 6342.097 0.00 1.00375 0.07
5 9 5 1 o 2871.463 2989.734 180.00 1.00128 0.06
6 10 2 2 o 6036.966 6345.707 180.00 1.00374 0.08
9 2 3 2 o 29516.598 29961.166 0.00 1.00320 0.36
7 9 1 2 o 8411.464 8566.020 0.00 1.00342 0.13
2 10 6 1 o 1774.366 1800.959 180.00 1.00088 0.05
1 12 4 2 o 3037.352 3086.496 0.00 1.00315 0.04
3 6 8 1 o 33635.840 33945.629 180.00 1.00013 0.85
2 11 5 2 o 7044.530 7189.822 0.00 1.00222 0.10
1 9 7 1 o 5280.387 5328.917 180.00 0.99915 0.15
5 9 5 2 o 3045.506 2989.734 180.00 1.00128 0.03
2 13 1 1 o 13342.945 13262.197 0.00 0.99900 0.40
1 13 2 1 o 10703.376 10399.551 180.00 0.99873 0.31
7 6 5 1 o 555.160 533.147 0.00 0.99821 0.02
2 10 6 2 o 1876.355 1800.959 180.00 1.00088 0.03
3 12 3 1 o 13299.094 12795.305 0.00 0.99838 0.41
8 5 4 1 o 6637.614 6523.837 0.00 0.99754 0.15
3 6 8 2 o 35059.461 33945.629 180.00 1.00013 0.45
5 10 4 1 o 10584.370 10599.723 0.00 0.99728 0.29
9 4 2 1 o 264.943 263.895 0.00 0.99692 0.01
3 2 9 1 o 491.793 479.453 180.00 0.99681 0.02
1 9 7 2 o 5481.668 5328.917 180.00 0.99915 0.08
4 10 5 1 o 295.196 284.302 0.00 0.99648 0.01
2 13 1 2 o 13784.774 13262.197 0.00 0.99900 0.21
5 6 7 1 o 27045.182 26318.711 180.00 0.99610 0.72
8 7 2 1 o 1101.473 1097.036 0.00 0.99595 0.04
1 13 2 2 o 10859.875 10399.551 180.00 0.99873 0.16
7 6 5 2 o 525.338 533.147 0.00 0.99821 0.01
3 12 3 2 o 12781.373 12795.305 0.00 0.99838 0.19
8 5 4 2 o 6852.456 6523.837 0.00 0.99754 0.08
5 10 4 2 o 11340.116 10599.723 0.00 0.99728 0.16
9 4 2 2 o 290.097 263.895 0.00 0.99692 0.00
3 2 9 2 o 560.028 479.453 180.00 0.99681 0.01
7 4 6 1 o 53476.09 50512.25 180.00 0.99412 1.33
4 10 5 2 o 293.290 284.302 0.00 0.99648 0.00
5 6 7 2 o 24681.998 26318.711 180.00 0.99610 0.32
8 7 2 2 o 979.396 1097.036 0.00 0.99595 0.02
4 5 8 1 o 739.588 787.004 0.00 0.99334 0.01
8 3 5 1 o 5723.435 6028.641 0.00 0.99320 0.14
6 4 7 1 o 112.378 111.246 180.00 0.99299 0.00
7 4 6 2 o 56872.22 50512.25 180.00 0.99412 0.72
6 9 4 1 o 21372.910 20536.920 180.00 0.99141 0.55
4 5 8 2 o 776.972 787.004 0.00 0.99334 0.01
8 3 5 2 o 5977.036 6028.641 0.00 0.99320 0.07
2 7 8 1 o 197.606 199.518 180.00 0.99073 0.01
6 4 7 2 o 113.177 111.246 180.00 0.99299 0.00
2 4 9 1 o 9740.844 8966.410 0.00 0.99022 0.25
5 3 8 1 o 2545.387 2408.066 0.00 0.98983 0.06
6 8 5 1 o 20932.480 19615.494 180.00 0.98986 0.56
4 9 6 1 o 134.139 132.614 0.00 0.98969 0.00
9 3 3 1 o 2128.920 2156.720 180.00 0.98933 0.04
6 9 4 2 o 19773.057 20536.920 180.00 0.99141 0.25
5 8 6 1 o 13579.862 14203.036 0.00 0.98891 0.34
9 5 1 1 o 2485.146 2921.642 180.00 0.98830 0.08
2 7 8 2 o 168.151 199.518 180.00 0.99073 0.00
4 12 2 1 o 13575.931 15706.889 0.00 0.98825 0.41
2 4 9 2 o 7708.938 8966.410 0.00 0.99022 0.09
5 3 8 2 o 2130.972 2408.066 0.00 0.98983 0.02
6 8 5 2 o 17292.770 19615.494 180.00 0.98986 0.22
7 9 2 1 o 1850.602 2164.702 0.00 0.98722 0.05
4 9 6 2 o 123.612 132.614 0.00 0.98969 0.00
9 3 3 2 o 1829.510 2156.720 180.00 0.98933 0.02
2 12 4 1 o 8338.161 9964.502 180.00 0.98723 0.26
4 11 4 1 o -1.951 11.095 0.00 0.98710 0.00
0 5 9 1 o 897.971 1046.611 180.00 0.98665 0.01
5 8 6 2 o 12637.991 14203.036 0.00 0.98891 0.15
9 5 1 2 o 2686.230 2921.642 180.00 0.98830 0.04
4 12 2 2 o 14721.240 15706.889 0.00 0.98825 0.22
7 9 2 2 o 2472.308 2164.702 0.00 0.98722 0.03
2 12 4 2 o 11565.387 9964.502 180.00 0.98723 0.19
4 11 4 2 o 22.525 11.095 0.00 0.98710 0.00
0 5 9 2 o 1156.467 1046.611 180.00 0.98665 0.01
3 3 9 1 o 11077.333 10440.189 0.00 0.98321 0.26
2 9 7 1 o 1115.271 1034.621 0.00 0.98341 0.03
2 13 2 1 o 1752.329 1685.737 0.00 0.98301 0.06
1 5 9 1 o 11731.712 9291.776 180.00 0.98152 0.31
3 3 9 2 o 12580.318 10440.189 0.00 0.98321 0.15
2 9 7 2 o 1260.315 1034.621 0.00 0.98341 0.02
2 13 2 2 o 2066.888 1685.737 0.00 0.98301 0.03
1 5 9 2 o 11725.706 9291.776 180.00 0.98152 0.16
5 11 3 1 o 466.768 405.810 0.00 0.97748 0.02
0 13 3 1 o 25634.105 22701.857 180.00 0.97752 0.39
9 0 4 1 o 7376.921 6516.488 0.00 0.97690 0.09
6 10 3 1 o 752.488 667.617 180.00 0.97715 0.02
8 8 0 1 o 39622.82 37796.28 0.00 0.97660 0.52
3 11 5 1 o 11499.385 12414.394 0.00 0.97616 0.31
5 11 3 2 o 434.221 405.810 0.00 0.97748 0.01
3 10 6 1 o 1423.298 1323.924 0.00 0.97492 0.04
0 13 3 2 o 23876.283 22701.857 180.00 0.97752 0.18
9 0 4 2 o 7081.663 6516.488 0.00 0.97690 0.05
8 4 5 1 o 2409.852 2222.897 0.00 0.97450 0.06
6 10 3 2 o 720.221 667.617 180.00 0.97715 0.01
9 1 4 1 o 3132.525 2956.050 0.00 0.97430 0.07
8 8 0 2 o 39621.00 37796.28 0.00 0.97660 0.26
3 11 5 2 o 12851.686 12414.394 0.00 0.97616 0.18
9 5 2 1 o 34284.941 33309.477 180.00 0.97281 0.86
3 13 1 1 o 3908.485 3752.115 0.00 0.97318 0.10
6 7 6 1 o 862.114 840.530 0.00 0.97270 0.03
3 10 6 2 o 1332.384 1323.924 0.00 0.97492 0.02
8 4 5 2 o 2365.125 2222.897 0.00 0.97450 0.03
1 13 3 1 o 1071.195 1063.513 0.00 0.97253 0.03
9 1 4 2 o 3353.387 2956.050 0.00 0.97430 0.04
8 8 1 1 o 5533.032 4701.313 0.00 0.97154 0.15
5 4 8 1 o 2178.457 1953.761 0.00 0.97132 0.05
0 8 8 1 o 15030.721 13167.335 0.00 0.97136 0.22
9 4 3 1 o 5170.125 4904.748 180.00 0.97085 0.13
9 5 2 2 o 34638.973 33309.477 180.00 0.97281 0.43
3 13 1 2 o 3939.768 3752.115 0.00 0.97318 0.05
7 8 4 1 o 10943.430 10724.297 180.00 0.97033 0.28
6 7 6 2 o 860.629 840.530 0.00 0.97270 0.02
7 5 6 1 o 1432.016 1444.271 0.00 0.97021 0.04
8 7 3 1 o 20491.283 22397.705 180.00 0.96996 0.50
1 13 3 2 o 1027.296 1063.513 0.00 0.97253 0.02
6 5 7 1 o 456.842 525.357 0.00 0.96916 0.01
8 8 1 2 o 4013.201 4701.313 0.00 0.97154 0.05
4 1 9 1 o 10414.421 12279.787 180.00 0.96901 0.24
5 4 8 2 o 1661.006 1953.761 0.00 0.97132 0.02
0 8 8 2 o 10984.749 13167.335 0.00 0.97136 0.08
9 4 3 2 o 4480.960 4904.748 180.00 0.97085 0.05
8 6 4 1 o 334.644 348.723 180.00 0.96826 0.01
6 11 0 1 o 3211.533 3345.583 180.00 0.96829 0.04
7 8 4 2 o 10392.035 10724.297 180.00 0.97033 0.13
7 5 6 2 o 1367.000 1444.271 0.00 0.97021 0.02
8 7 3 2 o 20363.904 22397.705 180.00 0.96996 0.25
4 8 7 1 o 3.345 3.620 180.00 0.96766 0.00
7 1 7 1 o 28879.943 32867.781 0.00 0.96670 0.63
6 5 7 2 o 474.736 525.357 0.00 0.96916 0.01
9 2 4 1 o 3298.041 3910.737 0.00 0.96661 0.08
4 1 9 2 o 10422.454 12279.787 180.00 0.96901 0.12
2 5 9 1 o 43.658 50.441 180.00 0.96659 0.00
1 8 8 1 o 1484.627 1859.947 0.00 0.96646 0.04
8 6 4 2 o 261.383 348.723 180.00 0.96826 0.00
6 11 0 2 o 2610.219 3345.583 180.00 0.96829 0.01
3 7 8 1 o 26.136 32.918 0.00 0.96554 0.00
4 8 7 2 o 3.258 3.620 180.00 0.96766 0.00
3 4 9 1 o 114.516 125.318 180.00 0.96506 0.00
7 1 7 2 o 33788.648 32867.781 0.00 0.96670 0.39
9 2 4 2 o 4003.723 3910.737 0.00 0.96661 0.05
4 6 8 1 o 4827.269 4654.484 180.00 0.96442 0.12
2 5 9 2 o 51.381 50.441 180.00 0.96659 0.00
1 8 8 2 o 1890.158 1859.947 0.00 0.96646 0.03
7 7 5 1 o 19793.232 19832.521 0.00 0.96381 0.53
10 0 0 1 o 482.681 502.053 0.00 0.96344 0.00
6 11 1 1 o 20292.348 21549.225 0.00 0.96336 0.55
3 7 8 2 o 29.907 32.918 0.00 0.96554 0.00
3 4 9 2 o 119.160 125.318 180.00 0.96506 0.00
4 12 3 1 o 602.186 635.785 180.00 0.96285 0.02
4 6 8 2 o 4446.486 4654.484 180.00 0.96442 0.06
3 12 4 1 o 4446.784 4637.581 180.00 0.96229 0.12
5 7 7 1 o 608.043 639.188 180.00 0.96191 0.02
7 9 3 1 o 3544.541 3664.566 0.00 0.96189 0.07
4 2 9 1 o 2809.206 2888.477 180.00 0.96144 0.07
7 7 5 2 o 19261.637 19832.521 0.00 0.96381 0.26
10 0 0 2 o 487.607 502.053 0.00 0.96344 0.00
10 1 0 1 o 6679.458 6916.280 180.00 0.96094 0.07
6 11 1 2 o 20757.516 21549.225 0.00 0.96336 0.28
8 0 6 1 o 2016.401 2194.696 180.00 0.96060 0.02
1 11 6 1 o 3392.317 3696.862 0.00 0.96060 0.09
4 12 3 2 o 571.021 635.785 180.00 0.96285 0.01
9 6 1 1 o 8569.248 9126.821 180.00 0.95980 0.22
3 12 4 2 o 4321.790 4637.581 180.00 0.96229 0.06
5 7 7 2 o 578.541 639.188 180.00 0.96191 0.01
7 9 3 2 o 3423.737 3664.566 0.00 0.96189 0.04
7 2 7 1 o 1015.767 1066.957 180.00 0.95918 0.02
4 2 9 2 o 2805.611 2888.477 180.00 0.96144 0.03
10 1 0 2 o 6852.684 6916.280 180.00 0.96094 0.04
3 9 7 1 o 13093.383 12995.012 0.00 0.95875 0.33
6 0 8 1 o 2441.820 2540.655 180.00 0.95840 0.03
5 12 1 1 o 8916.432 8879.871 0.00 0.95870 0.24
8 0 6 2 o 1973.167 2194.696 180.00 0.96060 0.01
8 1 6 1 o 6027.711 7193.492 180.00 0.95812 0.17
3 13 2 1 o 4898.860 5154.907 0.00 0.95838 0.14
1 11 6 2 o 3318.713 3696.862 0.00 0.96060 0.05
2 13 3 1 o 4070.017 4934.987 0.00 0.95799 0.11
9 6 1 2 o 7292.119 9126.821 180.00 0.95980 0.09
7 2 7 2 o 1032.152 1066.957 180.00 0.95918 0.01
8 8 2 1 o 10354.208 10752.488 0.00 0.95682 0.26
1 12 5 1 o 258.518 264.340 0.00 0.95683 0.00
10 1 1 1 o 26847.309 26076.568 0.00 0.95612 0.67
3 9 7 2 o 13862.334 12995.012 0.00 0.95875 0.18
6 0 8 2 o 2545.847 2540.655 180.00 0.95840 0.01
5 12 1 2 o 9486.452 8879.871 0.00 0.95870 0.13
6 1 8 1 o 13008.096 13589.188 0.00 0.95595 0.34
8 1 6 2 o 6290.808 7193.492 180.00 0.95812 0.09
3 13 2 2 o 5126.396 5154.907 0.00 0.95838 0.07
0 0 10 1 o 8261.835 9434.920 0.00 0.95561 0.04
2 13 3 2 o 4244.453 4934.987 0.00 0.95799 0.06
8 8 2 2 o 11558.442 10752.488 0.00 0.95682 0.15
9 3 4 1 o 1143.180 1082.053 0.00 0.95419 0.03
1 12 5 2 o 275.666 264.340 0.00 0.95683 0.00
10 1 1 2 o 27065.807 26076.568 0.00 0.95612 0.34
10 2 0 1 o 18670.699 18977.576 180.00 0.95356 0.23
6 1 8 2 o 13482.614 13589.188 0.00 0.95595 0.18
1 6 9 1 o 1826.380 1847.637 0.00 0.95359 0.06
7 10 1 1 o 59.131 59.858 0.00 0.95356 0.00
0 0 10 2 o 9057.384 9434.920 0.00 0.95561 0.02
0 14 0 1 o 70433.24 68733.84 0.00 0.95371 0.52
2 8 8 1 o 856.333 752.034 0.00 0.95219 0.03
8 5 5 1 o 926.081 798.635 180.00 0.95195 0.02
9 3 4 2 o 1277.788 1082.053 0.00 0.95419 0.02
5 10 5 1 o 2.327 0.102 0.00 0.95172 0.00
10 2 0 2 o 23407.920 18977.576 180.00 0.95356 0.15
1 6 9 2 o 2388.158 1847.637 0.00 0.95359 0.04
7 10 1 2 o 70.278 59.858 0.00 0.95356 0.00
1 0 10 1 o 30149.641 25382.209 0.00 0.95094 0.39
8 2 6 1 o 3887.652 3405.873 0.00 0.95081 0.10
0 14 0 2 o 83204.23 68733.84 0.00 0.95371 0.32
2 8 8 2 o 907.174 752.034 0.00 0.95219 0.02
8 5 5 2 o 914.353 798.635 180.00 0.95195 0.01
1 10 7 1 o 231.425 224.050 180.00 0.94989 0.00
4 3 9 1 o 30858.324 27812.396 0.00 0.94922 0.79
5 10 5 2 o 1.783 0.102 0.00 0.95172 0.00
10 2 1 1 o 9484.164 9212.609 180.00 0.94885 0.23
5 5 8 1 o 13714.823 13091.182 180.00 0.94898 0.34
6 11 2 1 o 2173.896 2037.874 180.00 0.94900 0.08
6 2 8 1 o 86.426 83.264 0.00 0.94868 0.00
9 5 3 1 o 439.362 430.763 180.00 0.94855 0.01
1 0 10 2 o 26250.670 25382.209 0.00 0.95094 0.16
8 2 6 2 o 3569.344 3405.873 0.00 0.95081 0.04
1 1 10 1 o 3767.809 3618.901 0.00 0.94854 0.09
1 10 7 2 o 234.768 224.050 180.00 0.94989 0.00
7 3 7 1 o 2569.910 2444.619 180.00 0.94704 0.05
4 3 9 2 o 28847.680 27812.396 0.00 0.94922 0.36
10 2 1 2 o 9194.033 9212.609 180.00 0.94885 0.11
5 5 8 2 o 13221.253 13091.182 180.00 0.94898 0.16
6 9 5 1 o 1695.124 1682.372 0.00 0.94662 0.05
6 11 2 2 o 2068.845 2037.874 180.00 0.94900 0.04
6 2 8 2 o 82.193 83.264 0.00 0.94868 0.00
2 11 6 1 o 4473.262 4453.270 180.00 0.94659 0.14
9 5 3 2 o 430.055 430.763 180.00 0.94855 0.00
1 1 10 2 o 3610.041 3618.901 0.00 0.94854 0.05
0 2 10 1 o 3774.364 3703.645 180.00 0.94597 0.05
5 9 6 1 o 19510.566 19234.727 0.00 0.94579 0.53
9 6 2 1 o 1483.090 1483.954 0.00 0.94560 0.04
7 3 7 2 o 2619.297 2444.619 180.00 0.94704 0.03
10 0 2 1 o 2528.966 2352.564 180.00 0.94443 0.03
4 13 0 1 o 853.119 795.822 0.00 0.94477 0.01
5 12 2 1 o 2204.809 2022.323 0.00 0.94454 0.06
6 9 5 2 o 1804.625 1682.372 0.00 0.94662 0.03
2 11 6 2 o 4790.003 4453.270 180.00 0.94659 0.07
1 14 1 1 o 2125.426 1911.105 0.00 0.94443 0.09
0 2 10 2 o 4346.374 3703.645 180.00 0.94597 0.03
5 9 6 2 o 22827.311 19234.727 0.00 0.94579 0.32
9 6 2 2 o 1724.540 1483.954 0.00 0.94560 0.02
5 11 4 1 o 1374.277 1160.161 0.00 0.94354 0.04
7 6 6 1 o 294.823 251.995 0.00 0.94321 0.01
3 5 9 1 o 6433.540 5692.091 0.00 0.94315 0.15
6 10 4 1 o 20109.842 17299.518 180.00 0.94324 0.56
2 12 5 1 o 31933.121 29349.840 180.00 0.94298 0.93
4 11 5 1 o 46972.43 45040.77 180.00 0.94287 1.33
10 0 2 2 o 2375.924 2352.564 180.00 0.94443 0.01
10 1 2 1 o 2091.026 2054.697 180.00 0.94208 0.06
6 6 7 1 o 189.971 191.852 180.00 0.94224 0.01
4 13 0 2 o 771.333 795.822 0.00 0.94477 0.00
5 12 2 2 o 2011.550 2022.323 0.00 0.94454 0.03
10 3 0 1 o 706.701 691.272 180.00 0.94163 0.01
1 14 1 2 o 1940.164 1911.105 0.00 0.94443 0.04
4 10 6 1 o 4029.171 3881.601 180.00 0.94175 0.12
1 2 10 1 o 6224.576 5985.914 0.00 0.94144 0.16
5 11 4 2 o 1218.396 1160.161 0.00 0.94354 0.02
7 6 6 2 o 272.280 251.995 0.00 0.94321 0.00
3 5 9 2 o 6084.528 5692.091 0.00 0.94315 0.07
6 10 4 2 o 18554.912 17299.518 180.00 0.94324 0.25
2 12 5 2 o 31300.398 29349.840 180.00 0.94298 0.45
4 11 5 2 o 47387.20 45040.77 180.00 0.94287 0.67
10 1 2 2 o 1958.594 2054.697 180.00 0.94208 0.03
6 6 7 2 o 184.629 191.852 180.00 0.94224 0.00
4 13 1 1 o 29412.281 29619.646 180.00 0.94018 0.85
2 6 9 1 o 18507.943 19188.941 0.00 0.93988 0.47
7 10 2 1 o 14038.132 14629.434 0.00 0.93963 0.37
10 3 0 2 o 674.047 691.272 180.00 0.94163 0.00
4 10 6 2 o 3696.584 3881.601 180.00 0.94175 0.05
1 2 10 2 o 5816.153 5985.914 0.00 0.94144 0.07
8 3 6 1 o 3698.761 3805.473 180.00 0.93898 0.11
1 13 4 1 o 1580.658 1621.506 180.00 0.93908 0.05
9 4 4 1 o 1809.479 1902.755 0.00 0.93757 0.04
4 13 1 2 o 28846.254 29619.646 180.00 0.94018 0.41
2 6 9 2 o 18179.182 19188.941 0.00 0.93988 0.23
2 0 10 1 o 220.850 222.951 0.00 0.93734 0.00
10 3 1 1 o 22.585 21.363 180.00 0.93709 0.00
7 10 2 2 o 14350.024 14629.434 0.00 0.93963 0.19
6 3 8 1 o 6161.235 5752.813 0.00 0.93693 0.18
8 7 4 1 o 1232.433 1133.042 180.00 0.93677 0.04
8 3 6 2 o 4078.506 3805.473 180.00 0.93898 0.06
1 13 4 2 o 1722.098 1621.506 180.00 0.93908 0.03
2 10 7 1 o 21.471 20.460 180.00 0.93634 0.00
6 8 6 1 o 703.604 666.109 180.00 0.93615 0.02
9 4 4 2 o 2053.372 1902.755 0.00 0.93757 0.02
10 2 2 1 o 7326.917 7083.510 180.00 0.93512 0.18
2 14 0 1 o 8570.993 7653.024 180.00 0.93556 0.15
2 1 10 1 o 16669.561 16625.336 180.00 0.93504 0.42
2 0 10 2 o 222.994 222.951 0.00 0.93734 0.00
8 9 0 1 o 12685.813 12818.086 0.00 0.93501 0.18
10 3 1 2 o 18.482 21.363 180.00 0.93709 0.00
0 14 2 1 o 21897.590 20104.229 0.00 0.93527 0.36
3 13 3 1 o 26003.512 24726.488 0.00 0.93516 0.81
6 3 8 2 o 4947.941 5752.813 0.00 0.93693 0.07
8 7 4 2 o 913.800 1133.042 180.00 0.93677 0.02
2 10 7 2 o 17.633 20.460 180.00 0.93634 0.00
6 8 6 2 o 550.674 666.109 180.00 0.93615 0.01
8 8 3 1 o 880.111 1013.060 180.00 0.93371 0.02
4 7 8 1 o 642.822 665.252 180.00 0.93329 0.02
10 2 2 2 o 7316.861 7083.510 180.00 0.93512 0.09
4 4 9 1 o 418.962 403.201 0.00 0.93286 0.01
2 14 0 2 o 7568.831 7653.024 180.00 0.93556 0.06
2 1 10 2 o 16867.943 16625.336 180.00 0.93504 0.22
8 9 0 2 o 12902.234 12818.086 0.00 0.93501 0.09
0 14 2 2 o 21237.498 20104.229 0.00 0.93527 0.17
3 13 3 2 o 25794.262 24726.488 0.00 0.93516 0.40
9 1 5 1 o 1530.797 1550.419 180.00 0.93169 0.03
8 8 3 2 o 1028.621 1013.060 180.00 0.93371 0.01
4 7 8 2 o 754.318 665.252 180.00 0.93329 0.01
7 4 7 1 o 401.095 379.490 0.00 0.93080 0.01
2 14 1 1 o 56.145 51.527 180.00 0.93110 0.00
4 4 9 2 o 406.515 403.201 0.00 0.93286 0.00
8 9 1 1 o 13356.527 13236.804 180.00 0.93057 0.36
1 14 2 1 o 24882.332 23032.795 0.00 0.93089 0.78
4 12 4 1 o 357.624 355.488 0.00 0.93036 0.01
1 3 10 1 o 1581.061 1508.206 0.00 0.92995 0.04
3 8 8 1 o 23039.895 22601.967 180.00 0.92976 0.61
9 1 5 2 o 1504.807 1550.419 180.00 0.93169 0.01
7 9 4 1 o 267.321 274.282 0.00 0.92950 0.01
9 7 1 1 o 181.001 197.603 0.00 0.92910 0.01
7 4 7 2 o 368.861 379.490 0.00 0.93080 0.00
2 14 1 2 o 50.526 51.527 180.00 0.93110 0.00
2 2 10 1 o 71.708 73.240 0.00 0.92824 0.00
8 9 1 2 o 12863.764 13236.804 180.00 0.93057 0.17
1 14 2 2 o 22484.283 23032.795 0.00 0.93089 0.34
7 8 5 1 o 56.848 58.168 180.00 0.92821 0.00
4 12 4 2 o 352.058 355.488 0.00 0.93036 0.00
5 1 9 1 o 3164.240 3175.192 180.00 0.92770 0.06
1 3 10 2 o 1498.021 1508.206 0.00 0.92995 0.02
0 7 9 1 o 29635.658 29716.313 0.00 0.92773 0.38
3 8 8 2 o 22044.076 22601.967 180.00 0.92976 0.29
7 9 4 2 o 259.209 274.282 0.00 0.92950 0.00
4 9 7 1 o 575.445 610.351 180.00 0.92716 0.02
2 13 4 1 o 15923.269 15558.429 180.00 0.92598 0.48
9 7 1 2 o 202.853 197.603 0.00 0.92910 0.00
5 1 9 2 o 2830.662 3175.192 180.00 0.92770 0.03
0 7 9 2 o 26066.750 29716.313 0.00 0.92773 0.16
4 13 2 1 o 281.017 276.524 0.00 0.92682 0.01
8 6 5 1 o 6260.352 5813.669 0.00 0.92640 0.17
9 2 5 1 o 1306.427 1445.201 180.00 0.92496 0.03
5 8 7 1 o 14668.523 13684.207 0.00 0.92652 0.38
6 11 3 1 o 2620.509 2430.549 0.00 0.92643 0.08
4 9 7 2 o 560.751 610.351 180.00 0.92716 0.01
2 2 10 2 o 74.169 73.240 0.00 0.92824 0.00
1 9 8 1 o 9115.506 8729.674 180.00 0.92610 0.25
7 8 5 2 o 58.733 58.168 180.00 0.92821 0.00
10 4 0 1 o 32571.342 34988.461 180.00 0.92566 0.39
3 11 6 1 o 1380.056 1380.016 180.00 0.92454 0.04
4 13 2 2 o 276.139 276.524 0.00 0.92682 0.00
8 6 5 2 o 6676.643 5813.669 0.00 0.92640 0.09
5 8 7 2 o 15036.166 13684.207 0.00 0.92652 0.20
10 3 2 1 o 2150.647 1705.862 180.00 0.92386 0.07
6 11 3 2 o 2768.680 2430.549 0.00 0.92643 0.04
1 9 8 2 o 10462.639 8729.674 180.00 0.92610 0.15
5 6 8 1 o 18288.428 15452.344 0.00 0.92367 0.50
10 4 0 2 o 38790.77 34988.461 180.00 0.92566 0.25
1 7 9 1 o 9682.747 8571.821 180.00 0.92346 0.25
2 13 4 2 o 18505.809 15558.429 180.00 0.92598 0.29
9 6 3 1 o 13694.172 12718.543 180.00 0.92327 0.35
8 4 6 1 o 14315.409 13723.783 0.00 0.92313 0.37
9 2 5 2 o 1531.084 1445.201 180.00 0.92496 0.02
3 11 6 2 o 1493.672 1380.016 180.00 0.92454 0.02
5 12 3 1 o 24747.689 22720.902 0.00 0.92229 0.75
10 3 2 2 o 2051.205 1705.862 180.00 0.92386 0.03
10 4 1 1 o 2509.831 2143.804 0.00 0.92134 0.07
5 6 8 2 o 18144.752 15452.344 0.00 0.92367 0.25
6 4 8 1 o 262.220 242.912 0.00 0.92119 0.00
1 7 9 2 o 9694.202 8571.821 180.00 0.92346 0.13
5 2 9 1 o 17.741 12.217 180.00 0.92105 0.00
9 6 3 2 o 13395.931 12718.543 180.00 0.92327 0.17
8 4 6 2 o 13626.016 13723.783 0.00 0.92313 0.17
3 12 5 1 o 1196.332 1043.060 180.00 0.92117 0.04
10 1 3 1 o 1550.025 1594.415 0.00 0.91999 0.04
5 12 3 2 o 22244.361 22720.902 0.00 0.92229 0.33
10 4 1 2 o 1858.480 2143.804 0.00 0.92134 0.02
6 4 8 2 o 213.301 242.912 0.00 0.92119 0.00
5 2 9 2 o -8.376 12.217 180.00 0.92105 0.00
0 4 10 1 o 8067.175 11928.190 180.00 0.91870 0.07
3 12 5 2 o 792.388 1043.060 180.00 0.92117 0.01
3 6 9 1 o -20.183 370.046 0.00 0.91828 0.00
10 1 3 2 o 1026.799 1594.415 0.00 0.91999 0.01
2 14 2 1 o 1421.105 2976.728 180.00 0.91812 0.02
7 10 3 1 o 490.551 821.808 0.00 0.91771 0.01
8 9 2 1 o 45.074 50.624 0.00 0.91761 0.00
9 5 4 1 o 3909.904 4845.510 180.00 0.91744 0.09
2 3 10 1 o 3735.137 5030.670 180.00 0.91722 0.09
0 4 10 2 o 11920.849 11928.190 180.00 0.91870 0.07
9 7 2 1 o 9.511 10.078 0.00 0.91620 0.00
3 6 9 2 o 210.404 370.046 0.00 0.91828 0.01
3 0 10 1 o 50.576 80.937 180.00 0.91592 0.00
2 14 2 2 o 2012.437 2976.728 180.00 0.91812 0.02
7 10 3 2 o 556.916 821.808 0.00 0.91771 0.01
8 9 2 2 o 45.540 50.624 0.00 0.91761 0.00
9 5 4 2 o 3817.825 4845.510 180.00 0.91744 0.05
2 3 10 2 o 3928.845 5030.670 180.00 0.91722 0.05
3 10 7 1 o 3819.360 5084.924 0.00 0.91498 0.12
1 4 10 1 o 659.248 736.887 0.00 0.91455 0.02
6 12 0 1 o 4970.513 5621.447 180.00 0.91456 0.07
9 3 5 1 o 8494.007 7894.759 180.00 0.91406 0.24
7 7 6 1 o 45.774 42.222 180.00 0.91402 0.00
9 7 2 2 o 10.497 10.078 0.00 0.91620 0.00
3 1 10 1 o 1475.201 1484.514 180.00 0.91377 0.04
3 0 10 2 o 76.805 80.937 180.00 0.91592 0.00
10 2 3 1 o 2933.680 3273.161 0.00 0.91351 0.07
2 9 8 1 o 8371.998 9232.896 180.00 0.91352 0.21
6 7 7 1 o 615.924 701.627 0.00 0.91315 0.02
4 5 9 1 o 1226.200 1354.885 0.00 0.91302 0.03
3 10 7 2 o 4798.491 5084.924 0.00 0.91498 0.08
1 4 10 2 o 715.593 736.887 0.00 0.91455 0.01
6 12 0 2 o 5438.252 5621.447 180.00 0.91456 0.04
9 3 5 2 o 9446.379 7894.759 180.00 0.91406 0.14
0 12 6 1 o 9029.951 8611.315 0.00 0.91213 0.15
7 7 6 2 o 52.231 42.222 180.00 0.91402 0.00
3 1 10 2 o 1786.474 1484.514 180.00 0.91377 0.02
10 2 3 2 o 3851.852 3273.161 0.00 0.91351 0.05
2 9 8 2 o 10783.952 9232.896 180.00 0.91352 0.15
7 5 7 1 o 7395.823 6256.850 0.00 0.91108 0.23
2 7 9 1 o 495.841 425.778 0.00 0.91099 0.01
6 7 7 2 o 852.841 701.627 0.00 0.91315 0.01
4 5 9 2 o 1719.748 1354.885 0.00 0.91302 0.02
5 3 9 1 o 15811.963 13163.932 180.00 0.91029 0.45
6 12 1 1 o 18391.631 14490.232 180.00 0.91040 0.57
3 14 1 1 o 997.631 949.530 0.00 0.91010 0.04
0 12 6 2 o 7810.427 8611.315 0.00 0.91213 0.07
1 14 3 1 o 490.668 560.320 180.00 0.90956 0.02
10 4 2 1 o 15376.653 12938.056 180.00 0.90876 0.43
7 5 7 2 o 7628.744 6256.850 0.00 0.91108 0.12
2 7 9 2 o 500.179 425.778 0.00 0.91099 0.01
5 3 9 2 o 14710.372 13163.932 180.00 0.91029 0.21
6 12 1 2 o 16319.146 14490.232 180.00 0.91040 0.25
1 12 6 1 o 8676.028 7805.093 0.00 0.90807 0.26
3 14 1 2 o 1044.600 949.530 0.00 0.91010 0.02
3 2 10 1 o 9937.617 10719.521 180.00 0.90742 0.25
1 14 3 2 o 455.997 560.320 180.00 0.90956 0.01
0 11 7 1 o 874.375 1082.386 180.00 0.90710 0.01
10 4 2 2 o 11313.131 12938.056 180.00 0.90876 0.15
10 5 0 1 o 8660.942 9822.715 0.00 0.90626 0.10
7 11 1 1 o 7663.957 8734.878 0.00 0.90626 0.20
1 12 6 2 o 6174.157 7805.093 0.00 0.90807 0.08
4 13 3 1 o 757.022 990.050 180.00 0.90577 0.02
3 2 10 2 o 9257.211 10719.521 180.00 0.90742 0.11
3 13 4 1 o 342.605 401.389 0.00 0.90531 0.01
0 11 7 2 o 983.986 1082.386 180.00 0.90710 0.01
5 11 5 1 o 7627.015 8785.473 180.00 0.90468 0.22
0 13 5 1 o 20355.451 23004.047 180.00 0.90471 0.29
6 10 5 1 o 3460.443 4285.601 180.00 0.90442 0.10
10 5 0 2 o 7938.041 9822.715 0.00 0.90626 0.04
8 8 4 1 o 79.291 98.086 180.00 0.90399 0.00
8 5 6 1 o 4494.001 5865.800 0.00 0.90390 0.13
7 11 1 2 o 6998.038 8734.878 0.00 0.90626 0.09
5 10 6 1 o 482.408 569.529 0.00 0.90370 0.01
4 13 3 2 o 923.546 990.050 180.00 0.90577 0.02
10 3 3 1 o 19336.072 16074.905 0.00 0.90300 0.53
1 11 7 1 o 378.272 317.357 0.00 0.90311 0.01
3 13 4 2 o 470.928 401.389 0.00 0.90531 0.01
2 4 10 1 o 1164.905 1025.299 0.00 0.90244 0.04
10 5 1 1 o 3441.843 3440.822 0.00 0.90221 0.09
5 11 5 2 o 9714.291 8785.473 180.00 0.90468 0.15
7 0 8 1 o 1799.111 1877.002 0.00 0.90213 0.02
0 13 5 2 o 25537.943 23004.047 180.00 0.90471 0.20
6 5 8 1 o 11977.241 12946.310 180.00 0.90207 0.32
6 10 5 2 o 4243.330 4285.601 180.00 0.90442 0.06
5 13 1 1 o 4839.627 4605.466 180.00 0.90231 0.17
8 8 4 2 o 79.616 98.086 180.00 0.90399 0.00
8 5 6 2 o 4309.386 5865.800 0.00 0.90390 0.06
5 10 6 2 o 429.966 569.529 0.00 0.90370 0.01
8 1 7 1 o 462.087 517.420 180.00 0.90105 0.01
10 3 3 2 o 15298.031 16074.905 0.00 0.90300 0.20
4 8 8 1 o 772.859 802.062 180.00 0.90086 0.01
1 11 7 2 o 298.058 317.357 0.00 0.90311 0.00
1 13 5 1 o 7986.583 8392.559 180.00 0.90075 0.25
2 4 10 2 o 912.616 1025.299 0.00 0.90244 0.02
7 1 8 1 o 485.252 530.885 180.00 0.90008 0.01
10 5 1 2 o 3138.939 3440.822 0.00 0.90221 0.04
7 0 8 2 o 1702.244 1877.002 0.00 0.90213 0.01
6 5 8 2 o 11881.193 12946.310 180.00 0.90207 0.16
5 13 1 2 o 4144.939 4605.466 180.00 0.90231 0.07
9 4 5 1 o 482.896 459.596 0.00 0.89942 0.01
6 9 6 1 o 10448.748 9689.550 180.00 0.89933 0.31
8 1 7 2 o 609.039 517.420 180.00 0.90105 0.01
8 7 5 1 o 40721.88 35441.08 180.00 0.89871 1.15
4 8 8 2 o 872.931 802.062 180.00 0.90086 0.01
1 13 5 2 o 9320.621 8392.559 180.00 0.90075 0.15
6 12 2 1 o 4002.440 3682.213 180.00 0.89825 0.11
7 1 8 2 o 589.193 530.885 180.00 0.90008 0.01
3 14 2 1 o 12617.166 11325.505 0.00 0.89796 0.40
9 4 5 2 o 516.091 459.596 0.00 0.89942 0.01
2 14 3 1 o 26.274 23.610 0.00 0.89764 0.00
6 11 4 1 o 11509.583 10088.189 0.00 0.89738 0.39
3 3 10 1 o 214.408 194.981 180.00 0.89712 0.01
8 9 3 1 o 3790.175 3382.616 180.00 0.89716 0.11
9 8 1 1 o 5692.421 5135.668 0.00 0.89709 0.15
6 9 6 2 o 10882.563 9689.550 180.00 0.89933 0.17
8 7 5 2 o 35571.33 35441.08 180.00 0.89871 0.49
5 7 8 1 o 23.901 24.637 0.00 0.89621 0.00
2 12 6 1 o 51.389 51.434 180.00 0.89620 0.00
4 11 6 1 o 1156.158 1199.569 180.00 0.89611 0.04
9 7 3 1 o 1410.065 1491.302 180.00 0.89584 0.04
5 4 9 1 o 68.131 71.697 180.00 0.89583 0.00
6 12 2 2 o 3576.631 3682.213 180.00 0.89825 0.05
1 5 10 1 o 5202.351 5479.518 180.00 0.89584 0.14
3 14 2 2 o 10692.921 11325.505 0.00 0.89796 0.16
2 14 3 2 o 21.923 23.610 0.00 0.89764 0.00
8 2 7 1 o 84.619 92.163 0.00 0.89496 0.00
6 11 4 2 o 9139.439 10088.189 0.00 0.89738 0.15
3 3 10 2 o 184.159 194.981 180.00 0.89712 0.00
8 9 3 2 o 3141.405 3382.616 180.00 0.89716 0.04
9 8 1 2 o 4839.963 5135.668 0.00 0.89709 0.06
9 6 4 1 o 3997.995 3905.367 0.00 0.89450 0.11
8 10 0 1 o 2115.213 1961.250 180.00 0.89428 0.03
7 11 2 1 o 865.351 797.522 180.00 0.89428 0.03
7 2 8 1 o 12631.454 11469.421 180.00 0.89401 0.34
5 7 8 2 o 27.522 24.637 0.00 0.89621 0.00
2 12 6 2 o 51.607 51.434 180.00 0.89620 0.00
4 11 6 2 o 1337.469 1199.569 180.00 0.89611 0.02
10 0 4 1 o 28679.285 30568.117 180.00 0.89352 0.38
9 7 3 2 o 1495.827 1491.302 180.00 0.89584 0.02
5 4 9 2 o 71.433 71.697 180.00 0.89583 0.00
1 5 10 2 o 5472.812 5479.518 180.00 0.89584 0.08
3 9 8 1 o 3855.221 3812.424 0.00 0.89366 0.11
5 12 4 1 o 3631.728 3669.728 0.00 0.89361 0.11
8 2 7 2 o 70.803 92.163 0.00 0.89496 0.00
4 12 5 1 o 1963.107 2693.805 180.00 0.89304 0.06
9 6 4 2 o 3776.152 3905.367 0.00 0.89450 0.05
7 9 5 1 o 7106.851 7356.418 0.00 0.89228 0.23
8 10 0 2 o 1972.833 1961.250 180.00 0.89428 0.01
7 11 2 2 o 802.424 797.522 180.00 0.89428 0.01
1 8 9 1 o 10.517 10.490 180.00 0.89201 0.00
7 2 8 2 o 12261.503 11469.421 180.00 0.89401 0.16
10 1 4 1 o 13023.460 11557.449 0.00 0.89152 0.38
10 0 4 2 o 34173.316 30568.117 180.00 0.89352 0.24
3 9 8 2 o 4268.733 3812.424 0.00 0.89366 0.06
3 7 9 1 o 5988.754 5350.676 0.00 0.89129 0.18
2 11 7 1 o 686.064 612.179 0.00 0.89144 0.02
5 12 4 2 o 4111.863 3669.728 0.00 0.89361 0.06
5 9 7 1 o 15415.544 13982.146 180.00 0.89078 0.48
4 12 5 2 o 2981.982 2693.805 180.00 0.89304 0.05
10 5 2 1 o 1606.926 1697.487 0.00 0.89039 0.05
4 6 9 1 o 1500.649 1558.151 0.00 0.89041 0.04
8 10 1 1 o 812.327 851.606 0.00 0.89039 0.02
5 13 2 1 o 11925.133 11943.410 0.00 0.89048 0.37
0 10 8 1 o 5552.636 6189.919 180.00 0.89025 0.07
7 9 5 2 o 5910.604 7356.418 0.00 0.89228 0.09
