#------------------------------------------------------------------------------
#$Date: 2016-03-21 01:21:50 +0200 (Mon, 21 Mar 2016) $
#$Revision: 178377 $
#$URL: svn://www.crystallography.net/cod/cif/4/00/11/4001191.cif $
#------------------------------------------------------------------------------
#
# This file is available in the Crystallography Open Database (COD),
# http://www.crystallography.net/
#
# All data on this site have been placed in the public domain by the
# contributors.
#
data_4001191
loop_
_publ_author_name
'Zhou, Yongkai'
'Adams, Stefan'
'Rao, R. Prasada'
'Edwards, Doreen D.'
'Neiman, Arkady'
'Pestereva, N.'
_publ_section_title
;
 Charge Transport by Polyatomic Anion Diffusion in Sc2(WO4)3
;
_journal_issue                   20
_journal_name_full               'Chemistry of Materials'
_journal_page_first              6335
_journal_paper_doi               10.1021/cm800466y
_journal_volume                  20
_journal_year                    2008
_chemical_formula_moiety         ' Sc2(WO4)3 '
_chemical_formula_sum            'O12 Sc2 W3'
_chemical_formula_weight         833.45
_chemical_melting_point          1913
_chemical_name_common            ' Scandium Tungstate '
_chemical_name_systematic        ' Scandium Tungstate '
_space_group_IT_number           60
_symmetry_cell_setting           orthorhombic
_symmetry_space_group_name_Hall  '-P 2a 2n'
_symmetry_space_group_name_H-M   'P n c a'
_audit_creation_date             2008-01-25T12:03
_audit_creation_method           'from EXP file using GSAS2CIF'
_audit_update_record
' 2008-01-25T12:03  Initial CIF as created by GSAS2CIF'
_cell_angle_alpha                90.0
_cell_angle_beta                 90.0
_cell_angle_gamma                90.0
_cell_formula_units_Z            4
_cell_length_a                   9.65894(6)
_cell_length_b                   13.33824(8)
_cell_length_c                   9.57242(6)
_cell_measurement_temperature    450
_cell_volume                     1233.246(13)
_computing_structure_refinement  GSAS
_diffrn_radiation_polarisn_ratio 0.68
_diffrn_radiation_probe          x-ray
_exptl_absorpt_correction_T_max  1.00000
_exptl_absorpt_correction_T_min  1.00000
_exptl_absorpt_process_details
;   GSAS Absorption/surface roughness correction: function number 0
 No correction is applied.
;
_pd_block_id
2008-01-25T12:03|T11K|Zhou_Yongkai|Philips_Xpert
_pd_calc_method                  'Rietveld Refinement'
_pd_instr_location               ' ?'
_pd_meas_2theta_range_inc        0.017
_pd_meas_2theta_range_max        119.9874
_pd_meas_2theta_range_min        10.0144
_pd_meas_number_of_points        6470
_pd_proc_2theta_range_inc        0.017
_pd_proc_2theta_range_max        119.9874
_pd_proc_2theta_range_min        10.0144
_pd_proc_info_datetime           2008-01-25T12:08:15
_pd_proc_info_excluded_regions   ' ?'
_pd_proc_ls_background_function
;   GSAS Background function number 1 with 12 terms.
 Shifted Chebyshev function of 1st kind
      1:    324.264     2:   -50.5774     3:    34.3520     4:    34.7832    
      5:   -10.0997     6:    14.0659     7:   -11.5074     8:    6.01195    
      9:    7.25335    10:   -19.0361    11:    18.0700    12:   -7.00950    
;
_pd_proc_ls_peak_cutoff          0.00250
_pd_proc_ls_pref_orient_corr
;   March-Dollase
 AXIS  1 Ratio=   0.94833  h= 0.000  k= 1.000  l= 0.000
 Prefered orientation correction range: Min=   0.92350, Max=   1.17254
;
_pd_proc_ls_profile_function
;
 CW Profile function number 3 with  19 terms
 Pseudovoigt profile coefficients as parameterized in
 P. Thompson, D.E. Cox & J.B. Hastings (1987). J. Appl. Cryst.,20,79-83.
 Asymmetry correction of L.W. Finger, D.E. Cox & A. P. Jephcoat (1994).
 J. Appl. Cryst.,27,892-900.
 Peak tails are ignored  where the intensity is below 0.0025 times the peak
   Aniso. broadening axis   0.0   0.0   1.0
;
_pd_proc_ls_prof_R_factor        0.0492
_pd_proc_ls_prof_wR_expected     0.0356
_pd_proc_ls_prof_wR_factor       0.0659
_pd_proc_number_of_points        6470
_pd_spec_mounting                ' ?'
_refine_ls_goodness_of_fit_all   1.85
_refine_ls_matrix_type           full
_refine_ls_number_parameters     51
_refine_ls_number_restraints     0
_refine_ls_R_Fsqd_factor         0.04699
_refine_ls_shift/su_max          0.03
_refine_ls_shift/su_mean         0.01
_reflns_d_resolution_high        0.890
_reflns_d_resolution_low         6.669
_reflns_limit_h_max              10
_reflns_limit_h_min              0
_reflns_limit_k_max              15
_reflns_limit_k_min              0
_reflns_limit_l_max              10
_reflns_limit_l_min              0
_reflns_number_total             1837
_cod_data_source_file            cm800466y_si_010.cif
_cod_data_source_block           T450K
_cod_depositor_comments
;
The following automatic conversions were performed:

'_chemical_melting_point' value ' 1913K ' was changed to '1913' - the
value should be numeric and without a unit
designator.

'_geom_bond_publ_flag' value 'N' changed to 'n'
according to /home/saulius/struct/CIF-dictionaries/cif_core.dic
dictionary named 'cif_core.dic' version 2.4.1 from 2010-06-29 (26
times).

'_geom_angle_publ_flag' value 'N' changed to 'n' according
to /home/saulius/struct/CIF-dictionaries/cif_core.dic dictionary
named 'cif_core.dic' version 2.4.1 from 2010-06-29 (33 times).

Automatic conversion script
Id: cif_fix_values 1715 2011-07-08 13:25:40Z adriana 
;
_cod_original_cell_volume        1233.247(15)
_cod_database_code               4001191
#BEGIN Tags that were not found in dictionaries:
_gsas_exptl_extinct_corr_t_min   1.00000
_gsas_exptl_extinct_corr_t_max   1.00000
#END Tags that were not found in dictionaries
loop_
_symmetry_equiv_pos_site_id
_symmetry_equiv_pos_as_xyz
1 +x,+y,+z
2 -x+1/2,+y+1/2,+z+1/2
3 +x,-y+1/2,+z+1/2
4 -x+1/2,-y,+z
-1 -x,-y,-z
-2 +x+1/2,-y+1/2,-z+1/2
-3 -x,+y+1/2,-z+1/2
-4 +x+1/2,+y,-z
loop_
_atom_site_type_symbol
_atom_site_label
_atom_site_fract_x
_atom_site_fract_y
_atom_site_fract_z
_atom_site_occupancy
_atom_site_thermal_displace_type
_atom_site_U_iso_or_equiv
_atom_site_symmetry_multiplicity
Sc Sc1 0.46788(33) 0.38135(22) 0.2485(4) 1.0 Uiso 0.0187(11) 8
W W1 0.25 0.0 0.47234(14) 1.0 Uiso 0.01873(25) 4
W W2 0.11519(10) 0.35624(7) 0.39323(10) 1.0 Uiso 0.01873(25) 8
O O1 0.0922(10) 0.1343(8) 0.0743(11) 1.0 Uiso 0.0318(15) 8
O O2 0.1403(11) 0.0693(7) 0.3676(11) 1.0 Uiso 0.0318(15) 8
O O3 0.0090(11) 0.2634(8) 0.3198(10) 1.0 Uiso 0.0318(15) 8
O O4 0.3327(10) 0.4058(7) 0.0778(10) 1.0 Uiso 0.0318(15) 8
O O5 0.0668(10) 0.4767(8) 0.3240(11) 1.0 Uiso 0.0318(15) 8
O O6 0.2947(11) 0.3410(7) 0.3519(10) 1.0 Uiso 0.0318(15) 8
loop_
_atom_type_symbol
_atom_type_number_in_cell
_atom_type_scat_dispersion_real
_atom_type_scat_dispersion_imag
_atom_type_scat_Cromer_Mann_a1
_atom_type_scat_Cromer_Mann_a2
_atom_type_scat_Cromer_Mann_a3
_atom_type_scat_Cromer_Mann_a4
_atom_type_scat_Cromer_Mann_b1
_atom_type_scat_Cromer_Mann_b2
_atom_type_scat_Cromer_Mann_b3
_atom_type_scat_Cromer_Mann_b4
_atom_type_scat_Cromer_Mann_c
_atom_type_scat_source
Sc 8.0 0.000 0.000 9.18900 9.02130 7.36790 0.57290 1.64090 136.108 1.46800
51.3531 1.33290 International_Tables_Vol_C
W 12.0 0.000 0.000 29.0818 1.72029 15.4300 9.22590 14.4327 0.32170 5.11982
57.0560 9.88750 International_Tables_Vol_C
O 48.0 0.000 0.000 3.04850 13.2771 2.28680 5.70110 1.54630 0.32390 0.86700
32.9089 0.25080 International_Tables_Vol_C
loop_
_diffrn_radiation_wavelength
_diffrn_radiation_wavelength_wt
_diffrn_radiation_type
_diffrn_radiation_wavelength_id
1.540500 1.000 K\a~1~ 1
1.544300 0.000 K\a~2~ 2
loop_
_geom_angle_atom_site_label_1
_geom_angle_atom_site_label_2
_geom_angle_atom_site_label_3
_geom_angle
_geom_angle_site_symmetry_1
_geom_angle_site_symmetry_3
_geom_angle_publ_flag
O1 Sc1 O2 90.3(4) -2_666 -2_666 n
O1 Sc1 O3 93.0(4) -2_666 -2_666 n
O1 Sc1 O4 175.5(5) -2_666 1_555 n
O1 Sc1 O5 84.3(4) -2_666 4_565 n
O1 Sc1 O6 93.0(4) -2_666 1_555 n
O2 Sc1 O3 88.5(4) -2_666 -2_666 n
O2 Sc1 O4 91.8(4) -2_666 1_555 n
O2 Sc1 O5 91.5(4) -2_666 4_565 n
O2 Sc1 O6 176.0(5) -2_666 1_555 n
O3 Sc1 O4 91.0(4) -2_666 1_555 n
O3 Sc1 O5 177.3(4) -2_666 4_565 n
O3 Sc1 O6 93.7(4) -2_666 1_555 n
O4 Sc1 O5 91.7(4) 1_555 4_565 n
O4 Sc1 O6 84.7(4) 1_555 1_555 n
O5 Sc1 O6 86.5(4) 4_565 1_555 n
O2 W1 O2 109.0(7) 1_555 4_555 n
O2 W1 O4 115.3(5) 1_555 2_545 n
O2 W1 O4 103.0(4) 1_555 3_555 n
O2 W1 O4 103.0(4) 4_555 2_545 n
O2 W1 O4 115.3(5) 4_555 3_555 n
O4 W1 O4 111.7(6) 2_545 3_555 n
O1 W2 O3 111.9(5) 3_555 1_555 n
O1 W2 O5 105.5(4) 3_555 1_555 n
O1 W2 O6 110.4(4) 3_555 1_555 n
O3 W2 O5 109.3(5) 1_555 1_555 n
O3 W2 O6 113.4(5) 1_555 1_555 n
O5 W2 O6 105.8(4) 1_555 1_555 n
Sc1 O1 W2 152.1(6) -2_466 3_554 n
Sc1 O2 W1 163.4(6) -2_555 1_555 n
Sc1 O3 W2 153.4(6) -2_466 1_555 n
Sc1 O4 W1 144.5(6) 1_555 2_554 n
Sc1 O5 W2 174.1(6) 4_565 1_555 n
Sc1 O6 W2 151.8(6) 1_555 1_555 n
loop_
_geom_bond_atom_site_label_1
_geom_bond_atom_site_label_2
_geom_bond_distance
_geom_bond_site_symmetry_2
_geom_bond_publ_flag
Sc1 O1 2.088(10) -2_555 n
Sc1 O2 2.108(11) -2_555 n
Sc1 O3 2.077(11) -2_555 n
Sc1 O4 2.117(10) 1_555 n
Sc1 O5 2.054(10) 4_565 n
Sc1 O6 2.016(10) 1_555 n
W1 O2 1.726(11) 1_555 n
W1 O2 1.726(11) 4_555 n
W1 O4 1.799(9) 2_545 n
W1 O4 1.799(9) 3_555 n
W2 O1 1.752(10) 3_555 n
W2 O3 1.754(10) 1_555 n
W2 O5 1.799(10) 1_555 n
W2 O6 1.790(11) 1_555 n
O1 Sc1 2.088(10) -2_455 n
O1 W2 1.752(10) 3_554 n
O2 Sc1 2.108(11) -2_455 n
O2 W1 1.726(11) 1_555 n
O3 Sc1 2.077(11) -2_455 n
O3 W2 1.754(10) 1_555 n
O4 Sc1 2.117(10) 1_555 n
O4 W1 1.799(9) 2_554 n
O5 Sc1 2.054(10) 4_565 n
O5 W2 1.799(10) 1_555 n
O6 Sc1 2.016(10) 1_555 n
O6 W2 1.790(11) 1_555 n
loop_
_pd_meas_counts_total
_pd_proc_ls_weight
_pd_proc_intensity_bkg_calc
_pd_calc_intensity_total
278.0 0.0 619.36212 .
335.0 0.0 616.16046 .
344.0 0.0 612.98407 .
322.0 0.0 609.83240 .
283.0 0.0 606.70508 .
303.0 0.0 603.60284 .
313.0 0.0 600.52496 .
354.0 0.0 597.47101 .
310.0 0.0 594.44196 .
332.0 0.0 591.43616 .
337.0 0.0 588.45490 .
325.0 0.0 585.49713 .
319.0 0.0 582.56317 .
326.0 0.0 579.65283 .
322.0 0.0 576.76581 .
295.0 0.0 573.90216 .
326.0 0.0 571.06165 .
332.0 0.0 568.24402 .
325.0 0.0 565.44977 .
329.0 0.0 562.67834 .
358.0 0.0 559.92963 .
352.0 0.0 557.20325 .
335.0 0.0 554.49933 .
334.0 0.0 551.81793 .
316.0 0.0 549.15900 .
322.0 0.0 546.52185 .
323.0 0.0 543.90680 .
306.0 0.0 541.31354 .
303.0 0.0 538.74213 .
292.0 0.0 536.19257 .
296.0 0.0 533.66431 .
325.0 0.0 531.15747 .
339.0 0.0 528.67181 .
306.0 0.0 526.20776 .
305.0 0.0 523.76471 .
347.0 0.0 521.34241 .
342.0 0.0 518.94104 .
339.0 0.0 516.56030 .
306.0 0.0 514.20032 .
281.0 0.0 511.86099 .
311.0 0.0 509.54184 .
322.0 0.0 507.24304 .
329.0 0.0 504.96432 .
342.0 0.0 502.70581 .
313.0 0.0 500.46756 .
303.0 0.0 498.24878 .
310.0 0.0 496.04980 .
318.0 0.0 493.87024 .
318.0 0.0 491.71066 .
331.0 0.0 489.57031 .
347.0 0.0 487.44940 .
329.0 0.0 485.34747 .
344.0 0.0 483.26465 .
330.0 0.0 481.20087 .
321.0 0.0 479.15607 .
342.0 0.0 477.13013 .
350.0 0.0 475.12268 .
329.0 0.0 473.13373 .
329.0 0.0 471.16348 .
328.0 0.0 469.21170 .
353.0 0.0 467.27805 .
342.0 0.0 465.36234 .
305.0 0.0 463.46475 .
321.0 0.0 461.58533 .
345.0 0.0 459.72369 .
328.0 0.0 457.87994 .
311.0 0.0 456.05359 .
330.0 0.0 454.24484 .
356.0 0.0 452.45361 .
322.0 0.0 450.67981 .
309.0 0.0 448.92331 .
316.0 0.0 447.18381 .
323.0 0.0 445.46143 .
347.0 0.0 443.75592 .
342.0 0.0 442.06744 .
339.0 0.0 440.39575 .
340.0 0.0 438.74045 .
338.0 0.0 437.10202 .
346.0 0.0 435.47989 .
343.0 0.0 433.87418 .
358.0 0.0 432.28491 .
351.0 0.0 430.71173 .
332.0 0.0 429.15454 .
344.0 0.0 427.61343 .
351.0 0.0 426.08835 .
348.0 0.0 424.57901 .
328.0 0.0 423.08539 .
330.0 0.0 421.60745 .
336.0 0.0 420.14493 .
350.0 0.0 418.69797 .
338.0 0.0 417.26642 .
320.0 0.0 415.85001 .
327.0 0.0 414.44873 .
346.0 0.0 413.06265 .
358.0 0.0 411.69153 .
333.0 0.0 410.33551 .
344.0 0.0 408.99402 .
329.0 0.0 407.66733 .
341.0 0.0 406.35526 .
346.0 0.0 405.05798 .
337.0 0.0 403.77499 .
352.0 0.0 402.50635 .
331.0 0.0 401.25198 .
331.0 0.0 400.01196 .
352.0 0.0 398.78589 .
332.0 0.0 397.57404 .
339.0 0.0 396.37589 .
342.0 0.0 395.19177 .
332.0 0.0 394.02142 .
349.0 0.0 392.86472 .
348.0 0.0 391.72174 .
326.0 0.0 390.59219 .
320.0 0.0 389.47595 .
319.0 0.0 388.37335 .
367.0 0.0 387.28381 .
353.0 0.0 386.20755 .
342.0 0.0 385.14435 .
340.0 0.002941 384.09412 384.08563
326.0 0.003067 383.05701 383.04855
348.0 0.002874 382.03262 382.02426
331.0 0.003021 381.02115 381.01282
318.0 0.003145 380.02234 380.01410
343.0 0.002915 379.03601 379.02786
352.0 0.002841 378.06238 378.05435
329.0 0.003040 377.10120 377.09320
303.0 0.003300 376.15240 376.14444
328.0 0.003049 375.21588 375.20801
330.0 0.003030 374.29153 374.28369
349.0 0.002865 373.37946 373.37164
367.0 0.002725 372.47949 372.47171
316.0 0.003165 371.59140 371.58374
333.0 0.003003 370.71521 370.70770
342.0 0.002924 369.85092 369.84335
341.0 0.002933 368.99844 368.99094
327.0 0.003058 368.15759 368.15018
329.0 0.003040 367.32840 367.32104
326.0 0.003067 366.51074 366.50342
328.0 0.003049 365.70441 365.69714
320.0 0.003125 364.90967 364.90247
336.0 0.002976 364.12613 364.11908
341.0 0.002933 363.35385 363.34686
342.0 0.002924 362.59271 362.58578
355.0 0.002817 361.84271 361.83572
361.0 0.002770 361.10379 361.09677
351.0 0.002849 360.37579 360.36893
348.0 0.002874 359.65860 359.65182
344.0 0.002907 358.95224 358.94553
340.0 0.002941 358.25656 358.24982
347.0 0.002882 357.57162 357.56497
342.0 0.002924 356.89731 356.89069
363.0 0.002755 356.23337 356.22687
375.0 0.002667 355.57996 355.57349
392.0 0.002551 354.93683 354.93036
369.0 0.002710 354.30417 354.29773
357.0 0.002801 353.68164 353.67529
357.0 0.002801 353.06931 353.06299
338.0 0.002959 352.46704 352.46085
341.0 0.002933 351.87482 351.86868
348.0 0.002874 351.29257 351.28644
348.0 0.002874 350.72021 350.71420
334.0 0.002994 350.15768 354.64578
375.0 0.002667 349.60489 354.50101
381.0 0.002625 349.06174 356.68048
425.0 0.002353 348.52829 356.91409
394.0 0.002538 348.00449 357.30737
395.0 0.002532 347.49005 357.91614
423.0 0.002364 346.98495 358.84021
405.0 0.002469 346.48929 360.35745
382.0 0.002618 346.00296 363.60709
430.0 0.002326 345.52588 371.44693
399.0 0.002506 345.05783 386.15720
449.0 0.002227 344.59897 407.41394
448.0 0.002232 344.14902 434.13220
462.0 0.002165 343.70819 464.94919
496.0 0.002016 343.27628 498.96347
512.0 0.001953 342.85309 536.13190
538.0 0.001859 342.43878 576.79346
573.0 0.001745 342.03308 621.45276
589.0 0.001698 341.63608 670.75159
646.0 0.001548 341.24771 725.46497
727.0 0.001376 340.86777 786.53552
823.0 0.001215 340.49631 855.25775
832.0 0.001202 340.13330 933.43982
901.0 0.001110 339.77863 1023.39240
1056.0 0.000947 339.43222 1128.28430
1247.0 0.000802 339.09409 1252.90112
1430.0 0.000699 338.76407 1404.14807
1732.0 0.000577 338.44205 1593.41760
2086.0 0.000479 338.12827 1840.39368
2619.0 0.000382 337.82227 2186.29419
3250.0 0.0003077 337.52435 2733.25293
4034.0 0.0002479 337.23419 3588.51758
4311.0 0.0002320 336.95184 4142.91406
3680.0 0.0002717 336.67722 3321.31152
2447.0 0.000409 336.41034 2297.31665
1450.0 0.000690 336.15109 1315.78125
776.0 0.001289 335.89935 691.98407
539.0 0.001855 335.65521 496.55463
476.0 0.002101 335.41840 438.95370
460.0 0.002174 335.18909 410.38779
421.0 0.002375 334.96713 392.48816
394.0 0.002538 334.75235 380.35226
384.0 0.002604 334.54489 371.68307
369.0 0.002710 334.34451 365.23773
357.0 0.002801 334.15128 360.29092
364.0 0.002747 333.96512 356.39526
382.0 0.002618 333.78598 353.26074
377.0 0.002653 333.61374 350.69299
378.0 0.002646 333.44849 348.55716
375.0 0.002667 333.29007 346.75671
361.0 0.002770 333.13834 345.22165
369.0 0.002710 332.99344 343.89926
374.0 0.002674 332.85519 342.75040
386.0 0.002591 332.72354 341.74445
368.0 0.002717 332.59845 335.65979
374.0 0.002674 332.47992 335.28049
376.0 0.002660 332.36783 332.36395
373.0 0.002681 332.26218 332.25833
387.0 0.002584 332.16281 332.15906
400.0 0.002500 332.06992 332.06613
360.0 0.002778 331.98318 331.97946
355.0 0.002817 331.90265 331.89890
354.0 0.002825 331.82828 331.82455
339.0 0.002950 331.76001 331.75635
380.0 0.002632 331.69781 331.69418
367.0 0.002725 331.64160 331.63803
388.0 0.002577 331.59131 331.58780
387.0 0.002584 331.54703 331.54346
388.0 0.002577 331.50851 331.50497
356.0 0.002809 331.47586 331.47235
390.0 0.002564 331.44897 331.44540
371.0 0.002695 331.42773 331.42422
378.0 0.002646 331.41220 331.40869
372.0 0.002688 331.40222 331.39874
366.0 0.002732 331.39780 331.39444
335.0 0.002985 331.39893 331.39554
362.0 0.002762 331.40555 331.40216
366.0 0.002732 331.41751 331.41415
375.0 0.002667 331.43491 331.43161
415.0 0.002410 331.45761 338.21103
381.0 0.002625 331.48557 338.80011
405.0 0.002469 331.51877 342.80103
424.0 0.002358 331.55719 343.85196
424.0 0.002358 331.60074 345.06799
423.0 0.002364 331.64932 346.49118
444.0 0.002252 331.70300 348.18140
442.0 0.002262 331.76166 350.22888
419.0 0.002387 331.82526 352.78076
459.0 0.002179 331.89380 356.14499
467.0 0.002141 331.96719 361.43704
477.0 0.002096 332.04538 372.44977
498.0 0.002008 332.12839 394.85757
523.0 0.001912 332.21609 430.18900
541.0 0.001848 332.30856 476.94495
558.0 0.001792 332.40561 533.68408
599.0 0.001669 332.50726 598.28882
661.0 0.001513 332.61346 669.91064
723.0 0.001383 332.72418 749.07935
780.0 0.001282 332.83939 836.90424
857.0 0.001167 332.95901 934.87524
946.0 0.001057 333.08301 1044.91809
1029.0 0.000972 333.21136 1169.65198
1174.0 0.000852 333.34406 1312.73193
1346.0 0.000743 333.48096 1479.12744
1552.0 0.000644 333.62207 1675.61316
1840.0 0.000543 333.76743 1912.73181
2223.0 0.000450 333.91684 2207.26855
2716.0 0.000368 334.07040 2587.28589
3378.0 0.0002960 334.22797 3109.63403
4357.0 0.0002295 334.38959 3912.53613
5407.0 0.0001849 334.55518 5200.00586
5860.0 0.0001706 334.72467 6321.17236
5021.0 0.0001992 334.89810 5359.35254
3600.0 0.0002778 335.07538 3787.56836
2314.0 0.000432 335.25647 2451.05981
1155.0 0.000866 335.44125 1191.13647
688.0 0.001453 335.62988 674.55872
551.0 0.001815 335.82220 532.13501
475.0 0.002105 336.01813 474.32300
468.0 0.002137 336.21768 440.29785
416.0 0.002404 336.42084 417.96625
405.0 0.002469 336.62747 402.44550
414.0 0.002415 336.83771 391.19730
395.0 0.002532 337.05133 382.77896
415.0 0.002410 337.26849 376.31589
378.0 0.002646 337.48898 371.25159
363.0 0.002755 337.71280 367.21671
400.0 0.002500 337.93997 363.95807
412.0 0.002427 338.17041 361.29697
357.0 0.002801 338.40408 359.10376
345.0 0.002899 338.64102 357.28268
364.0 0.002747 338.88104 355.76141
377.0 0.002653 339.12430 354.48517
381.0 0.002625 339.37057 344.64597
377.0 0.002653 339.62000 344.43610
363.0 0.002755 339.87238 339.87018
356.0 0.002809 340.12775 340.12552
348.0 0.002874 340.38617 340.38394
358.0 0.002793 340.64743 340.64523
358.0 0.002793 340.91156 340.90948
375.0 0.002667 341.17865 341.17645
378.0 0.002646 341.44855 341.44632
358.0 0.002793 341.72116 341.71899
377.0 0.002653 341.99655 341.99442
352.0 0.002841 342.27466 342.27255
368.0 0.002717 342.55548 342.55341
363.0 0.002755 342.83896 342.83688
368.0 0.002717 343.12509 343.12299
359.0 0.002786 343.41373 343.41165
370.0 0.002703 343.70496 343.70288
384.0 0.002604 343.99866 343.99661
358.0 0.002793 344.29489 344.29291
356.0 0.002809 344.59363 344.59167
383.0 0.002611 344.89474 344.89276
361.0 0.002770 345.19827 345.19629
340.0 0.002941 345.50412 345.50217
344.0 0.002907 345.81244 345.81042
372.0 0.002688 346.12289 346.12094
365.0 0.002740 346.43567 346.43375
353.0 0.002833 346.75070 346.74872
352.0 0.002841 347.06787 347.06595
352.0 0.002841 347.38739 347.38541
384.0 0.002604 347.70886 347.70697
362.0 0.002762 348.03253 348.03064
359.0 0.002786 348.35831 348.35641
345.0 0.002899 348.68604 348.68420
342.0 0.002924 349.01587 349.01407
337.0 0.002967 349.34775 349.34589
359.0 0.002786 349.68158 349.67975
376.0 0.002660 350.01727 350.01544
364.0 0.002747 350.35489 350.35306
377.0 0.002653 350.69449 350.69257
339.0 0.002950 351.03583 351.03400
338.0 0.002959 351.37897 351.37717
336.0 0.002976 351.72397 351.72214
354.0 0.002825 352.07065 352.06891
353.0 0.002833 352.41916 352.41745
360.0 0.002778 352.76944 352.76764
356.0 0.002809 353.12125 353.11954
371.0 0.002695 353.47479 353.47305
364.0 0.002747 353.82993 353.82816
374.0 0.002674 354.18671 354.18503
381.0 0.002625 354.54510 354.54340
326.0 0.003067 354.90491 354.90320
328.0 0.003049 355.26627 355.26456
373.0 0.002681 355.62915 355.62744
329.0 0.003040 355.99347 355.99179
406.0 0.002463 356.35928 356.35757
366.0 0.002732 356.72650 356.72479
345.0 0.002899 357.09497 357.09338
372.0 0.002688 357.46497 357.46332
358.0 0.002793 357.83627 357.83463
357.0 0.002801 358.20889 358.20718
349.0 0.002865 358.58270 358.58105
334.0 0.002994 358.95782 358.95618
335.0 0.002985 359.33420 359.33258
366.0 0.002732 359.71176 359.71017
382.0 0.002618 360.09055 360.08890
349.0 0.002865 360.47040 360.46887
366.0 0.002732 360.85138 360.84982
369.0 0.002710 361.23364 361.23203
370.0 0.002703 361.61679 361.61520
390.0 0.002564 362.00119 361.99960
395.0 0.002532 362.38641 362.38486
382.0 0.002618 362.77280 362.77124
357.0 0.002801 363.16013 363.15857
351.0 0.002849 363.54843 363.54688
345.0 0.002899 363.93768 363.93619
355.0 0.002817 364.32785 364.32639
362.0 0.002762 364.71890 364.71738
339.0 0.002950 365.11087 365.10934
353.0 0.002833 365.50360 365.50214
366.0 0.002732 365.89731 365.89581
360.0 0.002778 366.29169 366.29019
345.0 0.002899 366.68692 366.68546
319.0 0.003135 367.08286 367.08133
330.0 0.003030 367.47958 367.47812
345.0 0.002899 367.87704 367.87555
354.0 0.002825 368.27512 368.27371
341.0 0.002933 368.67389 368.67242
337.0 0.002967 369.07336 369.07187
346.0 0.002890 369.47342 369.47198
344.0 0.002907 369.87411 369.87271
362.0 0.002762 370.27545 370.27399
368.0 0.002717 370.67734 370.67590
358.0 0.002793 371.07965 371.07831
355.0 0.002817 371.48260 371.48123
345.0 0.002899 371.88611 371.88461
342.0 0.002924 372.29004 372.28860
348.0 0.002874 372.69437 372.69293
390.0 0.002564 373.09915 373.09778
364.0 0.002747 373.50439 373.50311
361.0 0.002770 373.91010 373.90869
357.0 0.002801 374.31619 374.31482
343.0 0.002915 374.72260 374.72125
349.0 0.002865 375.12933 375.12796
338.0 0.002959 375.53647 375.53513
356.0 0.002809 375.94385 375.94247
364.0 0.002747 376.35153 376.35025
355.0 0.002817 376.75946 376.75812
384.0 0.002604 377.16763 377.16632
319.0 0.003135 377.57614 377.57477
342.0 0.002924 377.98477 377.98346
331.0 0.003021 378.39368 378.39230
326.0 0.003067 378.80273 378.80133
320.0 0.003125 379.21185 379.21054
349.0 0.002865 379.62125 379.61990
333.0 0.003003 380.03070 380.02942
331.0 0.003021 380.44019 380.43900
325.0 0.003077 380.84985 380.84854
332.0 0.003012 381.25958 381.25824
335.0 0.002985 381.66934 381.66812
346.0 0.002890 382.07919 382.07788
367.0 0.002725 382.48901 382.48779
371.0 0.002695 382.89880 382.89761
339.0 0.002950 383.30862 383.30737
311.0 0.003215 383.71844 383.71722
326.0 0.003067 384.12820 384.12689
326.0 0.003067 384.53787 384.53656
340.0 0.002941 384.94736 384.94614
358.0 0.002793 385.35687 385.35565
366.0 0.002732 385.76627 385.76505
350.0 0.002857 386.17548 386.17426
333.0 0.003003 386.58456 386.58340
351.0 0.002849 386.99356 386.99234
355.0 0.002817 387.40216 387.40106
332.0 0.003012 387.81085 387.80963
351.0 0.002849 388.21921 388.21796
352.0 0.002841 388.62726 388.62613
343.0 0.002915 389.03516 389.03394
349.0 0.002865 389.44281 389.44159
347.0 0.002882 389.85013 389.84894
359.0 0.002786 390.25723 390.25601
342.0 0.002924 390.66397 390.66284
352.0 0.002841 391.07043 391.06931
388.0 0.002577 391.47650 391.47537
382.0 0.002618 391.88232 391.88116
365.0 0.002740 392.28781 392.28662
339.0 0.002950 392.69275 392.69156
338.0 0.002959 393.09741 393.09628
362.0 0.002762 393.50168 393.50052
361.0 0.002770 393.90555 393.90445
350.0 0.002857 394.30896 394.30783
345.0 0.002899 394.71188 394.71078
355.0 0.002817 395.11438 395.11328
382.0 0.002618 395.51645 395.51529
386.0 0.002591 395.91797 395.91684
362.0 0.002762 396.31903 396.31796
387.0 0.002584 396.71951 396.71844
390.0 0.002564 397.11960 397.11853
349.0 0.002865 397.51913 397.51797
351.0 0.002849 397.91797 397.91687
343.0 0.002915 398.31641 398.31534
359.0 0.002786 398.71417 398.71310
378.0 0.002646 399.11133 399.11023
376.0 0.002660 399.50800 399.50690
390.0 0.002564 399.90399 399.90292
336.0 0.002976 400.29938 400.29837
346.0 0.002890 400.69406 400.69302
359.0 0.002786 401.08813 401.12857
307.0 0.003257 401.48160 401.52509
368.0 0.002717 401.87433 401.92136
376.0 0.002660 402.26639 402.33835
346.0 0.002890 402.65771 402.73572
330.0 0.003030 403.04840 403.13318
363.0 0.002755 403.43826 403.53085
360.0 0.002778 403.82751 403.92908
394.0 0.002538 404.21603 404.32794
359.0 0.002786 404.60364 404.72791
362.0 0.002762 404.99060 406.92206
338.0 0.002959 405.37680 407.45981
342.0 0.002924 405.76218 408.01712
389.0 0.002571 406.14676 409.50955
403.0 0.002481 406.53052 410.19174
373.0 0.002681 406.91345 410.93292
376.0 0.002660 407.29556 412.25900
373.0 0.002681 407.67682 413.31128
353.0 0.002833 408.05725 414.55283
365.0 0.002740 408.43686 416.23120
360.0 0.002778 408.81546 417.90933
355.0 0.002817 409.19324 419.84198
386.0 0.002591 409.57025 422.07620
395.0 0.002532 409.94626 424.70966
398.0 0.002513 410.32138 427.95438
426.0 0.002347 410.69553 432.48770
422.0 0.002370 411.06876 440.19736
429.0 0.002331 411.44104 453.35519
435.0 0.002299 411.81244 472.41199
489.0 0.002045 412.18283 497.21695
507.0 0.001972 412.55228 528.82867
510.0 0.001961 412.92062 568.58008
566.0 0.001767 413.28818 614.47290
602.0 0.001661 413.65463 655.71454
605.0 0.001653 414.02011 697.86163
658.0 0.001520 414.38452 755.80096
761.0 0.001314 414.74796 824.32593
887.0 0.001127 415.11041 910.52356
1057.0 0.000946 415.47174 1026.06274
1217.0 0.000822 415.83206 1184.18506
1402.0 0.000713 416.19122 1420.02905
1735.0 0.000576 416.54935 1784.53979
2117.0 0.000472 416.90652 2117.05713
1970.0 0.000508 417.26260 1900.02954
1571.0 0.000637 417.61752 1514.75317
1393.0 0.000718 417.97134 1375.82349
1131.0 0.000884 418.32410 1121.34021
959.0 0.001043 418.67575 951.69385
918.0 0.001089 419.02612 920.41760
761.0 0.001314 419.37549 800.00348
675.0 0.001481 419.72379 692.13367
576.0 0.001736 420.07077 636.72961
502.0 0.001992 420.41681 542.75525
461.0 0.002169 420.76154 478.25269
425.0 0.002353 421.10510 455.46228
416.0 0.002404 421.44754 446.97000
396.0 0.002525 421.78885 442.14645
352.0 0.002841 422.12891 438.88437
413.0 0.002421 422.46774 436.60101
406.0 0.002463 422.80539 434.93384
415.0 0.002410 423.14182 433.69141
407.0 0.002457 423.47702 432.75452
395.0 0.002532 423.81104 432.04483
342.0 0.002924 424.14386 431.50833
372.0 0.002688 424.47543 428.38379
437.0 0.002288 424.80566 428.30862
399.0 0.002506 425.13480 428.29364
393.0 0.002545 425.46255 427.00272
375.0 0.002667 425.78915 427.18036
413.0 0.002421 426.11435 441.34506
452.0 0.002212 426.43842 441.86728
433.0 0.002309 426.76105 443.27979
435.0 0.002299 427.08255 451.85263
430.0 0.002326 427.40271 453.73853
416.0 0.002404 427.72150 456.24609
413.0 0.002421 428.03900 459.04895
448.0 0.002232 428.35522 462.20645
459.0 0.002179 428.67017 465.79477
467.0 0.002141 428.98376 469.91324
468.0 0.002137 429.29605 474.69421
494.0 0.002024 429.60699 480.32056
535.0 0.001869 429.91653 487.05212
580.0 0.001724 430.22491 495.27792
622.0 0.001608 430.53177 505.62009
651.0 0.001536 430.83728 519.28662
689.0 0.001451 431.14148 539.98181
761.0 0.001314 431.44437 579.81647
806.0 0.001241 431.74582 659.70087
909.0 0.001100 432.04599 788.01404
1026.0 0.000975 432.34470 959.22614
1177.0 0.000850 432.64203 1175.69373
1378.0 0.000726 432.93796 1440.51294
1576.0 0.000635 433.23260 1752.47144
1837.0 0.000544 433.52576 2116.01904
2229.0 0.000449 433.81750 2543.39697
2804.0 0.000357 434.10785 3054.31079
3466.0 0.0002885 434.39682 3678.91235
4315.0 0.0002317 434.68436 4467.11377
5464.0 0.0001830 434.97046 5511.63184
7154.0 0.0001398 435.25528 7017.66406
9860.0 0.0001014 435.53857 9406.04492
12871.0 0.0000777 435.82034 12422.19043
12504.0 0.0000800 436.10080 12588.06641
9114.0 0.0001097 436.37982 8885.29590
7204.0 0.0001388 436.65729 7062.52490
5372.0 0.0001862 436.93341 5526.95313
2791.0 0.000358 437.20804 2848.08911
1308.0 0.000765 437.48129 1402.19263
891.0 0.001122 437.75302 957.02966
725.0 0.001379 438.02332 794.64575
593.0 0.001686 438.29221 704.42584
531.0 0.001883 438.55954 646.00287
553.0 0.001808 438.82538 605.64587
521.0 0.001919 439.08981 576.48334
483.0 0.002070 439.35275 554.67029
462.0 0.002165 439.61423 537.90155
465.0 0.002151 439.87424 524.72223
465.0 0.002151 440.13275 514.17285
472.0 0.002119 440.38971 505.59915
498.0 0.002008 440.64523 498.54041
473.0 0.002114 440.89923 492.66351
509.0 0.001965 441.15176 487.72333
481.0 0.002079 441.40280 483.53513
487.0 0.002053 441.65237 456.77341
488.0 0.002049 441.90033 455.60687
425.0 0.002353 442.14691 454.62988
455.0 0.002198 442.39191 442.39136
495.0 0.002020 442.63541 442.63483
468.0 0.002137 442.87738 442.87683
471.0 0.002123 443.11786 443.11734
485.0 0.002062 443.35669 443.35623
421.0 0.002375 443.59421 443.59366
423.0 0.002364 443.83011 443.82950
426.0 0.002347 444.06445 444.06390
445.0 0.002247 444.29724 444.29678
459.0 0.002179 444.52859 444.52808
468.0 0.002137 444.75830 444.75787
473.0 0.002114 444.98657 462.68832
468.0 0.002137 445.21332 464.16653
494.0 0.002024 445.43842 465.78348
475.0 0.002105 445.66202 476.35434
487.0 0.002053 445.88416 478.94104
483.0 0.002070 446.10474 481.81897
476.0 0.002101 446.32373 485.04016
501.0 0.001996 446.54114 488.66928
498.0 0.002008 446.75702 492.78851
509.0 0.001965 446.97141 497.50287
513.0 0.001949 447.18414 502.94940
519.0 0.001927 447.39542 509.30991
536.0 0.001866 447.60513 516.83258
575.0 0.001739 447.81323 525.86914
657.0 0.001522 448.01984 536.93738
716.0 0.001397 448.22485 550.84973
739.0 0.001353 448.42834 569.06091
798.0 0.001253 448.63016 595.46423
924.0 0.001082 448.83054 643.29803
1018.0 0.000982 449.02927 740.79840
1149.0 0.000870 449.22647 906.44366
1314.0 0.000761 449.42224 1137.21387
1458.0 0.000686 449.61621 1432.51477
1681.0 0.000595 449.80875 1801.34802
1976.0 0.000506 449.99966 2247.30615
2329.0 0.000429 450.18906 2775.64746
2878.0 0.0003475 450.37683 3404.83350
3641.0 0.0002746 450.56314 4167.48779
4569.0 0.0002189 450.74780 5118.58887
5995.0 0.0001668 450.93085 6353.97168
8219.0 0.0001217 451.11246 8074.75684
11027.0 0.0000907 451.29239 10732.08203
14722.0 0.0000679 451.47076 14563.20410
17074.0 0.0000586 451.64758 16666.29102
12890.0 0.0000776 451.82278 12729.36230
8937.0 0.0001119 451.99640 9262.13672
7972.0 0.0001254 452.16861 8182.12744
5095.0 0.0001963 452.33905 5250.20361
2310.0 0.000433 452.50797 2437.92163
1199.0 0.000834 452.67538 1348.66235
880.0 0.001136 452.84113 1011.15662
783.0 0.001277 453.00546 856.06213
675.0 0.001481 453.16806 761.22351
656.0 0.001524 453.32913 697.51361
636.0 0.001572 453.48859 652.39502
562.0 0.001779 453.64648 619.13196
559.0 0.001789 453.80292 593.83490
556.0 0.001799 453.95764 574.12537
568.0 0.001761 454.11084 558.44104
582.0 0.001718 454.26251 545.75262
547.0 0.001828 454.41254 535.33350
577.0 0.001733 454.56100 526.66980
561.0 0.001783 454.70789 519.39282
563.0 0.001776 454.85324 513.21771
568.0 0.001761 454.99707 507.93686
567.0 0.001764 455.13919 474.29257
566.0 0.001767 455.27982 488.91489
580.0 0.001724 455.41888 488.67743
594.0 0.001684 455.55637 474.21509
570.0 0.001754 455.69223 483.76273
557.0 0.001795 455.82660 486.05319
562.0 0.001779 455.95938 488.60779
552.0 0.001812 456.09055 491.47153
580.0 0.001724 456.22021 512.11646
613.0 0.001631 456.34830 517.04926
636.0 0.001572 456.47479 522.66107
667.0 0.001499 456.59976 537.65283
713.0 0.001403 456.72308 545.70917
745.0 0.001342 456.84491 555.09662
766.0 0.001305 456.96521 566.16272
809.0 0.001236 457.08386 579.41077
884.0 0.001131 457.20105 595.58478
957.0 0.001045 457.31662 615.86224
1020.0 0.000980 457.43063 642.69073
1092.0 0.000916 457.54309 683.60504
1228.0 0.000814 457.65402 759.79468
1387.0 0.000721 457.76340 899.21985
1540.0 0.000649 457.87119 1109.04004
1764.0 0.000567 457.97742 1383.09387
2079.0 0.000481 458.08206 1772.03943
2430.0 0.000412 458.18527 2212.09912
2853.0 0.0003505 458.28693 2762.28955
3517.0 0.0002843 458.38699 3486.29883
4311.0 0.0002320 458.48550 4394.16406
5549.0 0.0001802 458.58255 5553.31104
7073.0 0.0001414 458.67792 7066.76514
9432.0 0.0001060 458.77182 9166.80566
13000.0 0.0000769 458.86417 12307.26465
17183.0 0.0000582 458.95502 16367.98438
18372.0 0.0000544 459.04422 17876.71094
14983.0 0.0000667 459.13199 14596.20313
13850.0 0.0000722 459.21829 13309.09570
14600.0 0.0000685 459.30292 14116.10352
14415.0 0.0000694 459.38617 13812.63965
15075.0 0.0000663 459.46771 14908.10059
16420.0 0.0000609 459.54788 16357.28613
13168.0 0.0000759 459.62646 12940.99316
9331.0 0.0001072 459.70352 9360.95215
8818.0 0.0001134 459.77902 8681.15332
7325.0 0.0001365 459.85303 6964.03564
4747.0 0.0002107 459.92554 4556.62354
3885.0 0.0002574 459.99652 3862.71582
4100.0 0.0002439 460.06604 4296.43799
4958.0 0.0002017 460.13400 5197.52832
5629.0 0.0001777 460.20050 6402.87598
7098.0 0.0001409 460.26550 7924.87695
8994.0 0.0001112 460.32898 9850.36133
11536.0 0.0000867 460.39096 12349.47559
15381.0 0.0000650 460.45135 15773.19727
21180.0 0.0000472 460.51031 20926.66406
28767.0 0.00003476 460.56775 28755.61719
34462.0 0.00002902 460.62381 35637.45313
30354.0 0.00003294 460.67819 30331.32227
21113.0 0.0000474 460.73126 20635.77734
17486.0 0.0000572 460.78278 18136.52734
14004.0 0.0000714 460.83276 14669.79102
7707.0 0.0001298 460.88129 7420.06982
3343.0 0.0002991 460.92838 3323.05908
1931.0 0.000518 460.97403 2007.82813
1461.0 0.000684 461.01810 1530.06348
1220.0 0.000820 461.06070 1249.62244
1106.0 0.000904 461.10193 1078.03198
1021.0 0.000979 461.14166 959.46509
910.0 0.001099 461.17987 876.67853
826.0 0.001211 461.21661 812.72913
775.0 0.001290 461.25201 763.65521
715.0 0.001399 461.28589 725.22174
702.0 0.001425 461.31827 698.04907
689.0 0.001451 461.34921 673.70630
666.0 0.001502 461.37869 654.06451
672.0 0.001488 461.40677 638.19434
680.0 0.001471 461.43341 627.20471
689.0 0.001451 461.45859 617.27533
716.0 0.001397 461.48236 542.10602
702.0 0.001425 461.50467 542.41095
667.0 0.001499 461.52551 544.42181
694.0 0.001441 461.54495 548.55713
703.0 0.001422 461.56302 524.34070
702.0 0.001425 461.57956 541.25671
735.0 0.001361 461.59476 574.36865
820.0 0.001220 461.60852 633.18292
873.0 0.001145 461.62085 718.07123
962.0 0.001040 461.63181 827.28442
1063.0 0.000941 461.64133 965.99628
1248.0 0.000801 461.64941 1139.63733
1363.0 0.000734 461.65613 1352.80176
1642.0 0.000609 461.66138 1616.73828
1931.0 0.000518 461.66528 1954.98242
2468.0 0.000405 461.66782 2408.54248
3139.0 0.0003186 461.66901 3053.61353
4275.0 0.0002339 461.66873 4042.87451
5434.0 0.0001840 461.66702 5338.65869
5566.0 0.0001797 461.66400 5765.20703
4208.0 0.0002376 461.65955 4447.97656
3538.0 0.0002826 461.65384 3701.12305
3600.0 0.0002778 461.64667 3730.91113
3129.0 0.0003196 461.63806 3192.84204
2464.0 0.000406 461.62820 2610.42896
2604.0 0.000384 461.61691 2746.26538
3177.0 0.0003148 461.60431 3337.50684
3303.0 0.0003028 461.59039 3519.01465
2536.0 0.000394 461.57498 2656.85205
1970.0 0.000508 461.55832 2076.29224
1898.0 0.000527 461.54034 1972.82092
1535.0 0.000651 461.52094 1530.24963
1004.0 0.000996 461.50021 958.32288
690.0 0.001449 461.47821 697.31500
603.0 0.001658 461.45480 611.76746
588.0 0.001701 461.43005 573.80713
565.0 0.001770 461.40402 550.42462
582.0 0.001718 461.37668 534.30249
542.0 0.001845 461.34799 522.54651
545.0 0.001835 461.31796 513.63049
573.0 0.001745 461.28668 496.27728
577.0 0.001733 461.25403 491.55237
536.0 0.001866 461.22003 487.74405
522.0 0.001916 461.18488 484.62039
534.0 0.001873 461.14835 477.14145
561.0 0.001783 461.11050 475.34723
531.0 0.001883 461.07132 473.83051
518.0 0.001931 461.03094 472.53406
538.0 0.001859 460.98929 471.41498
522.0 0.001916 460.94629 464.78903
517.0 0.001934 460.90207 464.38770
536.0 0.001866 460.85648 464.03302
552.0 0.001812 460.80972 460.81052
519.0 0.001927 460.76166 460.76242
503.0 0.001988 460.71231 460.71310
525.0 0.001905 460.66171 460.66254
548.0 0.001825 460.60989 472.39047
558.0 0.001792 460.55679 473.17358
546.0 0.001832 460.50238 474.04919
512.0 0.001953 460.44687 475.03140
504.0 0.001984 460.39001 482.20013
528.0 0.001894 460.33197 483.89148
533.0 0.001876 460.27264 485.80609
527.0 0.001898 460.21210 487.98578
527.0 0.001898 460.15033 490.48029
546.0 0.001832 460.08731 493.35663
556.0 0.001799 460.02310 496.69678
572.0 0.001748 459.95767 500.61142
559.0 0.001789 459.89105 505.24731
603.0 0.001658 459.82324 510.79968
639.0 0.001565 459.75421 517.55237
638.0 0.001567 459.68399 525.91046
684.0 0.001462 459.61249 536.50787
700.0 0.001429 459.53989 550.41919
721.0 0.001387 459.46616 570.08862
820.0 0.001220 459.39105 603.41876
866.0 0.001155 459.31494 669.86053
1013.0 0.000987 459.23755 789.04816
1182.0 0.000846 459.15903 966.71100
1338.0 0.000747 459.07928 1195.84802
1550.0 0.000645 458.99847 1487.55420
1905.0 0.000525 458.91650 1858.68774
2292.0 0.000436 458.83328 2324.42480
2836.0 0.000353 458.74893 2908.18115
3444.0 0.0002904 458.66348 3659.95508
4748.0 0.0002106 458.57681 4690.29639
6318.0 0.0001583 458.48907 6243.04688
8517.0 0.0001174 458.40015 8505.81152
9996.0 0.0001000 458.31012 10148.14844
8609.0 0.0001162 458.21893 8264.22852
5989.0 0.0001670 458.12662 5718.90234
5142.0 0.0001945 458.03329 5235.38330
4605.0 0.0002172 457.93881 4662.52637
2936.0 0.0003406 457.84317 2723.44727
1422.0 0.000703 457.74637 1404.80481
956.0 0.001046 457.64856 962.15839
798.0 0.001253 457.54956 802.10272
750.0 0.001333 457.44955 720.39215
646.0 0.001548 457.34839 669.26837
631.0 0.001585 457.24615 647.01526
623.0 0.001605 457.14282 624.09436
622.0 0.001608 457.03851 608.26770
592.0 0.001689 456.93304 597.40710
552.0 0.001812 456.82651 590.32983
554.0 0.001805 456.71884 586.31378
556.0 0.001799 456.61017 584.87286
593.0 0.001686 456.50046 585.80664
610.0 0.001639 456.38974 589.06738
653.0 0.001531 456.27783 594.77155
695.0 0.001439 456.16498 603.20776
714.0 0.001401 456.05109 614.90308
792.0 0.001263 455.93613 630.70630
860.0 0.001163 455.82013 652.02960
938.0 0.001066 455.70306 681.40558
1010.0 0.000990 455.58502 725.06006
1142.0 0.000876 455.46597 803.06439
1357.0 0.000737 455.34583 960.43665
1610.0 0.000621 455.22482 1233.82251
1920.0 0.000521 455.10266 1635.56628
2325.0 0.000430 454.97958 2140.50391
2841.0 0.000352 454.85544 2797.89087
3374.0 0.0002964 454.73032 3640.78589
4194.0 0.0002384 454.60416 4711.01758
5635.0 0.0001775 454.47711 6069.17529
7693.0 0.0001300 454.34903 7872.32666
10713.0 0.0000933 454.22000 10464.01172
15109.0 0.0000662 454.08994 14433.70605
20329.0 0.0000492 453.95895 19059.08594
19965.0 0.0000501 453.82700 19021.60938
13614.0 0.0000735 453.69403 13056.27246
10281.0 0.0000973 453.56015 10154.64160
10437.0 0.0000958 453.42532 10033.77051
7827.0 0.0001278 453.28952 7502.71777
3649.0 0.0002740 453.15277 3734.94849
1799.0 0.000556 453.01514 1899.63745
1132.0 0.000883 452.87656 1291.74585
995.0 0.001005 452.73697 1046.46997
796.0 0.001256 452.59653 904.98346
756.0 0.001323 452.45511 805.36115
658.0 0.001520 452.31281 734.39014
590.0 0.001695 452.16946 684.40363
600.0 0.001667 452.02542 647.53394
575.0 0.001739 451.88034 619.07990
574.0 0.001742 451.73434 596.51532
528.0 0.001894 451.58755 578.28229
551.0 0.001815 451.43979 563.30011
507.0 0.001972 451.29123 550.82690
505.0 0.001980 451.14166 540.31378
493.0 0.002028 450.99124 531.35889
508.0 0.001969 450.83997 523.66571
479.0 0.002088 450.68777 516.99658
481.0 0.002079 450.53476 511.17511
458.0 0.002183 450.38089 506.05646
468.0 0.002137 450.22614 501.52728
492.0 0.002033 450.07056 497.49948
477.0 0.002096 449.91412 493.89597
510.0 0.001961 449.75687 490.65799
479.0 0.002088 449.59869 487.73373
439.0 0.002278 449.43970 463.35336
441.0 0.002268 449.27991 462.24969
464.0 0.002155 449.11932 461.23807
468.0 0.002137 448.95782 460.30734
474.0 0.002110 448.79559 448.87271
470.0 0.002128 448.63248 448.70459
466.0 0.002146 448.46854 448.49591
478.0 0.002092 448.30383 448.32950
467.0 0.002141 448.13837 448.16245
442.0 0.002262 447.97205 447.97388
422.0 0.002370 447.80496 447.80673
441.0 0.002268 447.63696 447.63879
461.0 0.002169 447.46835 447.47015
460.0 0.002174 447.29892 447.30075
452.0 0.002212 447.12866 447.13055
453.0 0.002208 446.95761 446.95947
458.0 0.002183 446.78580 446.78775
460.0 0.002174 446.61325 446.61514
471.0 0.002123 446.44000 446.44193
462.0 0.002165 446.26593 446.26794
454.0 0.002203 446.09113 446.09299
459.0 0.002179 445.91556 445.91748
456.0 0.002193 445.73923 445.74118
459.0 0.002179 445.56219 445.56415
452.0 0.002212 445.38455 445.38641
441.0 0.002268 445.20593 445.20792
442.0 0.002262 445.02676 445.02872
441.0 0.002268 444.84677 444.84879
444.0 0.002252 444.66617 444.66818
416.0 0.002404 444.48483 444.48682
442.0 0.002262 444.30264 444.30466
436.0 0.002294 444.11993 444.12192
450.0 0.002222 443.93643 443.93845
451.0 0.002217 443.75223 452.23898
434.0 0.002304 443.56741 452.64453
452.0 0.002212 443.38177 453.11392
457.0 0.002188 443.19562 457.65005
433.0 0.002309 443.00867 458.54803
437.0 0.002288 442.82108 459.57385
464.0 0.002155 442.63290 460.74973
468.0 0.002137 442.44397 462.10245
477.0 0.002096 442.25439 463.66382
466.0 0.002146 442.06418 465.47595
464.0 0.002155 441.87329 467.58969
452.0 0.002212 441.68179 470.07248
477.0 0.002096 441.48956 473.01187
509.0 0.001965 441.29678 476.52112
484.0 0.002066 441.10333 480.75967
523.0 0.001912 440.90930 485.94455
551.0 0.001815 440.71460 492.39508
571.0 0.001751 440.51920 500.59363
588.0 0.001701 440.32330 511.31366
617.0 0.001621 440.12671 526.10150
697.0 0.001435 439.92969 549.40015
750.0 0.001333 439.73187 593.79071
793.0 0.001261 439.53348 678.88892
955.0 0.001047 439.33456 811.65100
1084.0 0.000923 439.13498 996.17920
1269.0 0.000788 438.93494 1234.64636
1528.0 0.000654 438.73413 1538.31348
1887.0 0.000530 438.53281 1934.71387
2402.0 0.000416 438.33102 2457.57397
3224.0 0.0003102 438.12851 3168.81787
4552.0 0.0002197 437.92560 4213.56250
6407.0 0.0001561 437.72208 5751.62793
7690.0 0.0001300 437.51785 7107.73682
6578.0 0.0001520 437.31320 6252.24219
4495.0 0.0002225 437.10800 4250.21045
3934.0 0.0002542 436.90222 3652.90698
3855.0 0.0002594 436.69592 3716.53491
2885.0 0.0003466 436.48901 2814.68237
1548.0 0.000646 436.28165 1550.76794
837.0 0.001195 436.07376 940.06299
648.0 0.001543 435.86536 736.25409
565.0 0.001770 435.65640 652.79254
534.0 0.001873 435.44693 605.08087
547.0 0.001828 435.23697 574.24615
542.0 0.001845 435.02652 553.38446
499.0 0.002004 434.81552 539.03979
497.0 0.002012 434.60410 529.30566
520.0 0.001923 434.39200 523.14203
532.0 0.001880 434.17960 520.05890
522.0 0.001916 433.96661 520.01910
498.0 0.002008 433.75327 525.44952
570.0 0.001754 433.53937 535.79041
625.0 0.001600 433.32492 560.58380
628.0 0.001592 433.11008 610.38635
724.0 0.001381 432.89481 689.78094
833.0 0.001200 432.67905 796.39526
916.0 0.001092 432.46277 936.90790
1073.0 0.000932 432.24603 1119.50916
1343.0 0.000745 432.02899 1357.94067
1743.0 0.000574 431.81143 1677.06799
2305.0 0.000434 431.59338 2128.52954
3118.0 0.0003207 431.37494 2810.60474
4215.0 0.0002372 431.15601 3700.43433
4372.0 0.0002287 430.93677 4047.35669
3424.0 0.0002921 430.71698 3080.70898
2391.0 0.000418 430.49692 2259.74976
2349.0 0.000426 430.27634 2194.32520
2262.0 0.000442 430.05530 2132.87598
1622.0 0.000617 429.83392 1476.55664
879.0 0.001138 429.61215 903.36084
640.0 0.001563 429.38998 673.98376
587.0 0.001704 429.16736 601.45490
547.0 0.001828 428.94443 577.59674
575.0 0.001739 428.72107 578.44751
573.0 0.001745 428.49725 598.54199
629.0 0.001590 428.27325 633.71338
646.0 0.001548 428.04874 685.80609
705.0 0.001418 427.82379 759.08710
841.0 0.001189 427.59863 858.91986
980.0 0.001020 427.37299 996.46661
1243.0 0.000805 427.14703 1199.57849
1528.0 0.000654 426.92081 1504.42651
1834.0 0.000545 426.69400 1819.27942
1825.0 0.000548 426.46701 1750.10815
1430.0 0.000699 426.23972 1342.98572
1180.0 0.000847 426.01212 1195.86060
1258.0 0.000795 425.78409 1273.43921
1237.0 0.000808 425.55563 1237.43384
1034.0 0.000967 425.32700 1052.29846
954.0 0.001048 425.09793 1001.68005
1036.0 0.000965 424.86862 1100.53699
1242.0 0.000805 424.63901 1300.54480
1585.0 0.000631 424.40906 1623.75110
1995.0 0.000501 424.17883 2068.37207
2215.0 0.000451 423.94821 2300.81958
1843.0 0.000543 423.71741 1856.36621
1343.0 0.000745 423.48621 1385.94348
1253.0 0.000798 423.25476 1317.25391
1289.0 0.000776 423.02307 1323.81604
1040.0 0.000962 422.79102 1031.42090
711.0 0.001406 422.55878 704.22015
541.0 0.001848 422.32623 556.29205
459.0 0.002179 422.09329 505.46902
428.0 0.002336 421.86023 482.79376
419.0 0.002387 421.62683 469.01816
417.0 0.002398 421.39319 459.61725
429.0 0.002331 421.15933 452.81189
372.0 0.002688 420.92505 447.67041
384.0 0.002604 420.69077 443.65652
368.0 0.002717 420.45605 440.43442
381.0 0.002625 420.22125 437.79071
411.0 0.002433 419.98611 435.57889
419.0 0.002387 419.75067 433.69769
374.0 0.002674 419.51514 430.42645
409.0 0.002445 419.27930 429.10898
367.0 0.002725 419.04327 427.94849
387.0 0.002584 418.80707 426.91501
376.0 0.002660 418.57050 425.16351
356.0 0.002809 418.33386 424.37076
370.0 0.002703 418.09702 423.64575
387.0 0.002584 417.85995 422.97818
379.0 0.002639 417.62265 422.35910
373.0 0.002681 417.38507 421.78113
390.0 0.002564 417.14743 421.23895
399.0 0.002506 416.90948 420.72729
370.0 0.002703 416.67154 418.08191
433.0 0.002309 416.43326 417.74854
378.0 0.002646 416.19479 417.42429
416.0 0.002404 415.95627 417.10809
405.0 0.002469 415.71738 415.72064
402.0 0.002488 415.47861 415.48178
363.0 0.002755 415.23953 415.24274
376.0 0.002660 415.00015 415.00345
413.0 0.002421 414.76083 414.76404
374.0 0.002674 414.52121 414.52451
371.0 0.002695 414.28152 414.28482
422.0 0.002370 414.04163 414.04492
419.0 0.002387 413.80161 413.80487
373.0 0.002681 413.56152 413.56482
382.0 0.002618 413.32120 413.32452
400.0 0.002500 413.08087 413.08417
390.0 0.002564 412.84030 412.84363
387.0 0.002584 412.59961 412.60297
406.0 0.002463 412.35886 412.36221
399.0 0.002506 412.11798 412.12134
377.0 0.002653 411.87701 411.88031
378.0 0.002646 411.63586 411.63928
400.0 0.002500 411.39453 411.39798
404.0 0.002475 411.15326 411.15671
393.0 0.002545 410.91180 410.91525
409.0 0.002445 410.67041 417.54965
412.0 0.002427 410.42877 417.77917
410.0 0.002439 410.18704 418.05917
407.0 0.002457 409.94531 418.39700
392.0 0.002551 409.70334 422.16937
368.0 0.002717 409.46143 427.88666
387.0 0.002584 409.21939 429.06268
401.0 0.002494 408.97729 430.41226
390.0 0.002564 408.73514 431.96442
399.0 0.002506 408.49289 438.79919
407.0 0.002457 408.25055 441.22263
404.0 0.002475 408.00821 444.02747
402.0 0.002488 407.76587 447.29376
427.0 0.002342 407.52341 451.12164
425.0 0.002353 407.28088 457.00113
397.0 0.002519 407.03836 462.49707
424.0 0.002358 406.79575 469.12790
445.0 0.002247 406.55307 477.24615
490.0 0.002041 406.31049 487.36188
536.0 0.001866 406.06772 500.28696
599.0 0.001669 405.82501 517.45990
628.0 0.001592 405.58228 542.51740
661.0 0.001513 405.33942 585.63416
777.0 0.001287 405.09671 665.42438
877.0 0.001140 404.85388 792.86261
1023.0 0.000978 404.61115 979.69647
1247.0 0.000802 404.36829 1221.84644
1503.0 0.000665 404.12543 1557.59119
1947.0 0.000514 403.88260 2028.85278
2486.0 0.000402 403.63968 2685.28125
3522.0 0.0002839 403.39694 3639.64355
4878.0 0.0002050 403.15417 5018.87891
6376.0 0.0001568 402.91129 6399.90723
6186.0 0.0001617 402.66849 6337.18164
4952.0 0.0002019 402.42578 5270.18701
5298.0 0.0001888 402.18298 5391.00244
6491.0 0.0001541 401.94031 6529.46826
6872.0 0.0001455 401.69748 6801.24170
5139.0 0.0001946 401.45480 5030.63379
3705.0 0.0002699 401.21210 3722.39795
3779.0 0.0002646 400.96957 3762.80713
4352.0 0.0002298 400.72702 4219.77490
3809.0 0.0002625 400.48441 3739.88867
2517.0 0.000397 400.24200 2449.24976
1790.0 0.000559 399.99951 1706.80383
1554.0 0.000644 399.75720 1576.85706
1483.0 0.000674 399.51486 1536.33630
1197.0 0.000835 399.27252 1188.83594
822.0 0.001217 399.03036 820.80292
620.0 0.001613 398.78818 645.61554
532.0 0.001880 398.54620 577.46527
492.0 0.002033 398.30414 543.24750
487.0 0.002053 398.06207 521.16589
475.0 0.002105 397.82034 505.65411
462.0 0.002165 397.57852 494.40829
468.0 0.002137 397.33688 486.19852
447.0 0.002237 397.09515 480.30438
451.0 0.002217 396.85370 476.31192
490.0 0.002041 396.61218 474.00803
492.0 0.002033 396.37085 473.33105
488.0 0.002049 396.12964 474.37213
524.0 0.001908 395.88849 477.40646
525.0 0.001905 395.64734 483.00055
542.0 0.001845 395.40646 485.86877
563.0 0.001776 395.16562 505.05069
616.0 0.001623 394.92490 539.30176
681.0 0.001468 394.68433 606.13336
758.0 0.001319 394.44366 709.29333
861.0 0.001161 394.20340 859.38654
1044.0 0.000958 393.96313 1059.20020
1283.0 0.000779 393.72299 1322.79761
1617.0 0.000618 393.48303 1688.95996
2163.0 0.000462 393.24307 2211.01685
3055.0 0.0003273 393.00342 2997.98633
4015.0 0.0002491 392.76376 4011.32056
4260.0 0.0002347 392.52429 4452.79785
3311.0 0.0003020 392.28497 3421.32861
2247.0 0.000445 392.04575 2408.66309
2169.0 0.000461 391.80673 2264.60376
2338.0 0.000428 391.56790 2419.88965
1907.0 0.000524 391.32916 2000.27917
1172.0 0.000853 391.09061 1219.02026
748.0 0.001337 390.85214 782.12585
554.0 0.001805 390.61392 626.54199
547.0 0.001828 390.37585 569.64624
493.0 0.002028 390.13788 544.25275
526.0 0.001901 389.90015 538.21515
546.0 0.001832 389.66248 552.01459
614.0 0.001629 389.42514 585.11011
606.0 0.001650 389.18793 637.66168
630.0 0.001587 388.95090 711.65918
739.0 0.001353 388.71405 813.02051
877.0 0.001140 388.47723 957.05573
1173.0 0.000853 388.24081 1172.14880
1509.0 0.000663 388.00443 1490.30969
1735.0 0.000576 387.76834 1831.93188
1891.0 0.000529 387.53241 1824.53796
1494.0 0.000669 387.29663 1412.89282
1247.0 0.000802 387.06113 1218.04370
1322.0 0.000756 386.82581 1329.88489
1493.0 0.000670 386.59073 1495.03540
1455.0 0.000687 386.35577 1464.47998
1397.0 0.000716 386.12106 1464.41187
1658.0 0.000603 385.88660 1689.29138
2171.0 0.000461 385.65225 2135.19629
2975.0 0.0003361 385.41830 2845.98145
3962.0 0.0002524 385.18445 3827.88843
4437.0 0.0002254 384.95071 4449.46875
3658.0 0.0002734 384.71738 3632.43408
2508.0 0.000399 384.48425 2494.62598
2291.0 0.000436 384.25131 2201.59058
2405.0 0.000416 384.01868 2378.49219
2092.0 0.000478 383.78610 2164.83838
1324.0 0.000755 383.55392 1390.48206
810.0 0.001235 383.32190 854.47491
593.0 0.001686 383.09021 648.98596
501.0 0.001996 382.85870 581.24908
514.0 0.001946 382.62738 557.60120
548.0 0.001825 382.39639 556.28101
551.0 0.001815 382.16562 562.92487
521.0 0.001919 381.93512 544.67694
490.0 0.002041 381.70499 500.97961
458.0 0.002183 381.47491 475.91754
463.0 0.002160 381.24518 471.84103
483.0 0.002070 381.01572 468.45508
447.0 0.002237 380.78653 447.57800
382.0 0.002618 380.55762 425.14957
374.0 0.002674 380.32886 411.41837
360.0 0.002778 380.10052 405.73801
375.0 0.002667 379.87234 402.18564
363.0 0.002755 379.64456 399.46863
385.0 0.002597 379.41702 396.33795
360.0 0.002778 379.18967 394.50156
344.0 0.002907 378.96274 392.91428
317.0 0.003155 378.73599 391.51868
349.0 0.002865 378.50958 390.27658
352.0 0.002841 378.28345 389.15918
351.0 0.002849 378.05750 382.61453
347.0 0.002882 377.83200 382.02921
327.0 0.003058 377.60672 381.48691
351.0 0.002849 377.38184 380.98111
320.0 0.003125 377.15710 380.50610
342.0 0.002924 376.93274 377.39505
336.0 0.002976 376.70874 377.13077
398.0 0.002513 376.48499 376.87189
381.0 0.002625 376.26151 376.61768
343.0 0.002915 376.03845 376.36740
389.0 0.002571 375.81552 376.12039
358.0 0.002793 375.59308 375.87646
324.0 0.003086 375.37088 375.63501
333.0 0.003003 375.14905 375.25162
348.0 0.002874 374.92746 375.02322
324.0 0.003086 374.70621 374.79572
335.0 0.002985 374.48532 374.56927
311.0 0.003215 374.26471 374.26950
365.0 0.002740 374.04456 374.04929
359.0 0.002786 373.82465 373.82941
342.0 0.002924 373.60501 373.60971
337.0 0.002967 373.38577 373.39063
374.0 0.002674 373.16687 373.17157
348.0 0.002874 372.94830 372.95309
361.0 0.002770 372.73007 372.73489
361.0 0.002770 372.51212 372.51697
352.0 0.002841 372.29465 372.29941
326.0 0.003067 372.07736 372.08228
336.0 0.002976 371.86063 371.86542
355.0 0.002817 371.64410 371.64893
341.0 0.002933 371.42792 371.43274
344.0 0.002907 371.21213 371.21689
349.0 0.002865 370.99667 371.00150
346.0 0.002890 370.78165 370.78650
348.0 0.002874 370.56686 370.57175
353.0 0.002833 370.35242 370.35733
352.0 0.002841 370.13846 370.14337
339.0 0.002950 369.92480 369.92972
332.0 0.003012 369.71164 369.71649
347.0 0.002882 369.49869 369.50354
362.0 0.002762 369.28607 369.29102
360.0 0.002778 369.07394 369.07886
361.0 0.002770 368.86215 368.86707
350.0 0.002857 368.65073 368.65570
364.0 0.002747 368.43967 368.44464
353.0 0.002833 368.22897 368.23395
361.0 0.002770 368.01874 368.02365
370.0 0.002703 367.80881 367.81375
356.0 0.002809 367.59930 367.60431
356.0 0.002809 367.39014 367.39520
374.0 0.002674 367.18137 367.18637
367.0 0.002725 366.97302 366.97803
327.0 0.003058 366.76508 366.77005
331.0 0.003021 366.55750 366.56250
341.0 0.002933 366.35028 366.35532
374.0 0.002674 366.14343 366.14850
361.0 0.002770 365.93707 365.94211
350.0 0.002857 365.73105 365.73608
371.0 0.002695 365.52548 365.53055
359.0 0.002786 365.32025 365.32535
388.0 0.002577 365.11539 365.12045
388.0 0.002577 364.91107 364.91617
350.0 0.002857 364.70706 364.71216
346.0 0.002890 364.50348 364.50861
393.0 0.002545 364.30032 364.30542
376.0 0.002660 364.09750 364.10266
342.0 0.002924 363.89520 363.90024
364.0 0.002747 363.69321 363.69836
364.0 0.002747 363.49170 366.30493
357.0 0.002801 363.29059 366.29288
348.0 0.002874 363.08984 366.30121
356.0 0.002809 362.88965 366.33261
365.0 0.002740 362.68979 366.39069
322.0 0.003106 362.49036 367.89594
367.0 0.002725 362.29129 368.11649
355.0 0.002817 362.09268 368.38901
348.0 0.002874 361.89459 368.72232
333.0 0.003003 361.69681 369.12747
376.0 0.002660 361.49948 369.61798
359.0 0.002786 361.30261 370.21106
350.0 0.002857 361.10611 381.48373
353.0 0.002833 360.91013 383.07217
350.0 0.002857 360.71457 384.92639
371.0 0.002695 360.51947 387.10510
372.0 0.002688 360.32474 389.68909
396.0 0.002525 360.13046 398.10202
375.0 0.002667 359.93661 402.22839
389.0 0.002571 359.74316 407.28174
392.0 0.002551 359.55029 413.60321
413.0 0.002421 359.35779 421.77557
441.0 0.002268 359.16565 437.43488
487.0 0.002053 358.97403 455.64755
514.0 0.001946 358.78287 488.22916
564.0 0.001773 358.59222 543.90173
631.0 0.001585 358.40195 626.06287
701.0 0.001427 358.21201 743.64722
820.0 0.001220 358.02267 898.06738
1047.0 0.000955 357.83374 1109.29907
1432.0 0.000698 357.64539 1426.51172
1948.0 0.000513 357.45734 1885.84119
2448.0 0.000408 357.26968 2357.98438
2429.0 0.000412 357.08264 2339.67749
1936.0 0.000517 356.89600 1775.74548
1609.0 0.000622 356.70981 1481.70667
1790.0 0.000559 356.52411 1619.83984
2013.0 0.000497 356.33871 1941.50952
2053.0 0.000487 356.15408 2101.38550
1980.0 0.000505 355.96976 2165.40796
2176.0 0.000460 355.78586 2542.28027
2969.0 0.0003368 355.60245 3306.69800
4202.0 0.0002380 355.41946 4567.70557
5944.0 0.0001682 355.23706 6324.48438
6974.0 0.0001434 355.05502 7594.18604
5911.0 0.0001692 354.87350 6465.45264
3873.0 0.0002582 354.69250 4361.49854
3227.0 0.0003099 354.51184 3641.79980
3670.0 0.0002725 354.33179 4051.70483
4090.0 0.0002445 354.15216 4412.01318
3389.0 0.0002951 353.97305 3624.51367
2451.0 0.000408 353.79428 2674.13232
2417.0 0.000414 353.61606 2517.29565
2949.0 0.0003391 353.43839 2992.02734
3625.0 0.0002759 353.26114 3610.48560
3439.0 0.0002908 353.08438 3486.76855
2353.0 0.000425 352.90811 2587.18823
1920.0 0.000521 352.73227 2120.52417
2227.0 0.000449 352.55701 2271.19849
2554.0 0.000392 352.38214 2630.66138
2426.0 0.000412 352.20776 2542.46118
1715.0 0.000583 352.03394 1848.52393
1084.0 0.000923 351.86060 1209.82678
866.0 0.001155 351.68765 942.43311
860.0 0.001163 351.51526 909.22839
823.0 0.001215 351.34338 910.59412
722.0 0.001385 351.17194 783.73627
603.0 0.001658 351.00092 607.01526
474.0 0.002110 350.83047 504.86951
427.0 0.002342 350.66058 461.77176
411.0 0.002433 350.49118 440.54794
392.0 0.002551 350.32217 426.88306
397.0 0.002519 350.15372 416.96243
376.0 0.002660 349.98575 409.44711
375.0 0.002667 349.81827 403.65216
367.0 0.002725 349.65131 392.23953
381.0 0.002625 349.48486 389.87146
391.0 0.002558 349.31882 389.03174
385.0 0.002597 349.15335 390.67746
391.0 0.002558 348.98837 390.68301
394.0 0.002538 348.82394 401.99982
403.0 0.002481 348.66000 416.72549
427.0 0.002342 348.49649 437.46939
478.0 0.002092 348.33356 467.24268
509.0 0.001965 348.17108 513.19739
550.0 0.001818 348.00909 572.36255
561.0 0.001783 347.84766 621.19653
532.0 0.001880 347.68665 584.85925
492.0 0.002033 347.52625 506.16306
482.0 0.002075 347.36627 474.14874
489.0 0.002045 347.20694 481.97659
495.0 0.002020 347.04794 493.78806
464.0 0.002155 346.88959 466.13708
423.0 0.002364 346.73169 420.18146
389.0 0.002571 346.57425 395.78094
398.0 0.002513 346.41742 389.17172
397.0 0.002519 346.26108 389.54883
437.0 0.002288 346.10516 394.48352
458.0 0.002183 345.94983 403.75784
485.0 0.002062 345.79498 421.29910
528.0 0.001894 345.64069 456.17337
537.0 0.001862 345.48694 518.95416
600.0 0.001667 345.33356 617.39502
740.0 0.001351 345.18085 752.84479
936.0 0.001068 345.02859 939.53217
1249.0 0.000801 344.87686 1204.92834
1800.0 0.000556 344.72565 1611.29578
2345.0 0.000426 344.57495 2148.13037
2683.0 0.000373 344.42474 2491.45752
2130.0 0.000469 344.27505 2094.86328
1398.0 0.000715 344.12592 1466.33472
1249.0 0.000801 343.97726 1246.44434
1433.0 0.000698 343.82913 1342.05151
1453.0 0.000688 343.68158 1427.02722
1236.0 0.000809 343.53452 1160.82813
744.0 0.001344 343.38800 769.49170
550.0 0.001818 343.24194 557.07111
466.0 0.002146 343.09644 475.58633
421.0 0.002375 342.95145 443.73734
420.0 0.002381 342.80701 427.54163
422.0 0.002370 342.66309 418.48938
427.0 0.002342 342.51965 415.00964
452.0 0.002212 342.37671 413.84811
418.0 0.002392 342.23441 418.32910
441.0 0.002268 342.09259 424.71552
480.0 0.002083 341.95126 437.83926
513.0 0.001949 341.81049 464.10873
532.0 0.001880 341.67014 511.27200
574.0 0.001742 341.53049 583.63556
686.0 0.001458 341.39120 691.21283
817.0 0.001224 341.25256 840.73486
1081.0 0.000925 341.11441 1069.59143
1465.0 0.000683 340.97672 1416.09460
1827.0 0.000547 340.83960 1870.60327
2034.0 0.000492 340.70303 2197.02026
2002.0 0.000500 340.56702 2080.45020
1980.0 0.000505 340.43149 1953.27588
2126.0 0.000470 340.29651 2199.10278
2371.0 0.000422 340.16205 2544.33496
2301.0 0.000435 340.02811 2381.09692
1777.0 0.000563 339.89465 1764.92468
1369.0 0.000730 339.76184 1347.90076
1304.0 0.000767 339.62943 1309.18872
1342.0 0.000745 339.49762 1417.81079
1317.0 0.000759 339.36630 1367.87195
1266.0 0.000790 339.23560 1233.67627
1321.0 0.000757 339.10541 1287.82422
1626.0 0.000615 338.97568 1558.37781
1935.0 0.000517 338.84647 1867.15894
1780.0 0.000562 338.71790 1821.86035
1417.0 0.000706 338.58978 1464.49939
1241.0 0.000806 338.46216 1322.31885
1465.0 0.000683 338.33514 1488.15271
1921.0 0.000521 338.20859 1820.33716
2185.0 0.000458 338.08261 2101.77417
2261.0 0.000442 337.95718 2137.96338
1842.0 0.000543 337.83224 1805.03210
1267.0 0.000789 337.70786 1277.12805
981.0 0.001019 337.58398 1013.55444
1042.0 0.000960 337.46069 1017.22827
1193.0 0.000838 337.33789 1100.03882
1033.0 0.000968 337.21564 1014.83643
736.0 0.001359 337.09384 743.04547
490.0 0.002041 336.97272 545.36505
442.0 0.002262 336.85202 459.49603
400.0 0.002500 336.73190 423.23865
380.0 0.002632 336.61237 405.84229
362.0 0.002762 336.49323 394.83762
372.0 0.002688 336.37476 387.36252
383.0 0.002611 336.25674 379.93588
365.0 0.002740 336.13928 375.28842
395.0 0.002532 336.02237 372.52884
380.0 0.002632 335.90588 370.55447
355.0 0.002817 335.79007 369.60251
403.0 0.002481 335.67465 368.49777
381.0 0.002625 335.55988 369.44885
410.0 0.002439 335.44562 371.21585
431.0 0.002320 335.33185 374.12848
431.0 0.002320 335.21869 378.93964
436.0 0.002294 335.10599 384.94571
455.0 0.002198 334.99387 400.23807
471.0 0.002123 334.88220 430.23923
558.0 0.001792 334.77112 482.84998
591.0 0.001692 334.66058 562.54053
709.0 0.001410 334.55051 675.88171
888.0 0.001126 334.44113 835.94299
1101.0 0.000908 334.33212 1069.08301
1429.0 0.000700 334.22369 1415.05371
1740.0 0.000575 334.11578 1769.35596
1759.0 0.000569 334.00848 1765.77197
1376.0 0.000727 333.90164 1312.12817
979.0 0.001021 333.79529 991.57709
950.0 0.001053 333.68954 958.64246
1071.0 0.000934 333.58432 1063.02307
1080.0 0.000926 333.47955 1067.64771
900.0 0.001111 333.37543 820.67279
620.0 0.001613 333.27173 573.00745
489.0 0.002045 333.16864 451.95435
420.0 0.002381 333.06601 405.61447
383.0 0.002611 332.96393 384.91055
375.0 0.002667 332.86240 372.71680
371.0 0.002695 332.76144 366.14273
364.0 0.002747 332.66098 360.38080
360.0 0.002778 332.56107 356.12930
367.0 0.002725 332.46167 352.89758
380.0 0.002632 332.36270 350.38834
364.0 0.002747 332.26431 348.40689
360.0 0.002778 332.16647 347.67719
345.0 0.002899 332.06921 346.46857
368.0 0.002717 331.97244 345.51782
389.0 0.002571 331.87619 344.78403
353.0 0.002833 331.78043 344.23837
352.0 0.002841 331.68521 353.17194
375.0 0.002667 331.59055 353.57831
344.0 0.002907 331.49634 354.20761
325.0 0.003077 331.40277 355.07416
341.0 0.002933 331.30966 356.20276
367.0 0.002725 331.21710 357.63025
383.0 0.002611 331.12506 364.23499
378.0 0.002646 331.03345 366.76657
359.0 0.002786 330.94250 367.64108
370.0 0.002703 330.85199 371.59033
381.0 0.002625 330.76208 376.48914
404.0 0.002475 330.67264 382.71890
424.0 0.002358 330.58377 391.04544
446.0 0.002242 330.49539 402.25943
441.0 0.002268 330.40744 423.12775
520.0 0.001923 330.32010 459.31140
571.0 0.001751 330.23334 514.84564
633.0 0.001580 330.14694 596.92322
753.0 0.001328 330.06122 708.17188
870.0 0.001149 329.97592 871.79205
1199.0 0.000834 329.89114 1111.13171
1470.0 0.000680 329.80692 1393.69238
1635.0 0.000612 329.72324 1507.96265
1416.0 0.000706 329.64008 1271.77344
1139.0 0.000878 329.55734 1056.07874
1184.0 0.000845 329.47522 1096.64050
1411.0 0.000709 329.39355 1364.50085
1733.0 0.000577 329.31244 1738.71790
1912.0 0.000523 329.23184 2092.32764
2388.0 0.000419 329.15179 2550.25952
3343.0 0.0002991 329.07211 3400.08228
4831.0 0.0002070 328.99313 4738.37695
6111.0 0.0001636 328.91449 6044.33838
5669.0 0.0001764 328.83652 5829.18213
3797.0 0.0002634 328.75900 4021.13501
2618.0 0.000382 328.68198 2847.07666
2613.0 0.000383 328.60553 2751.04126
3145.0 0.0003180 328.52948 3178.59814
3162.0 0.0003163 328.45404 3263.23682
2294.0 0.000436 328.37903 2358.80420
1348.0 0.000742 328.30453 1364.66431
795.0 0.001258 328.23059 856.05096
605.0 0.001653 328.15717 660.70294
534.0 0.001873 328.08429 581.51965
515.0 0.001942 328.01184 545.03809
527.0 0.001898 327.93988 533.24097
530.0 0.001887 327.86856 543.37061
539.0 0.001855 327.79758 577.70825
642.0 0.001558 327.72723 642.22723
762.0 0.001312 327.65729 742.69495
843.0 0.001186 327.58795 854.55310
900.0 0.001111 327.51898 919.01221
977.0 0.001024 327.45065 960.87402
1063.0 0.000941 327.38278 1041.71533
983.0 0.001017 327.31540 1045.61157
921.0 0.001086 327.24854 962.90680
906.0 0.001104 327.18219 948.44794
989.0 0.001011 327.11630 1015.45099
1194.0 0.000838 327.05087 1183.23730
1481.0 0.000675 326.98602 1386.83484
1530.0 0.000654 326.92160 1411.08752
1195.0 0.000837 326.85776 1135.35962
834.0 0.001199 326.79437 834.43164
699.0 0.001431 326.73145 713.55273
685.0 0.001460 326.66913 739.76147
797.0 0.001255 326.60718 795.89673
799.0 0.001252 326.54578 742.24457
574.0 0.001742 326.48489 576.29926
447.0 0.002237 326.42450 449.40039
390.0 0.002564 326.36453 394.78796
370.0 0.002703 326.30511 372.72226
402.0 0.002488 326.24619 361.51407
350.0 0.002857 326.18771 354.35379
376.0 0.002660 326.12979 349.31204
332.0 0.003012 326.07230 345.57843
379.0 0.002639 326.01532 342.71188
327.0 0.003058 325.95883 340.44980
315.0 0.003175 325.90286 338.62213
330.0 0.003030 325.84735 337.11832
341.0 0.002933 325.79233 335.86050
315.0 0.003175 325.73773 335.20001
337.0 0.002967 325.68365 334.31250
330.0 0.003030 325.63010 333.13312
327.0 0.003058 325.57700 332.49747
316.0 0.003165 325.52438 331.11737
354.0 0.002825 325.47220 330.68613
348.0 0.002874 325.42053 330.51855
344.0 0.002907 325.36942 329.99316
344.0 0.002907 325.31879 329.73825
333.0 0.003003 325.26852 329.09912
315.0 0.003175 325.21875 327.45660
301.0 0.003322 325.16949 327.43042
331.0 0.003021 325.12067 327.42923
311.0 0.003215 325.07236 327.45511
324.0 0.003086 325.02451 327.51132
332.0 0.003012 324.97714 327.60245
326.0 0.003067 324.93027 327.01797
310.0 0.003226 324.88385 327.24536
326.0 0.003067 324.83795 327.53296
333.0 0.003003 324.79245 327.90030
316.0 0.003165 324.74741 328.37592
327.0 0.003058 324.70285 329.86630
330.0 0.003030 324.65878 330.77219
327.0 0.003058 324.61517 332.03403
335.0 0.002985 324.57202 333.96463
334.0 0.002994 324.52933 337.37216
332.0 0.003012 324.48712 344.23660
361.0 0.002770 324.44540 355.40549
408.0 0.002451 324.40411 372.26807
421.0 0.002375 324.36328 397.54218
452.0 0.002212 324.32294 433.48807
510.0 0.001961 324.28299 486.53476
606.0 0.001650 324.24356 550.39526
639.0 0.001565 324.20462 580.60822
591.0 0.001692 324.16605 523.54016
485.0 0.002062 324.12796 452.85495
436.0 0.002294 324.09036 428.27505
445.0 0.002247 324.05322 439.77438
472.0 0.002119 324.01654 459.83902
458.0 0.002183 323.98019 451.57562
418.0 0.002392 323.94443 407.10742
388.0 0.002577 323.90903 372.13333
384.0 0.002604 323.87415 357.12323
333.0 0.003003 323.83972 353.16055
327.0 0.003058 323.80573 353.52277
352.0 0.002841 323.77219 357.11255
360.0 0.002778 323.73904 365.61884
404.0 0.002475 323.70642 382.57620
395.0 0.002532 323.67416 410.41174
459.0 0.002179 323.64243 453.38693
496.0 0.002016 323.61108 514.68042
585.0 0.001709 323.58026 606.79755
724.0 0.001381 323.54974 732.15717
836.0 0.001196 323.51974 847.03033
867.0 0.001153 323.49023 822.88434
676.0 0.001479 323.46106 668.99341
563.0 0.001776 323.43240 571.19891
572.0 0.001748 323.40417 569.83563
611.0 0.001637 323.37631 626.22070
648.0 0.001543 323.34894 683.43683
713.0 0.001403 323.32196 678.89526
713.0 0.001403 323.29550 670.20160
794.0 0.001259 323.26941 738.27100
896.0 0.001116 323.24374 900.42926
1148.0 0.000871 323.21851 1150.98596
1366.0 0.000732 323.19373 1406.85620
1418.0 0.000705 323.16937 1411.19238
1100.0 0.000909 323.14542 1124.01038
896.0 0.001116 323.12189 935.14783
907.0 0.001103 323.09879 949.23804
1006.0 0.000994 323.07611 1040.79529
1045.0 0.000957 323.05386 1046.46436
905.0 0.001105 323.03210 885.26282
686.0 0.001458 323.01068 667.15356
565.0 0.001770 322.98969 548.52844
522.0 0.001916 322.96915 510.36871
471.0 0.002123 322.94897 478.95148
435.0 0.002299 322.92926 426.13120
393.0 0.002545 322.90991 385.13605
368.0 0.002717 322.89102 369.33847
366.0 0.002732 322.87253 359.49805
364.0 0.002747 322.85446 353.95660
372.0 0.002688 322.83679 350.28250
371.0 0.002695 322.81958 347.70004
351.0 0.002849 322.80270 347.49609
333.0 0.003003 322.78632 346.43579
342.0 0.002924 322.77029 345.82434
328.0 0.003049 322.75464 345.59213
350.0 0.002857 322.73947 345.70068
363.0 0.002755 322.72467 345.67545
373.0 0.002681 322.71024 347.36652
361.0 0.002770 322.69620 348.55740
372.0 0.002688 322.68268 350.13565
380.0 0.002632 322.66943 352.16043
365.0 0.002740 322.65668 354.71976
375.0 0.002667 322.64420 357.93903
336.0 0.002976 322.63223 360.60138
364.0 0.002747 322.62061 365.89758
407.0 0.002457 322.60934 372.66693
433.0 0.002309 322.59851 381.50818
481.0 0.002079 322.58810 393.00366
535.0 0.001869 322.57806 409.88629
506.0 0.001976 322.56842 435.54669
588.0 0.001701 322.55914 483.40659
675.0 0.001481 322.55023 573.66455
875.0 0.001143 322.54175 726.70166
1118.0 0.000894 322.53372 962.68719
1456.0 0.000687 322.52594 1320.52222
1966.0 0.000509 322.51868 1838.09753
2817.0 0.000355 322.51172 2539.43481
3409.0 0.0002933 322.50513 3172.67773
3260.0 0.0003067 322.49887 3028.32715
2276.0 0.000439 322.49313 2142.46924
1520.0 0.000658 322.48764 1548.51794
1492.0 0.000670 322.48257 1466.79211
1752.0 0.000571 322.47791 1684.57275
2018.0 0.000496 322.47363 1882.93030
1792.0 0.000558 322.46976 1658.18652
1242.0 0.000805 322.46613 1161.87061
868.0 0.001152 322.46295 859.80560
785.0 0.001274 322.46008 784.18719
904.0 0.001106 322.45767 840.61090
997.0 0.001003 322.45560 945.46191
1090.0 0.000917 322.45383 975.69885
936.0 0.001068 322.45248 837.28082
739.0 0.001353 322.45154 687.71069
649.0 0.001541 322.45093 637.23395
701.0 0.001427 322.45062 664.88806
809.0 0.001236 322.45074 720.39020
819.0 0.001221 322.45117 730.99353
780.0 0.001282 322.45206 665.92358
712.0 0.001404 322.45325 617.77106
810.0 0.001235 322.45471 634.41101
939.0 0.001065 322.45663 729.56757
1053.0 0.000950 322.45883 933.28156
1253.0 0.000798 322.46143 1275.32336
1734.0 0.000577 322.46442 1811.65845
2577.0 0.000388 322.46771 2594.49609
3857.0 0.0002593 322.47137 3755.82446
5501.0 0.0001818 322.47537 5173.02051
6299.0 0.0001588 322.47974 5979.98486
5034.0 0.0001986 322.48434 4928.39014
3212.0 0.0003113 322.48941 3250.04272
2401.0 0.000416 322.49478 2489.28223
2547.0 0.000393 322.50049 2592.16333
3147.0 0.0003178 322.50653 3070.01050
3350.0 0.0002985 322.51291 3224.85864
2638.0 0.000379 322.51962 2452.24097
1620.0 0.000617 322.52679 1492.17615
1011.0 0.000989 322.53415 956.16345
776.0 0.001289 322.54190 754.31049
701.0 0.001427 322.54999 712.79926
739.0 0.001353 322.55841 744.03369
846.0 0.001182 322.56714 839.54315
1052.0 0.000951 322.57617 1014.47119
1367.0 0.000732 322.58563 1282.04431
1777.0 0.000563 322.59537 1615.78320
2011.0 0.000497 322.60541 1819.49463
1771.0 0.000565 322.61578 1632.68994
1410.0 0.000709 322.62646 1349.61938
1286.0 0.000778 322.63751 1291.31543
1481.0 0.000675 322.64883 1480.56958
2006.0 0.000499 322.66055 1814.71814
2217.0 0.000451 322.67249 1998.09460
1865.0 0.000536 322.68478 1682.30762
1266.0 0.000790 322.69742 1184.96570
891.0 0.001122 322.71039 911.38306
860.0 0.001163 322.72366 858.26324
967.0 0.001034 322.73715 917.72729
1130.0 0.000885 322.75107 960.30823
976.0 0.001025 322.76520 859.01276
812.0 0.001232 322.77975 731.07068
795.0 0.001258 322.79456 701.85565
837.0 0.001195 322.80969 779.52948
1085.0 0.000922 322.82507 965.01154
1291.0 0.000775 322.84082 1258.49573
1710.0 0.000585 322.85687 1701.97546
2261.0 0.000442 322.87320 2237.58374
2720.0 0.000368 322.88977 2668.06445
2698.0 0.000371 322.90671 2837.24634
2733.0 0.000366 322.92398 2839.97534
2725.0 0.000367 322.94150 2692.89819
2746.0 0.000364 322.95932 2851.37134
2995.0 0.0003339 322.97748 3166.33276
2880.0 0.0003472 322.99585 3017.76172
2279.0 0.000439 323.01456 2413.85425
1854.0 0.000539 323.03351 1917.29944
1509.0 0.000663 323.05280 1567.57373
1382.0 0.000724 323.07236 1458.82019
1377.0 0.000726 323.09232 1458.06213
1272.0 0.000786 323.11246 1286.22888
1041.0 0.000961 323.13281 982.51910
860.0 0.001163 323.15359 814.03320
846.0 0.001182 323.17453 810.77051
963.0 0.001038 323.19580 930.83307
1203.0 0.000831 323.21741 1149.26294
1477.0 0.000677 323.23917 1429.63208
1634.0 0.000612 323.26135 1596.25439
1475.0 0.000678 323.28369 1417.07568
1155.0 0.000866 323.30634 1089.61768
898.0 0.001114 323.32928 900.13391
856.0 0.001168 323.35248 892.35364
1011.0 0.000989 323.37601 1001.17542
1098.0 0.000911 323.39972 1100.19958
1089.0 0.000918 323.42374 1055.08228
939.0 0.001065 323.44800 957.15039
878.0 0.001139 323.47256 950.83557
1004.0 0.000996 323.49741 1046.95923
1072.0 0.000933 323.52243 1109.30273
1030.0 0.000971 323.54782 984.63489
847.0 0.001181 323.57336 811.17212
771.0 0.001297 323.59921 769.90131
885.0 0.001130 323.62537 870.06464
1011.0 0.000989 323.65170 1073.57910
1290.0 0.000775 323.67834 1331.11743
1535.0 0.000651 323.70523 1585.29529
1883.0 0.000531 323.73239 1839.87097
1958.0 0.000511 323.75980 1921.64111
1500.0 0.000667 323.78738 1561.78687
1083.0 0.000923 323.81528 1127.78821
970.0 0.001031 323.84341 950.97186
1050.0 0.000952 323.87177 995.50574
1213.0 0.000824 323.90045 1152.26819
1346.0 0.000743 323.92929 1264.09778
1276.0 0.000784 323.95840 1180.90393
1171.0 0.000854 323.98782 1070.24878
1395.0 0.000717 324.01740 1151.56909
1802.0 0.000555 324.04724 1433.47107
2292.0 0.000436 324.07733 1890.75708
2818.0 0.000355 324.10757 2312.48438
2713.0 0.000369 324.13815 2249.00537
1936.0 0.000517 324.16891 1645.83789
1293.0 0.000773 324.19995 1185.06543
1150.0 0.000870 324.23120 1069.07300
1327.0 0.000754 324.26263 1187.09778
1454.0 0.000688 324.29431 1360.36023
1434.0 0.000697 324.32629 1337.10229
1132.0 0.000883 324.35846 1011.74945
764.0 0.001309 324.39081 703.91895
543.0 0.001842 324.42346 550.31403
538.0 0.001859 324.45630 503.92511
531.0 0.001883 324.48932 508.20670
541.0 0.001848 324.52258 546.89862
577.0 0.001733 324.55606 615.36627
695.0 0.001439 324.58972 706.90240
775.0 0.001290 324.62372 760.63074
714.0 0.001401 324.65787 691.30640
576.0 0.001736 324.69223 563.58459
493.0 0.002028 324.72675 497.59351
473.0 0.002114 324.76151 493.54800
517.0 0.001934 324.79651 524.84137
580.0 0.001724 324.83167 551.27509
559.0 0.001789 324.86713 522.18335
473.0 0.002114 324.90268 449.60892
419.0 0.002387 324.93851 398.44489
383.0 0.002611 324.97452 375.90213
377.0 0.002653 325.01071 370.15250
386.0 0.002591 325.04709 374.36258
402.0 0.002488 325.08377 387.80853
416.0 0.002404 325.12057 411.92673
451.0 0.002217 325.15759 451.80988
488.0 0.002049 325.19476 505.44760
573.0 0.001745 325.23218 571.59912
578.0 0.001730 325.26978 599.26428
538.0 0.001859 325.30753 539.88782
484.0 0.002066 325.34546 461.22574
426.0 0.002347 325.38364 426.40787
446.0 0.002242 325.42203 428.37677
456.0 0.002193 325.46054 452.10809
482.0 0.002075 325.49927 467.40485
455.0 0.002198 325.53818 441.66592
411.0 0.002433 325.57727 393.42929
375.0 0.002667 325.61655 360.89392
351.0 0.002849 325.65601 345.92584
345.0 0.002899 325.69562 339.60776
369.0 0.002710 325.73541 335.58875
346.0 0.002890 325.77542 333.59790
332.0 0.003012 325.81555 332.22174
334.0 0.002994 325.85590 331.22406
340.0 0.002941 325.89639 330.47659
321.0 0.003115 325.93707 329.90222
298.0 0.003356 325.97794 329.06183
329.0 0.003040 326.01895 328.72919
310.0 0.003226 326.06015 328.46420
300.0 0.003333 326.10147 328.25131
333.0 0.003003 326.14304 328.07941
359.0 0.002786 326.18466 328.11447
315.0 0.003175 326.22644 328.01309
345.0 0.002899 326.26852 328.12286
341.0 0.002933 326.31064 328.07632
337.0 0.002967 326.35297 328.04807
324.0 0.003086 326.39545 328.03635
309.0 0.003236 326.43805 328.04001
316.0 0.003165 326.48087 327.61841
330.0 0.003030 326.52386 327.69046
332.0 0.003012 326.56689 327.87283
306.0 0.003268 326.61014 327.97897
332.0 0.003012 326.65356 328.10355
336.0 0.002976 326.69708 328.25128
313.0 0.003195 326.74075 328.16379
343.0 0.002915 326.78464 328.41779
346.0 0.002890 326.82855 328.77261
347.0 0.002882 326.87268 329.29672
327.0 0.003058 326.91699 330.04800
341.0 0.002933 326.96136 331.14706
331.0 0.003021 327.00589 332.66263
366.0 0.002732 327.05060 334.55289
351.0 0.002849 327.09543 336.03677
350.0 0.002857 327.14032 336.18414
343.0 0.002915 327.18542 335.09875
335.0 0.002985 327.23068 334.98849
331.0 0.003021 327.27600 336.23688
343.0 0.002915 327.32153 338.84079
348.0 0.002874 327.36716 343.11411
349.0 0.002865 327.41284 349.90329
364.0 0.002747 327.45877 360.37048
406.0 0.002463 327.50473 378.50217
425.0 0.002353 327.55084 406.73981
449.0 0.002227 327.59708 446.27191
491.0 0.002037 327.64340 485.91321
533.0 0.001876 327.69000 502.56815
520.0 0.001923 327.73654 489.77808
471.0 0.002123 327.78329 461.60519
417.0 0.002398 327.83014 426.55582
411.0 0.002433 327.87708 414.97549
405.0 0.002469 327.92416 422.49338
417.0 0.002398 327.97128 430.74857
427.0 0.002342 328.01865 425.62341
394.0 0.002538 328.06604 411.81863
402.0 0.002488 328.11349 387.53699
363.0 0.002755 328.16116 369.73703
354.0 0.002825 328.20892 361.84152
333.0 0.003003 328.25677 360.06070
326.0 0.003067 328.30469 361.52203
345.0 0.002899 328.35272 365.79184
333.0 0.003003 328.40085 374.19846
387.0 0.002584 328.44919 388.72733
413.0 0.002421 328.49744 411.51895
408.0 0.002451 328.54590 446.41251
477.0 0.002096 328.59442 493.85754
560.0 0.001786 328.64310 542.72009
586.0 0.001706 328.69180 555.98193
560.0 0.001786 328.74069 514.32220
476.0 0.002101 328.78961 474.64514
504.0 0.001984 328.83853 469.10983
533.0 0.001876 328.88763 492.96713
580.0 0.001724 328.93689 538.87616
630.0 0.001587 328.98621 593.24127
672.0 0.001488 329.03552 653.94452
767.0 0.001304 329.08490 763.26892
998.0 0.001002 329.13449 980.40051
1334.0 0.000750 329.18405 1338.58496
1931.0 0.000518 329.23376 1935.15076
2833.0 0.000353 329.28354 2687.40454
3655.0 0.0002736 329.33337 3363.15210
3663.0 0.0002730 329.38330 3248.44409
2509.0 0.000399 329.43329 2327.95557
1518.0 0.000659 329.48346 1592.78394
1248.0 0.000801 329.53357 1377.35498
1440.0 0.000694 329.58380 1535.27112
1777.0 0.000563 329.63412 1830.20398
1943.0 0.000515 329.68445 1950.56409
1638.0 0.000611 329.73489 1579.86011
1079.0 0.000927 329.78537 1049.24548
698.0 0.001433 329.83594 711.79089
541.0 0.001848 329.88666 559.36755
478.0 0.002092 329.93735 495.42896
431.0 0.002320 329.98810 463.87775
423.0 0.002364 330.03888 446.04800
430.0 0.002326 330.08978 439.95892
455.0 0.002198 330.14075 438.96335
491.0 0.002037 330.19177 448.32117
506.0 0.001976 330.24280 475.88959
543.0 0.001842 330.29391 530.55841
650.0 0.001538 330.34512 618.67694
832.0 0.001202 330.39627 764.55768
1049.0 0.000953 330.44763 959.26971
1236.0 0.000809 330.49890 1150.22925
1304.0 0.000767 330.55035 1166.49390
1072.0 0.000933 330.60172 944.36792
798.0 0.001253 330.65323 732.95020
716.0 0.001397 330.70480 654.81067
741.0 0.001350 330.75635 687.37561
828.0 0.001208 330.80795 768.66113
876.0 0.001142 330.85959 830.58521
839.0 0.001192 330.91132 768.55713
685.0 0.001460 330.96307 641.98602
587.0 0.001704 331.01480 563.24005
615.0 0.001626 331.06662 554.69550
672.0 0.001488 331.11853 610.98529
764.0 0.001309 331.17035 746.27142
1034.0 0.000967 331.22235 981.03046
1344.0 0.000744 331.27432 1358.77063
1852.0 0.000540 331.32623 1948.77173
2578.0 0.000388 331.37827 2640.86694
3087.0 0.0003239 331.43030 3117.23560
2773.0 0.000361 331.48242 2768.11011
1941.0 0.000515 331.53455 1939.18018
1352.0 0.000740 331.58664 1436.28394
1218.0 0.000821 331.63889 1387.49878
1479.0 0.000676 331.69104 1623.34900
1828.0 0.000547 331.74329 1907.02283
1883.0 0.000531 331.79547 1908.24854
1494.0 0.000669 331.84775 1468.05310
988.0 0.001012 331.89996 984.00818
685.0 0.001460 331.95227 715.91418
633.0 0.001580 332.00458 619.01624
546.0 0.001832 332.05695 593.60211
533.0 0.001876 332.10931 576.57971
506.0 0.001976 332.16168 552.09644
555.0 0.001802 332.21402 555.95172
593.0 0.001686 332.26642 586.98230
625.0 0.001600 332.31876 615.87354
612.0 0.001634 332.37122 588.56219
492.0 0.002033 332.42358 513.79834
403.0 0.002481 332.47598 460.89780
427.0 0.002342 332.52844 446.11429
443.0 0.002257 332.58090 457.41492
460.0 0.002174 332.63330 478.11032
490.0 0.002041 332.68576 486.30414
485.0 0.002062 332.73822 461.69223
423.0 0.002364 332.79065 424.29468
407.0 0.002457 332.84311 402.07953
359.0 0.002786 332.89557 395.48727
372.0 0.002688 332.94797 399.49274
400.0 0.002500 333.00043 411.89697
431.0 0.002320 333.05283 428.35385
491.0 0.002037 333.10529 462.81384
535.0 0.001869 333.15768 503.92694
548.0 0.001825 333.21002 534.63831
543.0 0.001842 333.26251 524.82434
553.0 0.001808 333.31488 495.27249
546.0 0.001832 333.36725 489.92230
574.0 0.001742 333.41962 531.48895
675.0 0.001481 333.47202 628.09119
830.0 0.001205 333.52435 788.31958
1077.0 0.000929 333.57669 1022.55273
1418.0 0.000705 333.62903 1350.92004
1921.0 0.000521 333.68127 1716.09180
2194.0 0.000456 333.73355 1923.60315
1830.0 0.000546 333.78580 1681.61743
1334.0 0.000750 333.83804 1275.62427
1062.0 0.000942 333.89023 1100.64941
1152.0 0.000868 333.94241 1206.48059
1424.0 0.000702 333.99460 1492.15210
1722.0 0.000581 334.04678 1784.92175
1799.0 0.000556 334.09888 1775.30237
1389.0 0.000720 334.15097 1383.04236
1005.0 0.000995 334.20303 1021.27863
914.0 0.001094 334.25504 892.34625
912.0 0.001096 334.30707 967.34894
1071.0 0.000934 334.35901 1142.78174
1245.0 0.000803 334.41095 1284.13904
1212.0 0.000825 334.46283 1186.55457
866.0 0.001155 334.51471 897.38910
603.0 0.001658 334.56656 679.28326
542.0 0.001845 334.61838 590.70190
587.0 0.001704 334.67014 594.27423
608.0 0.001645 334.72186 637.10199
651.0 0.001536 334.77353 667.21283
584.0 0.001712 334.82523 619.12292
507.0 0.001972 334.87680 520.47235
458.0 0.002183 334.92831 448.40903
376.0 0.002660 334.97980 411.53729
374.0 0.002674 335.03134 395.30386
374.0 0.002674 335.08276 387.53009
358.0 0.002793 335.13412 383.08459
364.0 0.002747 335.18549 380.78409
365.0 0.002740 335.23676 379.92664
384.0 0.002604 335.28799 376.99698
381.0 0.002625 335.33911 378.77277
395.0 0.002532 335.39029 381.83481
379.0 0.002639 335.44141 386.47369
404.0 0.002475 335.49234 393.17557
452.0 0.002212 335.54333 404.16800
450.0 0.002222 335.59424 419.54993
479.0 0.002088 335.64517 442.99582
554.0 0.001805 335.69595 491.73337
647.0 0.001546 335.74670 578.21362
803.0 0.001245 335.79736 717.52570
1038.0 0.000963 335.84805 939.81958
1309.0 0.000764 335.89856 1236.56738
1561.0 0.000641 335.94904 1524.62537
1655.0 0.000604 335.99945 1599.31799
1548.0 0.000646 336.04993 1488.44519
1571.0 0.000637 336.10016 1507.05920
1778.0 0.000562 336.15036 1688.06934
1876.0 0.000533 336.20056 1797.30066
1738.0 0.000575 336.25070 1626.56018
1451.0 0.000689 336.30072 1388.75549
1207.0 0.000829 336.35071 1177.72327
1029.0 0.000972 336.40054 1008.39087
932.0 0.001073 336.45044 963.33221
976.0 0.001025 336.50015 998.15405
959.0 0.001043 336.54977 965.14966
835.0 0.001198 336.59943 788.50220
625.0 0.001600 336.64899 611.25830
497.0 0.002012 336.69843 510.72495
471.0 0.002123 336.74777 464.93869
455.0 0.002198 336.79712 444.00150
457.0 0.002188 336.84628 439.86523
459.0 0.002179 336.89548 455.18814
512.0 0.001953 336.94452 496.37854
572.0 0.001748 336.99341 569.54578
676.0 0.001479 337.04233 687.16589
787.0 0.001271 337.09113 829.60455
858.0 0.001166 337.13989 932.24274
826.0 0.001211 337.18854 873.59979
661.0 0.001513 337.23706 695.40771
577.0 0.001733 337.28552 568.19348
496.0 0.002016 337.33380 528.63458
481.0 0.002079 337.38217 555.37085
540.0 0.001852 337.43042 617.50409
617.0 0.001621 337.47842 656.22687
606.0 0.001650 337.52643 612.50452
477.0 0.002096 337.57437 519.02130
422.0 0.002370 337.62213 444.53748
403.0 0.002481 337.66992 406.85028
419.0 0.002387 337.71753 388.47171
375.0 0.002667 337.76508 381.36871
353.0 0.002833 337.81244 376.63788
348.0 0.002874 337.85983 374.83231
362.0 0.002762 337.90710 374.17438
362.0 0.002762 337.95425 374.38104
357.0 0.002801 338.00122 375.31036
395.0 0.002532 338.04819 375.77054
361.0 0.002770 338.09500 378.09558
383.0 0.002611 338.14175 381.12570
386.0 0.002591 338.18832 384.92148
417.0 0.002398 338.23486 389.70682
426.0 0.002347 338.28125 400.02924
434.0 0.002304 338.32761 407.71054
421.0 0.002375 338.37387 417.39160
443.0 0.002257 338.41989 429.78943
439.0 0.002278 338.46591 446.03534
473.0 0.002114 338.51169 468.07312
550.0 0.001818 338.55750 499.99594
624.0 0.001603 338.60312 552.18927
726.0 0.001377 338.64865 643.12561
953.0 0.001049 338.69409 808.38586
1268.0 0.000789 338.73938 1090.21497
1707.0 0.000586 338.78461 1547.18762
2298.0 0.000435 338.82962 2214.51514
2890.0 0.0003460 338.87463 2951.45996
3255.0 0.0003072 338.91946 3374.81250
3248.0 0.0003079 338.96417 3303.49219
3192.0 0.0003133 339.00879 3220.15503
3034.0 0.0003296 339.05331 3168.31958
2649.0 0.000378 339.09766 2757.70288
2253.0 0.000444 339.14188 2311.01636
2046.0 0.000489 339.18597 2171.92896
1941.0 0.000515 339.22995 2139.80762
1841.0 0.000543 339.27383 1982.75659
1755.0 0.000570 339.31760 1846.55347
1604.0 0.000623 339.36121 1729.03479
1340.0 0.000746 339.40475 1406.53796
967.0 0.001034 339.44812 1006.81519
677.0 0.001477 339.49133 742.02686
558.0 0.001792 339.53442 611.59167
532.0 0.001880 339.57733 553.88776
517.0 0.001934 339.62030 527.01215
472.0 0.002119 339.66296 514.66205
507.0 0.001972 339.70557 511.65848
487.0 0.002053 339.74796 516.96564
510.0 0.001961 339.79034 531.39868
569.0 0.001757 339.83258 558.42206
638.0 0.001567 339.87466 607.66260
812.0 0.001232 339.91650 703.60425
971.0 0.001030 339.95822 888.70453
1260.0 0.000794 339.99991 1227.73108
1723.0 0.000580 340.04141 1782.07593
2496.0 0.000401 340.08279 2620.48193
3477.0 0.0002876 340.12402 3560.09009
3929.0 0.0002545 340.16513 4070.31030
3208.0 0.0003117 340.20605 3461.74072
2164.0 0.000462 340.24686 2340.35718
1447.0 0.000691 340.28748 1642.57117
1321.0 0.000757 340.32803 1482.46143
1569.0 0.000637 340.36841 1703.35925
1883.0 0.000531 340.40860 2089.13843
2142.0 0.000467 340.44876 2341.68848
2020.0 0.000495 340.48862 2069.56909
1456.0 0.000687 340.52841 1461.30115
977.0 0.001024 340.56808 1016.93610
817.0 0.001224 340.60754 821.57544
790.0 0.001266 340.64691 800.20392
876.0 0.001142 340.68619 919.59723
1116.0 0.000896 340.72525 1174.23340
1467.0 0.000682 340.76410 1593.72327
1918.0 0.000521 340.80289 2103.80273
2259.0 0.000443 340.84143 2446.40015
2062.0 0.000485 340.87985 2209.87256
1535.0 0.000651 340.91818 1596.63098
1147.0 0.000872 340.95624 1173.70276
1026.0 0.000975 340.99429 1066.71985
1115.0 0.000897 341.03207 1199.19043
1269.0 0.000788 341.06976 1448.48096
1474.0 0.000678 341.10727 1629.74207
1404.0 0.000712 341.14465 1497.64270
1065.0 0.000939 341.18179 1115.89209
774.0 0.001292 341.21884 803.53522
613.0 0.001631 341.25574 648.48907
568.0 0.001761 341.29245 601.44147
580.0 0.001724 341.32895 597.75690
627.0 0.001595 341.36533 623.22687
670.0 0.001493 341.40158 659.48444
764.0 0.001309 341.43762 741.01978
908.0 0.001101 341.47357 907.09528
1167.0 0.000857 341.50931 1152.51245
1436.0 0.000696 341.54489 1374.47705
1445.0 0.000692 341.58035 1365.73059
1121.0 0.000892 341.61554 1073.17322
800.0 0.001250 341.65063 796.06836
641.0 0.001560 341.68558 671.91919
628.0 0.001592 341.72028 677.15784
710.0 0.001408 341.75488 764.71118
891.0 0.001122 341.78922 868.50586
903.0 0.001107 341.82349 888.03619
799.0 0.001252 341.85754 754.32880
603.0 0.001658 341.89148 587.34119
461.0 0.002169 341.92523 480.86029
430.0 0.002326 341.95877 425.74554
381.0 0.002625 341.99213 404.18149
391.0 0.002558 342.02530 396.15448
364.0 0.002747 342.05835 392.57767
362.0 0.002762 342.09119 391.99875
391.0 0.002558 342.12390 390.79153
393.0 0.002545 342.15637 386.59509
379.0 0.002639 342.18875 382.01901
401.0 0.002494 342.22092 385.97699
415.0 0.002410 342.25284 397.56216
418.0 0.002392 342.28464 415.86005
471.0 0.002123 342.31631 435.62204
492.0 0.002033 342.34772 440.87686
432.0 0.002315 342.37897 422.34619
404.0 0.002475 342.41010 399.76877
362.0 0.002762 342.44095 387.11938
377.0 0.002653 342.47165 385.57596
372.0 0.002688 342.50220 391.48993
407.0 0.002457 342.53259 401.35672
384.0 0.002604 342.56281 406.04266
421.0 0.002375 342.59277 403.21829
400.0 0.002500 342.62262 396.69012
382.0 0.002618 342.65210 398.25204
438.0 0.002283 342.68158 412.00809
446.0 0.002242 342.71085 442.37943
473.0 0.002114 342.73990 491.73920
503.0 0.001988 342.76880 562.40442
595.0 0.001681 342.79749 642.18164
663.0 0.001508 342.82596 674.71930
673.0 0.001486 342.85428 626.30463
606.0 0.001650 342.88239 558.01532
528.0 0.001894 342.91037 540.93671
579.0 0.001727 342.93808 587.03131
655.0 0.001527 342.96567 687.11896
788.0 0.001269 342.99298 831.01660
957.0 0.001045 343.02017 936.29181
914.0 0.001094 343.04721 900.99585
751.0 0.001332 343.07397 747.29749
600.0 0.001667 343.10052 630.78845
579.0 0.001727 343.12698 607.70386
676.0 0.001479 343.15317 675.07159
840.0 0.001190 343.17923 833.69977
1030.0 0.000971 343.20505 1070.34070
1285.0 0.000778 343.23068 1356.90967
1534.0 0.000652 343.25610 1599.64600
1600.0 0.000625 343.28131 1619.70789
1326.0 0.000754 343.30634 1322.11169
930.0 0.001075 343.33118 966.41144
750.0 0.001333 343.35587 775.16754
695.0 0.001439 343.38028 748.38177
780.0 0.001282 343.40454 833.70874
943.0 0.001060 343.42853 992.60632
1130.0 0.000885 343.45242 1129.04114
1139.0 0.000878 343.47607 1154.02197
1114.0 0.000898 343.49951 1121.86719
1130.0 0.000885 343.52274 1194.27332
1251.0 0.000799 343.54587 1320.92200
1277.0 0.000783 343.56863 1318.74719
1137.0 0.000880 343.59128 1135.24280
992.0 0.001008 343.61371 991.56403
983.0 0.001017 343.63596 1010.56372
1153.0 0.000867 343.65802 1142.02454
1283.0 0.000779 343.67981 1239.44678
1185.0 0.000844 343.70151 1205.32178
1071.0 0.000934 343.72290 1079.69128
878.0 0.001139 343.74414 906.08789
770.0 0.001299 343.76508 750.73773
694.0 0.001441 343.78592 684.93079
649.0 0.001541 343.80655 696.17529
718.0 0.001393 343.82690 714.88348
717.0 0.001395 343.84708 672.70929
636.0 0.001572 343.86713 581.38135
530.0 0.001887 343.88687 514.75604
495.0 0.002020 343.90640 495.15930
506.0 0.001976 343.92578 519.31378
549.0 0.001821 343.94498 581.48846
630.0 0.001587 343.96390 678.63904
781.0 0.001280 343.98260 788.11115
806.0 0.001241 344.00113 825.81183
716.0 0.001397 344.01944 738.32776
620.0 0.001613 344.03757 614.33398
564.0 0.001773 344.05542 548.97015
586.0 0.001706 344.07309 555.96307
602.0 0.001661 344.09052 623.70898
757.0 0.001321 344.10779 746.04730
968.0 0.001033 344.12488 889.93878
1100.0 0.000909 344.14166 999.90979
1125.0 0.000889 344.15833 991.54889
940.0 0.001064 344.17462 850.79980
719.0 0.001391 344.19086 672.07416
602.0 0.001661 344.20685 563.63855
536.0 0.001866 344.22260 532.03314
559.0 0.001789 344.23810 552.90594
615.0 0.001626 344.25345 606.83655
682.0 0.001466 344.26855 663.44421
740.0 0.001351 344.28345 676.57208
691.0 0.001447 344.29816 646.76276
667.0 0.001499 344.31259 651.94287
735.0 0.001361 344.32687 737.03589
846.0 0.001182 344.34091 910.67731
1021.0 0.000979 344.35474 1122.43506
1227.0 0.000815 344.36829 1271.95068
1220.0 0.000820 344.38168 1243.59045
1015.0 0.000985 344.39484 1045.84534
751.0 0.001332 344.40775 811.77905
584.0 0.001712 344.42047 682.54175
628.0 0.001592 344.43292 670.08289
701.0 0.001427 344.44528 734.98254
785.0 0.001274 344.45731 816.50238
817.0 0.001224 344.46918 844.63995
752.0 0.001330 344.48077 781.08014
630.0 0.001587 344.49216 652.15332
530.0 0.001887 344.50336 537.86096
445.0 0.002247 344.51431 475.71985
421.0 0.002375 344.52502 455.86981
450.0 0.002222 344.53552 463.20889
477.0 0.002096 344.54581 488.70117
522.0 0.001916 344.55594 525.75519
526.0 0.001901 344.56573 551.04913
554.0 0.001805 344.57538 543.37988
556.0 0.001799 344.58478 526.99829
586.0 0.001706 344.59396 549.38599
618.0 0.001618 344.60291 633.30267
762.0 0.001312 344.61166 781.98694
956.0 0.001046 344.62015 980.25671
1187.0 0.000842 344.62842 1125.66077
1169.0 0.000855 344.63644 1073.72852
861.0 0.001161 344.64426 850.69745
605.0 0.001653 344.65192 659.40808
565.0 0.001770 344.65927 573.26416
549.0 0.001821 344.66641 574.62079
585.0 0.001709 344.67340 631.61133
677.0 0.001477 344.68008 709.62067
801.0 0.001248 344.68652 739.62799
719.0 0.001391 344.69281 671.13306
552.0 0.001812 344.69882 562.19403
509.0 0.001965 344.70459 487.80273
482.0 0.002075 344.71017 457.14059
433.0 0.002309 344.71555 458.96146
491.0 0.002037 344.72067 490.43823
596.0 0.001678 344.72549 560.78864
642.0 0.001558 344.73016 678.10742
808.0 0.001238 344.73465 842.13422
940.0 0.001064 344.73877 1002.60748
962.0 0.001040 344.74277 1023.64471
821.0 0.001218 344.74658 859.35895
649.0 0.001541 344.75009 670.71515
564.0 0.001773 344.75333 568.34961
517.0 0.001934 344.75641 550.84113
560.0 0.001786 344.75922 590.96002
657.0 0.001522 344.76181 664.51166
680.0 0.001471 344.76422 723.55139
658.0 0.001520 344.76633 698.59436
617.0 0.001621 344.76825 598.56940
515.0 0.001942 344.76990 509.24979
436.0 0.002294 344.77136 462.13660
419.0 0.002387 344.77258 443.42007
420.0 0.002381 344.77359 440.71930
430.0 0.002326 344.77432 447.00586
458.0 0.002183 344.77487 462.63184
502.0 0.001992 344.77518 493.55731
559.0 0.001789 344.77518 555.18103
695.0 0.001439 344.77505 675.56659
881.0 0.001135 344.77466 889.02167
1148.0 0.000871 344.77405 1206.15002
1547.0 0.000646 344.77316 1600.76074
1856.0 0.000539 344.77206 1853.17700
1737.0 0.000576 344.77081 1704.44287
1326.0 0.000754 344.76920 1267.84753
944.0 0.001059 344.76736 925.06702
797.0 0.001255 344.76535 785.44202
783.0 0.001277 344.76315 809.43353
874.0 0.001144 344.76062 938.07916
1038.0 0.000963 344.75793 1110.08630
1157.0 0.000864 344.75497 1185.51990
1014.0 0.000986 344.75177 1054.56213
768.0 0.001302 344.74835 832.69183
688.0 0.001453 344.74469 676.92810
614.0 0.001629 344.74081 611.32031
604.0 0.001656 344.73666 611.60968
706.0 0.001416 344.73233 668.08179
872.0 0.001147 344.72778 803.69012
1074.0 0.000931 344.72293 1067.30017
1445.0 0.000692 344.71786 1493.24133
2057.0 0.000486 344.71259 2076.26904
2787.0 0.000359 344.70703 2617.69946
2849.0 0.000351 344.70132 2686.03345
2344.0 0.000427 344.69531 2186.22192
1640.0 0.000610 344.68906 1680.58545
1469.0 0.000681 344.68265 1499.78992
1591.0 0.000629 344.67593 1581.34912
1707.0 0.000586 344.66904 1725.67419
1776.0 0.000563 344.66190 1846.94019
1979.0 0.000505 344.65448 1950.69287
1978.0 0.000506 344.64685 1914.58887
1773.0 0.000564 344.63901 1757.14172
1747.0 0.000572 344.63092 1735.97620
1771.0 0.000565 344.62250 1866.96509
1887.0 0.000530 344.61395 1874.17993
1545.0 0.000647 344.60516 1565.18445
1104.0 0.000906 344.59613 1156.74939
869.0 0.001151 344.58682 891.69275
740.0 0.001351 344.57733 801.60632
795.0 0.001258 344.56757 839.66125
948.0 0.001055 344.55759 962.13391
1094.0 0.000914 344.54739 1112.95972
1212.0 0.000825 344.53696 1197.44238
1260.0 0.000794 344.52628 1212.78210
1328.0 0.000753 344.51532 1279.51270
1402.0 0.000713 344.50421 1397.77869
1371.0 0.000729 344.49280 1391.44287
1213.0 0.000824 344.48114 1183.30933
1054.0 0.000949 344.46930 974.91431
1014.0 0.000986 344.45721 925.76862
1180.0 0.000847 344.44489 1075.16040
1524.0 0.000656 344.43231 1425.31226
2018.0 0.000496 344.41956 1940.80908
2484.0 0.000403 344.40646 2445.23145
2513.0 0.000398 344.39325 2528.85181
2085.0 0.000480 344.37976 2039.37280
1480.0 0.000676 344.36603 1445.68665
1084.0 0.000923 344.35202 1078.60815
935.0 0.001070 344.33786 946.86798
941.0 0.001063 344.32339 980.86646
1058.0 0.000945 344.30865 1124.37695
1220.0 0.000820 344.29370 1282.02222
1259.0 0.000794 344.27863 1276.29370
1043.0 0.000959 344.26331 1057.92126
752.0 0.001330 344.24765 807.55695
630.0 0.001587 344.23181 639.25189
491.0 0.002037 344.21567 544.37085
458.0 0.002183 344.19937 489.54330
448.0 0.002232 344.18277 457.83386
435.0 0.002299 344.16602 439.10541
414.0 0.002415 344.14893 426.49744
418.0 0.002392 344.13174 420.60947
390.0 0.002564 344.11417 417.25540
384.0 0.002604 344.09653 417.09576
413.0 0.002421 344.07852 418.46994
414.0 0.002415 344.06027 420.51654
384.0 0.002604 344.04187 427.87979
399.0 0.002506 344.02322 440.49655
505.0 0.001980 344.00433 463.17752
501.0 0.001996 343.98517 507.15088
606.0 0.001650 343.96582 592.58820
778.0 0.001285 343.94614 747.40729
994.0 0.001006 343.92636 980.58044
1386.0 0.000722 343.90628 1268.90088
1636.0 0.000611 343.88599 1463.54248
1510.0 0.000662 343.86545 1371.30737
1135.0 0.000881 343.84470 1067.11365
793.0 0.001261 343.82367 818.50275
741.0 0.001350 343.80243 715.89191
726.0 0.001377 343.78098 733.43408
862.0 0.001160 343.75922 822.29224
946.0 0.001057 343.73727 942.53992
1032.0 0.000969 343.71512 1025.73376
1046.0 0.000956 343.69275 983.75763
903.0 0.001107 343.67004 858.94403
801.0 0.001248 343.64716 796.36389
913.0 0.001095 343.62405 875.74493
1118.0 0.000894 343.60077 1111.74023
1467.0 0.000682 343.57718 1477.34216
1870.0 0.000535 343.55338 1876.19470
2113.0 0.000473 343.52936 2027.70776
1864.0 0.000536 343.50510 1735.60632
1337.0 0.000748 343.48053 1284.83704
1025.0 0.000976 343.45590 1002.35077
992.0 0.001008 343.43088 933.08868
1074.0 0.000931 343.40564 1007.75623
1171.0 0.000854 343.38028 1145.28650
1275.0 0.000784 343.35455 1294.85693
1371.0 0.000729 343.32877 1346.40613
1285.0 0.000778 343.30264 1209.64478
1084.0 0.000923 343.27628 1023.43738
997.0 0.001003 343.24966 959.91089
1083.0 0.000923 343.22284 1037.90247
1173.0 0.000853 343.19577 1175.14124
1251.0 0.000799 343.16858 1255.82446
1248.0 0.000801 343.14102 1251.71265
1182.0 0.000846 343.11328 1159.39868
993.0 0.001007 343.08527 965.56647
766.0 0.001305 343.05710 784.91217
678.0 0.001475 343.02872 701.55316
677.0 0.001477 343.00009 709.65607
747.0 0.001339 342.97116 765.17560
765.0 0.001307 342.94211 813.30511
767.0 0.001304 342.91272 837.47137
835.0 0.001198 342.88309 836.27130
808.0 0.001238 342.85330 807.72968
817.0 0.001224 342.82333 800.12970
807.0 0.001239 342.79303 841.87054
818.0 0.001222 342.76260 864.65997
772.0 0.001295 342.73187 786.49048
622.0 0.001608 342.70096 649.23438
563.0 0.001776 342.66980 546.68823
494.0 0.002024 342.63837 500.62323
457.0 0.002188 342.60678 502.62579
564.0 0.001773 342.57492 536.61835
548.0 0.001825 342.54282 588.12494
565.0 0.001770 342.51053 624.02332
622.0 0.001608 342.47797 606.11011
530.0 0.001887 342.44525 551.53101
546.0 0.001832 342.41226 515.55664
558.0 0.001792 342.37906 521.18719
601.0 0.001664 342.34558 586.80505
713.0 0.001403 342.31195 725.01849
874.0 0.001144 342.27808 935.80341
1122.0 0.000891 342.24396 1179.49609
1300.0 0.000769 342.20966 1308.45215
1148.0 0.000871 342.17508 1179.15430
922.0 0.001085 342.14026 909.35223
696.0 0.001437 342.10526 696.49860
554.0 0.001805 342.07013 600.64386
541.0 0.001848 342.03464 602.82581
623.0 0.001605 341.99893 673.07196
764.0 0.001309 341.96301 778.95715
774.0 0.001292 341.92694 851.09204
734.0 0.001362 341.89050 803.52686
649.0 0.001541 341.85400 665.60028
551.0 0.001815 341.81720 538.95020
455.0 0.002198 341.78015 462.99219
415.0 0.002410 341.74295 425.61737
389.0 0.002571 341.70547 408.38712
370.0 0.002703 341.66779 400.08218
347.0 0.002882 341.62988 396.19263
363.0 0.002755 341.59174 395.09192
389.0 0.002571 341.55347 397.51230
409.0 0.002445 341.51489 404.38120
424.0 0.002358 341.47614 420.71790
451.0 0.002217 341.43704 453.22034
511.0 0.001957 341.39789 508.63800
564.0 0.001773 341.35840 585.05536
641.0 0.001560 341.31879 661.03912
687.0 0.001456 341.27890 684.47461
648.0 0.001543 341.23877 634.58722
573.0 0.001745 341.19846 577.62408
545.0 0.001835 341.15793 564.95337
560.0 0.001786 341.11722 596.14111
584.0 0.001712 341.07629 638.16522
639.0 0.001565 341.03510 651.78802
600.0 0.001667 340.99365 639.51288
606.0 0.001650 340.95203 618.44684
579.0 0.001727 340.91022 580.27197
516.0 0.001938 340.86810 543.69983
517.0 0.001934 340.82590 534.81299
516.0 0.001938 340.78336 555.71613
576.0 0.001736 340.74072 595.09479
658.0 0.001520 340.69781 641.81055
796.0 0.001256 340.65463 717.12018
915.0 0.001093 340.61136 892.31714
1234.0 0.000810 340.56778 1231.72449
1777.0 0.000563 340.52399 1757.00830
2428.0 0.000412 340.47995 2370.78003
2793.0 0.000358 340.43576 2721.96875
2427.0 0.000412 340.39139 2430.84497
1634.0 0.000612 340.34671 1750.91565
1081.0 0.000925 340.30197 1212.78796
814.0 0.001229 340.25693 965.12909
812.0 0.001232 340.21161 967.49194
1003.0 0.000997 340.16617 1140.42969
1339.0 0.000747 340.12045 1379.19153
1501.0 0.000666 340.07462 1575.82043
1563.0 0.000640 340.02850 1496.84570
1193.0 0.000838 339.98218 1147.20325
827.0 0.001209 339.93564 824.03955
624.0 0.001603 339.88892 627.61548
474.0 0.002110 339.84198 530.94067
475.0 0.002105 339.79486 486.70584
440.0 0.002273 339.74744 466.09357
432.0 0.002315 339.69989 459.03513
439.0 0.002278 339.65216 465.36282
450.0 0.002222 339.60416 489.15094
481.0 0.002079 339.55597 532.06293
521.0 0.001919 339.50754 584.04730
582.0 0.001718 339.45889 631.71204
625.0 0.001600 339.41013 638.42371
617.0 0.001621 339.36111 611.95795
640.0 0.001563 339.31192 607.62665
647.0 0.001546 339.26254 632.78748
648.0 0.001543 339.21286 666.67957
625.0 0.001600 339.16309 662.25092
607.0 0.001647 339.11295 628.71069
569.0 0.001757 339.06277 609.51892
545.0 0.001835 339.01230 604.57697
574.0 0.001742 338.96167 597.63416
629.0 0.001590 338.91077 609.59180
680.0 0.001471 338.85974 658.68207
783.0 0.001277 338.80850 759.89557
944.0 0.001059 338.75705 938.78857
1215.0 0.000823 338.70532 1250.03577
1772.0 0.000564 338.65344 1750.84326
2507.0 0.000399 338.60147 2342.19019
3013.0 0.0003319 338.54919 2827.58813
2865.0 0.0003490 338.49673 2736.53174
2052.0 0.000487 338.44406 2045.27856
1309.0 0.000764 338.39124 1389.06287
956.0 0.001046 338.33813 1026.06128
839.0 0.001192 338.28485 939.88971
977.0 0.001024 338.23138 1061.03345
1260.0 0.000794 338.17776 1304.49622
1600.0 0.000625 338.12393 1558.97852
1704.0 0.000587 338.06989 1656.03052
1381.0 0.000724 338.01569 1391.65942
994.0 0.001006 337.96118 1004.88483
708.0 0.001412 337.90659 722.70349
548.0 0.001825 337.85172 567.26788
478.0 0.002092 337.79669 491.93292
422.0 0.002370 337.74146 453.91702
399.0 0.002506 337.68604 434.06448
404.0 0.002475 337.63049 419.40344
388.0 0.002577 337.57468 409.33276
387.0 0.002584 337.51862 402.55167
408.0 0.002451 337.46249 398.48132
383.0 0.002611 337.40613 397.16177
374.0 0.002674 337.34955 399.66772
409.0 0.002445 337.29279 409.09412
439.0 0.002278 337.23578 431.19489
472.0 0.002119 337.17868 475.73727
534.0 0.001873 337.12137 542.79004
630.0 0.001587 337.06384 612.39435
721.0 0.001387 337.00613 657.90839
609.0 0.001642 336.94818 624.18726
581.0 0.001721 336.89011 538.87695
462.0 0.002165 336.83185 471.31555
424.0 0.002358 336.77335 436.86258
429.0 0.002331 336.71469 432.66611
426.0 0.002347 336.65594 450.83829
504.0 0.001984 336.59686 482.36954
519.0 0.001927 336.53760 512.36609
527.0 0.001898 336.47824 518.21082
488.0 0.002049 336.41864 484.19641
447.0 0.002237 336.35895 443.16931
415.0 0.002410 336.29901 415.56558
395.0 0.002532 336.23883 398.90564
412.0 0.002427 336.17847 396.66974
419.0 0.002387 336.11798 401.76706
444.0 0.002252 336.05737 414.53323
430.0 0.002326 335.99646 436.19675
452.0 0.002212 335.93539 462.75156
466.0 0.002146 335.87418 487.20142
483.0 0.002070 335.81271 494.52466
475.0 0.002105 335.75110 478.97800
453.0 0.002208 335.68939 467.93561
488.0 0.002049 335.62741 472.02969
538.0 0.001859 335.56534 495.37558
572.0 0.001748 335.50296 545.53864
679.0 0.001473 335.44052 642.06921
842.0 0.001188 335.37787 820.03595
1127.0 0.000887 335.31494 1119.08105
1543.0 0.000648 335.25204 1516.65417
1960.0 0.000510 335.18872 1906.06995
2077.0 0.000481 335.12537 2099.19971
1877.0 0.000533 335.06186 1832.42114
1448.0 0.000691 334.99811 1378.65588
1155.0 0.000866 334.93423 1078.84924
1106.0 0.000904 334.87009 1019.79388
1285.0 0.000778 334.80591 1204.17883
1667.0 0.000600 334.74155 1610.50745
2136.0 0.000468 334.67694 2122.40601
2535.0 0.000394 334.61215 2547.58545
2640.0 0.000379 334.54718 2525.34058
2091.0 0.000478 334.48209 2018.02368
1546.0 0.000647 334.41681 1559.32922
1383.0 0.000723 334.35135 1402.54431
1485.0 0.000673 334.28571 1509.59448
1766.0 0.000566 334.21994 1739.67993
1956.0 0.000511 334.15399 1884.22473
1848.0 0.000541 334.08786 1801.94153
1613.0 0.000620 334.02158 1643.95557
1490.0 0.000671 333.95508 1435.53931
1349.0 0.000741 333.88846 1251.80420
1257.0 0.000796 333.82166 1172.50769
1080.0 0.000926 333.75470 1145.36340
1007.0 0.000993 333.68762 1110.86121
1063.0 0.000941 333.62024 1075.70715
953.0 0.001049 333.55283 969.64136
776.0 0.001289 333.48520 802.12378
642.0 0.001558 333.41739 676.53229
566.0 0.001767 333.34949 621.24921
587.0 0.001704 333.28131 611.30939
614.0 0.001629 333.21310 607.99878
575.0 0.001739 333.14465 571.65057
534.0 0.001873 333.07605 513.54303
422.0 0.002370 333.00720 468.52612
414.0 0.002415 332.93832 443.65369
457.0 0.002188 332.86923 438.25403
444.0 0.002252 332.80002 447.25912
471.0 0.002123 332.73065 477.66425
511.0 0.001957 332.66098 540.67792
576.0 0.001736 332.59137 640.82745
682.0 0.001466 332.52142 754.72784
804.0 0.001244 332.45135 836.01440
785.0 0.001274 332.38120 800.83313
658.0 0.001520 332.31088 672.33588
520.0 0.001923 332.24036 557.88855
477.0 0.002096 332.16971 494.98071
453.0 0.002208 332.09888 481.34390
507.0 0.001972 332.02798 507.79599
547.0 0.001828 331.95679 566.57349
597.0 0.001675 331.88559 643.77539
701.0 0.001427 331.81409 716.18433
744.0 0.001344 331.74252 739.75104
774.0 0.001292 331.67081 725.12689
760.0 0.001316 331.59897 688.55524
670.0 0.001493 331.52686 618.13647
558.0 0.001792 331.45465 537.77643
477.0 0.002096 331.38232 479.01566
447.0 0.002237 331.30988 453.21249
449.0 0.002227 331.23730 453.91916
474.0 0.002110 331.16443 475.28275
509.0 0.001965 331.09149 508.81308
597.0 0.001675 331.01849 546.43573
651.0 0.001536 330.94528 573.32776
653.0 0.001531 330.87189 597.51263
710.0 0.001408 330.79837 658.64856
821.0 0.001218 330.72467 799.10162
1075.0 0.000930 330.65091 1018.29846
1392.0 0.000718 330.57700 1244.67285
1575.0 0.000635 330.50284 1356.61658
1360.0 0.000735 330.42865 1210.11865
1060.0 0.000943 330.35425 953.17065
849.0 0.001178 330.27975 777.70514
778.0 0.001285 330.20514 737.55646
877.0 0.001140 330.13028 840.17682
1090.0 0.000917 330.05530 1092.57788
1425.0 0.000702 329.98029 1454.12463
1787.0 0.000560 329.90500 1798.15735
1905.0 0.000525 329.82962 1912.68579
1656.0 0.000604 329.75421 1616.54077
1273.0 0.000786 329.67853 1201.60535
938.0 0.001066 329.60272 925.65784
804.0 0.001244 329.52689 826.65997
887.0 0.001127 329.45087 850.10907
987.0 0.001013 329.37463 931.56317
1016.0 0.000984 329.29831 997.02246
962.0 0.001040 329.22189 1027.60205
928.0 0.001078 329.14532 987.21857
786.0 0.001272 329.06851 837.11938
681.0 0.001468 328.99170 681.49341
567.0 0.001764 328.91476 589.61853
553.0 0.001808 328.83762 562.44348
541.0 0.001848 328.76035 569.80780
597.0 0.001675 328.68301 575.33014
551.0 0.001815 328.60544 545.21307
503.0 0.001988 328.52786 490.48972
450.0 0.002222 328.45007 442.11728
416.0 0.002404 328.37213 411.45328
372.0 0.002688 328.29413 396.02737
369.0 0.002710 328.21600 390.52051
357.0 0.002801 328.13766 391.51617
382.0 0.002618 328.05927 396.40741
405.0 0.002469 327.98074 401.90936
374.0 0.002674 327.90210 404.07141
376.0 0.002660 327.82333 398.32605
397.0 0.002519 327.74438 392.03525
373.0 0.002681 327.66537 390.88300
368.0 0.002717 327.58627 393.59250
366.0 0.002732 327.50690 401.56247
420.0 0.002381 327.42755 415.50351
478.0 0.002092 327.34793 445.57339
545.0 0.001835 327.26834 502.31839
632.0 0.001582 327.18857 599.60248
735.0 0.001361 327.10870 732.01477
858.0 0.001166 327.02869 861.87103
947.0 0.001056 326.94855 924.06348
946.0 0.001057 326.86838 860.67627
868.0 0.001152 326.78796 774.76489
846.0 0.001182 326.70749 777.87115
913.0 0.001095 326.62692 910.00049
1112.0 0.000899 326.54614 1143.94092
1333.0 0.000750 326.46533 1388.92139
1468.0 0.000681 326.38437 1495.40869
1378.0 0.000726 326.30334 1352.91162
1146.0 0.000873 326.22217 1116.96155
936.0 0.001068 326.14090 904.27991
779.0 0.001284 326.05948 782.16779
790.0 0.001266 325.97797 776.21771
854.0 0.001171 325.89639 864.27667
1002.0 0.000998 325.81464 992.93323
1027.0 0.000974 325.73279 1074.27307
1015.0 0.000985 325.65076 1048.24768
909.0 0.001100 325.56873 906.40753
769.0 0.001300 325.48657 762.34509
700.0 0.001429 325.40433 696.08319
734.0 0.001362 325.32187 701.49902
757.0 0.001321 325.23938 735.67743
774.0 0.001292 325.15680 739.00592
684.0 0.001462 325.07413 697.44757
664.0 0.001506 324.99127 643.76019
648.0 0.001543 324.90829 609.03784
624.0 0.001603 324.82529 622.01172
725.0 0.001379 324.74219 700.64703
796.0 0.001256 324.65894 843.46088
933.0 0.001072 324.57562 1008.44183
1052.0 0.000951 324.49216 1124.02527
1069.0 0.000935 324.40860 1116.67957
1048.0 0.000954 324.32498 1077.17493
1057.0 0.000946 324.24127 1110.01855
1222.0 0.000818 324.15741 1184.11938
1148.0 0.000871 324.07343 1184.46558
1037.0 0.000964 323.98938 1047.66711
856.0 0.001168 323.90524 906.13507
772.0 0.001295 323.82104 834.00848
722.0 0.001385 323.73669 808.18616
747.0 0.001339 323.65222 776.25214
679.0 0.001473 323.56766 757.91302
764.0 0.001309 323.48303 790.23578
862.0 0.001160 323.39825 862.83160
940.0 0.001064 323.31351 935.42712
964.0 0.001037 323.22861 987.55621
1082.0 0.000924 323.14355 1080.63733
1212.0 0.000825 323.05850 1210.17139
1245.0 0.000803 322.97333 1275.82104
1115.0 0.000897 322.88800 1148.93384
946.0 0.001057 322.80261 914.25812
746.0 0.001340 322.71713 728.46710
632.0 0.001582 322.63165 642.81635
613.0 0.001631 322.54593 642.60889
670.0 0.001493 322.46021 699.41553
743.0 0.001346 322.37445 777.06421
786.0 0.001272 322.28854 836.26910
839.0 0.001192 322.20251 854.38605
779.0 0.001284 322.11642 784.38495
669.0 0.001495 322.03024 654.40326
570.0 0.001754 321.94397 544.63171
468.0 0.002137 321.85767 481.69537
432.0 0.002315 321.77121 458.57428
452.0 0.002212 321.68472 453.49637
426.0 0.002347 321.59811 446.33414
438.0 0.002283 321.51141 425.60480
423.0 0.002364 321.42465 402.57248
399.0 0.002506 321.33786 387.83917
369.0 0.002710 321.25101 384.21921
387.0 0.002584 321.16388 392.76703
420.0 0.002381 321.07684 414.39526
451.0 0.002217 320.98965 445.83817
490.0 0.002041 320.90244 478.77704
515.0 0.001942 320.81516 491.24020
489.0 0.002045 320.72775 471.83148
409.0 0.002445 320.64026 435.44095
421.0 0.002375 320.55267 402.39505
388.0 0.002577 320.46509 382.04352
379.0 0.002639 320.37741 375.41153
353.0 0.002833 320.28964 380.41043
373.0 0.002681 320.20184 393.51511
413.0 0.002421 320.11389 410.18887
408.0 0.002451 320.02585 420.13168
440.0 0.002273 319.93781 414.80246
386.0 0.002591 319.84964 399.60492
400.0 0.002500 319.76144 384.42068
372.0 0.002688 319.67310 375.19540
373.0 0.002681 319.58481 373.14777
362.0 0.002762 319.49637 376.45639
379.0 0.002639 319.40790 387.94101
410.0 0.002439 319.31934 411.07953
449.0 0.002227 319.23065 457.06754
549.0 0.001821 319.14200 542.94263
682.0 0.001466 319.05322 681.80756
855.0 0.001170 318.96439 849.95746
952.0 0.001050 318.87552 982.49841
966.0 0.001035 318.78650 981.04053
836.0 0.001196 318.69748 837.34259
694.0 0.001441 318.60843 687.68951
606.0 0.001650 318.51926 597.58777
617.0 0.001621 318.43002 564.93011
632.0 0.001582 318.34079 579.02991
667.0 0.001499 318.25150 643.14221
744.0 0.001344 318.16208 743.61566
780.0 0.001282 318.07263 831.30121
804.0 0.001244 317.98306 836.00769
738.0 0.001355 317.89349 735.76141
620.0 0.001613 317.80383 614.95520
545.0 0.001835 317.71417 533.86804
484.0 0.002066 317.62439 498.00201
487.0 0.002053 317.53458 499.77353
533.0 0.001876 317.44467 538.56122
589.0 0.001698 317.35480 619.53107
676.0 0.001479 317.26483 722.54297
745.0 0.001342 317.17484 799.10486
755.0 0.001325 317.08463 788.31140
690.0 0.001449 316.99454 681.73212
560.0 0.001786 316.90439 563.31415
459.0 0.002179 316.81418 483.63925
426.0 0.002347 316.72379 447.45737
434.0 0.002304 316.63348 444.66833
456.0 0.002193 316.54303 469.58743
473.0 0.002114 316.45261 517.74341
538.0 0.001859 316.36215 577.22443
571.0 0.001751 316.27155 626.14258
634.0 0.001577 316.18094 644.12213
640.0 0.001563 316.09030 649.61786
701.0 0.001427 315.99957 661.95270
661.0 0.001513 315.90884 668.76526
712.0 0.001404 315.81802 678.15247
740.0 0.001351 315.72717 711.20508
793.0 0.001261 315.63626 752.36786
829.0 0.001206 315.54544 765.06219
740.0 0.001351 315.45447 766.01862
790.0 0.001266 315.36346 815.27527
891.0 0.001122 315.27240 904.23645
977.0 0.001024 315.18124 966.53375
950.0 0.001053 315.09012 922.10248
872.0 0.001147 314.99893 805.67950
703.0 0.001422 314.90765 715.44012
693.0 0.001443 314.81647 679.92041
706.0 0.001416 314.72516 673.17206
625.0 0.001600 314.63382 665.55377
668.0 0.001497 314.54251 665.25208
710.0 0.001408 314.45102 682.25934
719.0 0.001391 314.35956 707.58032
766.0 0.001305 314.26804 717.05548
847.0 0.001181 314.17651 714.03815
886.0 0.001129 314.08496 761.00818
1033.0 0.000968 313.99338 897.43396
1215.0 0.000823 313.90173 1102.40613
1428.0 0.000700 313.81006 1296.46118
1518.0 0.000659 313.71832 1361.06262
1308.0 0.000765 313.62662 1276.69849
1132.0 0.000883 313.53485 1141.49890
983.0 0.001017 313.44305 971.14691
791.0 0.001264 313.35123 813.95752
737.0 0.001357 313.25940 737.31049
752.0 0.001330 313.16751 756.56738
863.0 0.001159 313.07553 848.22375
984.0 0.001016 312.98358 962.86029
1052.0 0.000951 312.89157 1040.54260
1058.0 0.000945 312.79953 1059.99487
1042.0 0.000960 312.70761 1079.21008
1039.0 0.000962 312.61557 1114.36621
1066.0 0.000938 312.52347 1122.36597
1005.0 0.000995 312.43137 1073.20386
911.0 0.001098 312.33914 983.31445
881.0 0.001135 312.24704 916.17206
832.0 0.001202 312.15485 890.31769
787.0 0.001271 312.06262 866.16907
766.0 0.001305 311.97034 808.17065
730.0 0.001370 311.87811 765.17749
733.0 0.001364 311.78586 789.78949
826.0 0.001211 311.69351 892.27448
954.0 0.001048 311.60123 1061.94458
1261.0 0.000793 311.50885 1279.25818
1548.0 0.000646 311.41653 1520.71033
1718.0 0.000582 311.32416 1721.14465
1752.0 0.000571 311.23178 1761.78943
1661.0 0.000602 311.13931 1653.59021
1454.0 0.000688 311.04688 1448.93286
1150.0 0.000870 310.95444 1164.59656
892.0 0.001121 310.86197 914.95502
724.0 0.001381 310.76947 780.24091
657.0 0.001522 310.67700 764.66364
809.0 0.001236 310.58441 835.64606
962.0 0.001040 310.49197 937.66895
974.0 0.001027 310.39948 998.34558
971.0 0.001030 310.30688 977.26605
911.0 0.001098 310.21432 910.99304
820.0 0.001220 310.12177 802.78253
694.0 0.001441 310.02914 667.26355
558.0 0.001792 309.93655 556.53528
459.0 0.002179 309.84396 491.35388
456.0 0.002193 309.75131 465.76300
501.0 0.001996 309.65866 473.61282
509.0 0.001965 309.56604 516.73474
564.0 0.001773 309.47339 593.02924
640.0 0.001563 309.38074 681.15857
732.0 0.001366 309.28806 735.15619
734.0 0.001362 309.19543 703.07190
618.0 0.001618 309.10272 609.59229
498.0 0.002008 309.01013 526.46991
485.0 0.002062 308.91742 485.30780
533.0 0.001876 308.82465 491.69681
546.0 0.001832 308.73196 549.55865
647.0 0.001546 308.63925 662.00226
811.0 0.001233 308.54666 810.34521
951.0 0.001052 308.45395 931.10803
952.0 0.001050 308.36127 933.57776
828.0 0.001208 308.26849 797.44574
703.0 0.001422 308.17581 635.91241
554.0 0.001805 308.08307 519.71814
462.0 0.002165 307.99039 459.47699
442.0 0.002262 307.89771 442.50528
420.0 0.002381 307.80496 458.04016
513.0 0.001949 307.71228 498.88864
567.0 0.001764 307.61963 546.84113
616.0 0.001623 307.52692 577.62885
619.0 0.001616 307.43420 563.32629
539.0 0.001855 307.34143 527.35504
523.0 0.001912 307.24884 517.41797
541.0 0.001848 307.15616 550.28882
597.0 0.001675 307.06351 608.15894
651.0 0.001536 306.97083 648.58118
597.0 0.001675 306.87817 622.54791
530.0 0.001887 306.78546 540.64081
472.0 0.002119 306.69284 462.60529
422.0 0.002370 306.60025 412.08078
398.0 0.002513 306.50763 389.01898
380.0 0.002632 306.41498 387.06702
389.0 0.002571 306.32242 403.90076
434.0 0.002304 306.22980 435.03671
451.0 0.002217 306.13715 468.58301
488.0 0.002049 306.04459 483.48813
466.0 0.002146 305.95200 461.74554
402.0 0.002488 305.85956 419.67416
388.0 0.002577 305.76694 383.80823
355.0 0.002817 305.67441 361.37137
342.0 0.002924 305.58188 349.90924
340.0 0.002941 305.48938 344.33054
326.0 0.003067 305.39694 342.94232
322.0 0.003106 305.30444 343.57559
349.0 0.002865 305.21204 345.80838
357.0 0.002801 305.11957 349.94351
375.0 0.002667 305.02716 355.99084
358.0 0.002793 304.93478 365.20749
356.0 0.002809 304.84241 379.99124
407.0 0.002457 304.75003 405.69193
470.0 0.002128 304.65768 451.92957
566.0 0.001767 304.56534 536.12219
738.0 0.001355 304.47308 672.91302
802.0 0.001247 304.38077 857.64520
1024.0 0.000977 304.28848 1045.04358
1103.0 0.000907 304.19626 1157.48352
1106.0 0.000904 304.10400 1135.65125
987.0 0.001013 304.01187 1006.04578
794.0 0.001259 303.91968 828.67529
616.0 0.001623 303.82755 668.45038
535.0 0.001869 303.73532 571.63861
500.0 0.002000 303.64325 545.16284
567.0 0.001764 303.55121 578.19684
638.0 0.001567 303.45914 651.82349
701.0 0.001427 303.36716 727.73663
705.0 0.001418 303.27512 763.52197
706.0 0.001416 303.18311 734.44147
649.0 0.001541 303.09122 658.21454
546.0 0.001832 302.99927 562.56152
452.0 0.002212 302.90738 478.65756
421.0 0.002375 302.81549 422.04196
354.0 0.002825 302.72363 390.23441
376.0 0.002660 302.63184 375.61316
379.0 0.002639 302.54016 370.72437
402.0 0.002488 302.44833 374.66855
410.0 0.002439 302.35666 389.72220
441.0 0.002268 302.26498 422.55118
471.0 0.002123 302.17337 476.41983
529.0 0.001890 302.08179 542.05890
605.0 0.001653 301.99011 590.27020
578.0 0.001730 301.89859 582.48438
523.0 0.001912 301.80707 520.97339
494.0 0.002024 301.71564 455.18112
443.0 0.002257 301.62421 411.32437
411.0 0.002433 301.53281 390.60626
393.0 0.002545 301.44144 389.90259
394.0 0.002538 301.35007 401.52969
429.0 0.002331 301.25876 426.09851
465.0 0.002151 301.16754 457.53366
475.0 0.002105 301.07632 480.29248
458.0 0.002183 300.98514 475.51483
442.0 0.002262 300.89398 447.38583
436.0 0.002294 300.80292 420.43591
423.0 0.002364 300.71182 406.45480
407.0 0.002457 300.62079 405.88019
448.0 0.002232 300.52985 419.04700
479.0 0.002088 300.43890 445.99695
540.0 0.001852 300.34805 500.75125
647.0 0.001546 300.25717 603.12738
820.0 0.001220 300.16632 769.39417
939.0 0.001065 300.07550 986.09534
1116.0 0.000896 299.98480 1183.83862
1194.0 0.000838 299.89413 1260.04712
1174.0 0.000852 299.80353 1201.50562
1116.0 0.000896 299.71289 1158.13782
1161.0 0.000861 299.62234 1209.77112
1271.0 0.000787 299.53180 1299.95850
1311.0 0.000763 299.44144 1306.86755
1191.0 0.000840 299.35101 1187.46045
1029.0 0.000972 299.26062 1067.03052
1078.0 0.000928 299.17032 1020.05750
948.0 0.001055 299.08005 1014.62860
989.0 0.001011 298.98981 972.57306
803.0 0.001245 298.89966 890.64136
749.0 0.001335 298.80951 839.05408
765.0 0.001307 298.71948 851.76263
864.0 0.001157 298.62943 894.26532
914.0 0.001094 298.53949 897.33618
775.0 0.001290 298.44958 825.34253
704.0 0.001420 298.35968 726.67584
676.0 0.001479 298.26990 644.57922
579.0 0.001727 298.18015 597.12109
595.0 0.001681 298.09042 584.62225
608.0 0.001645 298.00079 627.49719
672.0 0.001488 297.91122 755.55536
844.0 0.001185 297.82166 997.28174
1132.0 0.000883 297.73209 1338.60657
1391.0 0.000719 297.64270 1641.82581
1511.0 0.000662 297.55341 1647.34778
1466.0 0.000682 297.46408 1348.40820
1133.0 0.000883 297.37473 1007.95789
851.0 0.001175 297.28555 767.08533
713.0 0.001403 297.19635 642.65448
618.0 0.001618 297.10733 613.56122
646.0 0.001548 297.01822 665.02704
757.0 0.001321 296.92929 794.01221
876.0 0.001142 296.84033 981.03564
978.0 0.001022 296.75153 1140.53149
1083.0 0.000923 296.66272 1135.87830
1009.0 0.000991 296.57404 971.47589
862.0 0.001160 296.48532 790.88501
758.0 0.001319 296.39667 677.05042
676.0 0.001479 296.30820 648.29297
684.0 0.001462 296.21970 698.80048
761.0 0.001314 296.13123 818.85205
884.0 0.001131 296.04288 966.22595
1027.0 0.000974 295.95456 1048.64478
1116.0 0.000896 295.86636 1023.69580
1131.0 0.000884 295.77817 984.44727
1194.0 0.000838 295.69009 1058.78503
1408.0 0.000710 295.60205 1347.49756
1708.0 0.000585 295.51401 1902.90759
2178.0 0.000459 295.42615 2651.70288
2724.0 0.000367 295.33832 3218.99609
3094.0 0.0003232 295.25049 3095.29590
2840.0 0.000352 295.16275 2471.73071
2145.0 0.000466 295.07513 1821.22437
1563.0 0.000640 294.98755 1324.35486
1168.0 0.000856 294.90005 1023.05194
991.0 0.001009 294.81259 906.76837
1002.0 0.000998 294.72522 956.46643
1035.0 0.000966 294.63794 1161.55957
1217.0 0.000822 294.55075 1483.55676
1420.0 0.000704 294.46359 1758.79150
1631.0 0.000613 294.37650 1714.41321
1542.0 0.000649 294.28946 1379.93481
1277.0 0.000783 294.20248 1017.73364
901.0 0.001110 294.11566 748.88757
682.0 0.001466 294.02884 584.84491
524.0 0.001908 293.94214 497.51901
445.0 0.002247 293.85544 450.37625
421.0 0.002375 293.76886 421.60931
438.0 0.002283 293.68234 402.23212
360.0 0.002778 293.59592 388.48862
386.0 0.002591 293.50958 378.61209
335.0 0.002985 293.42331 371.59079
386.0 0.002591 293.33707 367.76053
380.0 0.002632 293.25095 364.34305
397.0 0.002519 293.16489 361.97089
411.0 0.002433 293.07886 362.82462
382.0 0.002618 292.99298 366.77637
401.0 0.002494 292.90717 376.22830
397.0 0.002519 292.82141 395.28857
427.0 0.002342 292.73581 428.69812
526.0 0.001901 292.65012 477.48059
590.0 0.001695 292.56467 530.60828
661.0 0.001513 292.47925 560.44122
684.0 0.001462 292.39383 566.39789
669.0 0.001495 292.30856 591.73901
650.0 0.001538 292.22333 660.56738
744.0 0.001344 292.13824 753.49426
830.0 0.001205 292.05316 799.73718
818.0 0.001222 291.96826 764.59631
762.0 0.001312 291.88342 710.71759
703.0 0.001422 291.79861 676.20660
687.0 0.001456 291.71387 647.75220
675.0 0.001481 291.62921 620.00085
666.0 0.001502 291.54471 594.88141
698.0 0.001433 291.46030 604.71936
710.0 0.001408 291.37592 673.77661
754.0 0.001326 291.29160 797.87573
850.0 0.001176 291.20737 924.23608
922.0 0.001085 291.12326 961.95251
996.0 0.001004 291.03928 905.71649
945.0 0.001058 290.95529 857.57257
877.0 0.001140 290.87140 893.18243
1019.0 0.000981 290.78766 1044.24683
1134.0 0.000882 290.70404 1279.21619
1306.0 0.000766 290.62036 1456.56653
1356.0 0.000737 290.53687 1388.10730
1209.0 0.000827 290.45343 1151.49048
1006.0 0.000994 290.37006 933.53326
820.0 0.001220 290.28683 784.62982
739.0 0.001353 290.20370 676.24316
685.0 0.001460 290.12061 605.26617
609.0 0.001642 290.03760 590.98535
625.0 0.001600 289.95477 640.96796
655.0 0.001527 289.87192 745.94373
752.0 0.001330 289.78925 852.57062
838.0 0.001193 289.70660 856.84546
820.0 0.001220 289.62411 740.43658
647.0 0.001546 289.54166 600.26727
551.0 0.001815 289.45932 496.18094
480.0 0.002083 289.37708 430.48471
407.0 0.002457 289.29486 391.44495
393.0 0.002545 289.21286 367.55252
362.0 0.002762 289.13077 352.57883
337.0 0.002967 289.04892 343.07751
315.0 0.003175 288.96719 337.33536
399.0 0.002506 288.88544 334.88028
334.0 0.002994 288.80383 336.19058
358.0 0.002793 288.72229 341.97409
368.0 0.002717 288.64096 352.66125
417.0 0.002398 288.55963 361.83417
361.0 0.002770 288.47836 363.58167
373.0 0.002681 288.39728 356.92200
359.0 0.002786 288.31625 351.05502
356.0 0.002809 288.23529 350.41983
376.0 0.002660 288.15445 353.05963
381.0 0.002625 288.07373 352.33545
380.0 0.002632 287.99304 345.33047
382.0 0.002618 287.91260 338.87595
357.0 0.002801 287.83209 336.66953
367.0 0.002725 287.75177 338.03723
382.0 0.002618 287.67148 339.59714
361.0 0.002770 287.59137 339.25290
371.0 0.002695 287.51132 338.49289
388.0 0.002577 287.43137 340.61008
395.0 0.002532 287.35153 345.92407
391.0 0.002558 287.27182 352.48074
360.0 0.002778 287.19214 356.68954
385.0 0.002597 287.11255 364.31067
397.0 0.002519 287.03314 377.33618
409.0 0.002445 286.95380 400.82007
458.0 0.002183 286.87454 442.75464
513.0 0.001949 286.79535 514.83618
577.0 0.001733 286.71625 617.64874
651.0 0.001536 286.63736 722.15594
718.0 0.001393 286.55859 759.47168
733.0 0.001364 286.47974 713.69446
704.0 0.001420 286.40121 664.99786
676.0 0.001479 286.32266 685.64490
735.0 0.001361 286.24423 804.82916
950.0 0.001053 286.16592 1014.80505
1112.0 0.000899 286.08771 1238.11877
1251.0 0.000799 286.00958 1307.89746
1210.0 0.000826 285.93158 1173.15442
1006.0 0.000994 285.85367 986.50702
840.0 0.001190 285.77597 834.95776
710.0 0.001408 285.69818 712.28149
614.0 0.001629 285.62067 618.21576
599.0 0.001669 285.54309 574.31146
581.0 0.001721 285.46585 589.55511
599.0 0.001669 285.38858 664.23975
710.0 0.001408 285.31137 780.64545
844.0 0.001185 285.23431 882.95154
899.0 0.001112 285.15738 890.96381
909.0 0.001100 285.08054 841.04749
812.0 0.001232 285.00388 801.99872
838.0 0.001193 284.92728 784.83844
821.0 0.001218 284.85071 794.53583
870.0 0.001149 284.77435 819.28131
853.0 0.001172 284.69806 803.24768
746.0 0.001340 284.62189 717.71802
664.0 0.001506 284.54584 615.81238
613.0 0.001631 284.46988 545.40930
564.0 0.001773 284.39404 515.79688
514.0 0.001946 284.31833 525.79077
580.0 0.001724 284.24268 570.14563
637.0 0.001570 284.16714 644.53784
719.0 0.001391 284.09171 757.08508
858.0 0.001166 284.01639 933.79590
1144.0 0.000874 283.94128 1165.51501
1402.0 0.000713 283.86627 1374.26123
1519.0 0.000658 283.79123 1438.49451
1442.0 0.000693 283.71640 1326.41565
1216.0 0.000822 283.64166 1108.64050
929.0 0.001076 283.56705 888.40558
788.0 0.001269 283.49255 734.17798
657.0 0.001522 283.41818 648.59283
649.0 0.001541 283.34390 611.28906
628.0 0.001592 283.26965 620.54962
645.0 0.001550 283.19568 682.19421
752.0 0.001330 283.12180 784.79358
884.0 0.001131 283.04794 885.36859
966.0 0.001035 282.97421 919.50317
937.0 0.001067 282.90057 888.75842
888.0 0.001126 282.82709 840.74500
853.0 0.001172 282.75375 846.85089
913.0 0.001095 282.68048 954.67340
1044.0 0.000958 282.60733 1167.04688
1245.0 0.000803 282.53430 1425.34509
1389.0 0.000720 282.46146 1575.40588
1403.0 0.000713 282.38861 1510.47534
1355.0 0.000738 282.31598 1395.07483
1343.0 0.000745 282.24344 1428.33801
1461.0 0.000684 282.17099 1676.83118
1805.0 0.000554 282.09875 2064.09595
2216.0 0.000451 282.02649 2314.05005
2308.0 0.000433 281.95444 2163.41504
1962.0 0.000510 281.88245 1797.32678
1534.0 0.000652 281.81061 1500.03723
1295.0 0.000772 281.73886 1335.18884
1174.0 0.000852 281.66727 1213.14697
1082.0 0.000924 281.59583 1075.62280
999.0 0.001001 281.52438 989.54065
996.0 0.001004 281.45319 1016.13605
1108.0 0.000903 281.38205 1165.59753
1323.0 0.000756 281.31104 1380.66394
1497.0 0.000668 281.24014 1515.51941
1543.0 0.000648 281.16937 1492.52295
1504.0 0.000665 281.09869 1423.36755
1380.0 0.000725 281.02817 1347.70520
1312.0 0.000762 280.95779 1184.07959
1155.0 0.000866 280.88745 952.27008
894.0 0.001119 280.81726 750.42200
708.0 0.001412 280.74725 618.25391
641.0 0.001560 280.67740 552.71692
576.0 0.001736 280.60754 539.84833
629.0 0.001590 280.53781 566.02173
655.0 0.001527 280.46829 616.57709
722.0 0.001385 280.39880 690.20740
762.0 0.001312 280.32950 782.90680
864.0 0.001157 280.26031 850.21930
925.0 0.001081 280.19119 821.30597
854.0 0.001171 280.12228 708.59656
676.0 0.001479 280.05341 583.00861
509.0 0.001965 279.98471 489.84494
463.0 0.002160 279.91617 436.07059
461.0 0.002169 279.84769 412.76398
441.0 0.002268 279.77939 406.31583
406.0 0.002463 279.71112 403.22144
399.0 0.002506 279.64304 401.66550
451.0 0.002217 279.57507 403.30170
459.0 0.002179 279.50720 411.36166
429.0 0.002331 279.43951 410.29099
400.0 0.002500 279.37186 392.09686
423.0 0.002364 279.30444 367.88474
372.0 0.002688 279.23712 343.93549
369.0 0.002710 279.16989 331.26053
370.0 0.002703 279.10275 324.52957
341.0 0.002933 279.03583 321.85852
348.0 0.002874 278.96899 321.96646
345.0 0.002899 278.90222 323.57776
341.0 0.002933 278.83569 330.32126
377.0 0.002653 278.76917 344.75809
404.0 0.002475 278.70279 368.50723
454.0 0.002203 278.63666 403.97961
480.0 0.002083 278.57056 445.25226
535.0 0.001869 278.50461 469.41794
510.0 0.001961 278.43875 459.55872
468.0 0.002137 278.37305 427.87210
436.0 0.002294 278.30737 399.55911
420.0 0.002381 278.24197 385.17465
410.0 0.002439 278.17670 385.90695
437.0 0.002288 278.11142 407.24847
505.0 0.001980 278.04636 455.60461
576.0 0.001736 277.98141 542.62689
708.0 0.001412 277.91663 680.48041
852.0 0.001174 277.85190 863.57550
999.0 0.001001 277.78735 1042.22290
1176.0 0.000850 277.72284 1157.34778
1270.0 0.000787 277.65860 1202.73376
1251.0 0.000799 277.59445 1135.27637
1107.0 0.000903 277.53033 952.01263
893.0 0.001120 277.46637 752.75885
700.0 0.001429 277.40256 608.15198
588.0 0.001701 277.33890 533.41248
543.0 0.001842 277.27536 522.35840
574.0 0.001742 277.21194 565.28833
647.0 0.001546 277.14868 648.45715
705.0 0.001418 277.08548 740.86523
824.0 0.001214 277.02255 802.99103
924.0 0.001082 276.95959 815.82489
828.0 0.001208 276.89685 760.57227
761.0 0.001314 276.83420 648.83417
640.0 0.001563 276.77167 534.56476
503.0 0.001988 276.70929 449.84360
487.0 0.002053 276.64706 398.45389
386.0 0.002591 276.58487 372.83759
432.0 0.002315 276.52292 365.09442
368.0 0.002717 276.46103 366.36630
413.0 0.002421 276.39932 370.54846
389.0 0.002571 276.33768 370.10583
405.0 0.002469 276.27621 360.53259
384.0 0.002604 276.21487 347.00861
378.0 0.002646 276.15375 335.91605
335.0 0.002985 276.09262 329.34622
363.0 0.002755 276.03165 327.10971
328.0 0.003049 275.97086 328.04742
334.0 0.002994 275.91013 332.40503
376.0 0.002660 275.84961 340.30188
376.0 0.002660 275.78918 351.91943
408.0 0.002451 275.72888 370.81943
441.0 0.002268 275.66873 405.46967
498.0 0.002008 275.60867 470.58966
597.0 0.001675 275.54877 582.41205
728.0 0.001374 275.48901 745.75684
829.0 0.001206 275.42935 929.08228
893.0 0.001120 275.36987 1032.23584
894.0 0.001119 275.31046 963.76721
809.0 0.001236 275.25122 797.63440
650.0 0.001538 275.19214 645.62830
516.0 0.001938 275.13315 551.92590
543.0 0.001842 275.07428 512.72583
540.0 0.001852 275.01559 503.45511
545.0 0.001835 274.95697 505.53864
562.0 0.001779 274.89859 523.86737
574.0 0.001742 274.84024 572.13226
584.0 0.001712 274.78204 641.07178
637.0 0.001570 274.72397 683.51935
657.0 0.001522 274.66599 647.73969
592.0 0.001689 274.60828 560.81244
488.0 0.002049 274.55066 478.62000
441.0 0.002268 274.49307 424.19763
426.0 0.002347 274.43567 396.66913
402.0 0.002488 274.37845 382.75528
383.0 0.002611 274.32126 368.03580
409.0 0.002445 274.26431 350.43399
394.0 0.002538 274.20746 334.85791
369.0 0.002710 274.15070 323.82608
357.0 0.002801 274.09409 317.19968
336.0 0.002976 274.03760 313.89539
312.0 0.003205 273.98129 311.91153
331.0 0.003021 273.92508 312.65097
328.0 0.003049 273.86902 314.95322
336.0 0.002976 273.81308 319.06641
334.0 0.002994 273.75729 326.39951
343.0 0.002915 273.70166 337.56851
355.0 0.002817 273.64612 356.82886
388.0 0.002577 273.59067 391.12451
449.0 0.002227 273.53540 450.92493
519.0 0.001927 273.48026 546.14941
635.0 0.001575 273.42526 678.36023
750.0 0.001333 273.37042 825.67865
879.0 0.001138 273.31558 911.98547
873.0 0.001145 273.26108 857.59021
766.0 0.001305 273.20663 712.85431
595.0 0.001681 273.15231 571.14508
497.0 0.002012 273.09805 471.24893
428.0 0.002336 273.04395 415.46738
424.0 0.002358 272.99002 395.04370
438.0 0.002283 272.93622 402.28329
436.0 0.002294 272.88257 434.17688
477.0 0.002096 272.82901 488.60437
553.0 0.001808 272.77563 556.54889
594.0 0.001684 272.72229 606.09753
587.0 0.001704 272.66919 591.51636
570.0 0.001754 272.61618 522.56122
466.0 0.002146 272.56332 446.97906
413.0 0.002421 272.51062 389.52893
386.0 0.002591 272.45795 353.75974
368.0 0.002717 272.40555 333.83087
346.0 0.002890 272.35321 325.63571
348.0 0.002874 272.30096 323.82117
363.0 0.002755 272.24893 325.99789
367.0 0.002725 272.19693 330.82117
330.0 0.003030 272.14520 339.30737
363.0 0.002755 272.09351 355.27747
433.0 0.002309 272.04196 382.88193
467.0 0.002141 271.99063 420.08072
501.0 0.001996 271.93933 452.27451
518.0 0.001931 271.88818 454.87088
482.0 0.002075 271.83719 425.90430
416.0 0.002404 271.78629 392.01682
407.0 0.002457 271.73557 369.73166
414.0 0.002415 271.68494 364.73746
425.0 0.002353 271.63449 377.33426
425.0 0.002353 271.58417 405.73398
423.0 0.002364 271.53400 444.63770
459.0 0.002179 271.48392 483.24493
519.0 0.001927 271.43399 504.50723
507.0 0.001972 271.38419 497.97485
478.0 0.002092 271.33453 470.48880
460.0 0.002174 271.28506 432.33481
428.0 0.002336 271.23560 401.56754
409.0 0.002445 271.18634 385.00912
397.0 0.002519 271.13721 390.15399
445.0 0.002247 271.08820 422.10159
498.0 0.002008 271.03937 486.31210
550.0 0.001818 270.99057 581.60400
604.0 0.001656 270.94205 686.90216
697.0 0.001435 270.89352 746.11530
717.0 0.001395 270.84521 706.03247
641.0 0.001560 270.79697 602.39764
503.0 0.001988 270.74896 500.32596
436.0 0.002294 270.70102 428.10172
402.0 0.002488 270.65320 386.44797
392.0 0.002551 270.60553 369.63370
396.0 0.002525 270.55801 372.56494
407.0 0.002457 270.51065 394.01550
445.0 0.002247 270.46332 434.12003
494.0 0.002024 270.41623 487.64230
482.0 0.002075 270.36920 533.62396
511.0 0.001957 270.32230 537.95203
517.0 0.001934 270.27560 499.01376
458.0 0.002183 270.22894 449.46915
453.0 0.002208 270.18256 412.87280
424.0 0.002358 270.13620 398.50201
414.0 0.002415 270.08997 407.10568
407.0 0.002457 270.04388 434.11386
429.0 0.002331 269.99792 467.62689
503.0 0.001988 269.95215 488.30768
486.0 0.002058 269.90643 484.61618
463.0 0.002160 269.86087 463.41968
484.0 0.002066 269.81549 440.43024
450.0 0.002222 269.77026 428.20963
453.0 0.002208 269.72504 435.62021
501.0 0.001996 269.68008 469.57562
555.0 0.001802 269.63516 533.83905
629.0 0.001590 269.59042 622.07983
734.0 0.001362 269.54581 705.01672
778.0 0.001285 269.50131 741.84790
765.0 0.001307 269.45697 737.79980
754.0 0.001326 269.41275 724.58807
697.0 0.001435 269.36865 704.08618
674.0 0.001484 269.32471 657.53979
624.0 0.001603 269.28088 595.74487
570.0 0.001754 269.23718 551.43945
549.0 0.001821 269.19357 541.70996
600.0 0.001667 269.15015 566.80878
650.0 0.001538 269.10681 614.22589
707.0 0.001414 269.06369 663.16797
751.0 0.001332 269.02060 703.59467
808.0 0.001238 268.97772 752.06647
897.0 0.001115 268.93491 856.26422
1086.0 0.000921 268.89227 1057.97900
1342.0 0.000745 268.84976 1358.57300
1579.0 0.000633 268.80734 1699.76978
1805.0 0.000554 268.76511 1930.34485
1913.0 0.000523 268.72296 1874.91687
1689.0 0.000592 268.68097 1571.90234
1278.0 0.000782 268.63910 1217.88330
936.0 0.001068 268.59738 936.88959
764.0 0.001309 268.55576 757.77490
669.0 0.001495 268.51431 676.50513
673.0 0.001486 268.47299 683.62354
774.0 0.001292 268.43176 782.15424
977.0 0.001024 268.39066 981.96338
1207.0 0.000829 268.34961 1273.79529
1477.0 0.000677 268.30881 1581.62146
1729.0 0.000578 268.26813 1727.94666
1662.0 0.000602 268.22754 1584.48438
1360.0 0.000735 268.18713 1266.59265
1012.0 0.000988 268.14682 955.26062
749.0 0.001335 268.10660 728.40833
617.0 0.001621 268.06653 592.19604
554.0 0.001805 268.02667 527.44952
514.0 0.001946 267.98688 514.32843
530.0 0.001887 267.94720 543.77972
596.0 0.001678 267.90759 612.41217
702.0 0.001425 267.86826 712.86145
751.0 0.001332 267.82898 818.25696
841.0 0.001189 267.78979 885.04987
860.0 0.001163 267.75076 893.90045
857.0 0.001167 267.71188 852.06940
762.0 0.001312 267.67310 756.07202
692.0 0.001445 267.63452 633.94226
532.0 0.001880 267.59601 529.13416
446.0 0.002242 267.55762 457.56012
452.0 0.002212 267.51932 417.59286
388.0 0.002577 267.48117 402.90649
390.0 0.002564 267.44318 404.30365
411.0 0.002433 267.40530 416.65152
437.0 0.002288 267.36755 435.97235
461.0 0.002169 267.32993 463.47244
458.0 0.002183 267.29242 492.41010
529.0 0.001890 267.25507 502.82553
516.0 0.001938 267.21777 484.58316
470.0 0.002128 267.18069 458.02850
464.0 0.002155 267.14371 448.63409
458.0 0.002183 267.10684 469.34674
458.0 0.002183 267.07013 523.50012
533.0 0.001876 267.03354 600.92651
604.0 0.001656 266.99701 668.55847
632.0 0.001582 266.96063 675.45313
563.0 0.001776 266.92438 610.51892
496.0 0.002016 266.88834 521.68854
447.0 0.002237 266.85233 447.15906
394.0 0.002538 266.81647 397.96478
372.0 0.002688 266.78070 372.10583
376.0 0.002660 266.74512 364.98660
404.0 0.002475 266.70966 371.26004
413.0 0.002421 266.67426 395.86923
425.0 0.002353 266.63904 435.98743
484.0 0.002066 266.60391 485.88818
499.0 0.002004 266.56888 526.81915
509.0 0.001965 266.53400 534.04327
529.0 0.001890 266.49933 506.90338
507.0 0.001972 266.46469 467.63245
485.0 0.002062 266.43021 435.10873
446.0 0.002242 266.39587 417.48087
442.0 0.002262 266.36166 418.67157
460.0 0.002174 266.32751 442.73306
525.0 0.001905 266.29346 494.23172
577.0 0.001733 266.25967 577.31140
681.0 0.001468 266.22583 678.21259
745.0 0.001342 266.19223 754.12634
772.0 0.001295 266.15872 752.29211
775.0 0.001290 266.12537 682.39594
648.0 0.001543 266.09207 601.89807
556.0 0.001799 266.05893 549.48779
564.0 0.001773 266.02594 539.14191
593.0 0.001686 265.99298 567.68762
649.0 0.001541 265.96027 617.21814
677.0 0.001477 265.92755 653.01050
617.0 0.001621 265.89502 654.93927
660.0 0.001515 265.86258 647.86011
644.0 0.001553 265.83032 656.04144
666.0 0.001502 265.79813 671.19061
665.0 0.001504 265.76605 677.15662
695.0 0.001439 265.73410 686.83521
659.0 0.001517 265.70242 724.34045
763.0 0.001311 265.67075 791.10858
876.0 0.001142 265.63907 880.21606
926.0 0.001080 265.60770 979.93201
1056.0 0.000947 265.57632 1041.84131
1001.0 0.000999 265.54507 1002.19183
869.0 0.001151 265.51401 862.70563
692.0 0.001445 265.48303 700.97119
572.0 0.001748 265.45218 573.66986
511.0 0.001957 265.42145 496.29251
444.0 0.002252 265.39075 463.60880
456.0 0.002193 265.36029 465.28912
463.0 0.002160 265.32999 490.10309
526.0 0.001901 265.29968 525.47095
557.0 0.001795 265.26950 564.57843
608.0 0.001645 265.23956 601.26477
574.0 0.001742 265.20966 614.65948
587.0 0.001704 265.17987 585.33734
524.0 0.001908 265.15015 521.41016
421.0 0.002375 265.12054 454.96368
412.0 0.002427 265.09113 404.78989
372.0 0.002688 265.06183 374.68860
366.0 0.002732 265.03265 362.23834
355.0 0.002817 265.00354 364.75012
379.0 0.002639 264.97455 381.21329
412.0 0.002427 264.94568 410.01361
439.0 0.002278 264.91696 445.91296
480.0 0.002083 264.88834 477.38956
491.0 0.002037 264.85980 493.74332
492.0 0.002033 264.83136 487.13174
478.0 0.002092 264.80313 465.76886
452.0 0.002212 264.77496 452.10291
484.0 0.002066 264.74692 462.52783
535.0 0.001869 264.71896 506.58405
545.0 0.001835 264.69119 582.14337
609.0 0.001642 264.66339 667.92377
691.0 0.001447 264.63583 716.68762
682.0 0.001466 264.60837 697.57684
622.0 0.001608 264.58099 644.48718
592.0 0.001689 264.55371 592.56482
556.0 0.001799 264.52655 546.46228
501.0 0.001996 264.49954 497.91071
468.0 0.002137 264.47260 451.65326
442.0 0.002262 264.44580 419.62408
393.0 0.002545 264.41907 409.12708
377.0 0.002653 264.39255 421.82761
405.0 0.002469 264.36609 454.50299
474.0 0.002110 264.33969 494.05719
487.0 0.002053 264.31345 513.74609
491.0 0.002037 264.28729 494.79749
451.0 0.002217 264.26126 454.18253
403.0 0.002481 264.23532 414.53098
365.0 0.002740 264.20953 382.92554
358.0 0.002793 264.18390 357.44492
356.0 0.002809 264.15833 338.60486
301.0 0.003322 264.13287 326.52594
330.0 0.003030 264.10745 319.54422
293.0 0.003413 264.08221 318.96964
303.0 0.003300 264.05707 324.01810
316.0 0.003165 264.03204 336.04565
345.0 0.002899 264.00711 357.25351
323.0 0.003096 263.98227 389.55640
405.0 0.002469 263.95758 433.40128
452.0 0.002212 263.93298 483.19296
529.0 0.001890 263.90848 517.96814
510.0 0.001961 263.88416 513.72693
453.0 0.002208 263.85977 478.13287
409.0 0.002445 263.83569 439.63638
426.0 0.002347 263.81158 416.47693
393.0 0.002545 263.78766 416.79715
404.0 0.002475 263.76379 439.08163
461.0 0.002169 263.74008 473.86038
491.0 0.002037 263.71643 501.28522
442.0 0.002262 263.69287 506.18277
416.0 0.002404 263.66946 499.99643
432.0 0.002315 263.64615 499.62640
450.0 0.002222 263.62299 507.12302
488.0 0.002049 263.59988 515.26385
488.0 0.002049 263.57684 523.09821
502.0 0.001992 263.55396 535.61688
521.0 0.001919 263.53119 544.56012
499.0 0.002004 263.50854 544.95062
487.0 0.002053 263.48593 551.56049
538.0 0.001859 263.46344 581.07904
600.0 0.001667 263.44107 632.74323
652.0 0.001534 263.41879 686.19562
643.0 0.001555 263.39661 707.95081
612.0 0.001634 263.37457 669.11566
515.0 0.001942 263.35260 590.67065
463.0 0.002160 263.33075 517.90717
445.0 0.002247 263.30896 471.23666
418.0 0.002392 263.28732 450.28436
412.0 0.002427 263.26575 443.53687
418.0 0.002392 263.24429 440.72791
410.0 0.002439 263.22296 446.16202
434.0 0.002304 263.20169 472.27307
475.0 0.002105 263.18057 528.15558
568.0 0.001761 263.15955 610.95374
636.0 0.001572 263.13861 695.45892
674.0 0.001484 263.11774 733.73700
662.0 0.001511 263.09705 694.32312
588.0 0.001701 263.07632 602.17255
491.0 0.002037 263.05579 505.39511
398.0 0.002513 263.03534 430.56131
337.0 0.002967 263.01498 382.01288
309.0 0.003236 262.99475 355.47162
323.0 0.003096 262.97458 345.13223
327.0 0.003058 262.95462 347.31152
346.0 0.002890 262.93460 360.98422
383.0 0.002611 262.91476 385.87253
421.0 0.002375 262.89499 418.93393
439.0 0.002278 262.87531 450.24249
444.0 0.002252 262.85577 464.56934
458.0 0.002183 262.83633 460.22388
433.0 0.002309 262.81693 454.50610
462.0 0.002165 262.79764 459.03497
476.0 0.002101 262.77847 468.95084
509.0 0.001965 262.75940 472.13513
434.0 0.002304 262.74039 469.24878
456.0 0.002193 262.72156 467.18832
433.0 0.002309 262.70276 461.16928
386.0 0.002591 262.68402 440.85269
390.0 0.002564 262.66547 409.31851
328.0 0.003049 262.64697 380.28976
355.0 0.002817 262.62857 362.08539
336.0 0.002976 262.61020 358.28500
357.0 0.002801 262.59201 369.77579
417.0 0.002398 262.57382 397.26343
439.0 0.002278 262.55579 439.86029
501.0 0.001996 262.53784 493.69846
513.0 0.001949 262.52002 554.89240
576.0 0.001736 262.50229 613.15472
580.0 0.001724 262.48459 637.47064
564.0 0.001773 262.46701 603.53821
486.0 0.002058 262.44952 534.36853
445.0 0.002247 262.43213 465.38779
393.0 0.002545 262.41483 411.21378
362.0 0.002762 262.39758 372.79883
320.0 0.003125 262.38049 348.01758
308.0 0.003247 262.36346 336.82016
309.0 0.003236 262.34653 337.57941
334.0 0.002994 262.32971 349.91171
373.0 0.002681 262.31290 372.50043
376.0 0.002660 262.29626 399.78030
406.0 0.002463 262.27972 418.32993
411.0 0.002433 262.26318 413.04556
342.0 0.002924 262.24680 388.61856
333.0 0.003003 262.23044 361.29364
354.0 0.002825 262.21423 339.47351
338.0 0.002959 262.19809 324.43622
319.0 0.003135 262.18207 315.58884
323.0 0.003096 262.16611 313.41385
317.0 0.003155 262.15027 319.85822
327.0 0.003058 262.13443 335.43338
350.0 0.002857 262.11868 359.70987
368.0 0.002717 262.10312 387.99078
381.0 0.002625 262.08759 407.71484
368.0 0.002717 262.07214 405.55655
363.0 0.002755 262.05679 386.31216
347.0 0.002882 262.04147 363.48984
320.0 0.003125 262.02634 342.49933
304.0 0.003289 262.01123 324.40106
302.0 0.003311 261.99622 310.48151
269.0 0.00372 261.98129 301.83289
275.0 0.00364 261.96640 299.35529
267.0 0.00375 261.95169 302.52695
283.0 0.00353 261.93698 311.19675
304.0 0.003289 261.92239 323.83496
316.0 0.003165 261.90781 335.87317
309.0 0.003236 261.89343 339.66418
314.0 0.003185 261.87906 332.63110
306.0 0.003268 261.86484 321.26807
303.0 0.003300 261.85059 310.16742
310.0 0.003226 261.83655 300.26117
283.0 0.00353 261.82245 291.91068
292.0 0.003425 261.80850 286.16669
287.0 0.003484 261.79468 283.10745
299.0 0.003344 261.78094 282.74884
284.0 0.00352 261.76721 285.13730
277.0 0.00361 261.75360 290.16095
302.0 0.003311 261.74011 296.99802
300.0 0.003333 261.72656 303.15512
300.0 0.003333 261.71320 304.37308
288.0 0.003472 261.69989 299.71875
272.0 0.00368 261.68665 291.93771
298.0 0.003356 261.67352 285.43381
283.0 0.00353 261.66046 280.85925
261.0 0.00383 261.64752 278.44843
278.0 0.00360 261.63461 277.77252
277.0 0.00361 261.62173 278.50632
275.0 0.00364 261.60901 280.58810
306.0 0.003268 261.59631 284.10867
303.0 0.003300 261.58368 289.07526
300.0 0.003333 261.57120 295.07065
290.0 0.003448 261.55869 300.70581
302.0 0.003311 261.54636 304.98236
310.0 0.003226 261.53409 310.01456
336.0 0.002976 261.52185 319.75433
371.0 0.002695 261.50967 339.18033
402.0 0.002488 261.49759 371.49515
425.0 0.002353 261.48563 417.78925
460.0 0.002174 261.47366 471.83197
502.0 0.001992 261.46182 518.61835
525.0 0.001905 261.45007 545.41980
507.0 0.001972 261.43835 543.27509
509.0 0.001965 261.42673 505.44339
484.0 0.002066 261.41522 448.27463
433.0 0.002309 261.40372 395.35944
385.0 0.002597 261.39227 357.27676
341.0 0.002933 261.38092 335.27808
338.0 0.002959 261.36966 327.37628
345.0 0.002899 261.35843 331.83881
344.0 0.002907 261.34729 347.22235
356.0 0.002809 261.33624 371.92740
369.0 0.002710 261.32526 399.82635
382.0 0.002618 261.31436 422.59167
410.0 0.002439 261.30353 433.42773
438.0 0.002283 261.29276 424.89441
399.0 0.002506 261.28204 396.78308
351.0 0.002849 261.27139 362.54654
306.0 0.003268 261.26080 333.64426
300.0 0.003333 261.25034 313.68170
292.0 0.003425 261.23987 302.04233
283.0 0.00353 261.22949 296.53790
312.0 0.003205 261.21924 294.90244
290.0 0.003448 261.20898 294.64078
279.0 0.00358 261.19885 294.19623
271.0 0.00369 261.18875 293.48215
279.0 0.00358 261.17871 293.46686
293.0 0.003413 261.16882 293.44382
283.0 0.00353 261.15891 292.82797
296.0 0.003378 261.14908 292.37015
292.0 0.003425 261.13925 293.98795
271.0 0.00369 261.12961 299.57523
289.0 0.003460 261.11990 311.01004
312.0 0.003205 261.11032 329.22202
331.0 0.003021 261.10083 353.02280
374.0 0.002674 261.09146 376.46436
389.0 0.002571 261.08203 387.60995
376.0 0.002660 261.07269 379.49789
348.0 0.002874 261.06345 361.53851
326.0 0.003067 261.05426 346.24335
325.0 0.003077 261.04520 338.97110
328.0 0.003049 261.03607 338.65182
335.0 0.002985 261.02710 341.04071
346.0 0.002890 261.01816 342.51538
328.0 0.003049 261.00934 344.08527
324.0 0.003086 261.00049 347.09668
335.0 0.002985 260.99170 352.07309
384.0 0.002604 260.98303 361.00894
371.0 0.002695 260.97443 373.56775
377.0 0.002653 260.96585 385.26984
393.0 0.002545 260.95728 393.56201
397.0 0.002519 260.94888 400.92993
424.0 0.002358 260.94049 411.69839
423.0 0.002364 260.93213 427.81662
418.0 0.002392 260.92383 445.63809
456.0 0.002193 260.91568 456.02136
448.0 0.002232 260.90750 456.36505
435.0 0.002299 260.89941 451.11948
429.0 0.002331 260.89133 439.23434
424.0 0.002358 260.88336 422.54117
413.0 0.002421 260.87546 410.10876
398.0 0.002513 260.86758 407.60480
409.0 0.002445 260.85977 414.88501
424.0 0.002358 260.85199 431.98068
444.0 0.002252 260.84427 458.51874
468.0 0.002137 260.83667 488.25616
467.0 0.002141 260.82904 504.51282
444.0 0.002252 260.82150 494.42487
451.0 0.002217 260.81403 464.88266
437.0 0.002288 260.80661 431.52328
398.0 0.002513 260.79922 403.48666
369.0 0.002710 260.79196 381.16522
363.0 0.002755 260.78467 364.35242
344.0 0.002907 260.77744 354.65237
363.0 0.002755 260.77032 352.43021
352.0 0.002841 260.76315 357.09952
377.0 0.002653 260.75616 369.94080
383.0 0.002611 260.74915 392.41187
416.0 0.002404 260.74216 421.11600
427.0 0.002342 260.73526 445.28119
460.0 0.002174 260.72845 452.77582
426.0 0.002347 260.72162 438.64120
425.0 0.002353 260.71497 409.73697
384.0 0.002604 260.70828 379.38638
349.0 0.002865 260.70160 357.52170
323.0 0.003096 260.69498 347.45160
322.0 0.003106 260.68845 349.65561
357.0 0.002801 260.68195 364.68161
409.0 0.002445 260.67554 391.61380
423.0 0.002364 260.66910 430.49063
477.0 0.002096 260.66278 475.80472
482.0 0.002075 260.65646 519.09888
487.0 0.002053 260.65024 553.05670
522.0 0.001916 260.64404 568.90393
505.0 0.001980 260.63791 554.94006
415.0 0.002410 260.63177 511.27963
420.0 0.002381 260.62576 458.59692
426.0 0.002347 260.61972 416.08240
415.0 0.002410 260.61380 391.17621
387.0 0.002584 260.60785 385.44464
383.0 0.002611 260.60196 399.75778
421.0 0.002375 260.59616 433.46359
466.0 0.002146 260.59033 488.31717
520.0 0.001923 260.58459 562.53601
600.0 0.001667 260.57895 650.49677
677.0 0.001477 260.57333 735.13147
741.0 0.001350 260.56766 778.01923
694.0 0.001441 260.56210 744.40149
630.0 0.001587 260.55664 652.48169
529.0 0.001890 260.55118 550.25934
447.0 0.002237 260.54572 466.92383
411.0 0.002433 260.54031 410.73596
378.0 0.002646 260.53497 379.29623
392.0 0.002551 260.52969 367.22168
374.0 0.002674 260.52441 370.62823
383.0 0.002611 260.51920 387.17847
410.0 0.002439 260.51404 416.80380
415.0 0.002410 260.50888 458.18051
459.0 0.002179 260.50381 502.91061
519.0 0.001927 260.49875 531.64752
506.0 0.001976 260.49377 525.61432
504.0 0.001984 260.48877 495.26871
486.0 0.002058 260.48389 463.05457
463.0 0.002160 260.47894 439.84634
432.0 0.002315 260.47406 422.77744
416.0 0.002404 260.46924 406.59131
406.0 0.002463 260.46457 392.16666
391.0 0.002558 260.45975 380.88879
391.0 0.002558 260.45511 373.00809
399.0 0.002506 260.45044 372.25723
379.0 0.002639 260.44577 382.77390
381.0 0.002625 260.44119 407.94141
424.0 0.002358 260.43661 448.29852
490.0 0.002041 260.43213 499.52594
492.0 0.002033 260.42764 551.04114
506.0 0.001976 260.42319 581.10132
536.0 0.001866 260.41879 575.05231
486.0 0.002058 260.41443 549.32813
491.0 0.002037 260.41013 529.73236
510.0 0.001961 260.40579 532.90631
530.0 0.001887 260.40158 562.77466
612.0 0.001634 260.39734 608.44281
677.0 0.001477 260.39313 642.82233
697.0 0.001435 260.38898 635.46124
606.0 0.001650 260.38486 590.37708
548.0 0.001825 260.38074 540.14044
466.0 0.002146 260.37671 506.09183
413.0 0.002421 260.37268 490.49045
470.0 0.002128 260.36868 482.64264
445.0 0.002247 260.36472 470.67239
407.0 0.002457 260.36081 459.63745
456.0 0.002193 260.35693 464.36374
477.0 0.002096 260.35300 495.85828
528.0 0.001894 260.34918 557.77820
638.0 0.001567 260.34540 641.07056
735.0 0.001361 260.34164 717.61621
786.0 0.001272 260.33789 740.06207
719.0 0.001391 260.33417 688.58508
620.0 0.001613 260.33054 598.12903
520.0 0.001923 260.32690 507.57639
418.0 0.002392 260.32321 436.31647
378.0 0.002646 260.31964 388.01743
347.0 0.002882 260.31601 359.68393
351.0 0.002849 260.31256 346.60297
361.0 0.002770 260.30902 345.37445
360.0 0.002778 260.30554 354.67426
374.0 0.002674 260.30212 374.27673
363.0 0.002755 260.29871 402.30469
391.0 0.002558 260.29529 432.53284
442.0 0.002262 260.29193 451.90076
438.0 0.002283 260.28860 449.68814
441.0 0.002268 260.28528 433.96140
417.0 0.002398 260.28201 421.29053
418.0 0.002392 260.27872 423.76260
439.0 0.002278 260.27554 445.27365
478.0 0.002092 260.27231 481.46939
518.0 0.001931 260.26907 517.90961
510.0 0.001961 260.26593 529.59174
485.0 0.002062 260.26279 505.66937
433.0 0.002309 260.25974 465.14478
385.0 0.002597 260.25659 431.14102
380.0 0.002632 260.25360 416.48862
409.0 0.002445 260.25052 422.73447
444.0 0.002252 260.24753 449.17148
503.0 0.001988 260.24454 484.03082
525.0 0.001905 260.24158 509.93094
518.0 0.001931 260.23856 510.96683
480.0 0.002083 260.23563 494.24091
454.0 0.002203 260.23276 477.15494
461.0 0.002169 260.22989 466.46133
434.0 0.002304 260.22705 456.35172
431.0 0.002320 260.22418 437.89200
411.0 0.002433 260.22137 413.68402
396.0 0.002525 260.21860 395.41165
396.0 0.002525 260.21576 390.82477
411.0 0.002433 260.21307 404.47989
457.0 0.002188 260.21030 437.15387
507.0 0.001972 260.20761 485.38324
573.0 0.001745 260.20496 534.93378
541.0 0.001848 260.20224 562.52802
582.0 0.001718 260.19955 549.90283
526.0 0.001901 260.19696 506.96497
410.0 0.002439 260.19431 459.49994
392.0 0.002551 260.19174 426.12134
384.0 0.002604 260.18918 414.07358
409.0 0.002445 260.18661 424.62109
479.0 0.002088 260.18408 453.25067
520.0 0.001923 260.18152 489.79388
538.0 0.001859 260.17902 515.53015
544.0 0.001838 260.17648 514.79596
493.0 0.002028 260.17404 493.92618
488.0 0.002049 260.17154 471.29510
503.0 0.001988 260.16910 454.14749
484.0 0.002066 260.16669 438.34872
402.0 0.002488 260.16425 418.21280
415.0 0.002410 260.16187 398.98709
404.0 0.002475 260.15948 390.04648
404.0 0.002475 260.15714 392.23486
444.0 0.002252 260.15475 408.20303
456.0 0.002193 260.15247 435.67175
466.0 0.002146 260.15009 467.25439
511.0 0.001957 260.14780 490.44708
526.0 0.001901 260.14548 496.72751
502.0 0.001992 260.14322 490.73456
552.0 0.001812 260.14096 486.22336
553.0 0.001808 260.13864 491.61844
557.0 0.001795 260.13647 505.20169
573.0 0.001745 260.13425 516.98340
591.0 0.001692 260.13205 523.64923
596.0 0.001678 260.12982 540.39246
630.0 0.001587 260.12759 581.40717
681.0 0.001468 260.12540 655.32013
784.0 0.001276 260.12326 758.62695
872.0 0.001147 260.12112 870.68555
959.0 0.001043 260.11893 953.47711
1009.0 0.000991 260.11682 985.12042
1030.0 0.000971 260.11462 998.88538
1056.0 0.000947 260.11258 1036.78674
1117.0 0.000895 260.11038 1098.31079
1154.0 0.000867 260.10834 1133.59473
1143.0 0.000875 260.10620 1095.36865
1021.0 0.000979 260.10416 1007.07813
904.0 0.001106 260.10202 927.27948
865.0 0.001156 260.09998 890.52539
911.0 0.001098 260.09793 893.27966
915.0 0.001093 260.09592 902.90851
873.0 0.001145 260.09384 891.35541
844.0 0.001185 260.09189 859.12164
752.0 0.001330 260.08978 811.94958
737.0 0.001357 260.08780 761.40991
764.0 0.001309 260.08572 729.51038
754.0 0.001326 260.08374 725.23608
751.0 0.001332 260.08170 733.21967
710.0 0.001408 260.07974 721.69244
660.0 0.001515 260.07779 679.70007
673.0 0.001486 260.07581 630.18402
611.0 0.001637 260.07382 597.00409
574.0 0.001742 260.07184 582.18579
524.0 0.001908 260.06985 576.81110
522.0 0.001916 260.06793 563.81012
537.0 0.001862 260.06601 539.41534
487.0 0.002053 260.06400 517.70459
536.0 0.001866 260.06210 512.27435
471.0 0.002123 260.06021 534.03143
571.0 0.001751 260.05823 593.51141
673.0 0.001486 260.05630 702.11926
855.0 0.001170 260.05438 867.14288
1116.0 0.000896 260.05240 1082.21777
1355.0 0.000738 260.05057 1311.02637
1558.0 0.000642 260.04861 1492.41809
1644.0 0.000608 260.04669 1579.00720
1561.0 0.000641 260.04474 1532.73193
1317.0 0.000759 260.04291 1353.17993
1005.0 0.000995 260.04092 1118.29993
802.0 0.001247 260.03897 909.74268
695.0 0.001439 260.03711 761.53931
655.0 0.001527 260.03522 674.65753
590.0 0.001695 260.03333 635.26312
587.0 0.001704 260.03146 630.13037
647.0 0.001546 260.02948 657.71368
711.0 0.001406 260.02762 721.32819
799.0 0.001252 260.02570 815.69946
903.0 0.001107 260.02383 920.17474
994.0 0.001006 260.02188 1006.61346
1065.0 0.000939 260.01999 1055.92908
1097.0 0.000912 260.01807 1052.63074
1059.0 0.000944 260.01617 1003.35883
966.0 0.001035 260.01431 938.55035
888.0 0.001126 260.01239 866.81622
774.0 0.001292 260.01050 783.10913
676.0 0.001479 260.00858 691.03223
590.0 0.001695 260.00665 603.53485
534.0 0.001873 260.00473 527.36017
468.0 0.002137 260.00281 468.31430
440.0 0.002273 260.00092 428.05823
431.0 0.002320 259.99899 403.94672
422.0 0.002370 259.99704 393.73587
414.0 0.002415 259.99512 395.85977
440.0 0.002273 259.99319 408.88303
462.0 0.002165 259.99130 433.86389
508.0 0.001969 259.98929 467.62982
549.0 0.001821 259.98740 504.73657
619.0 0.001616 259.98550 535.59705
623.0 0.001605 259.98355 560.16394
610.0 0.001639 259.98160 591.97430
637.0 0.001570 259.97958 649.57861
771.0 0.001297 259.97769 742.33313
858.0 0.001166 259.97574 863.75226
911.0 0.001098 259.97372 980.52808
1043.0 0.000959 259.97171 1044.20544
1073.0 0.000932 259.96976 1038.63611
972.0 0.001029 259.96777 973.61609
832.0 0.001202 259.96573 858.56714
658.0 0.001520 259.96378 724.30945
546.0 0.001832 259.96176 605.82758
498.0 0.002008 259.95969 520.53302
473.0 0.002114 259.95773 467.51169
482.0 0.002075 259.95569 444.92398
474.0 0.002110 259.95361 449.26016
478.0 0.002092 259.95157 478.00284
470.0 0.002128 259.94955 527.08002
543.0 0.001842 259.94751 589.51215
632.0 0.001582 259.94547 645.77991
667.0 0.001499 259.94342 670.90356
654.0 0.001529 259.94125 663.52155
587.0 0.001704 259.93921 627.00507
492.0 0.002033 259.93707 566.85376
455.0 0.002198 259.93497 498.93549
444.0 0.002252 259.93283 439.75156
360.0 0.002778 259.93073 395.97418
340.0 0.002941 259.92862 366.65497
370.0 0.002703 259.92645 349.24738
343.0 0.002915 259.92426 340.70755
362.0 0.002762 259.92218 338.52737
350.0 0.002857 259.91998 342.65924
353.0 0.002833 259.91779 352.33014
374.0 0.002674 259.91559 366.69904
384.0 0.002604 259.91342 385.87775
398.0 0.002513 259.91113 404.84198
436.0 0.002294 259.90891 417.91531
432.0 0.002315 259.90674 426.85858
439.0 0.002278 259.90448 439.18475
456.0 0.002193 259.90222 460.59903
508.0 0.001969 259.89990 490.91669
532.0 0.001880 259.89764 522.58435
582.0 0.001718 259.89532 549.56165
592.0 0.001689 259.89304 578.83514
627.0 0.001595 259.89075 622.01294
708.0 0.001412 259.88840 679.61346
760.0 0.001316 259.88608 738.62262
808.0 0.001238 259.88373 789.11328
832.0 0.001202 259.88135 838.83038
878.0 0.001139 259.87891 889.53723
933.0 0.001072 259.87656 921.20441
932.0 0.001073 259.87408 906.87128
851.0 0.001175 259.87180 841.62445
708.0 0.001412 259.86932 756.21674
626.0 0.001597 259.86685 681.15271
590.0 0.001695 259.86435 624.73340
581.0 0.001721 259.86188 585.02515
565.0 0.001770 259.85944 564.78796
585.0 0.001709 259.85690 568.81659
621.0 0.001610 259.85437 596.86603
686.0 0.001458 259.85181 642.92072
737.0 0.001357 259.84924 705.33002
793.0 0.001261 259.84674 789.16724
897.0 0.001115 259.84418 893.40381
988.0 0.001012 259.84155 998.50897
1050.0 0.000952 259.83896 1059.74084
1003.0 0.000997 259.83630 1029.37952
847.0 0.001181 259.83371 914.20807
676.0 0.001479 259.83099 768.55847
557.0 0.001795 259.82834 636.60895
487.0 0.002053 259.82562 534.73920
440.0 0.002273 259.82291 465.54407
400.0 0.002500 259.82016 425.03052
426.0 0.002347 259.81738 407.45956
408.0 0.002451 259.81467 408.00168
455.0 0.002198 259.81192 426.08194
428.0 0.002336 259.80911 459.50583
482.0 0.002075 259.80630 505.26001
569.0 0.001757 259.80347 557.37726
607.0 0.001647 259.80063 600.10681
571.0 0.001751 259.79773 607.50891
515.0 0.001942 259.79489 570.82422
501.0 0.001996 259.79199 511.23996
436.0 0.002294 259.78909 453.27673
385.0 0.002597 259.78616 409.18112
389.0 0.002571 259.78320 381.63519
387.0 0.002584 259.78024 368.39349
378.0 0.002646 259.77728 364.12827
385.0 0.002597 259.77426 362.67178
386.0 0.002591 259.77121 358.97888
322.0 0.003106 259.76816 352.96356
347.0 0.002882 259.76505 347.40677
345.0 0.002899 259.76196 344.14807
353.0 0.002833 259.75885 344.06787
370.0 0.002703 259.75571 345.26971
341.0 0.002933 259.75266 345.26123
331.0 0.003021 259.74942 344.25018
325.0 0.003077 259.74625 344.28851
359.0 0.002786 259.74307 347.85950
355.0 0.002817 259.73984 358.04648
385.0 0.002597 259.73657 373.35611
399.0 0.002506 259.73337 388.50320
415.0 0.002410 259.73004 393.92148
425.0 0.002353 259.72675 384.39459
370.0 0.002703 259.72336 364.96954
364.0 0.002747 259.72003 343.72476
361.0 0.002770 259.71667 326.98044
341.0 0.002933 259.71329 316.00333
332.0 0.003012 259.70987 310.38788
334.0 0.002994 259.70645 309.12064
330.0 0.003030 259.70300 311.11874
319.0 0.003135 259.69952 316.18646
332.0 0.003012 259.69601 323.12085
339.0 0.002950 259.69250 334.24857
350.0 0.002857 259.68900 349.39575
378.0 0.002646 259.68536 367.63925
398.0 0.002513 259.68182 386.78033
412.0 0.002427 259.67822 406.28217
459.0 0.002179 259.67456 430.61200
474.0 0.002110 259.67093 461.91620
546.0 0.001832 259.66727 498.94073
551.0 0.001815 259.66354 527.31769
498.0 0.002008 259.65979 531.13837
499.0 0.002004 259.65604 506.07056
477.0 0.002096 259.65228 467.00284
430.0 0.002326 259.64850 429.73041
424.0 0.002358 259.64471 403.35599
399.0 0.002506 259.64087 387.71622
400.0 0.002500 259.63702 380.15875
401.0 0.002494 259.63312 378.76273
402.0 0.002488 259.62921 384.62024
369.0 0.002710 259.62524 399.21332
415.0 0.002410 259.62125 422.73633
470.0 0.002128 259.61734 452.63678
519.0 0.001927 259.61334 484.64029
525.0 0.001905 259.60931 507.86594
560.0 0.001786 259.60522 511.42679
495.0 0.002020 259.60114 495.26016
477.0 0.002096 259.59705 471.74600
444.0 0.002252 259.59299 455.97864
458.0 0.002183 259.58884 455.82031
528.0 0.001894 259.58456 473.22385
496.0 0.002016 259.58041 503.17575
524.0 0.001908 259.57617 535.08368
614.0 0.001629 259.57193 560.55072
553.0 0.001808 259.56769 580.70935
607.0 0.001647 259.56335 595.98718
616.0 0.001623 259.55905 596.01221
540.0 0.001852 259.55469 572.41443
506.0 0.001976 259.55032 531.56744
477.0 0.002096 259.54590 484.31549
453.0 0.002208 259.54147 440.21619
402.0 0.002488 259.53708 406.51483
362.0 0.002762 259.53253 386.44595
390.0 0.002564 259.52805 380.53546
417.0 0.002398 259.52347 387.53445
406.0 0.002463 259.51892 405.28214
416.0 0.002404 259.51437 430.15570
450.0 0.002222 259.50980 457.04193
510.0 0.001961 259.50513 483.71942
562.0 0.001779 259.50046 509.35144
577.0 0.001733 259.49576 527.60516
563.0 0.001776 259.49106 526.93390
508.0 0.001969 259.48633 505.47455
476.0 0.002101 259.48157 475.45013
461.0 0.002169 259.47678 451.98221
444.0 0.002252 259.47195 442.14380
499.0 0.002004 259.46710 449.06802
539.0 0.001855 259.46225 469.92773
555.0 0.001802 259.45731 496.82785
602.0 0.001661 259.45242 517.45081
584.0 0.001712 259.44745 525.73560
542.0 0.001845 259.44250 532.98621
601.0 0.001664 259.43744 557.05200
655.0 0.001527 259.43243 609.66467
757.0 0.001321 259.42740 692.96924
854.0 0.001171 259.42227 795.79419
869.0 0.001151 259.41718 888.84320
938.0 0.001066 259.41202 930.21985
922.0 0.001085 259.40686 901.41656
816.0 0.001225 259.40167 827.66858
709.0 0.001410 259.39645 744.12531
656.0 0.001524 259.39117 672.24139
624.0 0.001603 259.38593 622.04333
597.0 0.001675 259.38058 596.67212
633.0 0.001580 259.37527 595.10022
678.0 0.001475 259.36981 618.78723
710.0 0.001408 259.36450 673.98425
767.0 0.001304 259.35904 761.49622
835.0 0.001198 259.35361 867.81934
912.0 0.001096 259.34811 958.23273
992.0 0.001008 259.34262 992.97437
931.0 0.001074 259.33710 961.94568
819.0 0.001221 259.33151 881.74280
716.0 0.001397 259.32593 777.84436
650.0 0.001538 259.32031 676.76965
588.0 0.001701 259.31467 594.23816
550.0 0.001818 259.30899 533.28296
492.0 0.002033 259.30328 491.98352
484.0 0.002066 259.29758 466.20941
464.0 0.002155 259.29181 454.43973
468.0 0.002137 259.28607 457.10049
487.0 0.002053 259.28018 474.60330
512.0 0.001953 259.27438 503.55902
516.0 0.001938 259.26852 532.28168
523.0 0.001912 259.26254 542.14410
520.0 0.001923 259.25662 521.50916
457.0 0.002188 259.25070 479.92935
401.0 0.002494 259.24472 435.13754
378.0 0.002646 259.23874 397.59525
355.0 0.002817 259.23267 370.59433
358.0 0.002793 259.22656 353.89230
340.0 0.002941 259.22046 344.55350
332.0 0.003012 259.21429 338.74066
341.0 0.002933 259.20816 334.23047
353.0 0.002833 259.20193 329.26636
344.0 0.002907 259.19571 324.75928
315.0 0.003175 259.18951 321.63855
314.0 0.003185 259.18323 320.92145
327.0 0.003058 259.17691 322.94559
331.0 0.003021 259.17059 328.44931
339.0 0.002950 259.16422 337.95483
337.0 0.002967 259.15781 351.90384
338.0 0.002959 259.15137 370.62595
381.0 0.002625 259.14493 394.05255
430.0 0.002326 259.13843 420.52866
440.0 0.002273 259.13193 445.41296
456.0 0.002193 259.12546 466.36023
488.0 0.002049 259.11884 490.26651
513.0 0.001949 259.11227 529.92145
604.0 0.001656 259.10562 593.87036
707.0 0.001414 259.09897 681.83838
856.0 0.001168 259.09229 781.52295
956.0 0.001046 259.08551 867.02271
922.0 0.001085 259.07877 902.30444
830.0 0.001205 259.07202 868.52026
740.0 0.001351 259.06522 789.52307
714.0 0.001401 259.05841 701.50958
646.0 0.001548 259.05151 625.51477
574.0 0.001742 259.04465 565.47113
522.0 0.001916 259.03775 520.17542
501.0 0.001996 259.03076 487.95502
437.0 0.002288 259.02380 467.34570
436.0 0.002294 259.01682 460.25409
466.0 0.002146 259.00977 469.65482
511.0 0.001957 259.00266 496.69287
556.0 0.001799 258.99561 538.78589
627.0 0.001595 258.98843 587.51019
663.0 0.001508 258.98129 629.76300
637.0 0.001570 258.97409 648.58765
639.0 0.001565 258.96695 638.13080
598.0 0.001672 258.95963 609.69452
619.0 0.001616 258.95236 575.30267
530.0 0.001887 258.94507 537.01422
532.0 0.001880 258.93774 493.82724
522.0 0.001916 258.93039 449.54892
412.0 0.002427 258.92300 409.71484
370.0 0.002703 258.91553 378.01129
333.0 0.003003 258.90808 355.02185
370.0 0.002703 258.90063 340.36996
335.0 0.002985 258.89313 332.72644
351.0 0.002849 258.88559 329.94873
349.0 0.002865 258.87802 330.87982
351.0 0.002849 258.87045 336.58841
394.0 0.002538 258.86276 347.97104
416.0 0.002404 258.85516 367.02283
423.0 0.002364 258.84747 394.14767
471.0 0.002123 258.83975 427.47937
512.0 0.001953 258.83206 461.84576
510.0 0.001961 258.82425 490.13962
516.0 0.001938 258.81641 502.26895
501.0 0.001996 258.80859 490.16837
461.0 0.002169 258.80075 458.29498
434.0 0.002304 258.79285 420.73514
372.0 0.002688 258.78494 387.77383
352.0 0.002841 258.77701 364.68524
368.0 0.002717 258.76901 353.36481
372.0 0.002688 258.76105 353.92212
372.0 0.002688 258.75299 366.51575
394.0 0.002538 258.74493 390.43268
429.0 0.002331 258.73682 423.88550
478.0 0.002092 258.72876 461.49731
530.0 0.001887 258.72058 492.51694
529.0 0.001890 258.71243 505.67093
496.0 0.002016 258.70419 499.53342
492.0 0.002033 258.69598 479.31903
450.0 0.002222 258.68774 449.29480
414.0 0.002415 258.67944 415.24332
391.0 0.002558 258.67111 383.74661
342.0 0.002924 258.66275 359.45496
312.0 0.003205 258.65439 343.88116
321.0 0.003115 258.64597 336.92975
340.0 0.002941 258.63757 338.10605
346.0 0.002890 258.62909 347.59677
382.0 0.002618 258.62064 365.21677
412.0 0.002427 258.61212 390.14130
489.0 0.002045 258.60352 419.48508
483.0 0.002070 258.59500 447.58011
484.0 0.002066 258.58633 466.40286
522.0 0.001916 258.57770 473.71777
529.0 0.001890 258.56909 467.30130
476.0 0.002101 258.56042 447.62537
429.0 0.002331 258.55170 421.81613
435.0 0.002299 258.54294 398.94751
450.0 0.002222 258.53418 385.82245
376.0 0.002660 258.52536 386.24469
409.0 0.002445 258.51657 403.19452
493.0 0.002028 258.50769 439.28705
544.0 0.001838 258.49881 495.81882
610.0 0.001639 258.48990 570.27606
721.0 0.001387 258.48096 651.89771
704.0 0.001420 258.47202 717.37128
761.0 0.001314 258.46304 738.18347
758.0 0.001319 258.45398 705.97076
613.0 0.001631 258.44495 642.31989
563.0 0.001776 258.43582 571.60785
492.0 0.002033 258.42679 506.47815
456.0 0.002193 258.41763 452.90033
411.0 0.002433 258.40851 414.57224
377.0 0.002653 258.39932 391.75458
365.0 0.002740 258.39011 383.43604
404.0 0.002475 258.38086 389.15472
439.0 0.002278 258.37158 410.01480
483.0 0.002070 258.36237 447.92407
505.0 0.001980 258.35303 504.51517
593.0 0.001686 258.34360 578.21277
646.0 0.001548 258.33432 660.55774
728.0 0.001374 258.32489 735.62891
785.0 0.001274 258.31546 787.57465
820.0 0.001220 258.30600 808.23267
813.0 0.001230 258.29657 795.05621
752.0 0.001330 258.28711 750.26251
635.0 0.001575 258.27750 679.36334
540.0 0.001852 258.26801 595.66406
484.0 0.002066 258.25839 516.84833
418.0 0.002392 258.24881 453.46112
374.0 0.002674 258.23920 407.66992
369.0 0.002710 258.22952 378.84164
377.0 0.002653 258.21985 364.21625
392.0 0.002551 258.21014 361.60764
375.0 0.002667 258.20038 369.80823
386.0 0.002591 258.19064 388.12915
426.0 0.002347 258.18082 415.40466
466.0 0.002146 258.17105 447.93826
483.0 0.002070 258.16119 478.46381
487.0 0.002053 258.15134 498.18997
513.0 0.001949 258.14148 502.72040
534.0 0.001873 258.13159 492.69287
501.0 0.001996 258.12155 473.21310
470.0 0.002128 258.11166 454.67709
410.0 0.002439 258.10165 445.51788
419.0 0.002387 258.09167 447.41702
453.0 0.002208 258.08160 456.85605
475.0 0.002105 258.07156 462.95163
437.0 0.002288 258.06146 454.04959
432.0 0.002315 258.05133 429.59583
382.0 0.002618 258.04126 398.60675
358.0 0.002793 258.03110 370.09787
344.0 0.002907 258.02090 348.33130
335.0 0.002985 258.01071 334.37299
336.0 0.002976 258.00049 327.27359
341.0 0.002933 257.99026 325.65253
344.0 0.002907 257.97995 327.66464
341.0 0.002933 257.96964 331.20486
321.0 0.003115 257.95932 335.53705
327.0 0.003058 257.94894 340.98013
326.0 0.003067 257.93863 348.69391
314.0 0.003185 257.92822 357.97556
350.0 0.002857 257.91782 365.69449
359.0 0.002786 257.90735 366.68491
342.0 0.002924 257.89694 358.59604
378.0 0.002646 257.88644 345.28723
301.0 0.003322 257.87592 331.72379
321.0 0.003115 257.86539 321.74393
313.0 0.003195 257.85486 315.89017
300.0 0.003333 257.84427 315.17059
324.0 0.003086 257.83368 319.66776
332.0 0.003012 257.82306 329.29440
335.0 0.002985 257.81241 343.90039
372.0 0.002688 257.80176 362.97739
405.0 0.002469 257.79108 384.14709
464.0 0.002155 257.78036 402.75513
433.0 0.002309 257.76962 411.29797
414.0 0.002415 257.75891 404.34659
396.0 0.002525 257.74814 386.33609
373.0 0.002681 257.73730 365.90485
341.0 0.002933 257.72656 348.92810
343.0 0.002915 257.71564 337.92786
342.0 0.002924 257.70483 333.97858
352.0 0.002841 257.69397 336.79248
388.0 0.002577 257.68301 346.75717
402.0 0.002488 257.67212 363.48553
420.0 0.002381 257.66122 387.26486
439.0 0.002278 257.65024 418.38092
476.0 0.002101 257.63928 455.66907
554.0 0.001805 257.62827 498.61981
608.0 0.001645 257.61725 546.94458
646.0 0.001548 257.60623 600.29767
663.0 0.001508 257.59518 654.33661
690.0 0.001449 257.58408 702.88190
738.0 0.001355 257.57297 740.78064
781.0 0.001280 257.56189 757.32861
768.0 0.001302 257.55075 741.38104
706.0 0.001416 257.53964 696.37732
632.0 0.001582 257.52841 635.35229
564.0 0.001773 257.51721 570.10004
503.0 0.001988 257.50598 511.47842
436.0 0.002294 257.49481 466.95929
419.0 0.002387 257.48349 439.22342
419.0 0.002387 257.47220 426.76376
429.0 0.002331 257.46097 425.92810
419.0 0.002387 257.44968 433.68149
452.0 0.002212 257.43832 447.80368
452.0 0.002212 257.42703 467.26395
510.0 0.001961 257.41565 489.88501
520.0 0.001923 257.40430 513.16559
538.0 0.001859 257.39291 533.03748
543.0 0.001842 257.38147 542.96057
538.0 0.001859 257.37003 540.31891
533.0 0.001876 257.35861 530.90308
512.0 0.001953 257.34714 522.60498
513.0 0.001949 257.33572 522.26233
541.0 0.001848 257.32416 533.26978
564.0 0.001773 257.31268 552.82007
615.0 0.001626 257.30115 569.27820
566.0 0.001767 257.28961 569.09552
539.0 0.001855 257.27805 548.68939
485.0 0.002062 257.26648 513.69934
424.0 0.002358 257.25482 472.08871
396.0 0.002525 257.24329 431.93646
375.0 0.002667 257.23163 399.16931
320.0 0.003125 257.22003 376.36102
341.0 0.002933 257.20831 363.75494
353.0 0.002833 257.19669 361.23062
346.0 0.002890 257.18500 369.22128
385.0 0.002597 257.17328 389.17380
418.0 0.002392 257.16159 422.97131
503.0 0.001988 257.14987 472.36206
586.0 0.001706 257.13809 535.72107
692.0 0.001445 257.12637 605.98376
727.0 0.001376 257.11459 666.80975
747.0 0.001339 257.10284 696.90259
705.0 0.001418 257.09100 685.94830
638.0 0.001567 257.07922 646.37183
605.0 0.001653 257.06735 601.76392
587.0 0.001704 257.05551 570.09589
541.0 0.001848 257.04370 558.26807
553.0 0.001808 257.03180 564.79236
604.0 0.001656 257.01993 582.92383
615.0 0.001626 257.00806 602.85901
599.0 0.001669 256.99612 610.60284
579.0 0.001727 256.98425 597.22882
527.0 0.001898 256.97232 570.34729
523.0 0.001912 256.96042 546.19537
526.0 0.001901 256.94836 535.76556
533.0 0.001876 256.93646 541.85138
578.0 0.001730 256.92447 560.03717
639.0 0.001565 256.91248 580.04541
659.0 0.001517 256.90048 591.57855
632.0 0.001582 256.88849 589.58386
583.0 0.001715 256.87650 572.79260
548.0 0.001825 256.86444 546.64130
489.0 0.002045 256.85239 519.00195
490.0 0.002041 256.84036 497.58484
481.0 0.002079 256.82828 483.92590
457.0 0.002188 256.81622 474.32336
456.0 0.002193 256.80411 461.82956
447.0 0.002237 256.79202 441.73013
404.0 0.002475 256.77994 416.56177
386.0 0.002591 256.76779 394.23773
396.0 0.002525 256.75568 378.22247
375.0 0.002667 256.74356 369.79193
374.0 0.002674 256.73145 368.63306
385.0 0.002597 256.71924 373.45801
398.0 0.002513 256.70712 381.49155
427.0 0.002342 256.69495 387.73611
414.0 0.002415 256.68274 387.36115
396.0 0.002525 256.67062 379.95007
406.0 0.002463 256.65839 366.54666
372.0 0.002688 256.64624 350.72159
363.0 0.002755 256.63400 335.43494
312.0 0.003205 256.62177 322.66400
327.0 0.003058 256.60953 313.44699
334.0 0.002994 256.59732 307.32880
309.0 0.003236 256.58508 304.00629
272.0 0.00368 256.57281 303.50888
316.0 0.003165 256.56061 305.24170
305.0 0.003279 256.54837 308.94418
304.0 0.003289 256.53607 314.33710
326.0 0.003067 256.52380 320.48090
344.0 0.002907 256.51154 326.47693
337.0 0.002967 256.49927 329.35861
311.0 0.003215 256.48697 327.54041
343.0 0.002915 256.47467 322.13431
334.0 0.002994 256.46237 314.84848
321.0 0.003115 256.45010 307.12808
308.0 0.003247 256.43774 300.05466
302.0 0.003311 256.42548 294.39877
302.0 0.003311 256.41318 290.50317
302.0 0.003311 256.40082 288.09509
299.0 0.003344 256.38846 287.01978
306.0 0.003268 256.37616 287.24222
316.0 0.003165 256.36380 288.53418
310.0 0.003226 256.35150 291.20398
317.0 0.003155 256.33914 294.95511
313.0 0.003195 256.32684 299.57990
307.0 0.003257 256.31451 304.15472
313.0 0.003195 256.30212 308.17282
319.0 0.003135 256.28976 310.30649
316.0 0.003165 256.27744 311.05862
318.0 0.003145 256.26505 311.57251
324.0 0.003086 256.25272 313.04913
330.0 0.003030 256.24039 315.42731
337.0 0.002967 256.22800 318.81058
335.0 0.002985 256.21561 321.91006
319.0 0.003135 256.20325 323.35239
314.0 0.003185 256.19092 323.89590
338.0 0.002959 256.17853 325.05383
328.0 0.003049 256.16614 328.99747
355.0 0.002817 256.15375 337.31082
371.0 0.002695 256.14139 351.90933
385.0 0.002597 256.12900 374.64899
416.0 0.002404 256.11667 407.82623
480.0 0.002083 256.10431 454.04178
540.0 0.001852 256.09189 514.78760
616.0 0.001623 256.07953 591.14941
719.0 0.001391 256.06717 679.05823
789.0 0.001267 256.05478 765.85834
830.0 0.001205 256.04239 827.49042
832.0 0.001202 256.03009 838.98309
747.0 0.001339 256.01767 796.00000
636.0 0.001572 256.00534 717.76306
564.0 0.001773 255.99297 629.06335
508.0 0.001969 255.98061 548.79926
465.0 0.002151 255.96829 486.72144
441.0 0.002268 255.95587 445.74384
446.0 0.002242 255.94356 425.07416
453.0 0.002208 255.93124 423.22031
429.0 0.002331 255.91882 439.38876
493.0 0.002028 255.90645 473.95877
535.0 0.001869 255.89417 528.33655
592.0 0.001689 255.88181 602.72906
691.0 0.001447 255.86949 694.17676
782.0 0.001279 255.85715 790.21564
889.0 0.001125 255.84482 871.22125
950.0 0.001053 255.83250 912.01093
942.0 0.001062 255.82021 896.49634
753.0 0.001328 255.80794 832.07507
674.0 0.001484 255.79556 744.27490
552.0 0.001812 255.78329 656.28461
489.0 0.002045 255.77100 580.36176
440.0 0.002273 255.75874 518.85687
425.0 0.002353 255.74638 470.15363
381.0 0.002625 255.73410 433.84763
377.0 0.002653 255.72185 410.28247
386.0 0.002591 255.70958 399.40564
409.0 0.002445 255.69731 400.77335
430.0 0.002326 255.68507 414.04083
450.0 0.002222 255.67278 437.76520
492.0 0.002033 255.66058 468.80563
504.0 0.001984 255.64835 501.55649
507.0 0.001972 255.63614 528.99683
545.0 0.001835 255.62389 542.73743
540.0 0.001852 255.61177 539.27588
543.0 0.001842 255.59947 525.48578
539.0 0.001855 255.58728 512.26654
527.0 0.001898 255.57513 506.20819
525.0 0.001905 255.56300 507.62756
533.0 0.001876 255.55081 511.43262
515.0 0.001942 255.53867 509.86060
502.0 0.001992 255.52650 497.82333
478.0 0.002092 255.51434 478.54404
423.0 0.002364 255.50220 460.89771
426.0 0.002347 255.49010 453.09937
441.0 0.002268 255.47801 459.61993
483.0 0.002070 255.46587 480.01367
503.0 0.001988 255.45381 509.59500
527.0 0.001898 255.44176 538.53906
551.0 0.001815 255.42964 553.83997
520.0 0.001923 255.41759 547.54163
509.0 0.001965 255.40558 522.59302
477.0 0.002096 255.39352 489.77859
434.0 0.002304 255.38150 460.07199
432.0 0.002315 255.36952 439.53067
420.0 0.002381 255.35751 428.64767
433.0 0.002309 255.34557 423.94583
446.0 0.002242 255.33356 420.64935
423.0 0.002364 255.32158 416.32434
431.0 0.002320 255.30969 413.23798
435.0 0.002299 255.29779 414.86737
444.0 0.002252 255.28581 424.20267
458.0 0.002183 255.27391 442.99887
483.0 0.002070 255.26204 470.48962
512.0 0.001953 255.25014 499.94861
513.0 0.001949 255.23830 519.47174
523.0 0.001912 255.22646 518.99280
444.0 0.002252 255.21466 496.20807
428.0 0.002336 255.20282 459.86337
416.0 0.002404 255.19099 421.85126
379.0 0.002639 255.17923 389.32898
351.0 0.002849 255.16743 365.69162
347.0 0.002882 255.15565 351.76773
372.0 0.002688 255.14401 347.27548
385.0 0.002597 255.13220 351.76743
417.0 0.002398 255.12051 364.52682
398.0 0.002513 255.10886 385.05222
427.0 0.002342 255.09723 412.14209
501.0 0.001996 255.08553 443.62659
530.0 0.001887 255.07393 474.88934
510.0 0.001961 255.06232 497.12042
508.0 0.001969 255.05064 500.13571
466.0 0.002146 255.03911 483.95767
455.0 0.002198 255.02753 453.89072
400.0 0.002500 255.01596 419.50702
375.0 0.002667 255.00444 388.61084
363.0 0.002755 254.99294 365.27078
371.0 0.002695 254.98149 350.92422
371.0 0.002695 254.96997 344.87283
374.0 0.002674 254.95854 345.65427
361.0 0.002770 254.94707 350.98975
356.0 0.002809 254.93567 358.33838
371.0 0.002695 254.92429 366.37317
369.0 0.002710 254.91296 375.43109
399.0 0.002506 254.90163 387.40421
427.0 0.002342 254.89029 402.39871
455.0 0.002198 254.87895 417.53433
459.0 0.002179 254.86772 426.85110
421.0 0.002375 254.85641 425.77832
389.0 0.002571 254.84518 413.92841
380.0 0.002632 254.83397 396.22885
360.0 0.002778 254.82275 378.37952
335.0 0.002985 254.81160 364.23856
349.0 0.002865 254.80045 355.61331
347.0 0.002882 254.78934 352.62189
343.0 0.002915 254.77818 356.29468
375.0 0.002667 254.76712 367.46014
408.0 0.002451 254.75606 386.84454
441.0 0.002268 254.74503 414.32629
457.0 0.002188 254.73401 450.04553
533.0 0.001876 254.72299 492.25504
540.0 0.001852 254.71205 535.73358
578.0 0.001730 254.70114 570.09937
605.0 0.001653 254.69022 585.45074
601.0 0.001664 254.67932 579.37372
533.0 0.001876 254.66843 554.98627
485.0 0.002062 254.65761 520.11292
453.0 0.002208 254.64677 484.83444
452.0 0.002212 254.63597 458.23654
449.0 0.002227 254.62523 445.84299
412.0 0.002427 254.61447 449.76779
488.0 0.002049 254.60381 469.63562
501.0 0.001996 254.59309 503.72119
549.0 0.001821 254.58249 547.60144
588.0 0.001701 254.57184 593.39429
580.0 0.001724 254.56120 633.24609
660.0 0.001515 254.55069 664.36407
714.0 0.001401 254.54015 688.21228
747.0 0.001339 254.52960 701.25433
730.0 0.001370 254.51907 693.27991
716.0 0.001397 254.50862 658.69189
596.0 0.001678 254.49820 605.33551
492.0 0.002033 254.48784 545.23236
435.0 0.002299 254.47743 488.71411
387.0 0.002584 254.46709 442.42056
379.0 0.002639 254.45676 409.47101
366.0 0.002732 254.44652 390.35257
379.0 0.002639 254.43625 383.86395
391.0 0.002558 254.42601 387.99567
425.0 0.002353 254.41582 400.09891
400.0 0.002500 254.40564 416.44055
429.0 0.002331 254.39551 432.22522
426.0 0.002347 254.38542 443.39044
443.0 0.002257 254.37537 449.38504
454.0 0.002203 254.36533 452.19366
497.0 0.002012 254.35532 451.45474
475.0 0.002105 254.34534 445.53345
444.0 0.002252 254.33542 434.48865
422.0 0.002370 254.32549 422.90262
415.0 0.002410 254.31560 414.38605
414.0 0.002415 254.30579 409.52155
391.0 0.002558 254.29594 405.79745
386.0 0.002591 254.28622 400.12308
387.0 0.002584 254.27644 392.90494
377.0 0.002653 254.26677 388.02023
382.0 0.002618 254.25708 389.18268
402.0 0.002488 254.24741 398.09573
415.0 0.002410 254.23781 414.07422
447.0 0.002237 254.22821 434.22382
489.0 0.002045 254.21870 452.87454
493.0 0.002028 254.20918 463.75555
475.0 0.002105 254.19972 464.36621
438.0 0.002283 254.19032 459.97672
459.0 0.002179 254.18089 459.73181
484.0 0.002066 254.17154 470.81992
519.0 0.001927 254.16222 495.31891
552.0 0.001812 254.15295 530.87848
603.0 0.001658 254.14372 569.32123
672.0 0.001488 254.13446 596.75153
676.0 0.001479 254.12532 598.29993
576.0 0.001736 254.11621 571.43628
506.0 0.001976 254.10706 528.85333
446.0 0.002242 254.09802 485.65964
427.0 0.002342 254.08897 450.88968
385.0 0.002597 254.07999 427.85364
404.0 0.002475 254.07103 415.64050
434.0 0.002304 254.06210 409.99649
424.0 0.002358 254.05328 405.65927
371.0 0.002695 254.04446 398.67542
369.0 0.002710 254.03563 390.66040
355.0 0.002817 254.02686 384.47983
385.0 0.002597 254.01814 383.75601
393.0 0.002545 254.00948 389.44876
430.0 0.002326 254.00085 401.01956
420.0 0.002381 253.99225 415.50336
443.0 0.002257 253.98367 427.33215
466.0 0.002146 253.97517 429.96140
423.0 0.002364 253.96674 421.39359
400.0 0.002500 253.95827 406.00937
359.0 0.002786 253.94987 389.35495
362.0 0.002762 253.94154 373.76541
350.0 0.002857 253.93324 359.69962
312.0 0.003205 253.92497 346.96655
302.0 0.003311 253.91676 336.02023
291.0 0.003436 253.90860 327.37680
314.0 0.003185 253.90044 320.50632
305.0 0.003279 253.89236 314.22324
311.0 0.003215 253.88434 307.81158
291.0 0.003436 253.87630 301.80188
294.0 0.003401 253.86833 296.76416
294.0 0.003401 253.86041 293.22040
299.0 0.003344 253.85249 291.84238
315.0 0.003175 253.84473 292.59549
307.0 0.003257 253.83691 296.16025
324.0 0.003086 253.82921 303.05933
326.0 0.003067 253.82149 313.86606
344.0 0.002907 253.81383 328.61411
353.0 0.002833 253.80623 346.70474
375.0 0.002667 253.79866 366.75330
387.0 0.002584 253.79115 385.97195
400.0 0.002500 253.78365 400.14243
384.0 0.002604 253.77621 404.99945
377.0 0.002653 253.76889 398.93134
378.0 0.002646 253.76157 385.64386
362.0 0.002762 253.75426 369.43423
362.0 0.002762 253.74702 352.87582
359.0 0.002786 253.73981 336.96979
334.0 0.002994 253.73265 322.78015
315.0 0.003175 253.72554 311.42444
310.0 0.003226 253.71855 303.58633
320.0 0.003125 253.71153 299.52805
321.0 0.003115 253.70454 299.38281
337.0 0.002967 253.69768 303.21085
340.0 0.002941 253.69086 311.16290
327.0 0.003058 253.68401 322.79660
341.0 0.002933 253.67728 336.82806
378.0 0.002646 253.67056 351.35703
375.0 0.002667 253.66389 362.07657
345.0 0.002899 253.65729 364.95740
376.0 0.002660 253.65071 359.18280
366.0 0.002732 253.64417 347.91675
332.0 0.003012 253.63774 335.31354
325.0 0.003077 253.63135 323.43613
307.0 0.003257 253.62500 313.10730
275.0 0.00364 253.61867 304.66345
267.0 0.00375 253.61243 298.81342
270.0 0.00370 253.60623 295.93848
294.0 0.003401 253.60005 295.98242
306.0 0.003268 253.59396 299.77829
295.0 0.003390 253.58791 307.16937
322.0 0.003106 253.58195 318.34845
353.0 0.002833 253.57597 332.43872
376.0 0.002660 253.57007 347.84808
372.0 0.002688 253.56424 362.22876
375.0 0.002667 253.55843 372.02649
385.0 0.002597 253.55273 376.77060
392.0 0.002551 253.54706 378.25589
396.0 0.002525 253.54141 377.75644
387.0 0.002584 253.53581 373.89429
365.0 0.002740 253.53035 364.72897
373.0 0.002681 253.52484 351.33386
342.0 0.002924 253.51944 336.93527
327.0 0.003058 253.51411 324.57086
303.0 0.003300 253.50876 315.58035
320.0 0.003125 253.50356 309.65500
289.0 0.003460 253.49832 306.62863
294.0 0.003401 253.49318 306.01334
320.0 0.003125 253.48816 307.24673
306.0 0.003268 253.48311 310.59003
319.0 0.003135 253.47815 315.73160
331.0 0.003021 253.47321 322.05966
308.0 0.003247 253.46835 328.93478
315.0 0.003175 253.46358 336.16962
371.0 0.002695 253.45880 345.20987
374.0 0.002674 253.45416 357.27570
373.0 0.002681 253.44945 372.33075
383.0 0.002611 253.44490 388.74313
419.0 0.002387 253.44035 404.57254
446.0 0.002242 253.43599 417.88181
453.0 0.002208 253.43153 425.32053
427.0 0.002342 253.42719 423.21545
410.0 0.002439 253.42291 413.17599
402.0 0.002488 253.41872 400.10571
374.0 0.002674 253.41454 388.49603
359.0 0.002786 253.41048 380.24826
381.0 0.002625 253.40639 375.75266
383.0 0.002611 253.40236 375.53568
364.0 0.002747 253.39848 380.10397
365.0 0.002740 253.39458 389.39481
380.0 0.002632 253.39078 400.40143
404.0 0.002475 253.38707 408.66043
399.0 0.002506 253.38330 411.05548
403.0 0.002481 253.37973 409.23114
355.0 0.002817 253.37616 407.56873
367.0 0.002725 253.37268 408.92297
399.0 0.002506 253.36919 412.73166
395.0 0.002532 253.36580 415.17596
375.0 0.002667 253.36244 411.72864
372.0 0.002688 253.35922 400.70465
371.0 0.002695 253.35597 385.45499
363.0 0.002755 253.35283 370.49057
364.0 0.002747 253.34973 358.72763
361.0 0.002770 253.34674 351.21689
349.0 0.002865 253.34383 348.24899
345.0 0.002899 253.34091 349.94604
344.0 0.002907 253.33807 356.17740
333.0 0.003003 253.33531 365.99692
385.0 0.002597 253.33263 376.82407
375.0 0.002667 253.32997 385.44617
394.0 0.002538 253.32739 389.82614
395.0 0.002532 253.32494 390.41541
375.0 0.002667 253.32243 389.71848
361.0 0.002770 253.32001 390.74353
393.0 0.002545 253.31772 395.24820
401.0 0.002494 253.31546 403.69077
411.0 0.002433 253.31322 415.43375
436.0 0.002294 253.31111 429.50894
466.0 0.002146 253.30913 444.84238
507.0 0.001972 253.30705 461.12854
475.0 0.002105 253.30515 479.84879
476.0 0.002101 253.30327 501.45242
554.0 0.001805 253.30145 523.30988
562.0 0.001779 253.29973 541.19757
585.0 0.001709 253.29807 553.47284
553.0 0.001808 253.29643 560.84778
617.0 0.001621 253.29494 564.50293
604.0 0.001656 253.29346 565.25049
568.0 0.001761 253.29208 563.26660
570.0 0.001754 253.29070 557.77295
564.0 0.001773 253.28947 549.77240
569.0 0.001757 253.28822 542.80652
569.0 0.001757 253.28708 539.59052
564.0 0.001773 253.28604 539.38226
543.0 0.001842 253.28500 538.25482
535.0 0.001869 253.28407 532.56799
504.0 0.001984 253.28325 521.08649
470.0 0.002128 253.28242 505.45694
479.0 0.002088 253.28172 490.14713
498.0 0.002008 253.28105 478.78806
499.0 0.002004 253.28047 472.22226
499.0 0.002004 253.27994 469.53696
487.0 0.002053 253.27943 470.39545
475.0 0.002105 253.27908 475.26361
491.0 0.002037 253.27876 484.12674
482.0 0.002075 253.27855 496.05844
513.0 0.001949 253.27837 509.40948
529.0 0.001890 253.27824 519.51923
528.0 0.001894 253.27818 521.70538
519.0 0.001927 253.27824 514.60498
506.0 0.001976 253.27831 501.47180
485.0 0.002062 253.27850 486.37128
475.0 0.002105 253.27875 470.51660
465.0 0.002151 253.27907 453.22366
425.0 0.002353 253.27948 433.49316
395.0 0.002532 253.27989 411.95953
416.0 0.002404 253.28046 391.27664
393.0 0.002545 253.28105 374.24072
381.0 0.002625 253.28171 361.80896
364.0 0.002747 253.28244 354.00305
347.0 0.002882 253.28325 348.90833
346.0 0.002890 253.28412 345.40817
356.0 0.002809 253.28508 343.58896
309.0 0.003236 253.28613 343.84030
338.0 0.002959 253.28728 346.01514
369.0 0.002710 253.28842 348.33557
351.0 0.002849 253.28966 348.44968
341.0 0.002933 253.29100 345.24673
332.0 0.003012 253.29237 340.02319
326.0 0.003067 253.29382 335.12823
316.0 0.003165 253.29533 331.92368
276.0 0.00362 253.29700 330.40714
345.0 0.002899 253.29868 329.79877
367.0 0.002725 253.30042 328.81104
338.0 0.002959 253.30226 326.93594
325.0 0.003077 253.30420 323.70566
301.0 0.003322 253.30618 319.39990
325.0 0.003077 253.30821 314.37964
334.0 0.002994 253.31035 308.97363
320.0 0.003125 253.31252 303.13116
289.0 0.003460 253.31483 297.54559
293.0 0.003413 253.31718 292.91498
276.0 0.00362 253.31961 289.48080
273.0 0.00366 253.32214 287.28561
279.0 0.00358 253.32471 286.45132
277.0 0.00361 253.32736 286.86130
291.0 0.003436 253.33014 288.96732
287.0 0.003484 253.33290 292.74564
286.0 0.003497 253.33578 298.41010
305.0 0.003279 253.33876 307.02551
325.0 0.003077 253.34180 319.12161
335.0 0.002985 253.34486 335.10379
350.0 0.002857 253.34805 355.10968
379.0 0.002639 253.35133 379.03738
422.0 0.002370 253.35466 406.30673
454.0 0.002203 253.35808 434.67496
502.0 0.001992 253.36159 460.69156
501.0 0.001996 253.36514 479.76395
490.0 0.002041 253.36882 489.68469
493.0 0.002028 253.37253 491.58493
515.0 0.001942 253.37636 488.34225
510.0 0.001961 253.38022 481.16037
469.0 0.002132 253.38419 471.24701
455.0 0.002198 253.38823 459.74506
458.0 0.002183 253.39230 446.08365
414.0 0.002415 253.39651 428.54620
363.0 0.002755 253.40080 407.99283
364.0 0.002747 253.40512 387.51834
354.0 0.002825 253.40956 370.67773
361.0 0.002770 253.41408 359.25284
357.0 0.002801 253.41869 353.79517
365.0 0.002740 253.42332 354.25494
371.0 0.002695 253.42809 360.05115
375.0 0.002667 253.43289 369.59830
379.0 0.002639 253.43777 380.57782
407.0 0.002457 253.44279 390.71967
403.0 0.002481 253.44783 398.32401
393.0 0.002545 253.45300 403.72717
404.0 0.002475 253.45815 408.52832
407.0 0.002457 253.46347 413.72092
463.0 0.002160 253.46887 420.03012
494.0 0.002024 253.47432 427.25873
448.0 0.002232 253.47981 433.82016
447.0 0.002237 253.48547 436.16525
438.0 0.002283 253.49120 431.24396
395.0 0.002532 253.49693 418.88605
379.0 0.002639 253.50282 401.38712
387.0 0.002584 253.50877 381.80499
336.0 0.002976 253.51479 362.81747
327.0 0.003058 253.52087 346.33017
293.0 0.003413 253.52708 333.56494
353.0 0.002833 253.53333 324.68826
335.0 0.002985 253.53969 319.24969
303.0 0.003300 253.54608 316.69687
301.0 0.003322 253.55264 317.00723
309.0 0.003236 253.55920 320.79205
320.0 0.003125 253.56587 328.90430
353.0 0.002833 253.57265 341.92056
388.0 0.002577 253.57944 359.92996
397.0 0.002519 253.58636 382.09091
409.0 0.002445 253.59337 405.82999
402.0 0.002488 253.60045 426.53970
445.0 0.002247 253.60764 438.69116
428.0 0.002336 253.61484 438.78888
416.0 0.002404 253.62215 429.15076
385.0 0.002597 253.62961 414.37802
368.0 0.002717 253.63710 398.58359
364.0 0.002747 253.64465 382.81870
367.0 0.002725 253.65231 369.61023
324.0 0.003086 253.66008 360.85623
316.0 0.003165 253.66792 357.84875
377.0 0.002653 253.67577 360.73630
399.0 0.002506 253.68378 369.08429
409.0 0.002445 253.69186 381.74661
413.0 0.002421 253.70003 396.67044
424.0 0.002358 253.70824 410.51926
431.0 0.002320 253.71658 420.15750
412.0 0.002427 253.72501 425.37466
404.0 0.002475 253.73349 429.32065
442.0 0.002262 253.74202 435.22034
461.0 0.002169 253.75072 444.37866
465.0 0.002151 253.75945 456.38983
472.0 0.002119 253.76828 470.32486
501.0 0.001996 253.77719 484.81281
528.0 0.001894 253.78618 496.10342
516.0 0.001938 253.79524 499.63321
495.0 0.002020 253.80441 492.52853
475.0 0.002105 253.81369 477.02896
453.0 0.002208 253.82298 457.40024
406.0 0.002463 253.83243 437.43597
386.0 0.002591 253.84195 418.94272
388.0 0.002577 253.85150 402.88220
382.0 0.002618 253.86118 390.08328
360.0 0.002778 253.87090 380.21988
346.0 0.002890 253.88081 371.74051
341.0 0.002933 253.89067 363.34125
298.0 0.003356 253.90080 355.43491
352.0 0.002841 253.91086 350.10617
350.0 0.002857 253.92099 348.89661
370.0 0.002703 253.93124 352.67221
341.0 0.002933 253.94154 361.51227
359.0 0.002786 253.95209 374.52365
403.0 0.002481 253.96257 389.60785
415.0 0.002410 253.97319 403.59830
425.0 0.002353 253.98392 413.94846
419.0 0.002387 253.99466 419.39069
460.0 0.002174 254.00554 420.29532
409.0 0.002445 254.01648 418.27234
414.0 0.002415 254.02745 414.63470
420.0 0.002381 254.03862 408.96689
388.0 0.002577 254.04987 399.74976
369.0 0.002710 254.06119 386.12604
374.0 0.002674 254.07257 369.60208
344.0 0.002907 254.08401 353.12610
356.0 0.002809 254.09558 339.08411
319.0 0.003135 254.10718 328.89203
327.0 0.003058 254.11896 322.91779
319.0 0.003135 254.13077 321.10239
331.0 0.003021 254.14262 323.07059
335.0 0.002985 254.15463 328.15421
328.0 0.003049 254.16669 335.35406
348.0 0.002874 254.17885 343.53394
361.0 0.002770 254.19109 352.38998
375.0 0.002667 254.20345 361.72302
376.0 0.002660 254.21585 371.87885
383.0 0.002611 254.22841 382.58298
409.0 0.002445 254.24101 392.52148
432.0 0.002315 254.25366 399.86554
440.0 0.002273 254.26643 402.57132
401.0 0.002494 254.27928 399.06458
390.0 0.002564 254.29222 389.69733
375.0 0.002667 254.30527 375.97845
326.0 0.003067 254.31837 361.87924
327.0 0.003058 254.33154 350.14572
340.0 0.002941 254.34486 342.25647
329.0 0.003040 254.35831 338.99240
337.0 0.002967 254.37172 340.75717
347.0 0.002882 254.38530 347.94363
362.0 0.002762 254.39893 361.07190
383.0 0.002611 254.41272 380.92834
446.0 0.002242 254.42648 408.47556
490.0 0.002041 254.44041 445.27829
513.0 0.001949 254.45441 492.12933
573.0 0.001745 254.46848 549.16956
622.0 0.001608 254.48264 613.06512
711.0 0.001406 254.49693 675.95557
729.0 0.001372 254.51122 728.35986
766.0 0.001305 254.52567 763.10748
800.0 0.001250 254.54019 777.64838
759.0 0.001318 254.55479 771.91174
775.0 0.001290 254.56950 745.21271
665.0 0.001504 254.58426 698.13422
587.0 0.001704 254.59914 637.18713
504.0 0.001984 254.61407 573.59900
495.0 0.002020 254.62917 516.49426
468.0 0.002137 254.64430 471.14047
426.0 0.002347 254.65953 439.43307
412.0 0.002427 254.67482 420.99152
446.0 0.002242 254.69022 414.34457
432.0 0.002315 254.70572 417.35248
416.0 0.002404 254.72130 427.68607
479.0 0.002088 254.73701 443.63864
488.0 0.002049 254.75276 464.74203
516.0 0.001938 254.76860 489.97421
537.0 0.001862 254.78452 516.59485
557.0 0.001795 254.80048 540.52368
505.0 0.001980 254.81664 558.30200
540.0 0.001852 254.83286 567.21130
552.0 0.001812 254.84912 564.95050
572.0 0.001748 254.86548 549.33142
515.0 0.001942 254.88194 520.75769
471.0 0.002123 254.89848 483.67477
432.0 0.002315 254.91513 445.00729
399.0 0.002506 254.93188 409.98721
347.0 0.002882 254.94870 381.48566
352.0 0.002841 254.96558 360.26981
340.0 0.002941 254.98259 345.83157
337.0 0.002967 254.99963 337.07028
326.0 0.003067 255.01685 332.46259
317.0 0.003155 255.03407 330.43469
301.0 0.003322 255.05147 329.92419
322.0 0.003106 255.06883 330.68890
343.0 0.002915 255.08640 332.90491
356.0 0.002809 255.10402 336.38425
334.0 0.002994 255.12169 340.59515
325.0 0.003077 255.13948 344.77844
329.0 0.003040 255.15733 348.02164
343.0 0.002915 255.17534 349.29147
339.0 0.002950 255.19337 347.35104
325.0 0.003077 255.21150 342.07220
338.0 0.002959 255.22978 335.17783
328.0 0.003049 255.24806 328.30795
330.0 0.003030 255.26649 322.95880
327.0 0.003058 255.28497 319.66028
306.0 0.003268 255.30362 318.56720
333.0 0.003003 255.32227 319.62222
342.0 0.002924 255.34106 322.80984
341.0 0.002933 255.35986 328.17450
362.0 0.002762 255.37885 335.73654
363.0 0.002755 255.39784 345.78333
361.0 0.002770 255.41695 358.96292
375.0 0.002667 255.43614 376.54758
399.0 0.002506 255.45544 399.19724
474.0 0.002110 255.47488 426.69843
542.0 0.001845 255.49431 457.93738
587.0 0.001704 255.51385 490.38013
633.0 0.001580 255.53355 520.11877
625.0 0.001600 255.55328 543.08276
610.0 0.001639 255.57309 558.85107
572.0 0.001748 255.59303 570.56470
579.0 0.001727 255.61296 579.61139
586.0 0.001706 255.63315 582.85626
602.0 0.001661 255.65329 575.58478
557.0 0.001795 255.67357 556.42999
483.0 0.002070 255.69391 528.33533
486.0 0.002058 255.71434 495.46475
447.0 0.002237 255.73489 461.74994
364.0 0.002747 255.75552 431.12189
363.0 0.002755 255.77618 406.43933
349.0 0.002865 255.79703 389.11887
366.0 0.002732 255.81789 379.70236
379.0 0.002639 255.83887 378.08926
366.0 0.002732 255.85994 382.83755
390.0 0.002564 255.88110 392.48663
382.0 0.002618 255.90233 404.76462
443.0 0.002257 255.92369 416.54410
448.0 0.002232 255.94507 425.82184
434.0 0.002304 255.96655 431.85654
435.0 0.002299 255.98810 436.39743
419.0 0.002387 256.00980 440.35062
470.0 0.002128 256.03156 444.42490
453.0 0.002208 256.05347 445.79669
459.0 0.002179 256.07541 443.09964
426.0 0.002347 256.09741 437.19034
425.0 0.002353 256.11951 429.32538
423.0 0.002364 256.14178 420.30081
412.0 0.002427 256.16403 410.11853
398.0 0.002513 256.18649 398.00333
372.0 0.002688 256.20889 383.32245
357.0 0.002801 256.23148 366.74432
342.0 0.002924 256.25406 350.18927
300.0 0.003333 256.27689 335.56525
308.0 0.003247 256.29962 323.17670
306.0 0.003268 256.32254 313.24200
296.0 0.003378 256.34555 305.51764
295.0 0.003390 256.36868 299.39676
296.0 0.003378 256.39182 294.56342
297.0 0.003367 256.41510 290.95410
300.0 0.003333 256.43835 288.28537
294.0 0.003401 256.46188 287.25000
292.0 0.003425 256.48535 287.44235
316.0 0.003165 256.50894 289.06973
317.0 0.003155 256.53265 291.91800
304.0 0.003289 256.55643 295.88062
316.0 0.003165 256.58026 300.30457
319.0 0.003135 256.60422 304.50464
317.0 0.003155 256.62830 307.64249
331.0 0.003021 256.65240 308.12354
312.0 0.003205 256.67657 305.93829
302.0 0.003311 256.70096 301.80023
294.0 0.003401 256.72528 296.86938
308.0 0.003247 256.74976 292.10452
284.0 0.00352 256.77438 288.11533
298.0 0.003356 256.79895 285.29810
267.0 0.00375 256.82370 283.84488
266.0 0.00376 256.84857 283.86426
293.0 0.003413 256.87344 285.54358
304.0 0.003289 256.89847 288.96475
270.0 0.00370 256.92349 294.36456
284.0 0.00352 256.94873 301.74899
294.0 0.003401 256.97391 310.98334
314.0 0.003185 256.99930 321.50571
341.0 0.002933 257.02469 332.05765
328.0 0.003049 257.05017 340.71317
354.0 0.002825 257.07581 345.46506
353.0 0.002833 257.10147 345.31461
305.0 0.003279 257.12729 340.97522
301.0 0.003322 257.15308 334.06964
302.0 0.003311 257.17902 326.89621
300.0 0.003333 257.20502 320.85089
360.0 0.002778 257.23114 316.55118
324.0 0.003086 257.25735 313.83136
332.0 0.003012 257.28366 312.05988
302.0 0.003311 257.31000 310.56650
304.0 0.003289 257.33643 309.16284
322.0 0.003106 257.36292 307.93060
298.0 0.003356 257.38959 307.99298
325.0 0.003077 257.41626 309.42197
316.0 0.003165 257.44308 313.01083
298.0 0.003356 257.46997 318.50415
322.0 0.003106 257.49689 326.27072
358.0 0.002793 257.52396 335.79947
368.0 0.002717 257.55112 345.79968
398.0 0.002513 257.57825 353.82663
390.0 0.002564 257.60559 358.74188
369.0 0.002710 257.63297 359.22055
334.0 0.002994 257.66049 356.43716
347.0 0.002882 257.68802 353.02112
334.0 0.002994 257.71561 351.60626
353.0 0.002833 257.74335 354.45093
373.0 0.002681 257.77115 361.98746
386.0 0.002591 257.79904 374.68271
417.0 0.002398 257.82700 391.70288
454.0 0.002203 257.85504 411.24487
471.0 0.002123 257.88318 430.13605
461.0 0.002169 257.91144 444.23654
471.0 0.002123 257.93976 449.29120
469.0 0.002132 257.96811 444.90588
431.0 0.002320 257.99652 435.36572
418.0 0.002392 258.02515 426.03674
412.0 0.002427 258.05371 421.14325
429.0 0.002331 258.08249 422.75177
461.0 0.002169 258.11130 430.87781
496.0 0.002016 258.14017 444.15543
488.0 0.002049 258.16910 459.55444
488.0 0.002049 258.19809 473.40457
525.0 0.001905 258.22736 482.55145
499.0 0.002004 258.25650 485.43188
462.0 0.002165 258.28583 482.44992
431.0 0.002320 258.31519 476.26849
469.0 0.002132 258.34470 469.72357
470.0 0.002128 258.37421 463.37613
459.0 0.002179 258.40384 456.93347
443.0 0.002257 258.43353 450.24988
456.0 0.002193 258.46335 443.64557
441.0 0.002268 258.49316 436.80075
395.0 0.002532 258.52316 428.85284
404.0 0.002475 258.55322 420.24664
389.0 0.002571 258.58328 412.94257
393.0 0.002545 258.61356 409.06552
408.0 0.002451 258.64377 410.06497
420.0 0.002381 258.67416 416.72913
398.0 0.002513 258.70462 429.15240
434.0 0.002304 258.73511 446.52185
445.0 0.002247 258.76572 466.63211
508.0 0.001969 258.79639 487.41724
512.0 0.001953 258.82718 507.46329
524.0 0.001908 258.85803 524.85925
531.0 0.001883 258.88892 537.50446
546.0 0.001832 258.91992 542.14984
540.0 0.001852 258.95099 535.33203
487.0 0.002053 258.98221 516.26611
494.0 0.002024 259.01346 488.18970
460.0 0.002174 259.04474 456.57385
387.0 0.002584 259.07617 425.86050
364.0 0.002747 259.10767 399.63934
336.0 0.002976 259.13925 379.52017
352.0 0.002841 259.17093 366.00821
344.0 0.002907 259.20258 358.69785
358.0 0.002793 259.23441 356.82761
356.0 0.002809 259.26627 359.48572
367.0 0.002725 259.29828 365.76166
353.0 0.002833 259.33032 374.72696
346.0 0.002890 259.36243 384.77893
354.0 0.002825 259.39462 394.54312
379.0 0.002639 259.42691 403.08069
400.0 0.002500 259.45923 410.93137
417.0 0.002398 259.49173 419.05124
399.0 0.002506 259.52417 428.13376
414.0 0.002415 259.55682 437.79425
472.0 0.002119 259.58948 447.17688
483.0 0.002070 259.62219 456.76773
484.0 0.002066 259.65503 468.76535
488.0 0.002049 259.68796 485.69263
508.0 0.001969 259.72092 508.60855
572.0 0.001748 259.75400 535.83160
598.0 0.001672 259.78714 563.77740
591.0 0.001692 259.82037 587.69177
604.0 0.001656 259.85361 603.46606
621.0 0.001610 259.88699 608.99988
623.0 0.001605 259.92035 603.72937
585.0 0.001709 259.95395 587.53076
524.0 0.001908 259.98761 562.03320
479.0 0.002088 260.02115 530.92993
454.0 0.002203 260.05499 499.40173
437.0 0.002288 260.08881 472.10406
407.0 0.002457 260.12268 452.24640
416.0 0.002404 260.15671 441.82614
440.0 0.002273 260.19077 441.84418
450.0 0.002222 260.22482 452.40244
539.0 0.001855 260.25906 472.58228
535.0 0.001869 260.29337 499.77588
580.0 0.001724 260.32773 529.55414
574.0 0.001742 260.36209 555.63330
562.0 0.001779 260.39667 572.12579
572.0 0.001748 260.43124 578.00287
575.0 0.001739 260.46588 575.49921
576.0 0.001736 260.50064 567.57928
557.0 0.001795 260.53549 555.53406
504.0 0.001984 260.57037 539.39398
494.0 0.002024 260.60529 519.11597
467.0 0.002141 260.64035 495.14359
413.0 0.002421 260.67545 468.44543
415.0 0.002410 260.71060 440.94675
365.0 0.002740 260.74582 415.15073
357.0 0.002801 260.78116 393.28497
374.0 0.002674 260.81659 376.68182
351.0 0.002849 260.85205 366.11618
370.0 0.002703 260.88757 361.44348
381.0 0.002625 260.92322 362.23273
364.0 0.002747 260.95886 367.71457
394.0 0.002538 260.99463 376.54346
438.0 0.002283 261.03055 386.44788
453.0 0.002208 261.06641 394.52258
438.0 0.002283 261.10242 397.61279
383.0 0.002611 261.13846 395.27661
401.0 0.002494 261.17465 389.06772
378.0 0.002646 261.21078 382.03784
381.0 0.002625 261.24707 376.64984
388.0 0.002577 261.28342 374.22656
370.0 0.002703 261.31982 375.31473
373.0 0.002681 261.35635 380.16415
392.0 0.002551 261.39288 388.48444
402.0 0.002488 261.42947 399.43704
424.0 0.002358 261.46622 410.94675
428.0 0.002336 261.50302 420.33929
421.0 0.002375 261.53986 425.64325
406.0 0.002463 261.57681 427.37250
429.0 0.002331 261.61377 427.00385
426.0 0.002347 261.65088 425.16022
423.0 0.002364 261.68796 422.80856
377.0 0.002653 261.72519 420.27448
383.0 0.002611 261.76245 418.97528
424.0 0.002358 261.79974 420.02740
422.0 0.002370 261.83722 423.20834
454.0 0.002203 261.87460 426.69968
466.0 0.002146 261.91220 427.73471
444.0 0.002252 261.94989 424.86148
411.0 0.002433 261.98749 419.32935
390.0 0.002564 262.02524 413.90112
398.0 0.002513 262.06311 410.84720
415.0 0.002410 262.10098 411.07117
402.0 0.002488 262.13898 414.38821
411.0 0.002433 262.17697 419.63907
433.0 0.002309 262.21509 424.61807
417.0 0.002398 262.25327 426.46158
386.0 0.002591 262.29156 423.35150
399.0 0.002506 262.32980 415.91229
388.0 0.002577 262.36823 406.42068
378.0 0.002646 262.40668 396.86584
392.0 0.002551 262.44513 388.76083
368.0 0.002717 262.48373 382.66724
384.0 0.002604 262.52237 379.31769
370.0 0.002703 262.56107 379.61575
386.0 0.002591 262.59988 383.98029
405.0 0.002469 262.63870 391.89005
401.0 0.002494 262.67767 401.93353
400.0 0.002500 262.71658 412.29605
425.0 0.002353 262.75565 421.63736
377.0 0.002653 262.79477 428.99973
402.0 0.002488 262.83392 433.24911
450.0 0.002222 262.87326 432.57980
378.0 0.002646 262.91251 427.09464
408.0 0.002451 262.95181 417.79327
405.0 0.002469 262.99139 406.99725
406.0 0.002463 263.03085 396.62476
348.0 0.002874 263.07043 387.14468
364.0 0.002747 263.11017 379.12674
359.0 0.002786 263.14975 372.84537
344.0 0.002907 263.18954 367.93790
324.0 0.003086 263.22934 363.22882
353.0 0.002833 263.26929 357.36383
346.0 0.002890 263.30930 349.62189
304.0 0.003289 263.34927 341.64093
321.0 0.003115 263.38940 334.48517
321.0 0.003115 263.42950 329.26126
305.0 0.003279 263.46976 326.61725
337.0 0.002967 263.51004 326.72650
315.0 0.003175 263.55038 329.47302
316.0 0.003165 263.59085 334.13971
312.0 0.003205 263.63126 339.83310
335.0 0.002985 263.67191 345.20984
358.0 0.002793 263.71252 349.51297
383.0 0.002611 263.75308 352.23712
363.0 0.002755 263.79382 354.15747
338.0 0.002959 263.83459 356.09671
358.0 0.002793 263.87549 358.23062
371.0 0.002695 263.91644 359.55612
371.0 0.002695 263.95731 358.98080
365.0 0.002740 263.99847 356.02072
340.0 0.002941 264.03949 351.11636
339.0 0.002950 264.08072 345.07361
340.0 0.002941 264.12189 337.87146
342.0 0.002924 264.16321 330.04059
316.0 0.003165 264.20459 322.61133
318.0 0.003145 264.24594 316.02185
303.0 0.003300 264.28745 310.63852
289.0 0.003460 264.32898 306.71832
296.0 0.003378 264.37054 304.49719
300.0 0.003333 264.41223 304.25443
290.0 0.003448 264.45398 305.92654
300.0 0.003333 264.49579 309.44888
290.0 0.003448 264.53763 314.51282
324.0 0.003086 264.57941 320.52939
344.0 0.002907 264.62146 326.43564
331.0 0.003021 264.66342 331.15259
340.0 0.002941 264.70554 333.83011
340.0 0.002941 264.74768 334.71573
362.0 0.002762 264.78983 333.57068
365.0 0.002740 264.83209 330.25656
330.0 0.003030 264.87442 325.07230
289.0 0.003460 264.91684 318.48987
306.0 0.003268 264.95929 311.51709
288.0 0.003472 265.00171 305.13278
297.0 0.003367 265.04422 299.59427
285.0 0.00351 265.08688 295.19241
293.0 0.003413 265.12958 291.69412
299.0 0.003344 265.17230 289.37979
269.0 0.00372 265.21506 287.85495
268.0 0.00373 265.25797 287.14844
286.0 0.003497 265.30081 287.21735
290.0 0.003448 265.34381 288.09238
310.0 0.003226 265.38687 289.92477
315.0 0.003175 265.42981 291.98502
312.0 0.003205 265.47299 294.26428
310.0 0.003226 265.51614 296.20700
303.0 0.003300 265.55942 297.54205
301.0 0.003322 265.60269 298.25443
293.0 0.003413 265.64609 298.33411
285.0 0.00351 265.68954 298.25943
299.0 0.003344 265.73294 298.39331
324.0 0.003086 265.77652 298.84610
309.0 0.003236 265.82013 299.59241
280.0 0.00357 265.86365 300.65311
339.0 0.002950 265.90741 301.95032
328.0 0.003049 265.95117 303.21161
313.0 0.003195 265.99496 304.05884
314.0 0.003185 266.03879 304.24298
317.0 0.003155 266.08270 304.25009
305.0 0.003279 266.12674 304.70731
316.0 0.003165 266.17075 306.21954
317.0 0.003155 266.21487 309.52090
312.0 0.003205 266.25897 314.93900
325.0 0.003077 266.30313 322.48053
335.0 0.002985 266.34741 332.49112
355.0 0.002817 266.39163 344.09109
356.0 0.002809 266.43610 355.81357
388.0 0.002577 266.48050 366.05252
407.0 0.002457 266.52496 372.57452
386.0 0.002591 266.56946 374.27750
359.0 0.002786 266.61398 371.92212
338.0 0.002959 266.65863 367.78745
331.0 0.003021 266.70337 364.29224
358.0 0.002793 266.74805 363.07104
385.0 0.002597 266.79285 365.20877
383.0 0.002611 266.83765 370.64386
393.0 0.002545 266.88260 378.53015
397.0 0.002519 266.92758 387.12543
393.0 0.002545 266.97247 394.29276
390.0 0.002564 267.01752 398.57501
392.0 0.002551 267.06271 399.87204
394.0 0.002538 267.10776 399.12396
415.0 0.002410 267.15302 397.14047
377.0 0.002653 267.19824 394.23257
380.0 0.002632 267.24359 390.51486
373.0 0.002681 267.28888 386.94748
352.0 0.002841 267.33432 384.80701
372.0 0.002688 267.37985 385.16263
388.0 0.002577 267.42532 388.31326
380.0 0.002632 267.47089 393.79272
417.0 0.002398 267.51648 400.90936
456.0 0.002193 267.56219 409.41284
425.0 0.002353 267.60785 419.35428
472.0 0.002119 267.65359 430.31610
469.0 0.002132 267.69949 440.74435
485.0 0.002062 267.74536 448.00305
485.0 0.002062 267.79132 449.41467
456.0 0.002193 267.83728 444.49185
439.0 0.002278 267.88324 435.03287
409.0 0.002445 267.92932 423.56177
413.0 0.002421 267.97543 411.25488
368.0 0.002717 268.02161 399.37900
346.0 0.002890 268.06787 388.69775
357.0 0.002801 268.11401 379.64432
382.0 0.002618 268.16043 372.14136
357.0 0.002801 268.20679 366.26102
340.0 0.002941 268.25320 361.96579
334.0 0.002994 268.29971 359.78839
372.0 0.002688 268.34613 360.30231
400.0 0.002500 268.39273 363.96204
362.0 0.002762 268.43933 370.59494
375.0 0.002667 268.48602 379.59283
412.0 0.002427 268.53278 389.92087
411.0 0.002433 268.57947 400.54651
432.0 0.002315 268.62634 410.97006
432.0 0.002315 268.67319 420.88705
452.0 0.002212 268.72009 429.82870
453.0 0.002208 268.76703 436.96756
459.0 0.002179 268.81400 442.14850
465.0 0.002151 268.86108 446.15247
466.0 0.002146 268.90814 450.29395
471.0 0.002123 268.95526 455.60815
497.0 0.002012 269.00250 462.60074
503.0 0.001988 269.04974 470.56833
510.0 0.001961 269.09698 477.70987
515.0 0.001942 269.14435 481.05707
478.0 0.002092 269.19174 478.30481
455.0 0.002198 269.23914 469.57526
439.0 0.002278 269.28659 457.55133
449.0 0.002227 269.33414 444.98639
424.0 0.002358 269.38168 433.56696
409.0 0.002445 269.42932 423.23331
411.0 0.002433 269.47696 413.16238
379.0 0.002639 269.52466 402.80475
359.0 0.002786 269.57242 392.30392
363.0 0.002755 269.62015 382.50003
374.0 0.002674 269.66803 374.12384
372.0 0.002688 269.71591 367.90720
348.0 0.002874 269.76382 364.37466
346.0 0.002890 269.81189 363.93768
364.0 0.002747 269.85983 366.73199
363.0 0.002755 269.90799 372.96576
375.0 0.002667 269.95609 382.67862
414.0 0.002415 270.00415 395.84256
429.0 0.002331 270.05243 412.46085
446.0 0.002242 270.10065 431.51324
461.0 0.002169 270.14902 451.59348
521.0 0.001919 270.19739 470.20105
480.0 0.002083 270.24567 484.46225
564.0 0.001773 270.29416 492.26871
524.0 0.001908 270.34256 491.80118
446.0 0.002242 270.39111 482.38708
494.0 0.002024 270.43976 465.30722
453.0 0.002208 270.48825 443.42850
399.0 0.002506 270.53693 419.56808
380.0 0.002632 270.58566 396.18430
365.0 0.002740 270.63437 375.09204
346.0 0.002890 270.68320 357.26331
319.0 0.003135 270.73199 343.14395
321.0 0.003115 270.78091 332.56042
278.0 0.00360 270.82977 325.25183
291.0 0.003436 270.87878 320.57486
324.0 0.003086 270.92780 318.26071
316.0 0.003165 270.97678 317.85266
336.0 0.002976 271.02588 319.07751
295.0 0.003390 271.07501 321.72281
331.0 0.003021 271.12427 326.05908
329.0 0.003040 271.17346 331.88095
384.0 0.002604 271.22269 339.10236
365.0 0.002740 271.27203 347.23535
358.0 0.002793 271.32135 355.39075
374.0 0.002674 271.37079 362.12415
408.0 0.002451 271.42017 366.09042
400.0 0.002500 271.46960 366.68695
340.0 0.002941 271.51923 364.38055
362.0 0.002762 271.56873 361.33340
371.0 0.002695 271.61841 358.84528
361.0 0.002770 271.66797 357.93280
355.0 0.002817 271.71765 358.99698
382.0 0.002618 271.76743 361.89020
401.0 0.002494 271.81714 366.18341
405.0 0.002469 271.86697 370.85541
402.0 0.002488 271.91690 374.29446
406.0 0.002463 271.96674 374.74472
379.0 0.002639 272.01675 371.34302
357.0 0.002801 272.06668 364.78793
351.0 0.002849 272.11682 356.73349
366.0 0.002732 272.16684 349.04343
344.0 0.002907 272.21689 343.00589
335.0 0.002985 272.26706 339.50330
347.0 0.002882 272.31729 339.07968
357.0 0.002801 272.36752 342.12961
362.0 0.002762 272.41785 348.59409
347.0 0.002882 272.46808 358.19089
357.0 0.002801 272.51849 370.40509
407.0 0.002457 272.56885 384.02011
406.0 0.002463 272.61935 397.09167
412.0 0.002427 272.66983 407.59155
431.0 0.002320 272.72031 413.65393
428.0 0.002336 272.77094 415.06442
397.0 0.002519 272.82153 412.88504
426.0 0.002347 272.87219 408.83371
396.0 0.002525 272.92291 404.22223
382.0 0.002618 272.97357 399.58151
396.0 0.002525 273.02438 394.84384
389.0 0.002571 273.07520 389.25537
372.0 0.002688 273.12613 382.82098
325.0 0.003077 273.17703 375.92819
346.0 0.002890 273.22787 369.75983
354.0 0.002825 273.27893 365.40015
374.0 0.002674 273.32993 363.36731
352.0 0.002841 273.38104 363.95154
415.0 0.002410 273.43210 366.71985
380.0 0.002632 273.48318 371.28116
358.0 0.002793 273.53442 377.17291
410.0 0.002439 273.58560 383.91885
349.0 0.002865 273.63696 390.54068
388.0 0.002577 273.68823 396.14185
410.0 0.002439 273.73953 400.04367
389.0 0.002571 273.79099 402.00272
391.0 0.002558 273.84238 401.51227
350.0 0.002857 273.89389 399.07037
365.0 0.002740 273.94537 395.52966
363.0 0.002755 273.99692 392.15024
354.0 0.002825 274.04849 389.52020
375.0 0.002667 274.10010 387.99768
401.0 0.002494 274.15182 387.26700
396.0 0.002525 274.20355 386.64307
404.0 0.002475 274.25522 385.81589
352.0 0.002841 274.30707 384.67178
353.0 0.002833 274.35886 383.26880
379.0 0.002639 274.41080 382.44577
352.0 0.002841 274.46274 383.16733
367.0 0.002725 274.51462 386.19852
380.0 0.002632 274.56665 391.67078
409.0 0.002445 274.61865 399.15045
425.0 0.002353 274.67078 407.83673
419.0 0.002387 274.72290 416.68848
456.0 0.002193 274.77496 424.94064
471.0 0.002123 274.82727 432.72546
451.0 0.002217 274.87946 441.20316
477.0 0.002096 274.93170 451.76047
504.0 0.001984 274.98413 465.13181
521.0 0.001919 275.03647 480.57999
509.0 0.001965 275.08884 496.32983
502.0 0.001992 275.14133 509.82306
507.0 0.001972 275.19376 519.34406
542.0 0.001845 275.24631 524.79523
539.0 0.001855 275.29880 527.25195
568.0 0.001761 275.35150 527.25262
561.0 0.001783 275.40408 524.25714
552.0 0.001812 275.45685 517.60876
533.0 0.001876 275.50952 506.69464
532.0 0.001880 275.56226 492.14188
461.0 0.002169 275.61508 475.68903
436.0 0.002294 275.66794 459.31216
429.0 0.002331 275.72089 444.21194
407.0 0.002457 275.77374 430.80777
384.0 0.002604 275.82669 419.19052
402.0 0.002488 275.87967 409.47141
391.0 0.002558 275.93280 401.85059
373.0 0.002681 275.98590 396.64044
368.0 0.002717 276.03903 394.39517
361.0 0.002770 276.09207 395.76236
381.0 0.002625 276.14539 400.56580
407.0 0.002457 276.19864 408.44119
437.0 0.002288 276.25195 418.19562
444.0 0.002252 276.30530 428.01276
442.0 0.002262 276.35864 436.01135
406.0 0.002463 276.41211 440.93573
464.0 0.002155 276.46548 442.32101
437.0 0.002288 276.51904 440.28311
431.0 0.002320 276.57260 435.24570
439.0 0.002278 276.62616 427.79178
391.0 0.002558 276.67978 418.45825
398.0 0.002513 276.73346 407.84235
373.0 0.002681 276.78717 396.66589
380.0 0.002632 276.84094 385.83304
356.0 0.002809 276.89471 375.91937
336.0 0.002976 276.94846 367.03909
365.0 0.002740 277.00238 359.05298
342.0 0.002924 277.05630 351.78241
329.0 0.003040 277.11026 345.21085
323.0 0.003096 277.16422 339.45615
323.0 0.003096 277.21832 334.79996
309.0 0.003236 277.27234 331.51407
307.0 0.003257 277.32651 329.74164
334.0 0.002994 277.38071 329.44791
322.0 0.003106 277.43488 330.57623
335.0 0.002985 277.48917 333.05826
369.0 0.002710 277.54343 336.76462
378.0 0.002646 277.59784 341.65936
369.0 0.002710 277.65219 347.41104
378.0 0.002646 277.70651 354.06735
409.0 0.002445 277.76108 361.79193
413.0 0.002421 277.81549 371.15329
415.0 0.002410 277.87009 382.73315
447.0 0.002237 277.92468 396.43140
480.0 0.002083 277.97925 411.35428
514.0 0.001946 278.03394 426.29742
485.0 0.002062 278.08868 438.06094
470.0 0.002128 278.14349 444.33963
472.0 0.002119 278.19827 443.60468
430.0 0.002326 278.25311 436.21552
407.0 0.002457 278.30801 423.59943
388.0 0.002577 278.36288 408.70132
345.0 0.002899 278.41797 394.00623
359.0 0.002786 278.47296 381.43329
379.0 0.002639 278.52802 372.14505
377.0 0.002653 278.58310 366.88193
359.0 0.002786 278.63824 366.01840
355.0 0.002817 278.69345 369.60806
403.0 0.002481 278.74866 377.75851
410.0 0.002439 278.80392 390.07172
425.0 0.002353 278.85934 406.02460
449.0 0.002227 278.91461 424.46390
479.0 0.002088 278.97012 444.15991
551.0 0.001815 279.02557 463.60776
568.0 0.001761 279.08105 481.45917
543.0 0.001842 279.13660 495.82352
526.0 0.001901 279.19223 505.36716
516.0 0.001938 279.24789 509.51645
530.0 0.001887 279.30356 508.28043
526.0 0.001901 279.35922 501.74512
470.0 0.002128 279.41504 489.52728
445.0 0.002247 279.47089 472.43607
457.0 0.002188 279.52673 452.16809
434.0 0.002304 279.58270 430.93845
395.0 0.002532 279.63861 410.72791
392.0 0.002551 279.69461 393.15302
342.0 0.002924 279.75064 379.15350
329.0 0.003040 279.80679 369.03586
362.0 0.002762 279.86298 362.67059
347.0 0.002882 279.91910 359.67844
361.0 0.002770 279.97537 359.65219
369.0 0.002710 280.03168 361.75549
374.0 0.002674 280.08798 365.61423
399.0 0.002506 280.14438 370.75842
399.0 0.002506 280.20068 376.63504
386.0 0.002591 280.25726 382.40085
372.0 0.002688 280.31375 387.68649
405.0 0.002469 280.37039 391.84686
421.0 0.002375 280.42697 394.05771
388.0 0.002577 280.48361 393.95151
390.0 0.002564 280.54034 391.68082
404.0 0.002475 280.59708 387.65445
360.0 0.002778 280.65393 382.53214
382.0 0.002618 280.71082 377.06476
371.0 0.002695 280.76767 371.73746
335.0 0.002985 280.82462 367.21295
395.0 0.002532 280.88159 364.04489
377.0 0.002653 280.93872 362.31061
366.0 0.002732 280.99582 362.09152
369.0 0.002710 281.05292 363.28070
378.0 0.002646 281.11017 365.75919
377.0 0.002653 281.16733 369.67569
363.0 0.002755 281.22473 375.27567
372.0 0.002688 281.28204 382.39166
413.0 0.002421 281.33939 390.70184
425.0 0.002353 281.39688 398.90469
420.0 0.002381 281.45432 405.53439
416.0 0.002404 281.51196 408.78558
394.0 0.002538 281.56961 407.27802
387.0 0.002584 281.62720 400.82281
371.0 0.002695 281.68494 390.67294
333.0 0.003003 281.74271 378.93796
316.0 0.003165 281.80051 367.27206
344.0 0.002907 281.85846 356.85776
322.0 0.003106 281.91626 348.30203
304.0 0.003289 281.97421 341.90311
325.0 0.003077 282.03226 337.82681
345.0 0.002899 282.09036 335.86795
342.0 0.002924 282.14844 335.91251
340.0 0.002941 282.20663 337.79758
354.0 0.002825 282.26492 341.34189
350.0 0.002857 282.32315 346.42114
355.0 0.002817 282.38147 352.94040
359.0 0.002786 282.43991 360.89297
407.0 0.002457 282.49829 370.37607
384.0 0.002604 282.55682 381.59332
427.0 0.002342 282.61539 394.42944
434.0 0.002304 282.67401 408.46338
463.0 0.002160 282.73273 422.79822
507.0 0.001972 282.79135 436.40237
487.0 0.002053 282.85016 448.60419
493.0 0.002028 282.90903 459.25046
495.0 0.002020 282.96790 468.92957
516.0 0.001938 283.02686 478.58102
541.0 0.001848 283.08578 488.61874
575.0 0.001739 283.14496 499.77164
559.0 0.001789 283.20392 512.59369
565.0 0.001770 283.26318 528.28870
594.0 0.001684 283.32242 547.94952
643.0 0.001555 283.38162 572.40521
678.0 0.001475 283.44104 601.21674
771.0 0.001297 283.50040 632.00201
759.0 0.001318 283.55988 660.45746
745.0 0.001342 283.61945 680.84180
786.0 0.001272 283.67896 688.69641
774.0 0.001292 283.73856 682.31543
700.0 0.001429 283.79828 663.13403
621.0 0.001610 283.85809 634.48016
568.0 0.001761 283.91788 601.18115
549.0 0.001821 283.97769 567.58130
525.0 0.001905 284.03763 536.76477
505.0 0.001980 284.09766 510.37082
483.0 0.002070 284.15771 488.70993
458.0 0.002183 284.21786 471.87817
477.0 0.002096 284.27795 460.10703
460.0 0.002174 284.33826 453.72876
442.0 0.002262 284.39850 452.87558
457.0 0.002188 284.45886 457.57898
483.0 0.002070 284.51932 466.94067
508.0 0.001969 284.57971 480.32394
541.0 0.001848 284.64035 496.94855
566.0 0.001767 284.70090 516.53717
597.0 0.001675 284.76157 537.93640
633.0 0.001580 284.82233 559.39740
657.0 0.001522 284.88306 579.12244
642.0 0.001558 284.94397 595.85645
638.0 0.001567 285.00485 608.26459
667.0 0.001499 285.06586 615.51691
658.0 0.001520 285.12695 617.19867
653.0 0.001531 285.18802 613.70483
602.0 0.001661 285.24924 605.88153
583.0 0.001715 285.31039 595.19574
577.0 0.001733 285.37186 583.35181
560.0 0.001786 285.43314 572.29767
564.0 0.001773 285.49454 562.58746
542.0 0.001845 285.55606 553.61993
556.0 0.001799 285.61768 543.35675
502.0 0.001992 285.67932 529.71021
480.0 0.002083 285.74103 512.17798
464.0 0.002155 285.80276 492.29037
446.0 0.002242 285.86465 472.56714
411.0 0.002433 285.92657 455.24332
417.0 0.002398 285.98862 441.66357
424.0 0.002358 286.05066 432.49777
413.0 0.002421 286.11273 427.34283
392.0 0.002551 286.17499 425.43826
407.0 0.002457 286.23715 425.39938
425.0 0.002353 286.29956 425.53162
440.0 0.002273 286.36197 424.47794
439.0 0.002278 286.42438 421.82205
441.0 0.002268 286.48697 418.15631
442.0 0.002262 286.54947 414.58203
402.0 0.002488 286.61227 412.03915
408.0 0.002451 286.67502 411.14282
410.0 0.002439 286.73785 411.85526
412.0 0.002427 286.80075 414.16083
450.0 0.002222 286.86368 418.05243
429.0 0.002331 286.92673 423.42694
443.0 0.002257 286.98990 429.95963
404.0 0.002475 287.05298 436.47812
429.0 0.002331 287.11630 441.60782
420.0 0.002381 287.17966 443.91776
406.0 0.002463 287.24307 443.28665
423.0 0.002364 287.30658 440.57587
419.0 0.002387 287.37006 437.32455
442.0 0.002262 287.43378 434.97336
476.0 0.002101 287.49741 433.94748
468.0 0.002137 287.56137 433.90723
454.0 0.002203 287.62518 433.32053
454.0 0.002203 287.68906 431.12875
441.0 0.002268 287.75317 426.73413
384.0 0.002604 287.81720 420.47833
401.0 0.002494 287.88144 413.11490
402.0 0.002488 287.94574 405.34656
356.0 0.002809 288.00995 397.61975
346.0 0.002890 288.07443 390.20697
362.0 0.002762 288.13889 383.57315
372.0 0.002688 288.20352 378.09158
365.0 0.002740 288.26819 374.58600
368.0 0.002717 288.33282 373.63281
393.0 0.002545 288.39767 375.85379
414.0 0.002415 288.46255 381.60999
432.0 0.002315 288.52762 391.14639
443.0 0.002257 288.59262 404.43936
441.0 0.002268 288.65768 421.16199
449.0 0.002227 288.72302 440.75238
500.0 0.002000 288.78824 461.97491
513.0 0.001949 288.85364 483.22122
502.0 0.001992 288.91916 501.94995
536.0 0.001866 288.98465 515.64270
571.0 0.001751 289.05026 522.21204
552.0 0.001812 289.11597 521.07111
516.0 0.001938 289.18185 512.33636
469.0 0.002132 289.24780 497.73163
455.0 0.002198 289.31369 478.44061
429.0 0.002331 289.37979 457.04599
392.0 0.002551 289.44592 435.84293
401.0 0.002494 289.51227 416.33203
367.0 0.002725 289.57855 399.22699
357.0 0.002801 289.64493 384.85889
332.0 0.003012 289.71143 373.09784
331.0 0.003021 289.77798 363.47675
302.0 0.003311 289.84470 356.61374
340.0 0.002941 289.91144 352.16476
341.0 0.002933 289.97821 349.85071
364.0 0.002747 290.04529 350.08160
333.0 0.003003 290.11224 352.56650
356.0 0.002809 290.17941 357.26331
340.0 0.002941 290.24661 364.08527
390.0 0.002564 290.31381 372.75726
379.0 0.002639 290.38129 382.89319
375.0 0.002667 290.44876 393.71591
423.0 0.002364 290.51645 404.15097
402.0 0.002488 290.58405 412.93152
437.0 0.002288 290.65176 419.09912
425.0 0.002353 290.71970 422.43427
406.0 0.002463 290.78760 423.39008
436.0 0.002294 290.85568 422.67545
422.0 0.002370 290.92383 421.24686
436.0 0.002294 290.99194 419.24548
413.0 0.002421 291.06033 417.38339
406.0 0.002463 291.12872 415.30585
403.0 0.002481 291.19730 412.65585
400.0 0.002500 291.26587 409.54373
374.0 0.002674 291.33450 406.47324
402.0 0.002488 291.40347 404.88428
396.0 0.002525 291.47232 405.70474
420.0 0.002381 291.54135 409.19278
431.0 0.002320 291.61050 415.79315
437.0 0.002288 291.67960 425.34912
457.0 0.002188 291.74890 436.91888
457.0 0.002188 291.81830 449.03140
482.0 0.002075 291.88779 459.97641
498.0 0.002008 291.95749 468.48315
501.0 0.001996 292.02716 474.28934
518.0 0.001931 292.09692 477.89154
476.0 0.002101 292.16687 479.49210
484.0 0.002066 292.23685 479.25821
502.0 0.001992 292.30698 476.09119
473.0 0.002114 292.37714 469.40811
446.0 0.002242 292.44745 459.68378
422.0 0.002370 292.51785 448.50497
409.0 0.002445 292.58838 437.59787
405.0 0.002469 292.65903 428.29745
403.0 0.002481 292.72971 421.32510
406.0 0.002463 292.80057 416.61050
394.0 0.002538 292.87149 413.90738
390.0 0.002564 292.94263 413.02835
399.0 0.002506 293.01379 413.86121
415.0 0.002410 293.08490 416.62463
426.0 0.002347 293.15628 421.31580
438.0 0.002283 293.22778 427.63895
490.0 0.002041 293.29941 434.87033
484.0 0.002066 293.37106 442.33856
420.0 0.002381 293.44284 449.69312
431.0 0.002320 293.51474 456.99188
471.0 0.002123 293.58673 464.55826
471.0 0.002123 293.65887 472.35202
481.0 0.002079 293.73111 480.41403
542.0 0.001845 293.80341 488.62137
508.0 0.001969 293.87589 496.99442
525.0 0.001905 293.94843 504.55606
473.0 0.002114 294.02118 509.89792
494.0 0.002024 294.09399 511.34686
491.0 0.002037 294.16678 508.19019
477.0 0.002096 294.23984 500.52130
480.0 0.002083 294.31296 489.48447
491.0 0.002037 294.38626 476.71411
456.0 0.002193 294.45959 463.92926
441.0 0.002268 294.53296 452.61035
445.0 0.002247 294.60660 443.73456
448.0 0.002232 294.68024 437.67508
415.0 0.002410 294.75415 434.27664
424.0 0.002358 294.82813 432.84985
445.0 0.002247 294.90204 432.37219
455.0 0.002198 294.97623 432.00214
416.0 0.002404 295.05048 431.31720
433.0 0.002309 295.12491 430.41202
399.0 0.002506 295.19946 429.77014
429.0 0.002331 295.27411 430.12030
460.0 0.002174 295.34891 432.40353
439.0 0.002278 295.42377 437.41980
456.0 0.002193 295.49875 445.73193
483.0 0.002070 295.57394 457.57413
469.0 0.002132 295.64902 472.85114
503.0 0.001988 295.72452 490.99454
549.0 0.001821 295.79990 510.74448
556.0 0.001799 295.87552 530.52112
610.0 0.001639 295.95132 548.55402
660.0 0.001515 296.02704 564.49182
671.0 0.001490 296.10312 577.94885
677.0 0.001477 296.17914 588.41107
716.0 0.001397 296.25546 594.61713
683.0 0.001464 296.33176 594.86926
611.0 0.001637 296.40817 587.94867
578.0 0.001730 296.48483 574.32654
561.0 0.001783 296.56146 556.09747
536.0 0.001866 296.63840 535.59009
514.0 0.001946 296.71536 514.47174
490.0 0.002041 296.79236 493.51865
456.0 0.002193 296.86963 473.09647
437.0 0.002288 296.94696 453.85117
440.0 0.002273 297.02451 436.64328
403.0 0.002481 297.10214 422.21384
381.0 0.002625 297.17975 411.11862
375.0 0.002667 297.25766 403.49719
385.0 0.002597 297.33566 399.27942
379.0 0.002639 297.41388 398.22455
365.0 0.002740 297.49210 400.01038
360.0 0.002778 297.57043 404.19785
408.0 0.002451 297.64896 410.31024
426.0 0.002347 297.72760 417.76105
415.0 0.002410 297.80643 425.98386
463.0 0.002160 297.88535 434.84531
468.0 0.002137 297.96432 444.34991
496.0 0.002016 298.04358 454.72943
511.0 0.001957 298.12283 465.86636
515.0 0.001942 298.20230 477.09439
541.0 0.001848 298.28195 487.04959
544.0 0.001838 298.36151 494.55850
540.0 0.001852 298.44144 498.78680
546.0 0.001832 298.52142 499.37216
523.0 0.001912 298.60159 495.92905
517.0 0.001934 298.68192 487.95560
453.0 0.002208 298.76221 475.36697
463.0 0.002160 298.84277 458.99329
397.0 0.002519 298.92343 440.56891
378.0 0.002646 299.00427 421.87613
402.0 0.002488 299.08524 404.43060
416.0 0.002404 299.16626 388.89975
352.0 0.002841 299.24756 375.98807
364.0 0.002747 299.32886 365.64413
362.0 0.002762 299.41040 357.74179
321.0 0.003115 299.49207 351.89285
343.0 0.002915 299.57382 347.77921
332.0 0.003012 299.65576 345.01068
324.0 0.003086 299.73779 343.27603
330.0 0.003030 299.82004 342.38870
344.0 0.002907 299.90234 342.17203
340.0 0.002941 299.98477 343.07080
327.0 0.003058 300.06750 345.19739
337.0 0.002967 300.15018 348.43567
370.0 0.002703 300.23318 352.91199
390.0 0.002564 300.31625 358.64392
362.0 0.002762 300.39941 365.26672
366.0 0.002732 300.48282 372.36569
402.0 0.002488 300.56628 379.15295
412.0 0.002427 300.64996 384.61728
386.0 0.002591 300.73376 387.73129
395.0 0.002532 300.81763 387.86911
361.0 0.002770 300.90179 385.50555
369.0 0.002710 300.98593 381.46069
365.0 0.002740 301.07037 376.80508
363.0 0.002755 301.15488 372.39371
358.0 0.002793 301.23950 368.64249
358.0 0.002793 301.32437 365.61871
344.0 0.002907 301.40933 363.24573
340.0 0.002941 301.49451 361.19119
343.0 0.002915 301.57980 359.40598
320.0 0.003125 301.66510 357.77542
339.0 0.002950 301.75073 356.54178
366.0 0.002732 301.83643 355.43344
341.0 0.002933 301.92227 354.23083
357.0 0.002801 302.00836 352.79837
353.0 0.002833 302.09448 351.05383
333.0 0.003003 302.18079 348.92609
360.0 0.002778 302.26721 346.65613
341.0 0.002933 302.35388 344.50256
337.0 0.002967 302.44067 342.62262
332.0 0.003012 302.52756 341.33304
322.0 0.003106 302.61472 340.58115
335.0 0.002985 302.70181 340.33701
308.0 0.003247 302.78934 340.67188
309.0 0.003236 302.87686 341.30319
298.0 0.003356 302.96442 342.08231
306.0 0.003268 303.05231 342.90225
356.0 0.002809 303.14029 343.69006
350.0 0.002857 303.22849 344.43643
327.0 0.003058 303.31680 345.04184
330.0 0.003030 303.40518 345.46289
334.0 0.002994 303.49390 345.71664
325.0 0.003077 303.58261 345.92352
319.0 0.003135 303.67166 346.10925
313.0 0.003195 303.76074 346.48526
352.0 0.002841 303.84988 347.18149
310.0 0.003226 303.93936 348.34238
346.0 0.002890 304.02890 350.06961
359.0 0.002786 304.11865 352.56512
345.0 0.002899 304.20847 355.54697
388.0 0.002577 304.29849 359.08701
364.0 0.002747 304.38870 363.06110
407.0 0.002457 304.47903 367.05945
390.0 0.002564 304.56964 370.77698
387.0 0.002584 304.66028 373.87802
386.0 0.002591 304.75104 376.09586
364.0 0.002747 304.84207 377.42142
388.0 0.002577 304.93317 378.11853
379.0 0.002639 305.02451 378.40384
369.0 0.002710 305.11612 378.32965
370.0 0.002703 305.20764 377.76007
341.0 0.002933 305.29941 376.58923
350.0 0.002857 305.39133 374.64438
343.0 0.002915 305.48352 372.03088
331.0 0.003021 305.57584 369.12418
357.0 0.002801 305.66812 366.13770
347.0 0.002882 305.76077 363.58954
339.0 0.002950 305.85352 361.77408
348.0 0.002874 305.94647 360.77914
365.0 0.002740 306.03958 360.68750
360.0 0.002778 306.13278 361.26968
345.0 0.002899 306.22623 362.39893
350.0 0.002857 306.31976 363.82571
369.0 0.002710 306.41357 365.50143
361.0 0.002770 306.50748 367.04736
388.0 0.002577 306.60135 368.31415
383.0 0.002611 306.69571 369.17181
348.0 0.002874 306.79007 369.42416
362.0 0.002762 306.88470 369.21027
357.0 0.002801 306.97937 368.55753
343.0 0.002915 307.07416 367.69241
352.0 0.002841 307.16934 366.73291
347.0 0.002882 307.26447 365.76669
343.0 0.002915 307.35992 365.35956
355.0 0.002817 307.45541 365.37805
344.0 0.002907 307.55106 365.95703
362.0 0.002762 307.64700 367.11044
393.0 0.002545 307.74295 368.74588
398.0 0.002513 307.83923 370.83398
370.0 0.002703 307.93558 373.39868
404.0 0.002475 308.03204 376.49884
380.0 0.002632 308.12881 380.22208
387.0 0.002584 308.22562 384.42316
392.0 0.002551 308.32272 388.98499
352.0 0.002841 308.41989 393.81958
401.0 0.002494 308.51715 398.97672
411.0 0.002433 308.61478 404.70364
424.0 0.002358 308.71234 411.05966
445.0 0.002247 308.81036 417.94327
458.0 0.002183 308.90836 424.82965
488.0 0.002049 309.00644 430.79364
470.0 0.002128 309.10489 434.66714
442.0 0.002262 309.20334 435.40820
463.0 0.002160 309.30212 432.69296
397.0 0.002519 309.40097 427.10687
418.0 0.002392 309.49985 420.17639
383.0 0.002611 309.59909 413.19144
401.0 0.002494 309.69843 407.42963
388.0 0.002577 309.79797 403.94189
416.0 0.002404 309.89777 403.16895
431.0 0.002320 309.99744 405.32053
420.0 0.002381 310.09747 410.33835
467.0 0.002141 310.19769 417.69403
483.0 0.002070 310.29810 426.74997
473.0 0.002114 310.39862 436.32791
483.0 0.002070 310.49921 445.11441
427.0 0.002342 310.60010 451.90967
468.0 0.002137 310.70111 455.79044
505.0 0.001980 310.80237 456.23535
490.0 0.002041 310.90366 453.14789
452.0 0.002212 311.00510 447.18301
422.0 0.002370 311.10687 439.41287
405.0 0.002469 311.20862 431.22415
400.0 0.002500 311.31070 423.76495
400.0 0.002500 311.41287 417.78015
417.0 0.002398 311.51505 413.56189
426.0 0.002347 311.61768 411.31903
418.0 0.002392 311.72025 409.85449
407.0 0.002457 311.82318 408.94696
398.0 0.002513 311.92621 408.12503
399.0 0.002506 312.02921 407.31955
416.0 0.002404 312.13272 406.70770
412.0 0.002427 312.23608 406.64218
409.0 0.002445 312.33981 407.44263
431.0 0.002320 312.44360 409.16879
433.0 0.002309 312.54755 411.68939
438.0 0.002283 312.65173 414.66684
421.0 0.002375 312.75604 417.73471
402.0 0.002488 312.86060 420.70300
425.0 0.002353 312.96518 423.63263
455.0 0.002198 313.06985 426.62592
456.0 0.002193 313.17493 429.59125
419.0 0.002387 313.28000 432.24243
455.0 0.002198 313.38535 434.19107
459.0 0.002179 313.49091 434.98990
442.0 0.002262 313.59637 434.18066
438.0 0.002283 313.70218 431.49179
426.0 0.002347 313.80811 426.89557
397.0 0.002519 313.91425 420.53094
390.0 0.002564 314.02051 413.01300
362.0 0.002762 314.12686 404.90408
370.0 0.002703 314.23340 396.84091
373.0 0.002681 314.34012 389.46881
369.0 0.002710 314.44711 383.36288
356.0 0.002809 314.55420 379.03790
369.0 0.002710 314.66129 376.26254
343.0 0.002915 314.76877 375.21518
364.0 0.002747 314.87625 375.85098
346.0 0.002890 314.98395 377.79172
379.0 0.002639 315.09183 380.75964
400.0 0.002500 315.19977 384.44598
390.0 0.002564 315.30801 388.26633
410.0 0.002439 315.41629 391.54706
386.0 0.002591 315.52487 393.64917
410.0 0.002439 315.63351 394.23801
349.0 0.002865 315.74203 393.48022
349.0 0.002865 315.85117 391.85800
355.0 0.002817 315.96017 390.19946
361.0 0.002770 316.06952 389.15900
367.0 0.002725 316.17896 389.27951
381.0 0.002625 316.28836 390.84296
398.0 0.002513 316.39822 393.95065
392.0 0.002551 316.50793 398.54666
390.0 0.002564 316.61807 404.43475
371.0 0.002695 316.72821 411.43045
411.0 0.002433 316.83841 419.31833
417.0 0.002398 316.94904 427.67184
418.0 0.002392 317.05957 436.23398
459.0 0.002179 317.17038 444.85861
449.0 0.002227 317.28125 453.47815
451.0 0.002217 317.39221 461.91739
506.0 0.001976 317.50351 469.72464
510.0 0.001961 317.61484 476.19101
527.0 0.001898 317.72641 480.38742
497.0 0.002012 317.83807 481.69302
467.0 0.002141 317.94971 480.27725
465.0 0.002151 318.06174 477.00626
457.0 0.002188 318.17377 473.11334
494.0 0.002024 318.28607 469.50534
496.0 0.002016 318.39847 466.76016
459.0 0.002179 318.51096 464.73187
456.0 0.002193 318.62360 462.91507
462.0 0.002165 318.73636 460.74414
494.0 0.002024 318.84933 457.81589
482.0 0.002075 318.96243 454.04037
463.0 0.002160 319.07553 449.85764
448.0 0.002232 319.18896 445.76425
416.0 0.002404 319.30234 442.15530
421.0 0.002375 319.41599 439.63168
445.0 0.002247 319.52985 438.07367
443.0 0.002257 319.64362 437.46072
434.0 0.002304 319.75772 437.25595
454.0 0.002203 319.87180 437.06305
439.0 0.002278 319.98621 436.65454
401.0 0.002494 320.10059 436.01160
405.0 0.002469 320.21503 435.44153
420.0 0.002381 320.32980 435.01163
423.0 0.002364 320.44452 434.93924
420.0 0.002381 320.55951 435.08176
419.0 0.002387 320.67459 434.93973
424.0 0.002358 320.78970 434.40109
432.0 0.002315 320.90509 433.03073
434.0 0.002304 321.02045 430.96738
421.0 0.002375 321.13611 428.66907
419.0 0.002387 321.25174 426.78552
436.0 0.002294 321.36743 425.65894
421.0 0.002375 321.48349 425.49496
426.0 0.002347 321.59949 426.09375
438.0 0.002283 321.71573 426.95868
430.0 0.002326 321.83197 427.34955
457.0 0.002188 321.94830 426.69675
432.0 0.002315 322.06485 424.77036
415.0 0.002410 322.18146 421.77414
399.0 0.002506 322.29828 418.18015
407.0 0.002457 322.41519 414.51743
447.0 0.002237 322.53198 411.22934
415.0 0.002410 322.64911 408.54956
376.0 0.002660 322.76624 406.63339
402.0 0.002488 322.88370 405.50452
398.0 0.002513 323.00110 405.14267
400.0 0.002500 323.11847 405.70331
405.0 0.002469 323.23611 407.53137
384.0 0.002604 323.35388 411.11469
418.0 0.002392 323.47168 416.98529
432.0 0.002315 323.58963 425.63010
452.0 0.002212 323.70761 437.24692
468.0 0.002137 323.82574 452.13324
506.0 0.001976 323.94394 469.90826
534.0 0.001873 324.06226 490.24652
565.0 0.001770 324.18069 512.16370
593.0 0.001686 324.29910 534.22009
626.0 0.001597 324.41779 554.50781
661.0 0.001513 324.53641 570.65588
677.0 0.001477 324.65527 580.22290
653.0 0.001531 324.77405 581.41559
606.0 0.001650 324.89294 573.84027
581.0 0.001721 325.01205 558.73663
546.0 0.001832 325.13110 538.51770
494.0 0.002024 325.25040 515.76184
457.0 0.002188 325.36963 492.56409
454.0 0.002203 325.48892 470.85394
434.0 0.002304 325.60843 451.45636
406.0 0.002463 325.72787 435.02301
397.0 0.002519 325.84750 421.74561
368.0 0.002717 325.96716 411.85791
360.0 0.002778 326.08679 405.02853
396.0 0.002525 326.20667 401.27444
386.0 0.002591 326.32651 400.23770
398.0 0.002513 326.44650 401.79800
396.0 0.002525 326.56647 405.99808
389.0 0.002571 326.68643 412.62927
429.0 0.002331 326.80667 421.76599
431.0 0.002320 326.92679 433.18744
461.0 0.002169 327.04715 446.65155
444.0 0.002252 327.16748 461.76709
500.0 0.002000 327.28772 477.81717
527.0 0.001898 327.40817 494.35336
545.0 0.001835 327.52859 510.63113
574.0 0.001742 327.64917 525.96191
627.0 0.001595 327.76981 539.44257
621.0 0.001610 327.89032 549.99365
579.0 0.001727 328.01099 556.48810
566.0 0.001767 328.13168 558.00238
641.0 0.001560 328.25244 554.44122
587.0 0.001704 328.37323 546.43610
552.0 0.001812 328.49393 535.41199
546.0 0.001832 328.61484 522.82538
515.0 0.001942 328.73575 509.67911
497.0 0.002012 328.85672 496.39316
497.0 0.002012 328.97769 483.33499
491.0 0.002037 329.09848 470.71140
428.0 0.002336 329.21967 458.83942
441.0 0.002268 329.34067 448.16354
426.0 0.002347 329.46179 439.07681
405.0 0.002469 329.58282 431.89136
387.0 0.002584 329.70374 426.88177
392.0 0.002551 329.82495 424.27188
387.0 0.002584 329.94604 424.16745
434.0 0.002304 330.06723 426.54788
442.0 0.002262 330.18839 431.22824
476.0 0.002101 330.30936 437.99530
480.0 0.002083 330.43063 446.39444
484.0 0.002066 330.55167 455.91010
509.0 0.001965 330.67297 465.94986
529.0 0.001890 330.79413 475.84366
547.0 0.001828 330.91510 485.26154
578.0 0.001730 331.03632 493.66690
590.0 0.001695 331.15741 500.43509
555.0 0.001802 331.27859 504.95459
541.0 0.001848 331.39966 506.22379
529.0 0.001890 331.52066 504.19122
523.0 0.001912 331.64185 499.07294
517.0 0.001934 331.76285 491.73834
484.0 0.002066 331.88391 483.16159
461.0 0.002169 332.00491 474.32385
470.0 0.002128 332.12573 465.80151
440.0 0.002273 332.24680 457.84882
421.0 0.002375 332.36761 450.58374
426.0 0.002347 332.48856 444.01331
419.0 0.002387 332.60947 438.23532
420.0 0.002381 332.73007 433.44556
417.0 0.002398 332.85092 429.71237
432.0 0.002315 332.97153 427.33395
439.0 0.002278 333.09229 426.12149
429.0 0.002331 333.21289 426.26666
401.0 0.002494 333.33331 427.91177
404.0 0.002475 333.45389 430.91452
414.0 0.002415 333.57431 435.21927
421.0 0.002375 333.69470 440.77591
441.0 0.002268 333.81506 447.58072
446.0 0.002242 333.93521 455.57635
464.0 0.002155 334.05542 464.56992
516.0 0.001938 334.17542 474.16476
515.0 0.001942 334.29544 483.62830
582.0 0.001718 334.41544 492.03104
564.0 0.001773 334.53519 498.35040
520.0 0.001923 334.65500 501.61655
497.0 0.002012 334.77460 501.76590
535.0 0.001869 334.89432 498.81363
515.0 0.001942 335.01376 493.41000
420.0 0.002381 335.13300 486.18515
480.0 0.002083 335.25241 477.67169
435.0 0.002299 335.37152 468.40665
428.0 0.002336 335.49063 458.90067
417.0 0.002398 335.60956 449.79120
423.0 0.002364 335.72824 441.60376
441.0 0.002268 335.84717 434.66901
420.0 0.002381 335.96570 429.42191
396.0 0.002525 336.08426 425.88879
413.0 0.002421 336.20255 423.99374
395.0 0.002532 336.32074 423.59103
407.0 0.002457 336.43887 424.47916
417.0 0.002398 336.55682 426.30344
420.0 0.002381 336.67468 428.89291
452.0 0.002212 336.79233 432.00339
400.0 0.002500 336.90973 435.69156
406.0 0.002463 337.02719 440.09644
441.0 0.002268 337.14438 445.33258
480.0 0.002083 337.26157 451.42615
494.0 0.002024 337.37848 458.12241
476.0 0.002101 337.49503 464.85809
508.0 0.001969 337.61163 470.83377
512.0 0.001953 337.72803 475.03027
452.0 0.002212 337.84430 476.79401
478.0 0.002092 337.96039 475.90561
489.0 0.002045 338.07611 472.90469
463.0 0.002160 338.19180 468.48633
442.0 0.002262 338.30731 463.17950
459.0 0.002179 338.42258 458.44684
456.0 0.002193 338.53772 454.34232
422.0 0.002370 338.65244 451.04291
420.0 0.002381 338.76715 448.74338
449.0 0.002227 338.88156 447.61069
440.0 0.002273 338.99585 447.73639
434.0 0.002304 339.10995 449.19916
463.0 0.002160 339.22363 451.90106
485.0 0.002062 339.33725 455.62872
466.0 0.002146 339.45053 459.99954
475.0 0.002105 339.56378 464.62115
448.0 0.002232 339.67667 468.79361
472.0 0.002119 339.78912 472.25317
487.0 0.002053 339.90161 474.80432
495.0 0.002020 340.01358 476.30878
456.0 0.002193 340.12564 476.53171
459.0 0.002179 340.23715 475.36267
444.0 0.002252 340.34842 472.55194
466.0 0.002146 340.45953 468.34927
465.0 0.002151 340.57034 463.21686
456.0 . . .
loop_
_refln_index_h
_refln_index_k
_refln_index_l
_pd_refln_wavelength_id
_refln_observed_status
_refln_F_squared_meas
_refln_F_squared_calc
_refln_phase_calc
_refln_d_spacing
_gsas_i100_meas
0 2 0 1 o 39642.74 36421.45 0.00 6.66912 12.74
0 2 0 2 o 40188.18 36421.45 0.00 6.66912 6.44
1 1 1 1 o 20739.617 20340.785 0.00 6.05751 18.39
1 1 1 2 o 20315.207 20340.785 0.00 6.05751 8.94
2 0 0 1 o 1327.897 2079.896 180.00 4.82947 0.00
2 0 0 2 o 1327.897 2079.896 180.00 4.82947 0.00
0 0 2 1 o 41324.10 45149.71 0.00 4.78621 4.14
0 0 2 2 o 42813.52 45149.71 0.00 4.78621 2.17
1 2 1 1 o 4035.040 4268.630 0.00 4.76107 1.08
1 2 1 2 o 3792.293 4268.630 0.00 4.76107 0.46
2 1 0 1 o 165724.45 165706.64 180.00 4.54098 37.10
2 1 0 2 o 164120.86 165706.64 180.00 4.54098 18.25
1 0 2 1 o 236614.61 237077.11 0.00 4.28857 47.13
1 0 2 2 o 233618.53 237077.11 0.00 4.28857 23.11
2 1 1 1 o 120559.34 112815.31 0.00 4.10275 45.38
2 1 1 2 o 118081.13 112815.31 0.00 4.10275 22.05
1 1 2 1 o 120212.77 116813.77 0.00 4.08273 44.43
1 1 2 2 o 119709.09 116813.77 0.00 4.08273 22.00
0 3 1 1 o 473000.8 482158.3 180.00 4.03235 100.00
0 3 1 2 o 476717.6 482158.3 180.00 4.03235 50.20
2 2 0 1 o 86691.80 83186.95 180.00 3.91156 15.33
2 2 0 2 o 83048.61 83186.95 180.00 3.91156 7.26
0 2 2 1 o 49185.02 49871.29 0.00 3.88847 8.48
0 2 2 2 o 51318.25 49871.29 0.00 3.88847 4.43
1 3 1 1 o 83378.23 79761.99 180.00 3.72111 29.63
1 3 1 2 o 82100.72 79761.99 180.00 3.72111 14.49
2 2 1 1 o 196901.73 190642.52 180.00 3.62092 59.32
2 2 1 2 o 194121.48 190642.52 180.00 3.62092 29.03
1 2 2 1 o 388.680 342.271 0.00 3.60714 0.12
1 2 2 2 o 609.806 342.271 0.00 3.60714 0.10
2 0 2 1 o 160777.16 149916.92 180.00 3.39955 21.25
2 0 2 2 o 155980.73 149916.92 180.00 3.39955 10.23
0 4 0 1 o 143088.58 132082.16 180.00 3.33456 11.63
0 4 0 2 o 141356.30 132082.16 180.00 3.33456 5.71
2 1 2 1 o 16612.578 16627.342 180.00 3.29424 4.06
2 1 2 2 o 16366.252 16627.342 180.00 3.29424 1.99
2 3 0 1 o 40033.92 43662.85 180.00 3.27101 4.91
2 3 0 2 o 38084.01 43662.85 180.00 3.27101 2.30
0 1 3 1 o 146139.56 149715.44 180.00 3.10325 14.93
0 1 3 2 o 147788.92 149715.44 180.00 3.10325 7.52
2 3 1 1 o 47431.96 47961.66 0.00 3.09528 10.63
2 3 1 2 o 48317.80 47961.66 0.00 3.09528 5.40
1 3 2 1 o 26680.936 26431.285 0.00 3.08666 5.95
1 3 2 2 o 26260.840 26431.285 0.00 3.08666 2.90
2 2 2 1 o 59910.48 60671.45 180.00 3.02876 11.95
2 2 2 2 o 58109.53 60671.45 180.00 3.02876 5.73
1 4 1 1 o 17745.277 18156.625 180.00 2.99388 4.14
1 4 1 2 o 18081.408 18156.625 180.00 2.99388 2.10
3 1 1 1 o 62280.09 62511.13 0.00 2.97479 12.00
3 1 1 2 o 59761.53 62511.13 0.00 2.97479 5.69
1 1 3 1 o 1403.402 1950.477 0.00 2.95451 0.21
1 1 3 2 o 438.771 1950.477 0.00 2.95451 0.00
3 2 1 1 o 34868.285 34765.176 180.00 2.77495 5.96
3 2 1 2 o 35267.56 34765.176 180.00 2.77495 3.00
1 2 3 1 o 120244.49 130131.16 0.00 2.75846 19.85
1 2 3 2 o 119870.69 130131.16 0.00 2.75846 9.84
2 4 0 1 o 94945.73 99048.45 180.00 2.74402 8.70
2 4 0 2 o 93455.02 99048.45 180.00 2.74402 4.25
0 4 2 1 o 25651.324 27506.826 0.00 2.73601 2.44
0 4 2 2 o 24387.100 27506.826 0.00 2.73601 1.15
2 3 2 1 o 4082.163 4527.521 180.00 2.70058 0.71
2 3 2 2 o 4527.305 4527.521 180.00 2.70058 0.39
3 0 2 1 o 96383.67 90882.43 0.00 2.67146 7.04
3 0 2 2 o 93775.07 90882.43 0.00 2.67146 3.39
2 4 1 1 o 26880.152 27232.645 0.00 2.63778 4.35
1 4 2 1 o 28623.980 29326.828 180.00 2.63244 4.51
2 4 1 2 o 26665.551 27232.645 0.00 2.63778 2.14
1 4 2 2 o 28875.500 29326.828 180.00 2.63244 2.26
3 1 2 1 o 31781.252 31579.529 180.00 2.61943 4.32
3 1 2 2 o 32025.385 31579.529 180.00 2.61943 2.17
2 1 3 1 o 32735.629 32098.285 0.00 2.61073 4.52
2 1 3 2 o 32454.348 32098.285 0.00 2.61073 2.22
0 3 3 1 o 63.336 63.526 180.00 2.59231 0.00
0 3 3 2 o 86.451 63.526 180.00 2.59231 0.00
0 5 1 1 o 62563.70 59255.53 180.00 2.56973 5.01
0 5 1 2 o 62784.68 59255.53 180.00 2.56973 2.50
3 3 1 1 o 26847.607 24565.479 180.00 2.51602 3.69
3 3 1 2 o 25099.402 24565.479 180.00 2.51602 1.69
1 3 3 1 o 134468.92 136454.64 180.00 2.50371 18.09
1 3 3 2 o 132053.00 136454.64 180.00 2.50371 8.80
1 5 1 1 o 5545.585 5651.256 180.00 2.48334 0.84
3 2 2 1 o 13451.346 13684.771 180.00 2.47990 1.57
1 5 1 2 o 5494.998 5651.256 180.00 2.48334 0.42
3 2 2 2 o 13909.718 13684.771 180.00 2.47990 0.81
2 2 3 1 o 23806.738 23115.250 0.00 2.47251 2.88
2 2 3 2 o 23261.016 23115.250 0.00 2.47251 1.39
4 0 0 1 o 33938.715 29730.555 180.00 2.41474 0.95
4 0 0 2 o 31908.350 29730.555 180.00 2.41474 0.44
0 0 4 1 o 58404.15 58667.29 180.00 2.39311 1.64
0 0 4 2 o 58771.36 58667.29 180.00 2.39311 0.82
2 4 2 1 o 29624.699 29551.303 180.00 2.38054 3.43
4 1 0 1 o 12425.211 12619.811 180.00 2.37611 0.72
2 4 2 2 o 29618.297 29551.303 180.00 2.38054 1.71
4 1 0 2 o 13173.046 12619.811 180.00 2.37611 0.38
2 5 0 1 o 165305.81 149419.39 0.00 2.33510 10.60
2 5 0 2 o 159062.36 149419.39 0.00 2.33510 5.03
1 0 4 1 o 38889.81 35566.15 0.00 2.32287 1.95
1 0 4 2 o 40960.28 35566.15 0.00 2.32287 1.03
4 1 1 1 o 179545.61 173274.42 180.00 2.30613 19.00
4 1 1 2 o 178826.73 173274.42 180.00 2.30613 9.40
3 3 2 1 o 36155.38 33546.352 180.00 2.28989 4.37
1 1 4 1 o 4369.360 4144.180 0.00 2.28843 0.39
3 3 2 2 o 36188.34 33546.352 180.00 2.28989 2.17
2 3 3 1 o 31141.332 29120.979 0.00 2.28407 3.28
1 1 4 2 o 4391.738 4144.180 0.00 2.28843 0.20
2 3 3 2 o 32171.055 29120.979 0.00 2.28407 1.70
4 2 0 1 o 70991.85 69353.95 0.00 2.27049 3.56
2 5 1 1 o 39882.52 39977.10 0.00 2.26857 4.74
4 2 0 2 o 67512.17 69353.95 0.00 2.27049 1.66
1 5 2 1 o 50619.57 51882.14 180.00 2.26517 5.55
2 5 1 2 o 38701.67 39977.10 0.00 2.26857 2.27
1 5 2 2 o 51021.94 51882.14 180.00 2.26517 2.79
0 2 4 1 o 69693.93 67298.33 0.00 2.25248 3.59
3 4 1 1 o 5254.480 5092.240 0.00 2.25123 0.58
0 2 4 2 o 67448.98 67298.33 0.00 2.25248 1.72
3 4 1 2 o 5059.034 5092.240 0.00 2.25123 0.28
1 4 3 1 o 19264.898 19494.404 180.00 2.24240 2.11
1 4 3 2 o 19286.809 19494.404 180.00 2.24240 1.05
3 1 3 1 o 53490.44 53566.93 0.00 2.23435 4.86
3 1 3 2 o 57141.66 53566.93 0.00 2.23435 2.63
0 6 0 1 o 256177.47 217576.50 0.00 2.22304 7.99
0 6 0 2 o 239768.52 217576.50 0.00 2.22304 3.67
4 2 1 1 o 12783.310 12576.856 180.00 2.20919 1.33
4 2 1 2 o 13483.441 12576.856 180.00 2.20919 0.70
1 2 4 1 o 9527.326 9434.763 0.00 2.19362 0.90
1 2 4 2 o 10330.363 9434.763 0.00 2.19362 0.49
4 0 2 1 o 638.636 45.752 180.00 2.15589 0.05
4 0 2 2 o 134.104 45.752 180.00 2.15589 0.01
3 2 3 1 o 6162.247 5718.379 180.00 2.14585 0.37
2 0 4 1 o 11076.115 10393.665 180.00 2.14429 0.38
3 2 3 2 o 5533.464 5718.379 180.00 2.14585 0.15
2 0 4 2 o 9935.014 10393.665 180.00 2.14429 0.16
4 1 2 1 o 5844.357 5812.071 180.00 2.12827 0.62
4 1 2 2 o 6440.282 5812.071 180.00 2.12827 0.34
4 3 0 1 o 932.647 887.244 180.00 2.12197 0.04
2 1 4 1 o 120861.02 115495.48 0.00 2.11710 10.97
4 3 0 2 o 919.984 887.244 180.00 2.12197 0.02
1 6 1 1 o 110.749 112.127 180.00 2.11297 0.01
2 1 4 2 o 114040.51 115495.48 0.00 2.11710 5.10
1 6 1 2 o 108.267 112.127 180.00 2.11297 0.00
2 5 2 1 o 28677.240 25446.535 0.00 2.09865 3.13
2 5 2 2 o 28503.805 25446.535 0.00 2.09865 1.55
3 4 2 1 o 103841.66 104608.85 180.00 2.08489 9.21
2 4 3 1 o 7057.882 7400.267 180.00 2.08050 0.65
3 4 2 2 o 101022.18 104608.85 180.00 2.08489 4.43
2 4 3 2 o 6852.325 7400.267 180.00 2.08050 0.31
4 3 1 1 o 8270.147 8559.432 0.00 2.07168 0.73
4 3 1 2 o 8194.356 8559.432 0.00 2.07168 0.36
1 3 4 1 o 5954.896 5439.017 0.00 2.05882 0.54
1 3 4 2 o 5988.545 5439.017 0.00 2.05882 0.27
4 2 2 1 o 65448.22 60484.20 0.00 2.05137 5.62
4 2 2 2 o 59700.93 60484.20 0.00 2.05137 2.51
0 5 3 1 o 46011.39 46688.83 180.00 2.04662 2.27
2 2 4 1 o 21935.797 22838.512 180.00 2.04137 1.78
0 5 3 2 o 44786.72 46688.83 180.00 2.04662 1.10
2 2 4 2 o 21145.391 22838.512 180.00 2.04137 0.85
3 3 3 1 o 16031.823 15069.398 180.00 2.01917 1.20
2 6 0 1 o 52118.84 48254.70 180.00 2.01937 2.63
0 6 2 1 o 82252.37 78221.85 0.00 2.01618 4.02
3 3 3 2 o 15579.003 15069.398 180.00 2.01917 0.57
2 6 0 2 o 50301.77 48254.70 180.00 2.01937 1.26
0 6 2 2 o 79051.34 78221.85 0.00 2.01618 1.91
3 5 1 1 o 483.563 468.185 180.00 2.00844 0.06
3 5 1 2 o 454.633 468.185 180.00 2.00844 0.03
1 5 3 1 o 21372.301 22592.256 180.00 2.00216 1.83
1 5 3 2 o 19833.531 22592.256 180.00 2.00216 0.83
2 6 1 2 o 77881.84 82144.29 0.00 1.97589 3.56
2 6 1 1 o 84101.11 82144.29 0.00 1.97589 7.84
1 6 2 2 o 74041.65 78976.42 0.00 1.97364 3.36
1 6 2 1 o 77486.16 78976.42 0.00 1.97364 7.13
4 4 0 1 o 310180.72 322335.56 0.00 1.95578 12.11
4 4 0 2 o 302386.50 322335.56 0.00 1.95578 5.84
0 4 4 1 o 175355.61 186818.91 0.00 1.94424 6.46
4 3 2 1 o 6522.954 7214.366 180.00 1.93987 0.61
0 4 4 2 o 173209.91 186818.91 0.00 1.94424 3.16
4 3 2 2 o 6985.929 7214.366 180.00 1.93987 0.32
2 3 4 1 o 45977.55 45005.15 0.00 1.93140 3.66
2 3 4 2 o 44464.94 45005.15 0.00 1.93140 1.75
3 0 4 1 o 936.469 1121.072 180.00 1.92066 0.05
3 0 4 2 o 1325.602 1121.072 180.00 1.92066 0.03
4 4 1 1 o 3658.776 3164.173 0.00 1.91619 0.30
4 4 1 2 o 2962.006 3164.173 0.00 1.91619 0.12
4 1 3 1 o 9924.472 10169.775 180.00 1.90575 0.73
1 4 4 1 o 3196.794 3326.409 0.00 1.90601 0.27
4 1 3 2 o 9974.226 10169.775 180.00 1.90575 0.36
3 1 4 1 o 18261.252 18629.404 180.00 1.90105 1.38
1 4 4 2 o 3253.666 3326.409 0.00 1.90601 0.14
3 1 4 2 o 17954.430 18629.404 180.00 1.90105 0.67
0 1 5 1 o 117604.34 121302.87 180.00 1.89506 3.93
0 1 5 2 o 116953.30 121302.87 180.00 1.89506 1.94
3 5 2 1 o 38676.44 39818.85 0.00 1.88766 2.85
2 5 3 1 o 26526.119 26582.586 0.00 1.88439 1.96
3 5 2 2 o 39643.15 39818.85 0.00 1.88766 1.46
2 5 3 2 o 27217.195 26582.586 0.00 1.88439 1.01
5 1 1 1 o 282.909 284.293 180.00 1.87481 0.00
3 4 3 1 o 19235.781 19800.998 0.00 1.87442 1.48
5 1 1 2 o 286.956 284.293 180.00 1.87481 0.00
3 4 3 2 o 21441.145 19800.998 0.00 1.87442 0.83
0 7 1 1 o 41683.97 37558.46 0.00 1.86880 1.91
0 7 1 2 o 40037.66 37558.46 0.00 1.86880 0.91
2 6 2 1 o 19033.383 19813.660 180.00 1.86055 1.35
1 1 5 1 o 30766.713 32482.686 180.00 1.85961 1.97
2 6 2 2 o 18471.398 19813.660 180.00 1.86055 0.64
1 1 5 2 o 30382.686 32482.686 180.00 1.85961 0.96
4 2 3 1 o 6577.294 6767.590 0.00 1.84994 0.48
3 2 4 1 o 37039.04 36591.81 180.00 1.84565 2.51
4 2 3 2 o 6845.038 6767.590 0.00 1.84994 0.25
3 2 4 2 o 36776.28 36591.81 180.00 1.84565 1.24
1 7 1 1 o 26837.506 28399.660 0.00 1.83477 2.22
1 7 1 2 o 26655.920 28399.660 0.00 1.83477 1.10
5 2 1 1 o 77642.38 78082.27 180.00 1.82161 5.24
5 2 1 2 o 74674.86 78082.27 180.00 1.82161 2.49
4 4 2 1 o 118190.88 115170.31 0.00 1.81046 8.29
1 2 5 1 o 28265.066 28361.590 180.00 1.80765 2.08
4 4 2 2 o 115266.58 115170.31 0.00 1.81046 4.01
2 4 4 1 o 50007.45 50826.23 180.00 1.80357 3.70
1 2 5 2 o 27763.617 28361.590 180.00 1.80765 1.01
2 4 4 2 o 50436.60 50826.23 180.00 1.80357 1.86
3 6 1 1 o 40334.48 39355.02 0.00 1.79683 3.22
3 6 1 2 o 40384.76 39355.02 0.00 1.79683 1.60
1 6 3 1 o 80862.67 78997.54 180.00 1.79233 6.14
5 0 2 1 o 9280.371 9197.140 180.00 1.79138 0.27
4 5 0 1 o 6841.685 6908.214 0.00 1.79023 0.22
1 6 3 2 o 75258.65 78997.54 180.00 1.79233 2.82
5 0 2 2 o 8685.756 9197.140 180.00 1.79138 0.12
4 5 0 2 o 6312.793 6908.214 0.00 1.79023 0.10
5 1 2 1 o 70338.43 66303.11 180.00 1.77544 4.19
2 7 0 1 o 4577.419 4436.064 180.00 1.77249 0.20
5 1 2 2 o 68460.74 66303.11 180.00 1.77544 2.02
2 7 0 2 o 4551.715 4436.064 180.00 1.77249 0.10
4 3 3 1 o 98924.35 96086.00 180.00 1.76692 6.00
2 1 5 1 o 9726.385 9334.829 0.00 1.76411 0.57
3 3 4 1 o 1792.217 1735.017 180.00 1.76318 0.11
4 3 3 2 o 99286.74 96086.00 180.00 1.76692 3.00
2 1 5 2 o 9506.305 9334.829 0.00 1.76411 0.28
4 5 1 1 o 21697.559 21314.477 180.00 1.75972 1.42
3 3 4 2 o 1748.518 1735.017 180.00 1.76318 0.05
0 3 5 1 o 67676.30 67380.82 0.00 1.75839 2.10
4 5 1 2 o 20279.832 21314.477 180.00 1.75972 0.65
0 3 5 2 o 64724.80 67380.82 0.00 1.75839 0.99
1 5 4 1 o 23052.826 23933.330 180.00 1.75182 1.51
1 5 4 2 o 22840.551 23933.330 180.00 1.75182 0.74
5 3 1 1 o 2029.198 2093.679 0.00 1.74218 0.10
2 7 1 1 o 47330.29 48894.84 0.00 1.74286 3.22
1 7 2 1 o 14.994 15.584 0.00 1.74132 0.00
5 3 1 2 o 1946.364 2093.679 0.00 1.74218 0.05
2 7 1 2 o 44454.84 48894.84 0.00 1.74286 1.48
1 7 2 2 o 14.696 15.584 0.00 1.74132 0.00
5 2 2 1 o 11888.690 12324.648 0.00 1.73005 0.67
1 3 5 1 o 6607.699 6834.921 180.00 1.72996 0.37
3 5 3 1 o 8326.056 9142.178 0.00 1.72720 0.59
5 2 2 2 o 11522.634 12324.648 0.00 1.73005 0.32
1 3 5 2 o 6413.583 6834.921 180.00 1.72996 0.17
3 5 3 2 o 8911.411 9142.178 0.00 1.72720 0.31
2 2 5 1 o 149413.13 152178.14 0.00 1.71957 8.45
2 2 5 2 o 145014.77 152178.14 0.00 1.71957 4.05
3 6 2 1 o 11802.881 13031.341 0.00 1.70878 0.69
2 6 3 1 o 12413.563 12903.365 180.00 1.70636 0.75
3 6 2 2 o 12137.238 13031.341 0.00 1.70878 0.35
2 6 3 2 o 12942.330 12903.365 180.00 1.70636 0.39
4 0 4 1 o 335374.78 331866.00 0.00 1.69978 9.42
4 0 4 2 o 323142.69 331866.00 0.00 1.69978 4.48
4 1 4 1 o 18595.119 18072.666 0.00 1.68614 1.12
4 1 4 2 o 18435.881 18072.666 0.00 1.68614 0.55
4 5 2 1 o 4905.472 4988.380 0.00 1.67677 0.33
4 5 2 2 o 5226.512 4988.380 0.00 1.67677 0.18
2 5 4 1 o 112565.23 109419.97 180.00 1.67129 6.43
4 4 3 1 o 158.622 155.124 180.00 1.66747 0.01
2 5 4 2 o 111859.53 109419.97 180.00 1.67129 3.17
0 8 0 1 o 290187.44 283253.28 0.00 1.66728 5.05
3 4 4 1 o 67739.34 66968.80 180.00 1.66432 3.73
4 4 3 2 o 157.389 155.124 180.00 1.66747 0.00
0 8 0 2 o 288489.38 283253.28 0.00 1.66728 2.49
5 3 2 1 o 22939.977 22941.779 180.00 1.66158 1.24
2 7 2 1 o 746.628 730.174 0.00 1.66217 0.06
3 4 4 2 o 64577.59 66968.80 180.00 1.66432 1.75
5 3 2 2 o 21961.535 22941.779 180.00 1.66158 0.58
2 7 2 2 o 678.517 730.174 0.00 1.66217 0.03
2 3 5 1 o 30457.885 32959.918 0.00 1.65228 1.60
2 3 5 2 o 32443.834 32959.918 0.00 1.65228 0.86
4 2 4 1 o 10533.595 9993.053 0.00 1.64712 0.58
5 4 1 1 o 8556.018 8053.515 0.00 1.64663 0.45
4 2 4 2 o 11070.349 9993.053 0.00 1.64712 0.31
5 4 1 2 o 8984.260 8053.515 0.00 1.64663 0.24
5 1 3 1 o 75769.55 67727.68 180.00 1.63999 4.12
1 4 5 1 o 277.813 274.107 0.00 1.63630 0.01
5 1 3 2 o 68870.73 67727.68 180.00 1.63999 1.84
0 7 3 1 o 133192.64 131062.25 180.00 1.63596 4.02
4 6 0 1 o 2672.197 2624.019 180.00 1.63550 0.08
3 1 5 1 o 17273.145 17078.709 0.00 1.63316 0.91
1 4 5 2 o 270.191 274.107 0.00 1.63630 0.01
0 7 3 2 o 127321.29 131062.25 180.00 1.63596 1.89
4 6 0 2 o 2525.938 2624.019 180.00 1.63550 0.04
3 1 5 2 o 16779.832 17078.709 0.00 1.63316 0.44
0 6 4 1 o 7955.818 8035.302 180.00 1.62873 0.23
0 6 4 2 o 6657.482 8035.302 180.00 1.62873 0.09
1 8 1 1 o 32157.186 30555.121 0.00 1.61930 2.07
3 7 1 1 o 62380.18 62125.65 0.00 1.61626 3.66
1 8 1 2 o 30891.016 30555.121 0.00 1.61930 0.98
1 7 3 1 o 13812.948 13882.814 0.00 1.61299 0.76
4 6 1 1 o 2951.917 2970.976 0.00 1.61214 0.16
3 7 1 2 o 61650.46 62125.65 0.00 1.61626 1.79
6 0 0 1 o 78863.42 76791.25 180.00 1.60982 0.91
1 7 3 2 o 14258.795 13882.814 0.00 1.61299 0.39
4 6 1 2 o 3042.138 2970.976 0.00 1.61214 0.08
6 0 0 2 o 73781.91 76791.25 180.00 1.60982 0.41
1 6 4 1 o 35852.12 37351.35 0.00 1.60606 1.91
5 2 3 1 o 58125.33 59884.88 180.00 1.60402 2.62
1 6 4 2 o 34669.691 37351.35 0.00 1.60606 0.91
5 2 3 2 o 58225.79 59884.88 180.00 1.60402 1.31
6 1 0 1 o 124957.10 126688.42 0.00 1.59823 3.13
3 2 5 1 o 1710.780 1738.679 180.00 1.59763 0.13
0 0 6 1 o 40338.76 42239.21 180.00 1.59540 0.52
6 1 0 2 o 123286.98 126688.42 0.00 1.59823 1.53
3 2 5 2 o 1703.566 1738.679 180.00 1.59763 0.07
0 0 6 2 o 41626.82 42239.21 180.00 1.59540 0.27
4 3 4 1 o 8136.072 7849.167 0.00 1.58770 0.46
3 6 3 1 o 4602.501 4525.381 0.00 1.58702 0.17
4 3 4 2 o 7526.129 7849.167 0.00 1.58770 0.21
3 6 3 2 o 4511.353 4525.381 0.00 1.58702 0.08
5 4 2 1 o 51453.92 51701.14 0.00 1.57808 2.52
6 1 1 1 o 5510.605 5296.254 0.00 1.57640 0.22
2 8 0 1 o 2356.343 2296.044 180.00 1.57601 0.03
5 4 2 2 o 51314.23 51701.14 0.00 1.57808 1.25
1 0 6 1 o 4616.393 4663.853 180.00 1.57408 0.12
0 8 2 1 o 21412.619 21420.570 0.00 1.57448 0.51
6 1 1 2 o 5191.156 5296.254 0.00 1.57640 0.10
2 8 0 2 o 2260.249 2296.044 180.00 1.57601 0.02
1 0 6 2 o 4374.477 4663.853 180.00 1.57408 0.06
2 4 5 1 o 29170.250 30852.410 180.00 1.57011 1.40
0 8 2 2 o 20384.316 21420.570 0.00 1.57448 0.24
2 4 5 2 o 28688.430 30852.410 180.00 1.57011 0.68
6 2 0 1 o 30664.256 30511.734 180.00 1.56488 0.72
1 1 6 1 o 26547.217 25666.082 180.00 1.56323 1.19
6 2 0 2 o 31192.471 30511.734 180.00 1.56488 0.36
4 5 3 1 o 37872.26 37235.17 180.00 1.56128 1.85
1 1 6 2 o 26261.979 25666.082 180.00 1.56323 0.58
3 5 4 1 o 5353.604 5226.877 0.00 1.55869 0.25
4 5 3 2 o 40420.73 37235.17 180.00 1.56128 0.99
0 5 5 1 o 2029.196 1842.335 180.00 1.55539 0.05
3 5 4 2 o 5612.224 5226.877 0.00 1.55869 0.13
2 8 1 1 o 57019.22 52356.95 180.00 1.55507 3.16
1 8 2 1 o 32615.209 31627.873 0.00 1.55397 1.73
0 2 6 1 o 17875.861 17838.053 0.00 1.55162 0.39
0 5 5 2 o 1845.018 1842.335 180.00 1.55539 0.02
3 7 2 1 o 26.757 26.880 0.00 1.55129 0.00
2 8 1 2 o 52179.42 52356.95 180.00 1.55507 1.41
1 8 2 2 o 30563.047 31627.873 0.00 1.55397 0.79
5 3 3 1 o 8982.046 9627.853 0.00 1.54899 0.47
2 7 3 1 o 25908.061 27354.625 0.00 1.54947 1.36
0 2 6 2 o 16637.449 17838.053 0.00 1.55162 0.18
4 6 2 1 o 19839.008 21406.182 0.00 1.54764 1.01
3 7 2 2 o 23.543 26.880 0.00 1.55129 0.00
5 3 3 2 o 9164.946 9627.853 0.00 1.54899 0.24
2 7 3 2 o 25722.732 27354.625 0.00 1.54947 0.67
6 2 1 1 o 70671.03 72129.11 0.00 1.54438 3.13
5 5 1 1 o 2542.078 2597.894 180.00 1.54413 0.15
4 6 2 2 o 21059.342 21406.182 0.00 1.54764 0.54
3 3 5 1 o 24763.275 25230.973 0.00 1.54324 1.03
2 6 4 1 o 31179.729 31779.111 180.00 1.54333 1.55
6 2 1 2 o 70248.62 72129.11 0.00 1.54438 1.55
5 5 1 2 o 2534.494 2597.894 180.00 1.54413 0.08
3 3 5 2 o 25156.838 25230.973 0.00 1.54324 0.52
2 6 4 2 o 31644.219 31779.111 180.00 1.54333 0.78
1 5 5 1 o 29337.623 29711.131 180.00 1.53561 1.45
1 2 6 1 o 40811.51 39634.43 0.00 1.53198 1.78
1 5 5 2 o 30793.217 29711.131 180.00 1.53561 0.76
1 2 6 2 o 41676.07 39634.43 0.00 1.53198 0.91
6 0 2 1 o 54995.32 55436.83 180.00 1.52583 1.22
6 0 2 2 o 53403.50 55436.83 180.00 1.52583 0.59
6 1 2 1 o 179.204 178.464 0.00 1.51594 0.00
2 0 6 1 o 29555.346 29919.170 180.00 1.51488 0.68
4 4 4 1 o 41008.87 42278.79 180.00 1.51438 1.96
6 3 0 1 o 49752.11 52401.36 0.00 1.51366 1.18
6 1 2 2 o 175.417 178.464 0.00 1.51594 0.00
2 0 6 2 o 28012.264 29919.170 180.00 1.51488 0.32
4 4 4 2 o 39732.23 42278.79 180.00 1.51438 0.94
6 3 0 2 o 49320.09 52401.36 0.00 1.51366 0.58
2 1 6 1 o 27653.262 26597.721 0.00 1.50521 1.13
5 0 4 1 o 1289.240 1211.821 0.00 1.50316 0.03
2 1 6 2 o 26917.479 26597.721 0.00 1.50521 0.54
5 0 4 2 o 1319.629 1211.821 0.00 1.50316 0.01
2 8 2 1 o 58785.94 59479.82 180.00 1.49694 3.18
4 7 0 1 o 3253.230 3348.058 180.00 1.49584 0.10
6 3 1 1 o 75592.17 76842.34 0.00 1.49508 3.17
5 1 4 1 o 9765.472 9986.880 180.00 1.49370 0.39
2 8 2 2 o 57110.87 59479.82 180.00 1.49694 1.53
4 7 0 2 o 3079.909 3348.058 180.00 1.49584 0.05
6 3 1 2 o 73286.30 76842.34 0.00 1.49508 1.52
4 1 5 1 o 6693.481 6908.535 0.00 1.49079 0.26
5 1 4 2 o 9738.424 9986.880 180.00 1.49370 0.19
6 2 2 1 o 17301.514 18405.785 180.00 1.48740 0.66
4 1 5 2 o 6654.453 6908.535 0.00 1.49079 0.13
5 5 2 1 o 94917.59 99269.80 0.00 1.48718 4.10
6 2 2 2 o 17800.596 18405.785 180.00 1.48740 0.34
1 3 6 1 o 10546.675 10973.986 180.00 1.48383 0.45
5 5 2 2 o 96961.61 99269.80 0.00 1.48718 2.09
5 4 3 1 o 18941.199 18790.617 0.00 1.48068 0.80
2 5 5 1 o 24424.639 23984.734 0.00 1.48050 1.10
1 3 6 2 o 11389.386 10973.986 180.00 1.48383 0.24
4 7 1 1 o 230948.52 231144.48 180.00 1.47790 10.74
2 2 6 1 o 7635.347 7206.220 180.00 1.47725 0.31
5 4 3 2 o 20247.395 18790.617 0.00 1.48068 0.43
2 5 5 2 o 26156.545 23984.734 0.00 1.48050 0.59
3 4 5 1 o 531.968 508.924 180.00 1.47565 0.02
4 7 1 2 o 232053.13 231144.48 180.00 1.47790 5.37
2 2 6 2 o 7852.512 7206.220 180.00 1.47725 0.16
1 7 4 1 o 82.796 72.227 0.00 1.47321 0.00
3 4 5 2 o 557.548 508.924 180.00 1.47565 0.01
1 7 4 2 o 83.424 72.227 0.00 1.47321 0.00
5 2 4 1 o 20088.205 16948.777 0.00 1.46637 0.82
0 9 1 1 o 67841.23 62679.97 180.00 1.46458 1.70
4 2 5 1 o 6390.856 5868.410 0.00 1.46362 0.25
5 2 4 2 o 18811.377 16948.777 0.00 1.46637 0.38
3 8 1 1 o 8697.300 7928.250 180.00 1.46314 0.40
0 9 1 2 o 64319.88 62679.97 180.00 1.46458 0.79
1 8 3 1 o 31236.629 30499.715 0.00 1.46071 1.41
4 2 5 2 o 6033.798 5868.410 0.00 1.46362 0.12
3 8 1 2 o 8024.175 7928.250 180.00 1.46314 0.18
3 7 3 1 o 98148.55 98326.03 0.00 1.45848 4.21
1 8 3 2 o 32567.199 30499.715 0.00 1.46071 0.74
4 6 3 1 o 135.165 134.457 180.00 1.45545 0.00
3 7 3 2 o 101058.38 98326.03 0.00 1.45848 2.17
3 6 4 1 o 1605.549 1375.069 180.00 1.45335 0.07
4 6 3 2 o 149.278 134.457 180.00 1.45545 0.00
6 4 0 1 o 8830.419 7080.070 180.00 1.44972 0.20
3 6 4 2 o 1709.601 1375.069 180.00 1.45335 0.04
1 9 1 1 o 4045.330 3132.647 180.00 1.44803 0.19
6 4 0 2 o 10530.173 7080.070 180.00 1.44972 0.12
1 9 1 2 o 4152.658 3132.647 180.00 1.44803 0.10
6 3 2 1 o 811.719 659.158 180.00 1.44321 0.05
5 6 1 1 o 35530.92 35673.02 0.00 1.44153 1.57
6 3 2 2 o 626.768 659.158 180.00 1.44321 0.02
0 4 6 1 o 170181.31 174013.69 0.00 1.43917 3.62
5 6 1 2 o 35868.79 35673.02 0.00 1.44153 0.79
0 4 6 2 o 172519.44 174013.69 0.00 1.43917 1.83
1 6 5 1 o 14247.673 13562.949 0.00 1.43458 0.70
2 3 6 1 o 3036.604 2900.867 0.00 1.43393 0.10
6 4 1 1 o 21217.742 19789.357 180.00 1.43338 0.87
4 5 4 1 o 16639.941 15495.885 180.00 1.43350 0.74
1 6 5 2 o 13682.502 13562.949 0.00 1.43458 0.34
2 3 6 2 o 2887.523 2900.867 0.00 1.43393 0.04
6 4 1 2 o 20037.820 19789.357 180.00 1.43338 0.41
4 5 4 2 o 15605.882 15495.885 180.00 1.43350 0.34
3 0 6 1 o 144424.42 140512.09 180.00 1.42952 2.70
6 1 3 1 o 43225.50 41194.88 0.00 1.42899 1.66
4 7 2 1 o 5126.271 4870.096 0.00 1.42774 0.28
3 0 6 2 o 141681.45 140512.09 180.00 1.42952 1.31
6 1 3 2 o 41792.36 41194.88 0.00 1.42899 0.79
5 3 4 1 o 149.714 154.328 180.00 1.42398 0.00
2 7 4 1 o 104.907 112.169 180.00 1.42435 0.01
4 7 2 2 o 4593.163 4870.096 0.00 1.42774 0.13
1 4 6 1 o 101784.19 108877.20 0.00 1.42345 3.90
4 3 5 1 o 176009.98 179782.63 180.00 1.42145 6.62
3 1 6 1 o 16393.939 16680.426 0.00 1.42138 0.61
5 3 4 2 o 154.937 154.328 180.00 1.42398 0.00
2 7 4 2 o 113.324 112.169 180.00 1.42435 0.00
1 4 6 2 o 109106.62 108877.20 0.00 1.42345 2.11
4 3 5 2 o 183232.95 179782.63 180.00 1.42145 3.46
3 1 6 2 o 17061.332 16680.426 0.00 1.42138 0.32
2 9 0 1 o 133959.70 121864.23 180.00 1.41682 3.12
3 8 2 1 o 9087.421 8137.477 0.00 1.41442 0.39
2 9 0 2 o 136317.97 121864.23 180.00 1.41682 1.59
2 8 3 1 o 18228.914 16004.094 0.00 1.41304 0.81
3 8 2 2 o 9456.854 8137.477 0.00 1.41442 0.20
2 8 3 2 o 19837.746 16004.094 0.00 1.41304 0.45
6 2 3 1 o 22047.559 17665.094 180.00 1.40501 0.83
5 5 3 1 o 57.819 16.285 0.00 1.40482 0.01
6 2 3 2 o 19001.270 17665.094 180.00 1.40501 0.35
5 5 3 2 o 29.660 16.285 0.00 1.40482 0.00
2 9 1 1 o 35405.49 32853.160 0.00 1.40155 1.63
3 5 5 1 o 11941.127 10725.866 0.00 1.40052 0.42
1 9 2 1 o 62112.58 55895.77 0.00 1.40074 2.78
5 6 2 1 o 1209.675 957.797 180.00 1.39486 0.05
3 2 6 2 o 13312.796 10239.264 180.00 1.39777 0.25
3 2 6 1 o 11371.010 10239.264 180.00 1.39777 0.42
2 9 1 2 o 35838.24 32853.160 0.00 1.40155 0.82
3 5 5 2 o 12504.146 10725.866 0.00 1.40052 0.22
1 9 2 2 o 64773.07 55895.77 0.00 1.40074 1.46
5 6 2 2 o 1146.196 957.797 180.00 1.39486 0.02
2 6 5 1 o 78613.19 79088.24 180.00 1.38935 3.08
6 4 2 1 o 12833.819 12057.252 180.00 1.38747 0.44
2 6 5 2 o 82401.30 79088.24 180.00 1.38935 1.62
6 4 2 2 o 14986.178 12057.252 180.00 1.38747 0.27
2 4 6 1 o 1466.251 1455.689 0.00 1.37923 0.10
6 5 0 1 o 140792.38 138031.20 180.00 1.37830 2.70
2 4 6 2 o 1657.168 1455.689 0.00 1.37923 0.05
6 5 0 2 o 148665.94 138031.20 180.00 1.37830 1.43
4 8 0 1 o 2393.413 1696.192 0.00 1.37201 0.07
5 4 4 1 o 25017.047 20401.932 0.00 1.37036 0.89
4 8 0 2 o 2148.033 1696.192 0.00 1.37201 0.03
4 4 5 1 o 2945.305 2662.715 180.00 1.36811 0.11
6 3 3 1 o 16328.612 15275.511 0.00 1.36758 0.60
0 8 4 1 o 1036.702 887.020 0.00 1.36801 0.04
5 4 4 2 o 21917.990 20401.932 0.00 1.37036 0.38
4 4 5 2 o 2678.800 2662.715 180.00 1.36811 0.05
6 3 3 2 o 15363.381 15275.511 0.00 1.36758 0.28
6 5 1 1 o 44593.51 44372.40 0.00 1.36423 1.65
0 8 4 2 o 890.257 887.020 0.00 1.36801 0.02
3 3 6 1 o 4546.825 4465.098 0.00 1.36091 0.16
6 5 1 2 o 45203.20 44372.40 0.00 1.36423 0.83
0 1 7 1 o 3614.647 3479.399 180.00 1.36036 0.06
7 1 1 1 o 441.661 440.470 180.00 1.35863 0.00
2 9 2 1 o 9101.886 8988.260 180.00 1.35854 0.40
4 8 1 1 o 7778.052 7523.464 180.00 1.35813 0.34
3 3 6 2 o 4762.233 4465.098 0.00 1.36091 0.08
0 1 7 2 o 3745.996 3479.399 180.00 1.36036 0.03
1 5 6 1 o 38965.19 37025.68 0.00 1.35567 1.39
7 1 1 2 o 446.041 440.470 180.00 1.35863 0.00
2 9 2 2 o 9435.245 8988.260 180.00 1.35854 0.21
4 8 1 2 o 7878.265 7523.464 180.00 1.35813 0.17
4 7 3 1 o 119.381 112.300 0.00 1.35440 0.01
1 8 4 1 o 25388.795 24368.945 0.00 1.35449 0.98
5 1 5 1 o 10740.691 10127.336 180.00 1.35281 0.35
3 7 4 1 o 340.126 313.572 0.00 1.35271 0.02
1 5 6 2 o 39282.92 37025.68 0.00 1.35567 0.70
4 7 3 2 o 114.203 112.300 0.00 1.35440 0.00
1 8 4 2 o 24726.238 24368.945 0.00 1.35449 0.47
0 7 5 1 o 218704.91 217523.14 180.00 1.35054 4.13
4 6 4 1 o 82025.24 81291.06 0.00 1.35029 2.87
5 1 5 2 o 10257.170 10127.336 180.00 1.35281 0.16
3 7 4 2 o 318.490 313.572 0.00 1.35271 0.01
1 1 7 1 o 84842.84 84093.63 180.00 1.34706 2.80
0 7 5 2 o 218152.08 217523.14 180.00 1.35054 2.05
4 6 4 2 o 82310.65 81291.06 0.00 1.35029 1.43
1 1 7 2 o 82126.72 84093.63 180.00 1.34706 1.34
0 9 3 1 o 13004.461 13332.497 180.00 1.34412 0.26
5 7 1 1 o 9701.428 9742.317 180.00 1.34316 0.33
3 8 3 1 o 28539.881 28498.582 180.00 1.34301 1.14
0 9 3 2 o 13129.537 13332.497 180.00 1.34412 0.13
5 7 1 2 o 9765.438 9742.317 180.00 1.34316 0.16
3 8 3 2 o 28704.283 28498.582 180.00 1.34301 0.57
7 2 1 1 o 3289.692 3541.336 0.00 1.33797 0.10
1 7 5 1 o 38993.84 42159.86 180.00 1.33753 1.45
6 0 4 1 o 57.032 55.758 180.00 1.33573 0.00
7 2 1 2 o 3617.663 3541.336 0.00 1.33797 0.06
1 7 5 2 o 43283.70 42159.86 180.00 1.33753 0.81
0 10 0 1 o 19979.797 18967.656 180.00 1.33382 0.20
3 9 1 1 o 1448.884 1266.675 0.00 1.33313 0.08
6 0 4 2 o 58.239 55.758 180.00 1.33573 0.00
5 2 5 1 o 1976.677 1850.025 0.00 1.33241 0.06
4 0 6 1 o 78034.75 74308.59 0.00 1.33111 1.24
1 9 3 1 o 21043.127 20064.025 180.00 1.33129 0.84
0 10 0 2 o 20111.400 18967.656 180.00 1.33382 0.10
3 9 1 2 o 1362.796 1266.675 0.00 1.33313 0.04
6 1 4 1 o 37159.83 36326.44 180.00 1.32908 1.14
5 2 5 2 o 1891.524 1850.025 0.00 1.33241 0.03
4 0 6 2 o 73415.53 74308.59 0.00 1.33111 0.57
1 9 3 2 o 19883.895 20064.025 180.00 1.33129 0.39
1 2 7 1 o 24062.775 24587.758 180.00 1.32692 0.65
5 6 3 1 o 23482.945 23864.178 0.00 1.32623 0.74
7 0 2 1 o 118019.48 119405.45 180.00 1.32585 1.86
6 1 4 2 o 35937.34 36326.44 180.00 1.32908 0.54
4 1 6 1 o 68.295 68.519 0.00 1.32453 0.00
6 5 2 1 o 564.225 570.432 180.00 1.32448 0.01
1 2 7 2 o 23992.754 24587.758 180.00 1.32692 0.32
5 6 3 2 o 23307.471 23864.178 0.00 1.32623 0.36
7 0 2 2 o 116317.02 119405.45 180.00 1.32585 0.91
3 6 5 1 o 57.217 62.880 0.00 1.32262 0.01
4 1 6 2 o 68.311 68.519 0.00 1.32453 0.00
6 5 2 2 o 565.117 570.432 180.00 1.32448 0.00
6 4 3 1 o 7558.042 7613.589 0.00 1.31988 0.27
7 1 2 1 o 16537.127 16491.383 0.00 1.31935 0.57
3 6 5 2 o 63.375 62.880 0.00 1.32262 0.00
4 8 2 1 o 2533.560 2518.361 0.00 1.31889 0.06
2 5 6 1 o 48333.26 49954.37 180.00 1.31730 1.63
6 4 3 2 o 7439.708 7613.589 0.00 1.31988 0.13
7 1 2 2 o 16309.009 16491.383 0.00 1.31935 0.28
2 8 4 1 o 9284.176 9375.239 180.00 1.31622 0.28
4 8 2 2 o 2488.444 2518.361 0.00 1.31889 0.03
2 5 6 2 o 46097.41 49954.37 180.00 1.31730 0.76
3 4 6 1 o 2777.791 2997.640 0.00 1.31388 0.09
2 8 4 2 o 8908.085 9375.239 180.00 1.31622 0.13
3 4 6 2 o 2466.626 2997.640 0.00 1.31388 0.04
6 2 4 1 o 19959.246 22138.840 180.00 1.30972 0.61
5 5 4 1 o 8284.349 9053.930 0.00 1.30957 0.24
2 1 7 1 o 1715.385 1868.407 0.00 1.30940 0.05
1 10 1 1 o 738.894 784.584 0.00 1.30888 0.02
4 5 5 1 o 19812.256 22715.783 180.00 1.30761 0.61
0 3 7 1 o 3242.039 3875.675 180.00 1.30706 0.05
6 2 4 2 o 18898.488 22138.840 180.00 1.30972 0.28
5 5 4 2 o 7879.257 9053.930 0.00 1.30957 0.11
2 1 7 2 o 1635.692 1868.407 0.00 1.30940 0.02
7 3 1 1 o 19467.693 21775.660 0.00 1.30553 0.52
4 2 6 1 o 123.335 132.516 0.00 1.30537 0.00
1 10 1 2 o 722.282 784.584 0.00 1.30888 0.01
5 7 2 1 o 2234.787 2607.938 180.00 1.30516 0.09
4 5 5 2 o 20200.305 22715.783 180.00 1.30761 0.31
0 3 7 2 o 3387.794 3875.675 180.00 1.30706 0.03
6 6 0 1 o 75767.10 86695.22 180.00 1.30385 1.29
7 3 1 2 o 19200.969 21775.660 0.00 1.30553 0.26
4 2 6 2 o 122.249 132.516 0.00 1.30537 0.00
5 7 2 2 o 2191.080 2607.938 180.00 1.30516 0.05
6 6 0 2 o 76508.11 86695.22 180.00 1.30385 0.65
7 2 2 1 o 1.753 2.030 0.00 1.30040 0.00
5 3 5 1 o 32532.682 36798.85 180.00 1.30036 1.06
2 7 5 1 o 3433.868 3859.180 0.00 1.30064 0.11
7 2 2 2 o 1.871 2.030 0.00 1.30040 0.00
5 3 5 2 o 34383.840 36798.85 180.00 1.30036 0.56
2 7 5 2 o 3588.484 3859.180 0.00 1.30064 0.06
0 6 6 1 o 386.594 396.189 180.00 1.29616 0.00
3 9 2 1 o 15398.309 16014.694 180.00 1.29596 0.51
1 3 7 1 o 2706.988 2984.713 0.00 1.29526 0.09
2 9 3 1 o 13128.321 14757.751 0.00 1.29490 0.44
0 6 6 2 o 381.517 396.189 180.00 1.29616 0.00
3 9 2 2 o 15104.768 16014.694 180.00 1.29596 0.25
1 3 7 2 o 2698.086 2984.713 0.00 1.29526 0.04
6 6 1 1 o 34081.617 37771.62 180.00 1.29192 1.11
2 9 3 2 o 13307.935 14757.751 0.00 1.29490 0.22
2 2 7 1 o 2483.185 2976.060 0.00 1.29088 0.10
6 6 1 2 o 33801.613 37771.62 180.00 1.29192 0.55
2 2 7 2 o 2863.664 2976.060 0.00 1.29088 0.05
2 10 0 1 o 28022.109 32560.230 180.00 1.28569 0.49
1 6 6 1 o 949.597 1258.270 0.00 1.28464 0.03
0 10 2 1 o 4065.615 5067.076 0.00 1.28486 0.07
2 10 0 2 o 25097.297 32560.230 180.00 1.28569 0.21
1 6 6 2 o 1180.427 1258.270 0.00 1.28464 0.02
0 10 2 2 o 4598.779 5067.076 0.00 1.28486 0.04
6 3 4 1 o 5732.405 6169.824 180.00 1.27924 0.14
6 3 4 2 o 6524.475 6169.824 180.00 1.27924 0.09
4 3 6 1 o 2.058 0.019 0.00 1.27519 0.00
2 10 1 1 o 14876.499 14508.419 180.00 1.27425 0.58
1 10 2 1 o 26015.738 25385.209 180.00 1.27364 0.99
4 3 6 2 o 0.821 0.019 0.00 1.27519 0.00
7 3 2 1 o 2946.693 3227.387 0.00 1.27056 0.09
2 10 1 2 o 13432.999 14508.419 180.00 1.27425 0.26
1 10 2 2 o 23194.523 25385.209 180.00 1.27364 0.43
4 7 4 1 o 874.415 1133.707 180.00 1.26843 0.04
7 3 2 2 o 2590.946 3227.387 0.00 1.27056 0.04
6 5 3 1 o 14645.750 16455.582 0.00 1.26530 0.44
4 7 4 2 o 959.853 1133.707 180.00 1.26843 0.02
7 4 1 1 o 4332.164 4838.751 180.00 1.26384 0.15
4 9 0 1 o 6372.717 6901.878 180.00 1.26311 0.11
6 5 3 2 o 15941.866 16455.582 0.00 1.26530 0.24
2 3 7 1 o 5471.988 5626.048 0.00 1.26167 0.17
7 1 3 1 o 12032.418 12531.757 180.00 1.26083 0.38
7 4 1 2 o 4629.597 4838.751 180.00 1.26384 0.08
4 8 3 1 o 2227.487 2328.406 0.00 1.26043 0.08
3 5 6 1 o 11666.060 12088.609 180.00 1.26001 0.33
4 9 0 2 o 6644.204 6901.878 180.00 1.26311 0.06
5 4 5 1 o 2260.993 2368.233 180.00 1.25915 0.08
3 8 4 1 o 2670.083 2799.127 180.00 1.25907 0.10
2 3 7 2 o 5288.811 5626.048 0.00 1.26167 0.08
6 6 2 1 o 22656.318 24288.549 180.00 1.25801 0.68
7 1 3 2 o 11636.363 12531.757 180.00 1.26083 0.18
4 8 3 2 o 2189.889 2328.406 0.00 1.26043 0.04
3 5 6 2 o 11605.633 12088.609 180.00 1.26001 0.16
5 4 5 2 o 2305.624 2368.233 180.00 1.25915 0.04
3 8 4 2 o 2730.334 2799.127 180.00 1.25907 0.05
6 6 2 2 o 23619.121 24288.549 180.00 1.25801 0.36
1 4 7 1 o 15254.025 15727.043 0.00 1.25451 0.47
3 1 7 1 o 421.180 462.645 180.00 1.25310 0.01
4 9 1 1 o 8279.605 8926.328 180.00 1.25225 0.28
2 6 6 1 o 9906.186 10938.633 180.00 1.25186 0.30
1 4 7 2 o 13978.542 15727.043 0.00 1.25451 0.21
5 8 1 1 o 20179.607 22620.746 180.00 1.25135 0.65
3 1 7 2 o 436.642 462.645 180.00 1.25310 0.01
1 9 4 1 o 3058.242 3233.833 0.00 1.24939 0.08
4 9 1 2 o 8290.499 8926.328 180.00 1.25225 0.14
2 6 6 2 o 10152.856 10938.633 180.00 1.25186 0.15
5 7 3 1 o 52768.93 56567.02 180.00 1.24843 1.70
5 8 1 2 o 21235.477 22620.746 180.00 1.25135 0.34
1 8 5 1 o 439.597 441.600 180.00 1.24680 0.01
1 9 4 2 o 3169.286 3233.833 0.00 1.24939 0.04
3 7 5 1 o 4551.411 4710.823 0.00 1.24541 0.15
5 7 3 2 o 54824.82 56567.02 180.00 1.24843 0.89
5 6 4 1 o 1310.070 1332.417 0.00 1.24521 0.03
7 2 3 1 o 11304.025 10888.521 0.00 1.24426 0.33
1 8 5 2 o 455.607 441.600 180.00 1.24680 0.01
4 6 5 1 o 4578.763 4391.979 180.00 1.24353 0.14
3 7 5 2 o 4434.788 4710.823 0.00 1.24541 0.07
5 6 4 2 o 1250.541 1332.417 0.00 1.24521 0.02
7 2 3 2 o 9897.996 10888.521 0.00 1.24426 0.14
2 10 2 1 o 29120.643 32246.084 180.00 1.24167 1.03
4 6 5 2 o 4203.271 4391.979 180.00 1.24353 0.07
6 4 4 1 o 50662.51 51415.73 180.00 1.23995 1.50
3 9 3 1 o 292.260 310.106 180.00 1.24037 0.02
2 10 2 2 o 29475.682 32246.084 180.00 1.24167 0.52
6 4 4 2 o 51278.99 51415.73 180.00 1.23995 0.76
3 9 3 2 o 296.616 310.106 180.00 1.24037 0.01
3 2 7 1 o 47719.96 47732.99 0.00 1.23683 1.44
4 4 6 1 o 2928.649 2932.037 180.00 1.23625 0.07
3 2 7 2 o 45039.69 47732.99 0.00 1.23683 0.67
4 4 6 2 o 2850.740 2932.037 180.00 1.23625 0.03
7 4 2 1 o 37717.30 39900.41 0.00 1.23203 1.07
5 0 6 1 o 65551.96 66910.46 0.00 1.23013 0.92
6 7 0 1 o 1175.777 1218.149 180.00 1.22971 0.03
7 4 2 2 o 38959.34 39900.41 0.00 1.23203 0.55
5 0 6 2 o 68238.55 66910.46 0.00 1.23013 0.48
6 1 5 1 o 31596.086 31314.115 0.00 1.22690 0.89
6 7 0 2 o 1208.334 1218.149 180.00 1.22971 0.01
5 1 6 1 o 36814.57 35038.953 0.00 1.22493 1.06
6 1 5 2 o 33855.207 31314.115 0.00 1.22690 0.48
2 4 7 1 o 117.490 105.969 0.00 1.22392 0.00
5 1 6 2 o 38515.28 35038.953 0.00 1.22493 0.55
3 10 1 1 o 8920.284 8078.067 180.00 1.22218 0.35
4 9 2 1 o 596.753 520.705 180.00 1.22129 0.02
2 4 7 2 o 125.449 105.969 0.00 1.22392 0.00
1 10 3 1 o 18951.643 16462.967 0.00 1.22076 0.72
5 8 2 1 o 139.071 128.037 180.00 1.22046 0.00
6 7 1 1 o 3685.336 3462.193 0.00 1.21969 0.11
2 9 4 1 o 74684.67 71846.02 0.00 1.21917 2.43
3 10 1 2 o 8453.574 8078.067 180.00 1.22218 0.17
7 3 3 1 o 112848.38 110567.92 0.00 1.21804 3.22
4 9 2 2 o 534.828 520.705 180.00 1.22129 0.01
1 10 3 2 o 16736.088 16462.967 0.00 1.22076 0.32
5 8 2 2 o 128.760 128.037 180.00 1.22046 0.00
0 5 7 1 o 2443.305 2445.297 180.00 1.21691 0.03
6 7 1 2 o 3448.611 3462.193 0.00 1.21969 0.05
2 8 5 1 o 51630.06 51778.27 0.00 1.21676 1.56
2 9 4 2 o 71277.43 71846.02 0.00 1.21917 1.14
7 5 1 1 o 26.343 26.335 0.00 1.21568 0.00
7 3 3 2 o 111083.38 110567.92 0.00 1.21804 1.57
0 5 7 2 o 2370.930 2445.297 180.00 1.21691 0.02
2 8 5 2 o 49954.45 51778.27 0.00 1.21676 0.75
1 7 6 1 o 111.934 117.111 180.00 1.21355 0.00
7 5 1 2 o 25.765 26.335 0.00 1.21568 0.00
6 2 5 1 o 73244.71 73521.45 180.00 1.21162 1.99
5 5 5 1 o 24371.463 24476.148 180.00 1.21150 0.74
3 3 7 1 o 159153.86 162040.92 0.00 1.21107 4.45
1 7 6 2 o 111.237 117.111 180.00 1.21355 0.00
5 2 6 1 o 13160.600 13870.094 0.00 1.20972 0.36
6 2 5 2 o 72796.90 73521.45 180.00 1.21162 0.99
5 5 5 2 o 24337.529 24476.148 180.00 1.21150 0.37
3 3 7 2 o 163673.16 162040.92 0.00 1.21107 2.29
8 0 0 1 o 164927.72 162410.25 0.00 1.20737 1.10
1 5 7 1 o 7479.855 7371.024 180.00 1.20737 0.20
6 6 3 1 o 11563.476 11382.293 0.00 1.20697 0.34
5 2 6 2 o 14157.922 13870.094 0.00 1.20972 0.20
8 0 0 2 o 179221.67 162410.25 0.00 1.20737 0.61
1 5 7 2 o 8097.315 7371.024 180.00 1.20737 0.11
6 6 3 2 o 12275.854 11382.293 0.00 1.20697 0.18
8 1 0 1 o 22401.141 22775.225 0.00 1.20245 0.32
0 11 1 1 o 147445.84 147198.56 180.00 1.20295 2.53
3 6 6 1 o 56695.32 57691.02 180.00 1.20238 1.58
8 1 0 2 o 21279.486 22775.225 0.00 1.20245 0.15
0 11 1 2 o 140302.08 147198.56 180.00 1.20295 1.19
3 6 6 2 o 54147.85 57691.02 180.00 1.20238 0.74
0 0 8 1 o 58680.27 57403.01 0.00 1.19655 0.41
7 0 4 1 o 53637.49 52136.31 180.00 1.19538 0.72
6 5 4 1 o 48172.12 47268.60 0.00 1.19437 1.28
0 0 8 2 o 57509.21 57403.01 0.00 1.19655 0.20
8 1 1 1 o 865.127 878.452 180.00 1.19308 0.02
1 11 1 1 o 16588.301 16510.012 180.00 1.19373 0.55
3 10 2 1 o 66834.86 67186.20 180.00 1.19335 2.09
7 0 4 2 o 51276.91 52136.31 180.00 1.19538 0.34
2 10 3 1 o 5340.504 5450.425 0.00 1.19252 0.18
6 5 4 2 o 48014.97 47268.60 0.00 1.19437 0.63
4 5 6 1 o 797.587 792.376 180.00 1.19107 0.02
6 7 2 1 o 2527.818 2505.403 0.00 1.19103 0.10
7 1 4 1 o 709.129 719.131 0.00 1.19060 0.02
8 1 1 2 o 834.934 878.452 180.00 1.19308 0.01
1 11 1 2 o 16438.637 16510.012 180.00 1.19373 0.27
4 8 4 1 o 82998.44 86269.72 0.00 1.19027 2.50
3 10 2 2 o 65389.46 67186.20 180.00 1.19335 1.01
2 10 3 2 o 5038.625 5450.425 0.00 1.19252 0.09
8 2 0 1 o 4532.545 4615.721 0.00 1.18806 0.05
4 5 6 2 o 780.839 792.376 180.00 1.19107 0.01
6 7 2 2 o 2441.898 2505.403 0.00 1.19103 0.05
7 1 4 2 o 702.360 719.131 0.00 1.19060 0.01
1 0 8 1 o 580.482 605.778 0.00 1.18748 0.01
6 3 5 1 o 318.774 332.191 180.00 1.18737 0.01
7 5 2 1 o 10027.785 10363.968 180.00 1.18729 0.27
4 8 4 2 o 83454.57 86269.72 0.00 1.19027 1.26
5 3 6 1 o 8101.784 7750.354 0.00 1.18559 0.22
2 7 6 1 o 937.720 887.965 0.00 1.18580 0.03
8 2 0 2 o 4749.456 4615.721 0.00 1.18806 0.03
4 1 7 1 o 1015.876 987.384 180.00 1.18522 0.02
1 0 8 2 o 631.616 605.778 0.00 1.18748 0.01
6 3 5 2 o 344.483 332.191 180.00 1.18737 0.01
7 5 2 2 o 10641.964 10363.968 180.00 1.18729 0.15
7 4 3 1 o 3267.720 3206.916 180.00 1.18398 0.09
1 1 8 1 o 19806.047 17806.674 180.00 1.18280 0.52
5 3 6 2 o 8756.555 7750.354 0.00 1.18559 0.12
2 7 6 2 o 1003.371 887.965 0.00 1.18580 0.02
4 1 7 2 o 1134.040 987.384 180.00 1.18522 0.01
7 4 3 2 o 3805.285 3206.916 180.00 1.18398 0.06
0 2 8 1 o 27.372 26.545 180.00 1.17775 0.00
3 4 7 1 o 6724.800 6327.310 180.00 1.17757 0.18
5 7 4 1 o 73.203 65.013 0.00 1.18015 0.00
2 5 7 1 o 3068.425 2839.029 0.00 1.18003 0.08
1 1 8 2 o 19175.824 17806.674 180.00 1.18280 0.25
5 7 4 2 o 70.529 65.013 0.00 1.18015 0.00
2 5 7 2 o 2987.938 2839.029 0.00 1.18003 0.04
7 2 4 1 o 4628.659 4439.340 180.00 1.17662 0.12
8 2 1 1 o 12067.532 11409.688 0.00 1.17901 0.32
8 2 1 2 o 11979.283 11409.688 0.00 1.17901 0.16
4 7 5 1 o 38115.07 36410.21 0.00 1.17871 1.09
4 7 5 2 o 38151.17 36410.21 0.00 1.17871 0.54
2 11 0 1 o 27478.490 26119.193 0.00 1.17606 0.46
0 2 8 2 o 27.029 26.545 180.00 1.17775 0.00
3 4 7 2 o 6538.055 6327.310 180.00 1.17757 0.09
4 9 3 1 o 24535.607 23871.334 180.00 1.17443 0.72
7 2 4 2 o 4471.109 4439.340 180.00 1.17662 0.06
5 8 3 1 o 35709.51 35493.61 180.00 1.17369 1.03
3 9 4 1 o 5763.080 5773.762 180.00 1.17333 0.17
2 11 0 2 o 26057.930 26119.193 0.00 1.17606 0.22
0 9 5 1 o 92.248 89.808 180.00 1.17192 0.00
4 2 7 1 o 158.959 149.029 180.00 1.17143 0.01
4 9 3 2 o 24930.717 23871.334 180.00 1.17443 0.37
3 8 5 1 o 996.303 934.344 0.00 1.17119 0.03
8 0 2 1 o 40532.70 37797.42 0.00 1.17069 0.52
5 8 3 2 o 38053.39 35493.61 180.00 1.17369 0.55
3 9 4 2 o 6204.926 5773.762 180.00 1.17333 0.09
1 2 8 1 o 37169.32 32890.629 0.00 1.16909 0.98
0 9 5 2 o 99.577 89.808 180.00 1.17192 0.00
4 2 7 2 o 168.777 149.029 180.00 1.17143 0.00
3 8 5 2 o 1018.577 934.344 0.00 1.17119 0.02
8 0 2 2 o 39727.89 37797.42 0.00 1.17069 0.25
4 10 0 1 o 173775.92 168053.03 0.00 1.16755 2.67
5 9 1 1 o 1315.914 1288.816 0.00 1.16708 0.05
2 11 1 1 o 13507.225 13229.014 0.00 1.16729 0.43
8 1 2 1 o 1.334 0.694 0.00 1.16621 0.00
1 11 2 1 o 10913.779 10777.531 180.00 1.16682 0.35
1 2 8 2 o 33747.609 32890.629 0.00 1.16909 0.43
8 3 0 1 o 14223.156 14326.672 0.00 1.16517 0.21
0 10 4 1 o 148428.23 149982.63 0.00 1.16508 2.30
4 10 0 2 o 164397.94 168053.03 0.00 1.16755 1.24
5 9 1 2 o 1257.402 1288.816 0.00 1.16708 0.03
2 11 1 2 o 12941.675 13229.014 0.00 1.16729 0.20
7 6 1 1 o 2774.299 2760.962 180.00 1.16367 0.08
8 1 2 2 o 1.016 0.694 0.00 1.16621 0.00
1 11 2 2 o 10703.576 10777.531 180.00 1.16682 0.17
1 9 5 1 o 6665.293 6587.928 180.00 1.16339 0.18
8 3 0 2 o 13996.971 14326.672 0.00 1.16517 0.10
0 10 4 2 o 146187.66 149982.63 0.00 1.16508 1.13
2 0 8 1 o 467.577 501.111 0.00 1.16144 0.01
7 6 1 2 o 2759.272 2760.962 180.00 1.16367 0.04
1 9 5 2 o 6725.151 6587.928 180.00 1.16339 0.09
5 6 5 1 o 572.489 560.125 180.00 1.16001 0.01
2 0 8 2 o 471.368 501.111 0.00 1.16144 0.00
4 10 1 1 o 1023.930 1062.026 180.00 1.15896 0.03
6 8 0 1 o 38433.87 39200.12 180.00 1.15810 0.53
2 1 8 1 o 14179.654 13873.877 180.00 1.15706 0.34
5 6 5 2 o 568.843 560.125 180.00 1.16001 0.01
8 3 1 1 o 107947.04 105809.14 180.00 1.15663 2.76
1 10 4 1 o 222.432 217.657 0.00 1.15669 0.01
1 6 7 1 o 15603.820 15419.676 0.00 1.15638 0.37
6 4 5 1 o 15448.501 15338.323 0.00 1.15575 0.40
4 10 1 2 o 1072.873 1062.026 180.00 1.15896 0.02
6 8 0 2 o 39219.45 39200.12 180.00 1.15810 0.27
7 3 4 1 o 1873.074 1825.028 0.00 1.15438 0.06
2 1 8 2 o 14251.723 13873.877 180.00 1.15706 0.17
5 4 6 1 o 1582.763 1532.293 0.00 1.15410 0.04
8 3 1 2 o 109612.99 105809.14 180.00 1.15663 1.40
1 10 4 2 o 225.393 217.657 0.00 1.15669 0.00
1 6 7 2 o 15967.071 15419.676 0.00 1.15638 0.19
8 2 2 1 o 18934.713 17878.811 0.00 1.15306 0.49
6 4 5 2 o 16330.935 15338.323 0.00 1.15575 0.21
0 8 6 1 o 9269.282 8538.409 180.00 1.15269 0.16
7 3 4 2 o 2102.038 1825.028 0.00 1.15438 0.03
5 4 6 2 o 1787.081 1532.293 0.00 1.15410 0.02
8 2 2 2 o 20476.307 17878.811 0.00 1.15306 0.27
0 8 6 2 o 9564.597 8538.409 180.00 1.15269 0.08
6 8 1 1 o 34863.156 32161.203 0.00 1.14971 1.00
4 3 7 1 o 4364.016 4101.631 180.00 1.14947 0.12
3 10 3 1 o 725.463 696.697 180.00 1.14952 0.01
6 7 3 1 o 30925.164 29555.379 0.00 1.14745 0.84
1 3 8 1 o 5757.093 5534.999 180.00 1.14726 0.15
6 8 1 2 o 32790.273 32161.203 0.00 1.14971 0.46
4 3 7 2 o 4115.843 4101.631 180.00 1.14947 0.05
3 10 3 2 o 699.628 696.697 180.00 1.14952 0.01
6 6 4 1 o 1683.071 1533.631 180.00 1.14494 0.04
6 7 3 2 o 33238.773 29555.379 0.00 1.14745 0.46
1 3 8 2 o 6258.611 5534.999 180.00 1.14726 0.08
1 8 6 1 o 2391.077 2112.639 0.00 1.14457 0.07
2 2 8 1 o 376.506 339.902 180.00 1.14421 0.01
7 5 3 1 o 24885.760 21787.713 0.00 1.14410 0.70
3 7 6 1 o 8.607 6.804 180.00 1.14350 0.00
6 6 4 2 o 1625.760 1533.631 180.00 1.14494 0.02
4 6 6 1 o 37127.91 35129.15 0.00 1.14203 0.99
5 9 2 1 o 55664.36 53212.84 180.00 1.14190 1.57
2 11 2 1 o 285.047 273.410 0.00 1.14209 0.01
1 8 6 2 o 2192.656 2112.639 0.00 1.14457 0.03
2 2 8 2 o 343.935 339.902 180.00 1.14421 0.00
7 5 3 2 o 22017.059 21787.713 0.00 1.14410 0.30
3 7 6 2 o 6.854 6.804 180.00 1.14350 0.00
4 6 6 2 o 35518.02 35129.15 0.00 1.14203 0.47
5 9 2 2 o 53529.86 53212.84 180.00 1.14190 0.75
2 11 2 2 o 275.933 273.410 0.00 1.14209 0.00
7 6 2 1 o 39497.29 39848.06 180.00 1.13870 1.00
2 9 5 1 o 10701.041 10724.291 0.00 1.13887 0.30
3 5 7 1 o 43594.66 44998.21 0.00 1.13832 1.16
7 6 2 2 o 40922.72 39848.06 180.00 1.13870 0.52
2 9 5 2 o 11032.715 10724.291 0.00 1.13887 0.16
3 5 7 2 o 46123.38 44998.21 0.00 1.13832 0.62
8 4 0 1 o 4590.969 4532.681 180.00 1.13524 0.05
4 10 2 1 o 31800.410 32435.418 0.00 1.13429 0.89
6 0 6 1 o 570.107 560.079 180.00 1.13318 0.01
0 11 3 1 o 90.080 90.223 180.00 1.13348 0.00
8 4 0 2 o 4424.306 4532.681 180.00 1.13524 0.03
8 3 2 1 o 539.911 606.968 180.00 1.13211 0.02
2 10 4 1 o 3944.648 3972.708 180.00 1.13259 0.10
2 6 7 1 o 284.067 301.520 180.00 1.13229 0.01
4 10 2 2 o 30121.123 32435.418 0.00 1.13429 0.41
6 0 6 2 o 543.612 560.079 180.00 1.13318 0.00
0 11 3 2 o 87.352 90.223 180.00 1.13348 0.00
8 3 2 2 o 680.796 606.968 180.00 1.13211 0.01
2 10 4 2 o 4097.277 3972.708 180.00 1.13259 0.05
2 6 7 2 o 325.267 301.520 180.00 1.13229 0.01
6 1 6 1 o 29287.188 27016.086 180.00 1.12912 0.77
8 4 1 1 o 2245.178 1979.287 180.00 1.12734 0.06
6 1 6 2 o 28919.338 27016.086 180.00 1.12912 0.38
3 11 1 1 o 13067.228 11747.130 180.00 1.12687 0.40
0 4 8 1 o 38714.52 36393.27 180.00 1.12624 0.54
6 8 2 1 o 30457.340 29830.559 180.00 1.12561 0.86
8 1 3 1 o 26576.119 26573.904 180.00 1.12521 0.62
7 4 4 1 o 22.611 22.576 0.00 1.12526 0.00
1 11 3 1 o 38401.41 37437.43 180.00 1.12576 1.10
8 4 1 2 o 1934.157 1979.287 180.00 1.12734 0.02
2 3 8 1 o 4071.252 4105.773 180.00 1.12373 0.09
3 11 1 2 o 11527.373 11747.130 180.00 1.12687 0.17
0 4 8 2 o 36282.32 36393.27 180.00 1.12624 0.25
6 8 2 2 o 29804.748 29830.559 180.00 1.12561 0.42
8 1 3 2 o 26487.965 26573.904 180.00 1.12521 0.31
7 4 4 2 o 22.536 22.576 0.00 1.12526 0.00
1 11 3 2 o 37442.78 37437.43 180.00 1.12576 0.53
3 0 8 1 o 92268.21 94242.13 180.00 1.12160 1.08
2 8 6 1 o 13959.155 14953.667 180.00 1.12120 0.41
2 3 8 2 o 3779.022 4105.773 180.00 1.12373 0.04
4 4 7 1 o 35.670 40.978 180.00 1.12071 0.00
3 0 8 2 o 98801.35 94242.13 180.00 1.12160 0.59
1 4 8 1 o 65249.24 62537.56 0.00 1.11866 1.59
6 5 5 1 o 2989.450 2882.073 0.00 1.11858 0.07
2 8 6 2 o 15523.815 14953.667 180.00 1.12120 0.23
4 4 7 2 o 41.657 40.978 180.00 1.12071 0.00
3 1 8 1 o 12070.019 12007.614 0.00 1.11766 0.30
6 2 6 1 o 12249.020 12323.145 180.00 1.11717 0.31
5 5 6 1 o 36288.62 36569.06 180.00 1.11708 0.90
4 9 4 1 o 7229.475 7294.633 0.00 1.11706 0.22
5 8 4 1 o 2121.000 2112.085 0.00 1.11642 0.05
1 4 8 2 o 64716.11 62537.56 0.00 1.11866 0.78
6 5 5 2 o 2982.689 2882.073 0.00 1.11858 0.03
7 1 5 1 o 35380.66 34146.016 0.00 1.11548 0.92
4 8 5 1 o 3434.709 3369.403 0.00 1.11520 0.09
3 1 8 2 o 12079.582 12007.614 0.00 1.11766 0.15
6 2 6 2 o 12364.104 12323.145 180.00 1.11717 0.16
5 5 6 2 o 36759.45 36569.06 180.00 1.11708 0.46
4 9 4 2 o 7340.985 7294.633 0.00 1.11706 0.11
8 2 3 1 o 2483.955 2337.801 180.00 1.11338 0.06
5 8 4 2 o 2193.864 2112.085 0.00 1.11642 0.03
7 1 5 2 o 38560.05 34146.016 0.00 1.11548 0.51
5 1 7 1 o 6683.472 5801.801 180.00 1.11225 0.18
4 8 5 2 o 3823.862 3369.403 0.00 1.11520 0.05
0 12 0 1 o 4578.929 4249.237 0.00 1.11152 0.03
0 7 7 1 o 2274.823 2185.742 180.00 1.11099 0.03
8 2 3 2 o 2432.305 2337.801 180.00 1.11338 0.03
7 7 1 1 o 12524.155 11557.049 180.00 1.11005 0.30
5 1 7 2 o 6835.482 5801.801 180.00 1.11225 0.09
0 12 0 2 o 5149.360 4249.237 0.00 1.11152 0.02
0 7 7 2 o 2830.447 2185.742 180.00 1.11099 0.02
7 7 1 2 o 13420.048 11557.049 180.00 1.11005 0.16
5 7 5 1 o 2522.563 2272.042 180.00 1.10687 0.05
3 2 8 1 o 7577.450 6930.307 180.00 1.10607 0.18
8 4 2 1 o 6542.296 6148.994 0.00 1.10460 0.16
7 2 5 1 o 759.063 740.106 180.00 1.10396 0.02
5 7 5 2 o 2341.451 2272.042 180.00 1.10687 0.02
3 11 2 1 o 5300.306 5105.154 0.00 1.10415 0.15
1 7 7 1 o 96910.20 96753.80 180.00 1.10371 2.46
3 2 8 2 o 6759.430 6930.307 180.00 1.10607 0.08
5 9 3 1 o 8415.805 8695.304 180.00 1.10332 0.27
2 11 3 1 o 19196.293 19521.129 0.00 1.10350 0.55
8 4 2 2 o 6200.503 6148.994 0.00 1.10460 0.07
7 2 5 2 o 731.532 740.106 180.00 1.10396 0.01
3 11 2 2 o 5089.144 5105.154 0.00 1.10415 0.07
3 9 5 1 o 16421.068 16605.623 0.00 1.10124 0.45
5 2 7 1 o 65052.09 67760.98 0.00 1.10083 1.57
1 7 7 2 o 94393.74 96753.80 180.00 1.10371 1.19
7 6 3 1 o 6199.687 6788.156 180.00 1.10044 0.16
5 9 3 2 o 8038.391 8695.304 180.00 1.10332 0.13
2 11 3 2 o 18655.744 19521.129 0.00 1.10350 0.27
8 5 0 1 o 24305.832 27656.234 180.00 1.09995 0.31
3 9 5 2 o 16674.029 16605.623 0.00 1.10124 0.23
5 2 7 2 o 68588.29 67760.98 0.00 1.10083 0.83
6 3 6 1 o 11213.018 11053.881 180.00 1.09808 0.30
7 6 3 2 o 6937.511 6788.156 180.00 1.10044 0.09
8 5 0 2 o 28195.717 27656.234 180.00 1.09995 0.18
2 4 8 1 o 10857.614 10918.723 180.00 1.09681 0.31
1 12 1 1 o 20068.770 19980.602 180.00 1.09696 0.62
4 10 3 1 o 220.597 226.723 0.00 1.09645 0.01
6 3 6 2 o 10706.549 11053.881 180.00 1.09808 0.14
3 10 4 1 o 29401.424 30250.490 180.00 1.09555 0.79
3 6 7 1 o 22487.275 23176.063 180.00 1.09529 0.60
8 3 3 1 o 278.202 277.194 180.00 1.09448 0.01
2 4 8 2 o 11305.264 10918.723 180.00 1.09681 0.16
1 12 1 2 o 20400.539 19980.602 180.00 1.09696 0.31
6 7 4 1 o 3724.794 3532.947 180.00 1.09376 0.12
4 10 3 2 o 236.893 226.723 0.00 1.09645 0.00
8 5 1 1 o 30255.064 30311.711 180.00 1.09276 0.73
3 10 4 2 o 30372.371 30250.490 180.00 1.09555 0.41
3 6 7 2 o 22931.840 23176.063 180.00 1.09529 0.31
8 3 3 2 o 287.376 277.194 180.00 1.09448 0.00
4 7 6 1 o 142.337 120.099 0.00 1.09122 0.01
6 7 4 2 o 4049.873 3532.947 180.00 1.09376 0.07
7 5 4 1 o 2133.808 1925.793 180.00 1.09086 0.05
5 10 1 1 o 5724.305 5296.845 180.00 1.09046 0.17
6 9 0 1 o 68488.61 64464.22 0.00 1.09034 0.93
8 5 1 2 o 31528.957 30311.711 180.00 1.09276 0.38
6 8 3 1 o 9916.150 9323.668 180.00 1.08861 0.26
4 7 6 2 o 132.215 120.099 0.00 1.09122 0.00
7 7 2 1 o 105.241 97.689 180.00 1.08831 0.00
7 5 4 2 o 2025.497 1925.793 180.00 1.09086 0.03
3 3 8 1 o 2462.840 2442.394 0.00 1.08753 0.06
5 10 1 2 o 5487.443 5296.845 180.00 1.09046 0.08
6 9 0 2 o 65876.02 64464.22 0.00 1.09034 0.44
1 10 5 1 o 8147.873 8156.816 180.00 1.08745 0.28
4 5 7 1 o 2652.454 2740.902 180.00 1.08672 0.06
6 8 3 2 o 9578.466 9323.668 180.00 1.08861 0.13
7 3 5 1 o 312.865 309.260 0.00 1.08552 0.00
7 7 2 2 o 102.040 97.689 180.00 1.08831 0.00
3 8 6 1 o 46499.89 45760.00 180.00 1.08524 1.18
3 3 8 2 o 2424.192 2442.394 0.00 1.08753 0.03
1 5 8 1 o 27133.199 27351.895 0.00 1.08485 0.66
1 10 5 2 o 8025.426 8156.816 180.00 1.08745 0.14
4 5 7 2 o 2673.433 2740.902 180.00 1.08672 0.03
4 11 0 1 o 3621.315 3692.684 0.00 1.08362 0.06
6 9 1 1 o 21536.732 21790.369 0.00 1.08333 0.55
7 3 5 2 o 308.768 309.260 0.00 1.08552 0.00
2 12 0 1 o 37609.92 38003.59 180.00 1.08320 0.59
5 3 7 1 o 40466.73 40920.92 180.00 1.08255 0.88
2 7 7 1 o 1393.287 1400.431 0.00 1.08271 0.03
3 8 6 2 o 45264.97 45760.00 180.00 1.08524 0.57
0 12 2 1 o 24359.080 24511.684 0.00 1.08271 0.38
1 5 8 2 o 26163.639 27351.895 0.00 1.08485 0.31
4 11 0 2 o 3595.702 3692.684 0.00 1.08362 0.03
6 9 1 2 o 21603.842 21790.369 0.00 1.08333 0.28
2 12 0 2 o 37884.19 38003.59 180.00 1.08320 0.30
5 3 7 2 o 41715.65 40920.92 180.00 1.08255 0.46
2 7 7 2 o 1425.385 1400.431 0.00 1.08271 0.02
0 12 2 2 o 25020.703 24511.684 0.00 1.08271 0.20
1 9 6 1 o 18628.426 18816.240 180.00 1.07903 0.47
8 0 4 1 o 12002.499 11705.209 180.00 1.07795 0.14
6 6 5 1 o 35578.34 34501.367 0.00 1.07767 0.87
4 11 1 1 o 3020.351 2893.952 0.00 1.07674 0.09
5 6 6 1 o 27660.832 26895.029 0.00 1.07633 0.66
1 9 6 2 o 19401.418 18816.240 180.00 1.07903 0.25
2 12 1 1 o 37328.20 36295.24 0.00 1.07633 1.05
1 12 2 1 o 889.299 894.307 0.00 1.07597 0.03
8 0 4 2 o 11326.984 11705.209 180.00 1.07795 0.06
6 6 5 2 o 33425.285 34501.367 0.00 1.07767 0.40
8 1 4 1 o 2094.661 2118.607 180.00 1.07444 0.03
1 11 4 1 o 2286.031 2361.584 180.00 1.07492 0.06
4 11 1 2 o 2902.834 2893.952 0.00 1.07674 0.04
5 6 6 2 o 26789.938 26895.029 0.00 1.07633 0.31
2 12 1 2 o 36160.40 36295.24 0.00 1.07633 0.50
6 4 6 1 o 9701.655 10640.707 180.00 1.07292 0.20
1 12 2 2 o 851.532 894.307 0.00 1.07597 0.01
4 0 8 1 o 9725.480 10462.686 180.00 1.07214 0.10
8 5 2 1 o 12.097 12.287 180.00 1.07201 0.00
8 1 4 2 o 2091.491 2118.607 180.00 1.07444 0.02
1 11 4 2 o 2124.265 2361.584 180.00 1.07492 0.03
6 4 6 2 o 11289.814 10640.707 180.00 1.07292 0.13
8 4 3 1 o 55.841 54.906 0.00 1.06957 0.00
4 0 8 2 o 10771.296 10462.686 180.00 1.07214 0.06
5 10 2 1 o 27472.621 26743.877 0.00 1.06984 0.74
8 5 2 2 o 12.437 12.287 180.00 1.07201 0.00
3 11 3 1 o 7506.214 7043.550 180.00 1.06916 0.19
4 1 8 1 o 65.804 43.003 0.00 1.06870 0.00
2 10 5 1 o 10404.057 9685.284 0.00 1.06734 0.28
8 4 3 2 o 55.094 54.906 0.00 1.06957 0.00
5 10 2 2 o 28144.186 26743.877 0.00 1.06984 0.38
3 11 3 2 o 6560.919 7043.550 180.00 1.06916 0.08
4 1 8 2 o 24.058 43.003 0.00 1.06870 0.00
2 5 8 1 o 17499.141 16732.254 0.00 1.06489 0.39
2 10 5 2 o 10195.814 9685.284 0.00 1.06734 0.14
8 2 4 1 o 22352.000 21392.566 0.00 1.06414 0.51
9 1 1 1 o 528.112 539.408 0.00 1.06314 0.02
3 4 8 1 o 635.066 645.162 0.00 1.06308 0.01
6 9 2 1 o 1561.530 1582.388 0.00 1.06310 0.03
2 5 8 2 o 16665.373 16732.254 0.00 1.06489 0.18
8 2 4 2 o 21925.395 21392.566 0.00 1.06414 0.25
7 4 5 1 o 778.844 755.796 0.00 1.06120 0.02
8 6 0 1 o 65927.10 64860.95 0.00 1.06098 0.76
9 1 1 2 o 527.728 539.408 0.00 1.06314 0.01
3 4 8 2 o 632.706 645.162 0.00 1.06308 0.01
6 9 2 2 o 1558.053 1582.388 0.00 1.06310 0.02
0 1 9 1 o 17391.494 17943.211 0.00 1.06024 0.18
2 9 6 1 o 24186.414 26167.041 0.00 1.05938 0.60
7 4 5 2 o 669.988 755.796 0.00 1.06120 0.01
4 2 8 1 o 4024.015 4452.825 0.00 1.05855 0.09
5 4 7 1 o 10076.544 11048.484 180.00 1.05842 0.22
8 6 0 2 o 59439.87 64860.95 0.00 1.06098 0.33
0 1 9 2 o 17230.008 17943.211 0.00 1.06024 0.09
2 9 6 2 o 25173.566 26167.041 0.00 1.05938 0.31
4 11 2 1 o 686.940 730.742 180.00 1.05687 0.03
7 8 1 1 o 2189.776 2267.214 0.00 1.05652 0.05
2 12 2 1 o 7058.974 7259.476 180.00 1.05648 0.16
4 2 8 2 o 4386.096 4452.825 0.00 1.05855 0.05
5 4 7 2 o 10979.670 11048.484 180.00 1.05842 0.13
5 9 4 1 o 8781.759 8602.376 180.00 1.05534 0.22
2 11 4 1 o 9605.744 9479.570 180.00 1.05549 0.24
7 7 3 1 o 31983.283 30859.492 180.00 1.05476 0.81
8 6 1 1 o 5747.962 5530.058 180.00 1.05453 0.14
4 9 5 1 o 21092.008 20256.830 180.00 1.05431 0.53
1 1 9 1 o 25281.693 24285.195 180.00 1.05391 0.57
4 11 2 2 o 777.373 730.742 180.00 1.05687 0.02
7 8 1 2 o 2362.563 2267.214 0.00 1.05652 0.03
5 8 5 1 o 5808.533 5554.903 0.00 1.05378 0.16
0 6 8 1 o 13853.381 13370.167 0.00 1.05362 0.16
2 12 2 2 o 7509.456 7259.476 180.00 1.05648 0.09
9 2 1 1 o 26757.361 26133.553 0.00 1.05315 0.62
7 6 4 1 o 20208.602 19948.451 180.00 1.05282 0.47
5 9 4 2 o 8709.517 8602.376 180.00 1.05534 0.11
2 11 4 2 o 9612.106 9479.570 180.00 1.05549 0.12
7 7 3 2 o 31639.346 30859.492 180.00 1.05476 0.40
8 6 1 2 o 5667.955 5530.058 180.00 1.05453 0.07
4 9 5 2 o 20684.652 20256.830 180.00 1.05431 0.26
1 1 9 2 o 24652.617 24285.195 180.00 1.05391 0.28
5 8 5 2 o 5646.667 5554.903 0.00 1.05378 0.08
0 6 8 2 o 13549.193 13370.167 0.00 1.05362 0.08
1 8 7 1 o 30041.344 29616.033 180.00 1.05106 0.76
9 2 1 2 o 26544.428 26133.553 0.00 1.05315 0.31
7 6 4 2 o 20360.279 19948.451 180.00 1.05282 0.23
3 7 7 1 o 10933.746 10696.665 180.00 1.05022 0.27
4 10 4 1 o 8609.649 8475.574 180.00 1.04932 0.21
4 6 7 1 o 48.980 48.851 180.00 1.04909 0.00
4 10 4 2 o 8595.228 8475.574 180.00 1.04932 0.10
4 6 7 2 o 47.986 48.851 180.00 1.04909 0.00
1 8 7 2 o 28854.711 29616.033 180.00 1.05106 0.36
8 3 4 1 o 10.596 10.775 180.00 1.04760 0.00
3 7 7 2 o 10541.170 10696.665 180.00 1.05022 0.13
9 0 2 1 o 12144.658 11884.441 0.00 1.04721 0.14
1 6 8 1 o 1735.781 1719.132 0.00 1.04741 0.04
8 3 4 2 o 10.258 10.775 180.00 1.04760 0.00
9 0 2 2 o 11976.867 11884.441 0.00 1.04721 0.07
1 6 8 2 o 1703.557 1719.132 0.00 1.04741 0.02
1 2 9 1 o 8818.958 8506.662 180.00 1.04417 0.24
9 1 2 1 o 34252.563 33235.016 0.00 1.04400 0.76
3 12 1 1 o 3331.583 3269.285 0.00 1.04440 0.08
7 0 6 1 o 5608.305 5489.667 0.00 1.04365 0.06
1 12 3 1 o 20090.059 19819.215 180.00 1.04351 0.51
6 5 6 1 o 26386.678 26966.043 0.00 1.04298 0.63
6 8 4 1 o 588.088 596.602 180.00 1.04245 0.01
4 3 8 1 o 798.991 810.342 0.00 1.04227 0.03
1 2 9 2 o 8713.277 8506.662 180.00 1.04417 0.12
9 1 2 2 o 33984.926 33235.016 0.00 1.04400 0.37
3 12 1 2 o 3310.272 3269.285 0.00 1.04440 0.04
7 0 6 2 o 5655.848 5489.667 0.00 1.04365 0.03
7 1 6 1 o 3254.930 3179.645 180.00 1.04047 0.07
1 12 3 2 o 20455.424 19819.215 180.00 1.04351 0.26
6 5 6 2 o 27482.016 26966.043 0.00 1.04298 0.33
4 8 6 1 o 18980.205 18970.240 0.00 1.04025 0.43
8 5 3 1 o 7772.559 8054.571 180.00 1.03990 0.17
6 8 4 2 o 581.691 596.602 180.00 1.04245 0.00
4 3 8 2 o 749.432 810.342 0.00 1.04227 0.01
6 1 7 1 o 3013.091 3142.374 0.00 1.03905 0.07
7 1 6 2 o 3119.473 3179.645 180.00 1.04047 0.03
5 10 3 1 o 1825.205 1850.641 180.00 1.03792 0.03
7 8 2 1 o 28025.002 28910.189 180.00 1.03773 0.66
4 8 6 2 o 18358.582 18970.240 0.00 1.04025 0.21
8 5 3 2 o 7592.433 8054.571 180.00 1.03990 0.08
9 3 1 1 o 7471.006 8060.714 180.00 1.03711 0.19
6 1 7 2 o 3077.893 3142.374 0.00 1.03905 0.04
3 10 5 1 o 545.113 535.196 180.00 1.03618 0.02
8 6 2 1 o 27914.287 27465.334 0.00 1.03584 0.66
2 1 9 1 o 103.938 103.090 0.00 1.03558 0.00
5 10 3 2 o 1864.571 1850.641 180.00 1.03792 0.02
7 8 2 2 o 29226.094 28910.189 180.00 1.03773 0.35
9 3 1 2 o 8041.702 8060.714 180.00 1.03711 0.10
9 2 2 1 o 926.423 929.796 0.00 1.03454 0.02
6 7 5 1 o 26028.979 25941.178 0.00 1.03466 0.60
0 3 9 1 o 47330.02 47925.73 180.00 1.03442 0.52
3 5 8 1 o 11839.676 12555.237 180.00 1.03393 0.27
5 7 6 1 o 4.848 5.067 0.00 1.03347 0.00
3 10 5 2 o 466.439 535.196 180.00 1.03618 0.01
8 6 2 2 o 24989.328 27465.334 0.00 1.03584 0.29
2 1 9 2 o 97.095 103.090 0.00 1.03558 0.00
2 8 7 1 o -0.024 0.014 180.00 1.03287 0.00
7 5 5 1 o 1111.553 1115.515 0.00 1.03221 0.01
9 2 2 2 o 934.660 929.796 0.00 1.03454 0.01
6 7 5 2 o 25920.311 25941.178 0.00 1.03466 0.30
0 3 9 2 o 48355.28 47925.73 180.00 1.03442 0.27
6 9 3 1 o 8337.958 8252.707 0.00 1.03176 0.20
3 5 8 2 o 12625.105 12555.237 180.00 1.03393 0.14
7 2 6 1 o 22993.545 22999.910 180.00 1.03110 0.51
5 7 6 2 o 5.065 5.067 0.00 1.03347 0.00
2 8 7 2 o 0.020 0.014 180.00 1.03287 0.00
6 2 7 1 o 0.595 0.593 180.00 1.02972 0.00
7 5 5 2 o 1132.855 1115.515 0.00 1.03221 0.01
5 5 7 1 o 9570.363 9330.838 180.00 1.02965 0.19
2 6 8 1 o 551.282 527.855 180.00 1.02941 0.02
6 9 3 2 o 8578.181 8252.707 0.00 1.03176 0.10
3 9 6 1 o 11430.035 11008.560 0.00 1.02889 0.28
7 2 6 2 o 23380.924 22999.910 180.00 1.03110 0.26
1 3 9 1 o 12225.103 12055.796 180.00 1.02853 0.29
6 2 7 2 o 0.595 0.593 180.00 1.02972 0.00
5 5 7 2 o 9584.376 9330.838 180.00 1.02965 0.09
6 10 0 1 o 917.002 890.636 180.00 1.02708 0.01
2 6 8 2 o 553.603 527.855 180.00 1.02941 0.01
2 2 9 1 o 52017.10 50852.68 180.00 1.02634 1.14
3 9 6 2 o 11273.748 11008.560 0.00 1.02889 0.14
1 3 9 2 o 12104.744 12055.796 180.00 1.02853 0.14
3 12 2 1 o 5091.235 5005.030 180.00 1.02623 0.14
8 4 4 1 o 71925.84 72980.70 0.00 1.02569 1.60
4 11 3 1 o 36215.32 35952.69 180.00 1.02606 0.93
2 12 3 1 o 7500.149 7594.668 180.00 1.02571 0.19
3 11 4 1 o 1044.161 1070.035 0.00 1.02533 0.03
6 10 0 2 o 903.273 890.636 180.00 1.02708 0.00
0 11 5 1 o 20330.293 19877.320 0.00 1.02439 0.27
2 2 9 2 o 51297.67 50852.68 180.00 1.02634 0.56
3 12 2 2 o 5016.253 5005.030 180.00 1.02623 0.07
8 4 4 2 o 71041.62 72980.70 0.00 1.02569 0.79
4 11 3 2 o 35659.89 35952.69 180.00 1.02606 0.45
0 10 6 1 o 29074.744 29622.803 0.00 1.02331 0.34
2 12 3 2 o 7412.818 7594.668 180.00 1.02571 0.09
3 11 4 2 o 1022.551 1070.035 0.00 1.02533 0.01
0 11 5 2 o 18688.539 19877.320 0.00 1.02439 0.12
6 10 1 1 o 4674.851 4878.185 0.00 1.02122 0.12
5 11 1 1 o 435.917 449.153 0.00 1.02115 0.01
4 4 8 1 o 10307.022 10555.689 0.00 1.02068 0.19
0 10 6 2 o 28678.561 29622.803 0.00 1.02331 0.17
8 7 0 1 o 2714.832 2514.193 180.00 1.01987 0.04
0 13 1 1 o 122.528 119.856 0.00 1.02017 0.00
9 3 2 1 o 6279.362 5764.266 0.00 1.01932 0.13
6 10 1 2 o 5493.869 4878.185 0.00 1.02122 0.07
8 1 5 1 o 52915.35 47282.59 180.00 1.01826 1.20
1 11 5 1 o 3636.016 3235.857 180.00 1.01867 0.09
5 11 1 2 o 490.272 449.153 0.00 1.02115 0.00
4 4 8 2 o 11508.475 10555.689 0.00 1.02068 0.11
1 10 6 1 o 54178.80 53174.66 0.00 1.01761 1.37
8 7 0 2 o 2442.164 2514.193 180.00 1.01987 0.02
5 0 8 1 o 43846.66 45601.17 0.00 1.01723 0.47
0 13 1 2 o 123.215 119.856 0.00 1.02017 0.00
9 3 2 2 o 5377.396 5764.266 0.00 1.01932 0.05
7 3 6 1 o 1676.255 1724.330 180.00 1.01604 0.04
9 4 1 1 o 4121.250 4163.123 180.00 1.01584 0.09
8 1 5 2 o 47015.56 47282.59 180.00 1.01826 0.52
1 11 5 2 o 3120.618 3235.857 180.00 1.01867 0.04
1 10 6 2 o 53420.45 53174.66 0.00 1.01761 0.67
5 0 8 2 o 45308.79 45601.17 0.00 1.01723 0.25
6 3 7 1 o 755.764 760.258 0.00 1.01471 0.01
9 1 3 1 o 4097.966 4265.709 180.00 1.01427 0.11
5 1 8 1 o 14732.399 15203.425 0.00 1.01428 0.31
8 7 1 1 o 1747.676 1820.847 0.00 1.01413 0.04
1 13 1 1 o 1614.634 1638.799 0.00 1.01453 0.04
7 3 6 2 o 1673.013 1724.330 180.00 1.01604 0.02
9 4 1 2 o 4200.700 4163.123 180.00 1.01584 0.05
7 7 4 1 o 81.342 66.432 0.00 1.01261 0.00
6 3 7 2 o 886.863 760.258 0.00 1.01471 0.01
9 1 3 2 o 4989.237 4265.709 180.00 1.01427 0.07
5 1 8 2 o 17281.994 15203.425 0.00 1.01428 0.19
8 7 1 2 o 2022.739 1820.847 0.00 1.01413 0.02
1 13 1 2 o 1908.051 1638.799 0.00 1.01453 0.03
2 3 9 1 o 913.711 838.875 180.00 1.01147 0.02
7 7 4 2 o 59.618 66.432 0.00 1.01261 0.00
8 2 5 1 o 12492.776 13357.665 180.00 1.00948 0.27
6 6 6 1 o 438.590 467.502 180.00 1.00959 0.01
4 12 0 1 o 17237.982 18411.523 0.00 1.00969 0.21
4 7 7 1 o 1052.583 1112.501 180.00 1.00929 0.02
2 3 9 2 o 820.304 838.875 180.00 1.01147 0.01
7 8 3 1 o 5861.701 5677.798 0.00 1.00852 0.15
1 4 9 1 o 100.975 98.036 0.00 1.00777 0.00
0 12 4 1 o 5307.328 5161.341 0.00 1.00809 0.05
1 7 8 1 o 2.658 2.623 180.00 1.00779 0.00
8 2 5 2 o 14196.636 13357.665 180.00 1.00948 0.16
3 1 9 1 o 11888.008 11128.875 0.00 1.00704 0.28
6 6 6 2 o 497.123 467.502 180.00 1.00959 0.01
4 12 0 2 o 19615.459 18411.523 0.00 1.00969 0.12
8 6 3 1 o 962.065 920.869 0.00 1.00679 0.02
4 7 7 2 o 1164.839 1112.501 180.00 1.00929 0.01
7 8 3 2 o 6075.702 5677.798 0.00 1.00852 0.08
9 2 3 1 o 42356.48 39764.17 0.00 1.00559 0.92
5 2 8 1 o 10109.531 9480.709 0.00 1.00560 0.22
1 4 9 2 o 101.634 98.036 0.00 1.00777 0.00
0 12 4 2 o 5418.616 5161.341 0.00 1.00809 0.03
1 7 8 2 o 2.667 2.623 180.00 1.00779 0.00
0 9 7 1 o 1505.264 1433.709 180.00 1.00502 0.02
3 1 9 2 o 11714.551 11128.875 0.00 1.00704 0.14
3 8 7 1 o 10657.511 10174.029 0.00 1.00455 0.24
8 6 3 2 o 950.914 920.869 0.00 1.00679 0.01
7 9 1 1 o 11642.431 11174.979 0.00 1.00432 0.33
6 10 2 1 o 8120.019 7901.844 180.00 1.00422 0.20
5 11 2 1 o 12207.693 11934.462 0.00 1.00415 0.32
4 12 1 1 o 3339.281 3271.689 0.00 1.00412 0.09
9 2 3 2 o 38509.24 39764.17 0.00 1.00559 0.41
5 2 8 2 o 9180.402 9480.709 0.00 1.00560 0.10
2 13 0 1 o 35651.80 36004.77 0.00 1.00362 0.49
0 9 7 2 o 1375.830 1433.709 180.00 1.00502 0.01
1 12 4 1 o 3453.483 3601.306 0.00 1.00264 0.09
3 8 7 2 o 9861.469 10174.029 0.00 1.00455 0.11
5 9 5 1 o 3586.755 3669.887 180.00 1.00196 0.07
2 11 5 1 o 8993.215 9287.690 0.00 1.00209 0.22
7 9 1 2 o 10817.431 11174.979 0.00 1.00432 0.15
6 10 2 2 o 7691.486 7901.844 180.00 1.00422 0.09
5 11 2 2 o 11600.520 11934.462 0.00 1.00415 0.15
3 6 8 1 o 48622.54 50526.82 180.00 1.00137 1.10
4 12 1 2 o 3174.710 3271.689 0.00 1.00412 0.04
2 10 6 1 o 2674.144 2849.679 180.00 1.00108 0.07
2 13 0 2 o 34110.348 36004.77 0.00 1.00362 0.23
7 6 5 1 o 667.240 743.311 0.00 0.99980 0.02
1 12 4 2 o 3302.284 3601.306 0.00 1.00264 0.04
8 5 4 1 o 5343.863 5710.957 0.00 0.99944 0.10
1 9 7 1 o 6229.644 6830.784 180.00 0.99962 0.15
5 9 5 2 o 3449.176 3669.887 180.00 1.00196 0.03
2 11 5 2 o 8527.146 9287.690 0.00 1.00209 0.10
9 4 2 1 o 94.470 99.048 180.00 0.99910 0.00
3 6 8 2 o 49408.56 50526.82 180.00 1.00137 0.56
3 2 9 1 o 45.439 44.666 180.00 0.99854 0.00
2 10 6 2 o 2850.377 2849.679 180.00 1.00108 0.04
2 13 1 1 o 18211.066 18087.631 0.00 0.99815 0.49
3 12 3 1 o 19962.869 19972.436 0.00 0.99796 0.55
5 10 4 1 o 17205.713 17554.947 0.00 0.99768 0.43
8 7 2 1 o 1150.980 1211.438 0.00 0.99747 0.04
5 6 7 1 o 33245.266 34508.273 180.00 0.99747 0.78
1 13 2 1 o 12645.019 12723.414 180.00 0.99786 0.33
7 6 5 2 o 705.368 743.311 0.00 0.99980 0.01
8 5 4 2 o 5492.947 5710.957 0.00 0.99944 0.05
1 9 7 2 o 6482.176 6830.784 180.00 0.99962 0.08
9 4 2 2 o 97.561 99.048 180.00 0.99910 0.00
4 10 5 1 o 260.342 267.701 0.00 0.99681 0.01
3 2 9 2 o 46.895 44.666 180.00 0.99854 0.00
7 4 6 1 o 64837.67 64308.03 180.00 0.99601 1.42
8 3 5 1 o 10096.613 10580.627 0.00 0.99533 0.21
2 13 1 2 o 17832.959 18087.631 0.00 0.99815 0.24
3 12 3 2 o 19326.098 19972.436 0.00 0.99796 0.26
5 10 4 2 o 16563.742 17554.947 0.00 0.99768 0.21
8 7 2 2 o 1097.796 1211.438 0.00 0.99747 0.02
5 6 7 2 o 32132.631 34508.273 180.00 0.99747 0.38
1 13 2 2 o 12233.812 12723.414 180.00 0.99786 0.16
6 4 7 1 o 129.187 141.323 180.00 0.99476 0.00
4 5 8 1 o 610.307 645.011 0.00 0.99481 0.01
4 10 5 2 o 265.196 267.701 0.00 0.99681 0.00
7 4 6 2 o 68755.84 64308.03 180.00 0.99601 0.77
8 3 5 2 o 10817.569 10580.627 0.00 0.99533 0.12
6 4 7 2 o 141.261 141.323 180.00 0.99476 0.00
4 5 8 2 o 645.733 645.011 0.00 0.99481 0.01
6 9 4 1 o 28901.141 29035.326 180.00 0.99220 0.66
9 3 3 1 o 6300.246 6436.675 180.00 0.99160 0.12
2 4 9 1 o 12583.282 12882.006 0.00 0.99171 0.28
5 3 8 1 o 3031.715 3100.014 0.00 0.99160 0.06
2 7 8 1 o 210.684 217.000 180.00 0.99173 0.01
6 8 5 1 o 32422.146 32602.420 180.00 0.99091 0.76
9 5 1 1 o 4316.632 4478.336 180.00 0.99032 0.12
4 9 6 1 o 53.482 53.772 0.00 0.99031 0.00
5 8 6 1 o 19642.059 20602.643 0.00 0.98987 0.44
6 9 4 2 o 27636.443 29035.326 180.00 0.99220 0.31
9 3 3 2 o 6180.288 6436.675 180.00 0.99160 0.06
2 4 9 2 o 12247.693 12882.006 0.00 0.99171 0.14
5 3 8 2 o 2970.604 3100.014 0.00 0.99160 0.03
2 7 8 2 o 203.224 217.000 180.00 0.99173 0.00
6 8 5 2 o 31000.775 32602.420 180.00 0.99091 0.36
7 9 2 1 o 5010.583 5356.426 0.00 0.98814 0.12
9 5 1 2 o 4062.625 4478.336 180.00 0.99032 0.06
0 5 9 1 o 2460.783 2657.829 180.00 0.98797 0.03
4 9 6 2 o 53.035 53.772 0.00 0.99031 0.00
4 12 2 1 o 19656.791 21324.115 0.00 0.98794 0.54
5 8 6 2 o 18712.707 20602.643 0.00 0.98987 0.21
4 11 4 1 o 23.800 40.956 0.00 0.98713 0.00
2 12 4 1 o 11902.423 13747.502 180.00 0.98682 0.33
7 9 2 2 o 5012.491 5356.426 0.00 0.98814 0.06
0 5 9 2 o 2534.962 2657.829 180.00 0.98797 0.01
4 12 2 2 o 20373.707 21324.115 0.00 0.98794 0.28
3 3 9 1 o 19060.086 19168.486 0.00 0.98484 0.39
4 11 4 2 o 39.619 40.956 0.00 0.98713 0.00
2 12 4 2 o 13376.431 13747.502 180.00 0.98682 0.19
2 9 7 1 o 1943.885 2088.094 0.00 0.98394 0.05
1 5 9 1 o 11617.004 11695.954 180.00 0.98284 0.26
3 3 9 2 o 19295.615 19168.486 0.00 0.98484 0.20
2 13 2 1 o 3190.889 3227.448 0.00 0.98226 0.09
2 9 7 2 o 1975.578 2088.094 0.00 0.98394 0.02
1 5 9 2 o 13312.969 11695.954 180.00 0.98284 0.15
2 13 2 2 o 3716.421 3227.448 0.00 0.98226 0.06
9 0 4 1 o 14742.372 12593.441 0.00 0.97925 0.17
8 8 0 1 o 56435.00 54292.33 0.00 0.97789 0.66
6 10 3 1 o 776.528 761.977 180.00 0.97768 0.02
5 11 3 1 o 1264.391 1241.931 0.00 0.97762 0.04
9 0 4 2 o 12703.041 12593.441 0.00 0.97925 0.07
9 1 4 1 o 4452.850 4454.051 0.00 0.97662 0.09
8 4 5 1 o 2761.116 2781.429 0.00 0.97648 0.06
0 13 3 1 o 31787.014 31608.762 180.00 0.97676 0.43
3 11 5 1 o 14970.177 15258.075 0.00 0.97617 0.37
8 8 0 2 o 55427.10 54292.33 0.00 0.97789 0.32
6 10 3 2 o 791.215 761.977 180.00 0.97768 0.01
3 10 6 1 o 1340.240 1283.072 0.00 0.97523 0.03
5 11 3 2 o 1305.837 1241.931 0.00 0.97762 0.02
9 5 2 1 o 45364.47 43611.12 180.00 0.97479 1.01
9 1 4 2 o 4341.832 4454.051 0.00 0.97662 0.04
8 4 5 2 o 2679.365 2781.429 0.00 0.97648 0.03
0 13 3 2 o 31240.090 31608.762 180.00 0.97676 0.21
6 7 6 1 o 1244.117 1318.355 0.00 0.97397 0.04
3 11 5 2 o 14769.946 15258.075 0.00 0.97617 0.18
9 4 3 1 o 7325.620 7048.477 180.00 0.97296 0.16
5 4 8 1 o 1918.207 1842.666 0.00 0.97296 0.04
8 8 1 1 o 6185.660 5895.506 0.00 0.97283 0.15
3 10 6 2 o 1343.463 1283.072 0.00 0.97523 0.02
9 5 2 2 o 46220.91 43611.12 180.00 0.97479 0.52
3 13 1 1 o 4747.171 4527.686 0.00 0.97252 0.11
0 8 8 1 o 15852.823 14872.805 0.00 0.97212 0.20
7 5 6 1 o 3679.479 3481.513 0.00 0.97192 0.08
6 7 6 2 o 1389.854 1318.355 0.00 0.97397 0.02
8 7 3 1 o 33335.645 32523.752 180.00 0.97145 0.76
7 8 4 1 o 16450.660 15996.739 180.00 0.97149 0.38
1 13 3 1 o 2268.740 2145.585 0.00 0.97181 0.07
4 1 9 1 o 17497.777 18175.102 180.00 0.97078 0.37
6 5 7 1 o 765.314 792.267 0.00 0.97076 0.01
9 4 3 2 o 6726.686 7048.477 180.00 0.97296 0.07
5 4 8 2 o 1754.319 1842.666 0.00 0.97296 0.02
8 8 1 2 o 5604.093 5895.506 0.00 0.97283 0.07
8 6 4 1 o 308.522 315.746 180.00 0.96993 0.01
3 13 1 2 o 4377.176 4527.686 0.00 0.97252 0.05
0 8 8 2 o 14710.763 14872.805 0.00 0.97212 0.09
7 5 6 2 o 3512.159 3481.513 0.00 0.97192 0.04
8 7 3 2 o 33550.129 32523.752 180.00 0.97145 0.38
7 8 4 2 o 16503.553 15996.739 180.00 0.97149 0.19
1 13 3 2 o 2188.388 2145.585 0.00 0.97181 0.03
9 2 4 1 o 5694.628 5555.571 0.00 0.96886 0.13
7 1 7 1 o 44260.33 43703.07 0.00 0.96874 0.90
4 1 9 2 o 17579.723 18175.102 180.00 0.97078 0.19
4 8 7 1 o 7.846 7.931 0.00 0.96856 0.00
6 5 7 2 o 766.907 792.267 0.00 0.97076 0.01
6 11 0 1 o 7166.255 7227.456 180.00 0.96855 0.08
2 5 9 1 o 25.267 28.050 180.00 0.96793 0.00
8 6 4 2 o 292.533 315.746 180.00 0.96993 0.00
1 8 8 1 o 1789.510 1845.984 0.00 0.96723 0.04
9 2 4 2 o 6027.795 5555.571 0.00 0.96886 0.07
3 4 9 1 o 522.198 479.381 180.00 0.96657 0.01
3 7 8 1 o 16.481 15.225 0.00 0.96658 0.00
7 1 7 2 o 47197.09 43703.07 0.00 0.96874 0.49
4 8 7 2 o 8.749 7.931 0.00 0.96856 0.00
10 0 0 1 o 43.296 41.731 0.00 0.96589 0.00
6 11 0 2 o 7766.780 7227.456 180.00 0.96855 0.04
4 6 8 1 o 3926.220 3602.148 180.00 0.96570 0.09
2 5 9 2 o 30.820 28.050 180.00 0.96793 0.00
10 0 0 2 o 41.985 41.731 0.00 0.96589 0.00
10 1 0 1 o 15402.700 15352.035 180.00 0.96337 0.15
7 7 5 1 o 26610.445 24297.867 0.00 0.96517 0.66
6 11 1 1 o 28255.893 27697.500 0.00 0.96363 0.71
4 6 8 2 o 3601.392 3602.148 180.00 0.96570 0.04
4 2 9 1 o 2394.981 2427.720 180.00 0.96316 0.05
5 7 7 1 o 219.983 226.488 180.00 0.96308 0.01
1 8 8 2 o 1969.384 1845.984 0.00 0.96723 0.02
8 0 6 1 o 4267.231 4450.189 180.00 0.96275 0.04
7 7 5 2 o 23273.496 24297.867 0.00 0.96517 0.28
7 9 3 1 o 5203.260 5372.533 0.00 0.96282 0.10
3 4 9 2 o 500.863 479.381 180.00 0.96657 0.01
3 7 8 2 o 15.872 15.225 0.00 0.96658 0.00
4 12 3 1 o 437.214 456.844 180.00 0.96264 0.01
3 12 4 1 o 5867.053 5985.213 180.00 0.96203 0.15
9 6 1 1 o 12841.777 13431.474 180.00 0.96159 0.30
7 2 7 1 o 4029.223 4342.404 180.00 0.96116 0.08
10 1 0 2 o 14188.271 15352.035 180.00 0.96337 0.07
6 11 1 2 o 25757.852 27697.500 0.00 0.96363 0.31
4 2 9 2 o 2241.450 2427.720 180.00 0.96316 0.02
5 7 7 2 o 202.880 226.488 180.00 0.96308 0.00
8 0 6 2 o 4188.759 4450.189 180.00 0.96275 0.02
6 0 8 1 o 2475.804 2607.072 180.00 0.96033 0.02
8 1 6 1 o 9996.031 10708.463 180.00 0.96025 0.25
7 9 3 2 o 5102.477 5372.533 0.00 0.96282 0.05
1 11 6 1 o 4690.970 5045.345 0.00 0.96060 0.12
4 12 3 2 o 431.658 456.844 180.00 0.96264 0.01
3 12 4 2 o 5930.016 5985.213 180.00 0.96203 0.07
9 6 1 2 o 14012.997 13431.474 180.00 0.96159 0.17
3 9 7 1 o 19585.293 19059.867 0.00 0.95936 0.44
7 2 7 2 o 4556.657 4342.404 180.00 0.96116 0.05
10 1 1 1 o 37592.13 35915.65 0.00 0.95853 0.84
5 12 1 1 o 10542.510 10104.422 0.00 0.95858 0.25
6 0 8 2 o 2668.586 2607.072 180.00 0.96033 0.01
8 8 2 1 o 18444.291 17828.740 0.00 0.95810 0.44
8 1 6 2 o 10980.762 10708.463 180.00 0.96025 0.14
1 11 6 2 o 5247.700 5045.345 0.00 0.96060 0.07
6 1 8 1 o 19267.973 18895.299 0.00 0.95785 0.46
3 13 2 1 o 9256.833 9132.191 0.00 0.95781 0.25
0 0 10 1 o 17440.230 18225.750 0.00 0.95724 0.08
2 13 3 1 o 7638.475 7931.607 0.00 0.95738 0.20
3 9 7 2 o 17925.748 19059.867 0.00 0.95936 0.20
9 3 4 1 o 1672.175 1735.231 0.00 0.95633 0.04
10 1 1 2 o 34825.141 35915.65 0.00 0.95853 0.38
1 12 5 1 o 97.178 98.506 0.00 0.95653 0.00
10 2 0 1 o 27356.867 28237.746 180.00 0.95592 0.31
5 12 1 2 o 9812.702 10104.422 0.00 0.95858 0.12
8 8 2 2 o 17169.742 17828.740 0.00 0.95810 0.20
6 1 8 2 o 17802.748 18895.299 0.00 0.95785 0.21
3 13 2 2 o 8616.629 9132.191 0.00 0.95781 0.11
0 0 10 2 o 16948.725 18225.750 0.00 0.95724 0.04
1 6 9 1 o 3017.814 3346.105 0.00 0.95474 0.08
2 13 3 2 o 7307.754 7931.607 0.00 0.95738 0.09
9 3 4 2 o 1860.968 1735.231 0.00 0.95633 0.02
7 10 1 1 o 231.913 233.800 0.00 0.95424 0.01
1 12 5 2 o 98.734 98.506 0.00 0.95653 0.00
8 5 5 1 o 1455.644 1274.577 180.00 0.95375 0.03
10 2 0 2 o 33485.539 28237.746 180.00 0.95592 0.20
8 2 6 1 o 6696.883 5838.696 0.00 0.95288 0.15
2 8 8 1 o 503.099 383.755 0.00 0.95300 0.02
1 0 10 1 o 38149.93 35239.62 0.00 0.95258 0.43
1 6 9 2 o 3522.921 3346.105 0.00 0.95474 0.05
0 14 0 1 o 114021.22 102141.41 0.00 0.95273 0.79
5 10 5 1 o 8.486 7.495 180.00 0.95221 0.00
7 10 1 2 o 240.188 233.800 0.00 0.95424 0.00
8 5 5 2 o 1387.943 1274.577 180.00 0.95375 0.02
10 2 1 1 o 17298.486 15734.978 180.00 0.95119 0.38
4 3 9 1 o 41820.78 38423.98 0.00 0.95085 0.95
8 2 6 2 o 6084.748 5838.696 0.00 0.95288 0.06
6 2 8 1 o 33.637 30.874 0.00 0.95053 0.00
2 8 8 2 o 426.322 383.755 0.00 0.95300 0.01
9 5 3 1 o 906.751 889.080 180.00 0.95046 0.01
5 5 8 1 o 21097.855 20411.473 180.00 0.95047 0.46
1 0 10 2 o 35293.43 35239.62 0.00 0.95258 0.20
1 1 10 1 o 2772.887 2793.651 0.00 0.95016 0.06
1 10 7 1 o 129.883 129.889 180.00 0.95020 0.00
0 14 0 2 o 104386.12 102141.41 0.00 0.95273 0.35
5 10 5 2 o 6.165 7.495 180.00 0.95221 0.00
6 11 2 1 o 3268.331 3250.814 180.00 0.94931 0.10
7 3 7 1 o 3441.468 3349.540 180.00 0.94892 0.06
10 2 1 2 o 16260.662 15734.978 180.00 0.95119 0.17
4 3 9 2 o 39532.52 38423.98 0.00 0.95085 0.44
6 2 8 2 o 32.112 30.874 0.00 0.95053 0.00
9 5 3 2 o 898.841 889.080 180.00 0.95046 0.01
5 5 8 2 o 20781.756 20411.473 180.00 0.95047 0.23
1 1 10 2 o 2857.154 2793.651 0.00 0.95016 0.03
1 10 7 2 o 129.960 129.889 180.00 0.95020 0.00
0 2 10 1 o 5088.703 4942.341 180.00 0.94753 0.06
9 6 2 1 o 2874.565 2804.420 0.00 0.94736 0.06
6 9 5 1 o 3358.648 3261.315 0.00 0.94745 0.08
10 0 2 1 o 3359.192 3386.003 180.00 0.94681 0.03
6 11 2 2 o 3285.761 3250.814 180.00 0.94931 0.05
7 3 7 2 o 3229.315 3349.540 180.00 0.94892 0.03
5 9 6 1 o 22031.566 23225.771 0.00 0.94655 0.52
2 11 6 1 o 8283.324 8582.865 180.00 0.94665 0.23
0 2 10 2 o 5206.803 4942.341 180.00 0.94753 0.03
9 6 2 2 o 3010.348 2804.420 0.00 0.94736 0.03
6 9 5 2 o 3482.591 3261.315 0.00 0.94745 0.04
7 6 6 1 o 65.404 58.534 0.00 0.94472 0.00
10 0 2 2 o 3808.021 3386.003 180.00 0.94681 0.02
10 1 2 1 o 3964.480 3389.157 180.00 0.94443 0.10
3 5 9 1 o 9722.023 8641.923 0.00 0.94450 0.20
5 12 2 1 o 3665.281 3204.743 0.00 0.94448 0.10
5 9 6 2 o 26716.742 23225.771 0.00 0.94655 0.34
2 11 6 2 o 9965.919 8582.865 180.00 0.94665 0.14
10 3 0 1 o 2428.119 2178.195 180.00 0.94388 0.02
4 13 0 1 o 285.193 262.422 0.00 0.94431 0.00
6 10 4 1 o 24820.514 21628.268 180.00 0.94383 0.62
6 6 7 1 o 15.190 12.135 180.00 0.94366 0.00
5 11 4 1 o 2663.935 2308.304 0.00 0.94377 0.07
1 14 1 1 o 3974.213 3326.476 0.00 0.94351 0.15
1 2 10 1 o 10707.160 9645.843 0.00 0.94301 0.24
4 11 5 1 o 80215.23 71983.12 180.00 0.94304 2.10
2 12 5 1 o 48676.75 45256.68 180.00 0.94276 1.28
7 6 6 2 o 60.597 58.534 0.00 0.94472 0.00
10 1 2 2 o 3513.974 3389.157 180.00 0.94443 0.05
3 5 9 2 o 8875.841 8641.923 0.00 0.94450 0.09
4 10 6 1 o 7987.431 7735.934 180.00 0.94220 0.21
5 12 2 2 o 3303.993 3204.743 0.00 0.94448 0.04
10 3 0 2 o 2290.847 2178.195 180.00 0.94388 0.01
4 13 0 2 o 267.841 262.422 0.00 0.94431 0.00
6 10 4 2 o 23160.369 21628.268 180.00 0.94383 0.29
6 6 7 2 o 13.876 12.135 180.00 0.94366 0.00
5 11 4 2 o 2490.463 2308.304 0.00 0.94377 0.03
8 3 6 1 o 5797.994 5238.345 180.00 0.94095 0.16
2 6 9 1 o 30060.445 27562.551 0.00 0.94105 0.71
1 14 1 2 o 3728.614 3326.476 0.00 0.94351 0.07
1 2 10 2 o 10278.807 9645.843 0.00 0.94301 0.12
4 11 5 2 o 76964.05 71983.12 180.00 0.94304 1.00
7 10 2 1 o 18985.660 18555.764 0.00 0.94032 0.46
2 12 5 2 o 46965.14 45256.68 180.00 0.94276 0.61
4 10 6 2 o 7551.740 7735.934 180.00 0.94220 0.10
9 4 4 1 o 1538.912 1606.390 0.00 0.93957 0.03
10 3 1 1 o 30.035 30.950 0.00 0.93932 0.00
4 13 1 1 o 43714.49 45197.37 180.00 0.93975 1.14
2 0 10 1 o 171.930 173.909 0.00 0.93898 0.00
6 3 8 1 o 7893.500 7972.753 0.00 0.93868 0.20
8 3 6 2 o 5213.555 5238.345 180.00 0.94095 0.07
2 6 9 2 o 27181.123 27562.551 0.00 0.94105 0.31
8 7 4 1 o 1279.277 1259.268 180.00 0.93822 0.04
1 13 4 1 o 2750.045 2742.188 180.00 0.93854 0.07
7 10 2 2 o 18677.469 18555.764 0.00 0.94032 0.22
10 2 2 1 o 10223.739 10402.596 180.00 0.93741 0.22
9 4 4 2 o 1584.194 1606.390 0.00 0.93957 0.02
10 3 1 2 o 30.900 30.950 0.00 0.93932 0.00
6 8 6 1 o 1020.952 1035.654 180.00 0.93721 0.03
4 13 1 2 o 44416.05 45197.37 180.00 0.93975 0.58
2 0 10 2 o 173.618 173.909 0.00 0.93898 0.00
2 1 10 1 o 28597.158 28771.258 180.00 0.93666 0.65
2 10 7 1 o 13.463 13.524 180.00 0.93670 0.00
6 3 8 2 o 7685.646 7972.753 0.00 0.93868 0.10
8 9 0 1 o 14037.271 14645.873 0.00 0.93606 0.18
8 7 4 2 o 1213.353 1259.268 180.00 0.93822 0.02
1 13 4 2 o 2634.065 2742.188 180.00 0.93854 0.03
10 2 2 2 o 11027.054 10402.596 180.00 0.93741 0.12
8 8 3 1 o 1020.607 970.967 180.00 0.93497 0.02
6 8 6 2 o 1090.118 1035.654 180.00 0.93721 0.01
2 1 10 2 o 27462.484 28771.258 180.00 0.93666 0.31
4 4 9 1 o 402.765 418.785 0.00 0.93437 0.01
3 13 3 1 o 35541.24 34775.348 0.00 0.93470 1.00
4 7 8 1 o 983.289 1037.048 180.00 0.93439 0.03
2 14 0 1 o 12037.289 11728.389 180.00 0.93472 0.18
2 10 7 2 o 12.828 13.524 180.00 0.93670 0.00
9 1 5 1 o 1654.226 1811.446 180.00 0.93386 0.02
0 14 2 1 o 31526.885 32716.455 0.00 0.93440 0.46
8 9 0 2 o 12343.614 14645.873 0.00 0.93606 0.08
8 8 3 2 o 932.407 970.967 180.00 0.93497 0.01
7 4 7 1 o 973.888 1004.152 0.00 0.93255 0.02
4 4 9 2 o 413.468 418.785 0.00 0.93437 0.00
3 13 3 2 o 33996.008 34775.348 0.00 0.93470 0.47
4 7 8 2 o 1017.559 1037.048 180.00 0.93439 0.02
2 14 0 2 o 11440.495 11728.389 180.00 0.93472 0.09
9 1 5 2 o 1792.094 1811.446 180.00 0.93386 0.01
0 14 2 2 o 32250.635 32716.455 0.00 0.93440 0.24
8 9 1 1 o 19123.900 19451.213 180.00 0.93161 0.45
1 3 10 1 o 1608.931 1633.270 0.00 0.93144 0.04
9 7 1 1 o 1151.969 1102.441 0.00 0.93067 0.03
3 8 8 1 o 35045.359 33849.406 180.00 0.93062 0.83
7 9 4 1 o 1280.230 1240.314 0.00 0.93044 0.03
7 4 7 2 o 1021.649 1004.152 0.00 0.93255 0.01
4 12 4 1 o 786.726 776.420 0.00 0.93028 0.01
2 14 1 1 o 250.343 244.866 180.00 0.93029 0.01
2 2 10 1 o 17.900 18.151 0.00 0.92980 0.00
1 14 2 1 o 33532.461 33617.840 0.00 0.93006 0.94
5 1 9 1 o 3115.699 3214.498 180.00 0.92945 0.05
7 8 5 1 o 71.212 73.452 180.00 0.92937 0.00
8 9 1 2 o 18797.373 19451.213 180.00 0.93161 0.22
1 3 10 2 o 1596.647 1633.270 0.00 0.93144 0.02
0 7 9 1 o 41550.69 41100.54 0.00 0.92872 0.48
9 7 1 2 o 1119.969 1102.441 0.00 0.93067 0.02
3 8 8 2 o 34251.699 33849.406 180.00 0.93062 0.40
7 9 4 2 o 1250.837 1240.314 0.00 0.93044 0.02
8 6 5 1 o 6348.151 6328.062 0.00 0.92801 0.15
10 4 0 1 o 42712.95 42998.88 180.00 0.92776 0.47
4 9 7 1 o 2129.826 2136.735 180.00 0.92786 0.05
4 12 4 2 o 777.602 776.420 0.00 0.93028 0.01
2 14 1 2 o 245.610 244.866 180.00 0.93029 0.00
2 2 10 2 o 18.056 18.151 0.00 0.92980 0.00
5 8 7 1 o 18570.152 18765.621 0.00 0.92750 0.42
1 14 2 2 o 33392.621 33617.840 0.00 0.93006 0.47
5 1 9 2 o 3197.015 3214.498 180.00 0.92945 0.03
9 2 5 1 o 693.647 696.321 180.00 0.92707 0.01
7 8 5 2 o 73.133 73.452 180.00 0.92937 0.00
6 11 3 1 o 5085.787 5072.446 0.00 0.92679 0.13
1 9 8 1 o 13377.262 13303.612 180.00 0.92670 0.32
0 7 9 2 o 41783.63 41100.54 0.00 0.92872 0.24
10 3 2 1 o 3109.567 2932.232 180.00 0.92604 0.09
4 13 2 1 o 532.003 522.043 0.00 0.92645 0.02
8 6 5 2 o 6837.293 6328.062 0.00 0.92801 0.08
10 4 0 2 o 47191.92 42998.88 180.00 0.92776 0.27
4 9 7 2 o 2344.422 2136.735 180.00 0.92786 0.03
2 13 4 1 o 26475.967 24077.123 180.00 0.92552 0.75
5 8 7 2 o 20588.379 18765.621 0.00 0.92750 0.24
8 4 6 1 o 27173.713 25236.025 0.00 0.92497 0.62
9 6 3 1 o 19186.598 17828.174 180.00 0.92498 0.44
5 6 8 1 o 30245.361 27982.436 0.00 0.92499 0.73
9 2 5 2 o 722.030 696.321 180.00 0.92707 0.01
3 11 6 1 o 2500.827 2417.581 180.00 0.92471 0.07
1 7 9 1 o 14489.573 14616.120 180.00 0.92445 0.32
6 11 3 2 o 5074.891 5072.446 0.00 0.92679 0.07
1 9 8 2 o 13110.148 13303.612 180.00 0.92670 0.16
10 3 2 2 o 2703.041 2932.232 180.00 0.92604 0.04
4 13 2 2 o 491.675 522.043 0.00 0.92645 0.01
10 4 1 1 o 4891.408 4986.318 0.00 0.92343 0.11
2 13 4 2 o 24489.381 24077.123 180.00 0.92552 0.34
6 4 8 1 o 8.832 8.781 0.00 0.92282 0.00
5 2 9 1 o 217.328 212.044 0.00 0.92276 0.00
8 4 6 2 o 26892.697 25236.025 0.00 0.92497 0.31
9 6 3 2 o 18975.551 17828.174 180.00 0.92498 0.22
5 6 8 2 o 29880.934 27982.436 0.00 0.92499 0.36
10 1 3 1 o 3139.374 3106.804 0.00 0.92225 0.07
3 11 6 2 o 2516.560 2417.581 180.00 0.92471 0.03
1 7 9 2 o 14584.225 14616.120 180.00 0.92445 0.16
5 12 3 1 o 31476.570 30893.502 0.00 0.92230 0.84
10 4 1 2 o 4493.159 4986.318 0.00 0.92343 0.05
3 12 5 1 o 666.327 739.678 180.00 0.92108 0.02
6 4 8 2 o 8.761 8.781 0.00 0.92282 0.00
5 2 9 2 o 210.410 212.044 0.00 0.92276 0.00
10 1 3 2 o 2969.442 3106.804 0.00 0.92225 0.03
0 4 10 1 o 19633.846 20195.660 180.00 0.92008 0.19
5 12 3 2 o 29677.045 30893.502 0.00 0.92230 0.39
3 6 9 1 o 136.738 189.686 0.00 0.91949 0.01
9 5 4 1 o 7482.693 8710.964 180.00 0.91927 0.17
2 3 10 1 o 6910.150 8050.171 180.00 0.91871 0.16
8 9 2 1 o 49.263 51.658 0.00 0.91865 0.00
3 12 5 2 o 630.661 739.678 180.00 0.92108 0.01
7 10 3 1 o 1331.797 1628.718 0.00 0.91843 0.04
0 4 10 2 o 15433.442 20195.660 180.00 0.92008 0.06
9 7 2 1 o 7.741 9.388 0.00 0.91775 0.00
3 0 10 1 o 805.255 1098.841 180.00 0.91755 0.01
3 6 9 2 o 87.208 189.686 0.00 0.91949 0.00
9 5 4 2 o 6940.984 8710.964 180.00 0.91927 0.07
2 14 2 1 o 3599.782 4580.602 180.00 0.91739 0.07
2 3 10 2 o 7659.467 8050.171 180.00 0.91871 0.09
8 9 2 2 o 51.054 51.658 0.00 0.91865 0.00
9 3 5 1 o 10322.593 10527.266 180.00 0.91607 0.26
7 10 3 2 o 1604.315 1628.718 0.00 0.91843 0.02
1 4 10 1 o 1553.676 1603.379 0.00 0.91594 0.03
10 2 3 1 o 4307.799 4668.746 0.00 0.91571 0.09
9 7 2 2 o 8.642 9.388 0.00 0.91775 0.00
3 1 10 1 o 1609.031 1876.383 180.00 0.91538 0.04
3 0 10 2 o 934.803 1098.841 180.00 0.91755 0.01
7 7 6 1 o 139.273 170.724 180.00 0.91535 0.00
3 10 7 1 o 6671.303 7928.656 0.00 0.91543 0.20
2 14 2 2 o 3991.264 4580.602 180.00 0.91739 0.04
6 12 0 1 o 6912.172 7756.338 180.00 0.91467 0.09
4 5 9 1 o 1211.652 1325.645 0.00 0.91440 0.03
6 7 7 1 o 1922.253 2114.118 0.00 0.91438 0.05
2 9 8 1 o 8412.247 9116.454 180.00 0.91416 0.18
9 3 5 2 o 9405.404 10527.266 180.00 0.91607 0.12
1 4 10 2 o 1472.128 1603.379 0.00 0.91594 0.01
10 2 3 2 o 4378.846 4668.746 0.00 0.91571 0.05
3 1 10 2 o 1861.780 1876.383 180.00 0.91538 0.02
7 7 6 2 o 170.156 170.724 180.00 0.91535 0.00
3 10 7 2 o 7797.893 7928.656 0.00 0.91543 0.12
7 5 7 1 o 10372.840 10048.047 0.00 0.91269 0.28
6 12 0 2 o 8118.022 7756.338 180.00 0.91467 0.05
4 5 9 2 o 1405.585 1325.645 0.00 0.91440 0.02
6 7 7 2 o 2250.199 2114.118 0.00 0.91438 0.03
5 3 9 1 o 25058.656 23676.609 180.00 0.91191 0.62
2 7 9 1 o 740.412 699.164 0.00 0.91201 0.02
2 9 8 2 o 9569.305 9116.454 180.00 0.91416 0.11
0 12 6 1 o 15450.821 14469.756 0.00 0.91200 0.24
10 4 2 1 o 22909.000 21114.389 180.00 0.91080 0.57
3 14 1 1 o 1522.401 1469.656 0.00 0.90944 0.06
3 2 10 1 o 16258.654 15697.450 180.00 0.90899 0.38
7 5 7 2 o 10524.015 10048.047 0.00 0.91269 0.14
6 12 1 1 o 24934.982 23703.115 180.00 0.91053 0.67
10 4 2 2 o 21419.883 21114.389 180.00 0.91080 0.26
1 14 3 1 o 682.905 648.328 180.00 0.90886 0.03
10 5 0 1 o 18238.271 18974.424 0.00 0.90820 0.19
5 3 9 2 o 24017.371 23676.609 180.00 0.91191 0.29
2 7 9 2 o 706.175 699.164 0.00 0.91201 0.01
6 12 1 2 o 23100.646 23703.115 180.00 0.91053 0.31
0 12 6 2 o 14638.896 14469.756 0.00 0.91200 0.11
1 12 6 1 o 9354.060 10224.283 0.00 0.90797 0.24
0 11 7 1 o 340.943 377.862 180.00 0.90726 0.00
3 14 1 2 o 1216.767 1469.656 0.00 0.90944 0.03
3 2 10 2 o 13930.334 15697.450 180.00 0.90899 0.16
7 11 1 1 o 10669.057 11917.647 0.00 0.90675 0.25
1 14 3 2 o 519.346 648.328 180.00 0.90886 0.01
10 5 0 2 o 17332.949 18974.424 0.00 0.90820 0.09
8 5 6 1 o 7980.716 8361.380 0.00 0.90558 0.21
1 12 6 2 o 9592.001 10224.283 0.00 0.90797 0.12
10 3 3 1 o 22075.969 21789.082 0.00 0.90511 0.52
8 8 4 1 o 191.642 190.801 180.00 0.90523 0.00
4 13 3 1 o 2141.982 2206.063 180.00 0.90549 0.06
6 10 5 1 o 7164.226 7053.590 180.00 0.90506 0.19
5 11 5 1 o 12670.419 12451.335 180.00 0.90501 0.35
0 11 7 2 o 382.828 377.862 180.00 0.90726 0.00
3 13 4 1 o 519.350 512.050 0.00 0.90498 0.01
7 11 1 2 o 12154.305 11917.647 0.00 0.90675 0.15
10 5 1 1 o 5976.641 5919.754 0.00 0.90413 0.14
5 10 6 1 o 417.903 411.384 0.00 0.90427 0.01
7 0 8 1 o 3782.525 3777.150 0.00 0.90400 0.05
0 13 5 1 o 39392.62 38697.82 180.00 0.90434 0.54
2 4 10 1 o 1047.561 1064.462 0.00 0.90383 0.04
6 5 8 1 o 16127.618 16616.490 180.00 0.90357 0.39
8 5 6 2 o 7981.044 8361.380 0.00 0.90558 0.11
8 1 7 1 o 2299.554 2404.158 180.00 0.90300 0.06
1 11 7 1 o 498.161 520.715 0.00 0.90329 0.01
10 3 3 2 o 21023.301 21789.082 0.00 0.90511 0.25
8 8 4 2 o 183.446 190.801 180.00 0.90523 0.00
4 13 3 2 o 2100.110 2206.063 180.00 0.90549 0.03
6 10 5 2 o 6820.504 7053.590 180.00 0.90506 0.09
5 11 5 2 o 12080.455 12451.335 180.00 0.90501 0.16
3 13 4 2 o 501.143 512.050 0.00 0.90498 0.01
7 1 8 1 o 1613.525 1603.719 180.00 0.90193 0.04
10 5 1 2 o 5953.805 5919.754 0.00 0.90413 0.07
5 10 6 2 o 414.463 411.384 0.00 0.90427 0.01
7 0 8 2 o 3787.482 3777.150 0.00 0.90400 0.02
5 13 1 1 o 7690.534 7624.411 180.00 0.90211 0.24
0 13 5 2 o 38985.56 38697.82 180.00 0.90434 0.27
4 8 8 1 o 471.162 470.481 180.00 0.90179 0.01
2 4 10 2 o 1061.873 1064.462 0.00 0.90383 0.02
9 4 5 1 o 620.233 619.651 0.00 0.90131 0.02
6 5 8 2 o 16608.209 16616.490 180.00 0.90357 0.21
8 1 7 2 o 2569.164 2404.158 180.00 0.90300 0.03
1 11 7 2 o 532.647 520.715 0.00 0.90329 0.01
8 7 5 1 o 67663.39 63598.78 180.00 0.90012 1.68
6 9 6 1 o 21387.063 19790.629 180.00 0.90019 0.58
1 13 5 1 o 12869.388 11738.015 180.00 0.90040 0.38
7 1 8 2 o 1558.658 1603.719 180.00 0.90193 0.02
5 13 1 2 o 7734.893 7624.411 180.00 0.90211 0.12
4 8 8 2 o 456.610 470.481 180.00 0.90179 0.00
9 4 5 2 o 571.353 619.651 0.00 0.90131 0.01
3 3 10 1 o 118.694 117.810 180.00 0.89861 0.00
9 8 1 1 o 6875.292 6618.147 0.00 0.89844 0.16
6 12 2 1 o 6541.925 6272.602 180.00 0.89841 0.17
8 9 3 1 o 6614.895 6142.292 180.00 0.89821 0.18
8 7 5 2 o 68827.80 63598.78 180.00 0.90012 0.86
6 9 6 2 o 21543.592 19790.629 180.00 0.90019 0.29
1 13 5 2 o 12662.468 11738.015 180.00 0.90040 0.19
6 11 4 1 o 19536.531 17967.447 0.00 0.89781 0.59
5 4 9 1 o 96.196 94.660 180.00 0.89735 0.00
9 7 3 1 o 324.323 315.341 180.00 0.89736 0.01
5 7 8 1 o 6.108 6.002 0.00 0.89736 0.00
1 5 10 1 o 6106.542 6154.694 180.00 0.89710 0.15
3 14 2 1 o 16210.834 15833.059 0.00 0.89737 0.46
8 2 7 1 o 4.745 4.785 180.00 0.89686 0.00
2 14 3 1 o 95.772 96.959 0.00 0.89702 0.00
3 3 10 2 o 124.878 117.810 180.00 0.89861 0.00
9 8 1 2 o 7314.820 6618.147 0.00 0.89844 0.09
4 11 6 1 o 2016.242 1827.155 180.00 0.89640 0.07
9 6 4 1 o 9472.567 8395.112 0.00 0.89616 0.24
6 12 2 2 o 6956.069 6272.602 180.00 0.89841 0.09
8 9 3 2 o 6983.011 6142.292 180.00 0.89821 0.09
2 12 6 1 o 178.646 174.281 180.00 0.89616 0.00
7 2 8 1 o 20773.928 18585.516 180.00 0.89581 0.50
10 0 4 1 o 45956.25 41674.26 180.00 0.89569 0.57
6 11 4 2 o 19634.436 17967.447 0.00 0.89781 0.30
5 4 9 2 o 94.092 94.660 180.00 0.89735 0.00
9 7 3 2 o 312.695 315.341 180.00 0.89736 0.00
5 7 8 2 o 5.975 6.002 0.00 0.89736 0.00
8 10 0 1 o 5122.274 5181.235 180.00 0.89511 0.07
1 5 10 2 o 5954.236 6154.694 180.00 0.89710 0.08
3 14 2 2 o 15766.500 15833.059 0.00 0.89737 0.22
8 2 7 2 o 4.608 4.785 180.00 0.89686 0.00
7 11 2 1 o 3021.812 3142.648 180.00 0.89479 0.09
2 14 3 2 o 93.416 96.959 0.00 0.89702 0.00
3 9 8 1 o 7865.251 8046.300 0.00 0.89435 0.20
4 11 6 2 o 1814.086 1827.155 180.00 0.89640 0.03
9 6 4 2 o 8605.123 8395.112 0.00 0.89616 0.11
10 1 4 1 o 21383.324 20712.482 0.00 0.89368 0.54
2 12 6 2 o 175.116 174.281 180.00 0.89616 0.00
7 2 8 2 o 19029.990 18585.516 180.00 0.89581 0.22
10 0 4 2 o 42036.87 41674.26 180.00 0.89569 0.26
5 12 4 1 o 6076.575 5883.113 0.00 0.89372 0.17
7 9 5 1 o 11414.486 11875.958 0.00 0.89324 0.33
4 12 5 1 o 3492.939 3706.873 180.00 0.89309 0.10
8 10 0 2 o 4801.005 5181.235 180.00 0.89511 0.03
1 8 9 1 o 345.896 367.026 180.00 0.89285 0.01
7 11 2 2 o 2874.443 3142.648 180.00 0.89479 0.04
10 5 2 1 o 2908.501 3087.632 0.00 0.89227 0.08
3 7 9 1 o 5581.487 5949.809 0.00 0.89234 0.15
3 9 8 2 o 7754.576 8046.300 0.00 0.89435 0.10
4 6 9 1 o 1741.076 1727.141 0.00 0.89164 0.04
10 1 4 2 o 20782.748 20712.482 0.00 0.89368 0.26
5 9 7 1 o 21572.221 21414.170 180.00 0.89158 0.59
2 11 7 1 o 1230.909 1221.675 0.00 0.89167 0.03
5 12 4 2 o 5912.923 5883.113 0.00 0.89372 0.08
8 10 1 1 o 1173.251 1188.441 0.00 0.89123 0.03
10 4 3 1 o 1439.621 1472.506 180.00 0.89086 0.04
7 9 5 2 o 11592.860 11875.958 0.00 0.89324 0.17
4 12 5 2 o 3620.596 3706.873 180.00 0.89309 0.05
9 0 6 1 o 2391.882 2415.448 0.00 0.89049 0.03
1 8 9 2 o 362.834 367.026 180.00 0.89285 0.00
0 10 8 1 o 6878.493 6982.546 180.00 0.89068 0.08
10 5 2 2 o 3035.515 3087.632 0.00 0.89227 0.04
3 7 9 2 o 5867.913 5949.809 0.00 0.89234 0.08
7 10 4 1 o 57.753 58.289 0.00 0.89020 0.00
7 6 7 1 o 2149.823 2181.884 0.00 0.89005 0.05
5 13 2 1 o 15446.316 15585.970 0.00 0.89032 0.43
4 0 10 1 o 48601.48 49735.78 180.00 0.88987 0.60
