#------------------------------------------------------------------------------
#$Date: 2016-03-21 01:21:50 +0200 (Mon, 21 Mar 2016) $
#$Revision: 178377 $
#$URL: svn://www.crystallography.net/cod/cif/4/00/11/4001198.cif $
#------------------------------------------------------------------------------
#
# This file is available in the Crystallography Open Database (COD),
# http://www.crystallography.net/
#
# All data on this site have been placed in the public domain by the
# contributors.
#
data_4001198
loop_
_publ_author_name
'Zhou, Yongkai'
'Adams, Stefan'
'Rao, R. Prasada'
'Edwards, Doreen D.'
'Neiman, Arkady'
'Pestereva, N.'
_publ_section_title
;
 Charge Transport by Polyatomic Anion Diffusion in Sc2(WO4)3
;
_journal_issue                   20
_journal_name_full               'Chemistry of Materials'
_journal_page_first              6335
_journal_paper_doi               10.1021/cm800466y
_journal_volume                  20
_journal_year                    2008
_chemical_formula_moiety         ' Sc2(WO4)3 '
_chemical_formula_sum            'O12 Sc2 W3'
_chemical_formula_weight         833.45
_chemical_melting_point          1913
_chemical_name_common            ' Scandium Tungstate '
_chemical_name_systematic        ' Scandium Tungstate '
_space_group_IT_number           60
_symmetry_cell_setting           orthorhombic
_symmetry_space_group_name_Hall  '-P 2a 2n'
_symmetry_space_group_name_H-M   'P n c a'
_audit_creation_date             2008-01-25T12:03
_audit_creation_method           'from EXP file using GSAS2CIF'
_audit_update_record
' 2008-01-25T12:03  Initial CIF as created by GSAS2CIF'
_cell_angle_alpha                90.0
_cell_angle_beta                 90.0
_cell_angle_gamma                90.0
_cell_formula_units_Z            4
_cell_length_a                   9.63696(5)
_cell_length_b                   13.35110(7)
_cell_length_c                   9.55783(5)
_cell_measurement_temperature    800
_cell_volume                     1229.749(11)
_computing_structure_refinement  GSAS
_diffrn_radiation_polarisn_ratio 0.68
_diffrn_radiation_probe          x-ray
_exptl_absorpt_correction_T_max  1.00000
_exptl_absorpt_correction_T_min  1.00000
_exptl_absorpt_process_details
;   GSAS Absorption/surface roughness correction: function number 0
 No correction is applied.
;
_pd_block_id
2008-01-25T12:03|T11K|Zhou_Yongkai|Philips_Xpert
_pd_calc_method                  'Rietveld Refinement'
_pd_instr_location               ' ?'
_pd_meas_2theta_range_inc        0.017
_pd_meas_2theta_range_max        119.9874
_pd_meas_2theta_range_min        10.0144
_pd_meas_number_of_points        6470
_pd_proc_2theta_range_inc        0.017
_pd_proc_2theta_range_max        119.9874
_pd_proc_2theta_range_min        10.0144
_pd_proc_info_datetime           2008-01-25T12:29:11
_pd_proc_info_excluded_regions   ' ?'
_pd_proc_ls_background_function
;   GSAS Background function number 1 with 12 terms.
 Shifted Chebyshev function of 1st kind
      1:    366.681     2:   -37.1514     3:    11.8742     4:    43.7850    
      5:   -4.44788     6:    9.24939     7:   -10.2053     8:    3.91846    
      9:    9.75773    10:   -24.7778    11:    22.0966    12:   -7.20895    
;
_pd_proc_ls_peak_cutoff          0.00250
_pd_proc_ls_pref_orient_corr
;   March-Dollase
 AXIS  1 Ratio=   0.95273  h= 0.000  k= 1.000  l= 0.000
 Prefered orientation correction range: Min=   0.92995, Max=   1.15633
;
_pd_proc_ls_profile_function
;
 CW Profile function number 3 with  19 terms
 Pseudovoigt profile coefficients as parameterized in
 P. Thompson, D.E. Cox & J.B. Hastings (1987). J. Appl. Cryst.,20,79-83.
 Asymmetry correction of L.W. Finger, D.E. Cox & A. P. Jephcoat (1994).
 J. Appl. Cryst.,27,892-900.
 Peak tails are ignored  where the intensity is below 0.0025 times the peak
   Aniso. broadening axis   0.0   0.0   1.0
;
_pd_proc_ls_prof_R_factor        0.0497
_pd_proc_ls_prof_wR_expected     0.0359
_pd_proc_ls_prof_wR_factor       0.0656
_pd_proc_number_of_points        6470
_pd_spec_mounting                ' ?'
_refine_ls_goodness_of_fit_all   1.85
_refine_ls_matrix_type           full
_refine_ls_number_parameters     51
_refine_ls_number_restraints     0
_refine_ls_R_Fsqd_factor         0.06332
_refine_ls_shift/su_max          0.03
_refine_ls_shift/su_mean         0.01
_reflns_d_resolution_high        0.890
_reflns_d_resolution_low         6.676
_reflns_limit_h_max              10
_reflns_limit_h_min              0
_reflns_limit_k_max              15
_reflns_limit_k_min              0
_reflns_limit_l_max              10
_reflns_limit_l_min              0
_reflns_number_total             1829
_cod_data_source_file            cm800466y_si_017.cif
_cod_data_source_block           T800K
_cod_depositor_comments
;
The following automatic conversions were performed:

'_chemical_melting_point' value ' 1913K ' was changed to '1913' - the
value should be numeric and without a unit
designator.

'_geom_bond_publ_flag' value 'N' changed to 'n'
according to /home/saulius/struct/CIF-dictionaries/cif_core.dic
dictionary named 'cif_core.dic' version 2.4.1 from 2010-06-29 (26
times).

'_geom_angle_publ_flag' value 'N' changed to 'n' according
to /home/saulius/struct/CIF-dictionaries/cif_core.dic dictionary
named 'cif_core.dic' version 2.4.1 from 2010-06-29 (33 times).

Automatic conversion script
Id: cif_fix_values 1715 2011-07-08 13:25:40Z adriana 
;
_cod_original_cell_volume        1229.748(13)
_cod_database_code               4001198
#BEGIN Tags that were not found in dictionaries:
_gsas_exptl_extinct_corr_t_min   1.00000
_gsas_exptl_extinct_corr_t_max   1.00000
#END Tags that were not found in dictionaries
loop_
_symmetry_equiv_pos_site_id
_symmetry_equiv_pos_as_xyz
1 +x,+y,+z
2 -x+1/2,+y+1/2,+z+1/2
3 +x,-y+1/2,+z+1/2
4 -x+1/2,-y,+z
-1 -x,-y,-z
-2 +x+1/2,-y+1/2,-z+1/2
-3 -x,+y+1/2,-z+1/2
-4 +x+1/2,+y,-z
loop_
_atom_site_type_symbol
_atom_site_label
_atom_site_fract_x
_atom_site_fract_y
_atom_site_fract_z
_atom_site_occupancy
_atom_site_thermal_displace_type
_atom_site_U_iso_or_equiv
_atom_site_symmetry_multiplicity
Sc Sc1 0.4700(4) 0.38130(24) 0.2478(4) 1.0 Uiso 0.0256(12) 8
W W1 0.25 0.0 0.47159(15) 1.0 Uiso 0.02612(33) 4
W W2 0.11317(11) 0.35639(8) 0.39151(11) 1.0 Uiso 0.02612(33) 8
O O1 0.0905(12) 0.1288(9) 0.0689(12) 1.0 Uiso 0.0551(18) 8
O O2 0.1501(12) 0.0746(8) 0.3718(13) 1.0 Uiso 0.0551(18) 8
O O3 0.0058(12) 0.2637(9) 0.3152(12) 1.0 Uiso 0.0551(18) 8
O O4 0.3361(12) 0.4067(8) 0.0758(12) 1.0 Uiso 0.0551(18) 8
O O5 0.0603(11) 0.4752(9) 0.3224(13) 1.0 Uiso 0.0551(18) 8
O O6 0.2918(13) 0.3461(9) 0.3435(12) 1.0 Uiso 0.0551(18) 8
loop_
_atom_type_symbol
_atom_type_number_in_cell
_atom_type_scat_dispersion_real
_atom_type_scat_dispersion_imag
_atom_type_scat_Cromer_Mann_a1
_atom_type_scat_Cromer_Mann_a2
_atom_type_scat_Cromer_Mann_a3
_atom_type_scat_Cromer_Mann_a4
_atom_type_scat_Cromer_Mann_b1
_atom_type_scat_Cromer_Mann_b2
_atom_type_scat_Cromer_Mann_b3
_atom_type_scat_Cromer_Mann_b4
_atom_type_scat_Cromer_Mann_c
_atom_type_scat_source
Sc 8.0 0.000 0.000 9.18900 9.02130 7.36790 0.57290 1.64090 136.108 1.46800
51.3531 1.33290 International_Tables_Vol_C
W 12.0 0.000 0.000 29.0818 1.72029 15.4300 9.22590 14.4327 0.32170 5.11982
57.0560 9.88750 International_Tables_Vol_C
O 48.0 0.000 0.000 3.04850 13.2771 2.28680 5.70110 1.54630 0.32390 0.86700
32.9089 0.25080 International_Tables_Vol_C
loop_
_diffrn_radiation_wavelength
_diffrn_radiation_wavelength_wt
_diffrn_radiation_type
_diffrn_radiation_wavelength_id
1.540500 1.000 K\a~1~ 1
1.544300 0.500 K\a~2~ 2
loop_
_geom_angle_atom_site_label_1
_geom_angle_atom_site_label_2
_geom_angle_atom_site_label_3
_geom_angle
_geom_angle_site_symmetry_1
_geom_angle_site_symmetry_3
_geom_angle_publ_flag
O1 Sc1 O2 90.8(5) -2_666 -2_666 n
O1 Sc1 O3 95.2(5) -2_666 -2_666 n
O1 Sc1 O4 172.8(5) -2_666 1_555 n
O1 Sc1 O5 81.4(4) -2_666 4_565 n
O1 Sc1 O6 94.5(5) -2_666 1_555 n
O2 Sc1 O3 88.1(5) -2_666 -2_666 n
O2 Sc1 O4 92.0(5) -2_666 1_555 n
O2 Sc1 O5 92.5(5) -2_666 4_565 n
O2 Sc1 O6 174.3(5) -2_666 1_555 n
O3 Sc1 O4 91.5(5) -2_666 1_555 n
O3 Sc1 O5 176.6(5) -2_666 4_565 n
O3 Sc1 O6 93.2(5) -2_666 1_555 n
O4 Sc1 O5 91.9(4) 1_555 4_565 n
O4 Sc1 O6 82.5(4) 1_555 1_555 n
O5 Sc1 O6 86.5(5) 4_565 1_555 n
O2 W1 O2 110.9(8) 1_555 4_555 n
O2 W1 O4 117.4(6) 1_555 2_545 n
O2 W1 O4 99.7(5) 1_555 3_555 n
O2 W1 O4 99.7(5) 4_555 2_545 n
O2 W1 O4 117.4(6) 4_555 3_555 n
O4 W1 O4 112.7(7) 2_545 3_555 n
O1 W2 O3 114.3(5) 3_555 1_555 n
O1 W2 O5 103.0(5) 3_555 1_555 n
O1 W2 O6 112.6(5) 3_555 1_555 n
O3 W2 O5 107.5(6) 1_555 1_555 n
O3 W2 O6 113.8(6) 1_555 1_555 n
O5 W2 O6 104.3(5) 1_555 1_555 n
Sc1 O1 W2 153.7(7) -2_466 3_554 n
Sc1 O2 W1 157.2(7) -2_555 1_555 n
Sc1 O3 W2 151.2(7) -2_466 1_555 n
Sc1 O4 W1 145.3(7) 1_555 2_554 n
Sc1 O5 W2 171.4(7) 4_565 1_555 n
Sc1 O6 W2 157.8(7) 1_555 1_555 n
loop_
_geom_bond_atom_site_label_1
_geom_bond_atom_site_label_2
_geom_bond_distance
_geom_bond_site_symmetry_2
_geom_bond_publ_flag
Sc1 O1 2.106(12) -2_555 n
Sc1 O2 2.160(12) -2_555 n
Sc1 O3 2.056(12) -2_555 n
Sc1 O4 2.117(11) 1_555 n
Sc1 O5 2.065(12) 4_565 n
Sc1 O6 2.002(12) 1_555 n
W1 O2 1.682(12) 1_555 n
W1 O2 1.682(12) 4_555 n
W1 O4 1.798(11) 2_545 n
W1 O4 1.798(11) 3_555 n
W2 O1 1.721(12) 3_555 n
W2 O3 1.771(12) 1_555 n
W2 O5 1.792(12) 1_555 n
W2 O6 1.787(13) 1_555 n
O1 Sc1 2.106(12) -2_455 n
O1 W2 1.721(12) 3_554 n
O2 Sc1 2.160(12) -2_455 n
O2 W1 1.682(12) 1_555 n
O3 Sc1 2.056(12) -2_455 n
O3 W2 1.771(12) 1_555 n
O4 Sc1 2.117(11) 1_555 n
O4 W1 1.798(11) 2_554 n
O5 Sc1 2.065(12) 4_565 n
O5 W2 1.792(12) 1_555 n
O6 Sc1 2.002(12) 1_555 n
O6 W2 1.787(13) 1_555 n
loop_
_pd_meas_counts_total
_pd_proc_ls_weight
_pd_proc_intensity_bkg_calc
_pd_calc_intensity_total
388.0 0.0 716.00720 .
317.0 0.0 711.90405 .
323.0 0.0 707.83185 .
346.0 0.0 703.79004 .
334.0 0.0 699.77820 .
337.0 0.0 695.79706 .
355.0 0.0 691.84583 .
351.0 0.0 687.92419 .
330.0 0.0 684.03271 .
354.0 0.0 680.17017 .
343.0 0.0 676.33759 .
333.0 0.0 672.53406 .
353.0 0.0 668.75970 .
342.0 0.0 665.01434 .
322.0 0.0 661.29779 .
338.0 0.0 657.60992 .
385.0 0.0 653.95062 .
356.0 0.0 650.31927 .
361.0 0.0 646.71686 .
350.0 0.0 643.14252 .
327.0 0.0 639.59595 .
335.0 0.0 636.07703 .
346.0 0.0 632.58569 .
337.0 0.0 629.12219 .
325.0 0.0 625.68622 .
336.0 0.0 622.27734 .
355.0 0.0 618.89557 .
352.0 0.0 615.54053 .
332.0 0.0 612.21246 .
344.0 0.0 608.91144 .
337.0 0.0 605.63647 .
336.0 0.0 602.38806 .
355.0 0.0 599.16583 .
340.0 0.0 595.97015 .
337.0 0.0 592.80042 .
362.0 0.0 589.65631 .
363.0 0.0 586.53802 .
371.0 0.0 583.44513 .
352.0 0.0 580.37799 .
341.0 0.0 577.33636 .
348.0 0.0 574.31952 .
344.0 0.0 571.32800 .
344.0 0.0 568.36102 .
346.0 0.0 565.41925 .
330.0 0.0 562.50232 .
329.0 0.0 559.60962 .
331.0 0.0 556.74127 .
335.0 0.0 553.89703 .
329.0 0.0 551.07745 .
324.0 0.0 548.28174 .
339.0 0.0 545.50995 .
359.0 0.0 542.76172 .
332.0 0.0 540.03711 .
330.0 0.0 537.33612 .
354.0 0.0 534.65869 .
332.0 0.0 532.00446 .
358.0 0.0 529.37317 .
340.0 0.0 526.76477 .
347.0 0.0 524.17969 .
367.0 0.0 521.61731 .
335.0 0.0 519.07745 .
348.0 0.0 516.55994 .
327.0 0.0 514.06482 .
319.0 0.0 511.59222 .
328.0 0.0 509.14182 .
330.0 0.0 506.71347 .
312.0 0.0 504.30667 .
320.0 0.0 501.92178 .
326.0 0.0 499.55869 .
362.0 0.0 497.21725 .
332.0 0.0 494.89713 .
351.0 0.0 492.59824 .
353.0 0.0 490.32056 .
364.0 0.0 488.06393 .
359.0 0.0 485.82852 .
339.0 0.0 483.61374 .
337.0 0.0 481.41953 .
362.0 0.0 479.24622 .
365.0 0.0 477.09323 .
360.0 0.0 474.96075 .
337.0 0.0 472.84863 .
331.0 0.0 470.75647 .
355.0 0.0 468.68430 .
365.0 0.0 466.63214 .
347.0 0.0 464.59995 .
347.0 0.0 462.58740 .
358.0 0.0 460.59442 .
341.0 0.0 458.62085 .
339.0 0.0 456.66663 .
357.0 0.0 454.73178 .
338.0 0.0 452.81610 .
325.0 0.0 450.91937 .
337.0 0.0 449.04153 .
351.0 0.0 447.18256 .
324.0 0.0 445.34241 .
352.0 0.0 443.52094 .
372.0 0.0 441.71768 .
354.0 0.0 439.93295 .
344.0 0.0 438.16663 .
353.0 0.0 436.41840 .
316.0 0.0 434.68832 .
342.0 0.0 432.97604 .
366.0 0.0 431.28171 .
370.0 0.0 429.60529 .
317.0 0.0 427.94635 .
354.0 0.0 426.30511 .
407.0 0.0 424.68109 .
366.0 0.0 423.07465 .
354.0 0.0 421.48535 .
343.0 0.0 419.91324 .
380.0 0.0 418.35828 .
390.0 0.0 416.82007 .
350.0 0.0 415.29874 .
353.0 0.0 413.79434 .
360.0 0.0 412.30646 .
309.0 0.0 410.83508 .
356.0 0.0 409.38025 .
345.0 0.002899 407.94150 407.93021
378.0 0.002646 406.51938 406.50778
395.0 0.002532 405.11319 405.10147
377.0 0.002653 403.72314 403.71121
367.0 0.002725 402.34906 402.33698
408.0 0.002451 400.99069 400.97842
356.0 0.002809 399.64832 399.63586
346.0 0.002890 398.32150 398.30890
396.0 0.002525 397.01025 396.99747
386.0 0.002591 395.71448 395.70148
328.0 0.003049 394.43402 394.42090
333.0 0.003003 393.16901 393.15573
312.0 0.003205 391.91913 391.90573
331.0 0.003021 390.68436 390.67078
354.0 0.002825 389.46460 389.45084
373.0 0.002681 388.25970 388.24579
335.0 0.002985 387.06976 387.05566
331.0 0.003021 385.89447 385.88025
360.0 0.002778 384.73386 384.71948
369.0 0.002710 383.58783 383.57330
370.0 0.002703 382.45612 382.44147
395.0 0.002532 381.33890 381.32410
359.0 0.002786 380.23602 380.22110
337.0 0.002967 379.14725 379.13220
345.0 0.002899 378.07257 378.05740
353.0 0.002833 377.01181 376.99658
358.0 0.002793 375.96518 375.94971
348.0 0.002874 374.93237 374.91675
353.0 0.002833 373.91324 373.89758
358.0 0.002793 372.90775 372.89194
333.0 0.003003 371.91577 371.89990
330.0 0.003030 370.93750 370.92148
340.0 0.002941 369.97247 369.95639
331.0 0.003021 369.02081 369.00461
352.0 0.002841 368.08243 368.06607
373.0 0.002681 367.15701 367.14056
368.0 0.002717 366.24481 366.22836
367.0 0.002725 365.34561 365.32907
370.0 0.002703 364.45926 364.44260
363.0 0.002755 363.58569 363.56891
356.0 0.002809 362.72479 362.70795
354.0 0.002825 361.87674 361.85971
352.0 0.002841 361.04117 361.02411
374.0 0.002674 360.21799 360.20087
367.0 0.002725 359.40729 359.39011
341.0 0.002933 358.60889 358.59158
355.0 0.002817 357.82266 357.80533
378.0 0.002646 357.04874 361.52081
390.0 0.002564 356.28674 361.17651
353.0 0.002833 355.53677 363.16049
359.0 0.002786 354.79874 363.21414
393.0 0.002545 354.07251 363.44141
400.0 0.002500 353.35812 363.90659
420.0 0.002381 352.65540 364.73398
391.0 0.002558 351.96414 366.33984
437.0 0.002288 351.28455 370.36682
399.0 0.002506 350.61633 380.03033
456.0 0.002193 349.95947 396.76730
459.0 0.002179 349.31393 419.73328
498.0 0.002008 348.67960 447.81342
487.0 0.002053 348.05637 479.60760
503.0 0.001988 347.44421 514.53186
512.0 0.001953 346.84317 552.76556
551.0 0.001815 346.25284 594.72260
625.0 0.001600 345.67334 640.89923
659.0 0.001517 345.10468 692.00903
733.0 0.001364 344.54672 748.96881
803.0 0.001245 343.99936 812.83948
865.0 0.001156 343.46259 885.20264
861.0 0.001161 342.93619 967.99994
1050.0 0.000952 342.42007 1063.98840
1187.0 0.000842 341.91446 1177.02698
1316.0 0.000760 341.41907 1312.85291
1560.0 0.000641 340.93384 1480.32727
1917.0 0.000522 340.45865 1694.36499
2360.0 0.000424 339.99356 1983.10718
2986.0 0.0003349 339.53833 2412.93457
3737.0 0.0002676 339.09308 3128.77026
4285.0 0.0002334 338.65762 3998.89722
4042.0 0.0002474 338.23187 3814.38281
2831.0 0.000353 337.81586 2708.62720
1750.0 0.000571 337.40933 1745.54565
981.0 0.001019 337.01248 892.18835
557.0 0.001795 336.62512 546.73358
449.0 0.002227 336.24698 455.51175
405.0 0.002469 335.87830 419.30167
394.0 0.002538 335.51883 397.98700
401.0 0.002494 335.16858 383.93054
405.0 0.002469 334.82748 374.07333
383.0 0.002611 334.49539 366.83582
385.0 0.002597 334.17233 361.32736
368.0 0.002717 333.85822 357.01147
359.0 0.002786 333.55292 353.54742
378.0 0.002646 333.25647 350.71033
373.0 0.002681 332.96866 348.34631
354.0 0.002825 332.68954 346.34705
339.0 0.002950 332.41904 344.63461
371.0 0.002695 332.15710 343.15118
354.0 0.002825 331.90359 341.85333
361.0 0.002770 331.65851 340.70786
368.0 0.002717 331.42175 339.68915
384.0 0.002604 331.19327 333.98727
381.0 0.002625 330.97302 333.53323
370.0 0.002703 330.76093 330.74237
387.0 0.002584 330.55688 330.53836
367.0 0.002725 330.36093 330.34235
347.0 0.002882 330.17285 330.15442
374.0 0.002674 329.99277 329.97427
335.0 0.002985 329.82053 329.80203
358.0 0.002793 329.65601 329.63757
321.0 0.003115 329.49921 329.48074
352.0 0.002841 329.35004 329.33173
347.0 0.002882 329.20853 329.19019
379.0 0.002639 329.07458 329.05624
356.0 0.002809 328.94803 328.92972
380.0 0.002632 328.82895 328.81067
360.0 0.002778 328.71722 328.69891
377.0 0.002653 328.61276 328.59457
373.0 0.002681 328.51556 328.49734
359.0 0.002786 328.42560 328.40744
360.0 0.002778 328.34262 328.32452
342.0 0.002924 328.26685 328.24875
395.0 0.002532 328.19806 328.17993
388.0 0.002577 328.13617 328.11810
381.0 0.002625 328.08121 328.06329
377.0 0.002653 328.03302 328.01517
338.0 0.002959 327.99170 327.97388
379.0 0.002639 327.95703 327.93924
374.0 0.002674 327.92908 334.05981
353.0 0.002833 327.90781 334.56308
375.0 0.002667 327.89297 338.17511
402.0 0.002488 327.88474 339.11914
407.0 0.002457 327.88287 340.22610
409.0 0.002445 327.88742 341.53900
416.0 0.002404 327.89838 343.12091
424.0 0.002358 327.91553 345.06876
436.0 0.002294 327.93890 347.55057
452.0 0.002212 327.96851 350.99628
460.0 0.002174 328.00424 357.15674
453.0 0.002208 328.04599 370.82648
489.0 0.002045 328.09378 396.27823
521.0 0.001919 328.14761 433.11530
538.0 0.001859 328.20724 480.03912
572.0 0.001748 328.27280 535.42700
599.0 0.001669 328.34412 597.56354
639.0 0.001565 328.42123 666.29437
714.0 0.001401 328.50409 742.39398
775.0 0.001290 328.59244 827.09595
851.0 0.001175 328.68655 922.08337
956.0 0.001046 328.78625 1029.56750
1051.0 0.000951 328.89133 1152.33496
1158.0 0.000864 329.00192 1294.17395
1369.0 0.000730 329.11789 1460.86499
1590.0 0.000629 329.23917 1660.69336
1869.0 0.000535 329.36591 1905.94519
2381.0 0.000420 329.49774 2217.99561
2793.0 0.000358 329.63489 2635.87744
3477.0 0.0002876 329.77713 3250.26318
4603.0 0.0002172 329.92447 4264.09766
5511.0 0.0001815 330.07697 5547.27344
5141.0 0.0001945 330.23438 5404.69971
3726.0 0.0002684 330.39676 3837.07715
2493.0 0.000401 330.56412 2690.39014
1355.0 0.000738 330.73633 1398.90540
703.0 0.001422 330.91339 719.20105
523.0 0.001912 331.09515 530.05682
476.0 0.002101 331.28168 466.12067
462.0 0.002165 331.47290 431.11215
421.0 0.002375 331.66885 408.74399
450.0 0.002222 331.86923 393.48306
417.0 0.002398 332.07425 382.57916
365.0 0.002740 332.28378 374.51102
375.0 0.002667 332.49771 368.37521
354.0 0.002825 332.71613 363.60672
372.0 0.002688 332.93881 359.83527
376.0 0.002660 333.16592 356.81024
375.0 0.002667 333.39731 354.35608
380.0 0.002632 333.63278 352.34650
374.0 0.002674 333.87265 350.68906
363.0 0.002755 334.11658 349.31433
384.0 0.002604 334.36465 348.16983
358.0 0.002793 334.61670 347.21475
364.0 0.002747 334.87280 339.18805
378.0 0.002646 335.13287 339.08197
378.0 0.002646 335.39694 335.38266
352.0 0.002841 335.66492 335.65073
362.0 0.002762 335.93661 335.92255
348.0 0.002874 336.21228 336.19818
371.0 0.002695 336.49164 336.47766
366.0 0.002732 336.77469 336.76080
328.0 0.003049 337.06152 337.04767
356.0 0.002809 337.35184 337.33813
380.0 0.002632 337.64594 337.63223
379.0 0.002639 337.94354 337.92993
374.0 0.002674 338.24457 338.23111
382.0 0.002618 338.54922 338.53580
367.0 0.002725 338.85727 338.84387
367.0 0.002725 339.16867 339.15536
353.0 0.002833 339.48352 339.47021
356.0 0.002809 339.80164 339.78848
374.0 0.002674 340.12308 340.11002
379.0 0.002639 340.44781 340.43478
351.0 0.002849 340.77563 340.76273
329.0 0.003040 341.10669 341.09384
355.0 0.002817 341.44095 341.42816
386.0 0.002591 341.77820 341.76550
376.0 0.002660 342.11856 342.10593
362.0 0.002762 342.46188 342.44937
367.0 0.002725 342.80832 342.79581
342.0 0.002924 343.15759 343.14520
346.0 0.002890 343.50983 343.49750
379.0 0.002639 343.86484 343.85266
377.0 0.002653 344.22284 344.21069
361.0 0.002770 344.58350 344.57144
365.0 0.002740 344.94705 344.93506
364.0 0.002747 345.31326 345.30136
319.0 0.003135 345.68219 345.67035
322.0 0.003106 346.05377 346.04205
372.0 0.002688 346.42789 346.41620
382.0 0.002618 346.80475 346.79315
355.0 0.002817 347.18411 347.17258
357.0 0.002801 347.56595 347.55450
373.0 0.002681 347.95032 347.93896
370.0 0.002703 348.33713 348.32578
373.0 0.002681 348.72632 348.71512
360.0 0.002778 349.11798 349.10681
393.0 0.002545 349.51190 349.50085
345.0 0.002899 349.90814 349.89713
328.0 0.003049 350.30667 350.29578
352.0 0.002841 350.70743 350.69666
364.0 0.002747 351.11047 351.09973
369.0 0.002710 351.51569 351.50500
384.0 0.002604 351.92297 351.91238
370.0 0.002703 352.33243 352.32190
344.0 0.002907 352.74399 352.73355
366.0 0.002732 353.15759 353.14722
376.0 0.002660 353.57324 353.56296
357.0 0.002801 353.99088 353.98068
337.0 0.002967 354.41043 354.40027
331.0 0.003021 354.83188 354.82187
324.0 0.003086 355.25534 355.24530
373.0 0.002681 355.68057 355.67075
373.0 0.002681 356.10770 356.09784
370.0 0.002703 356.53659 356.52686
383.0 0.002611 356.96722 356.95755
397.0 0.002519 357.39975 357.39014
354.0 0.002825 357.83380 357.82422
345.0 0.002899 358.26968 358.26019
356.0 0.002809 358.70709 358.69766
355.0 0.002817 359.14630 359.13699
337.0 0.002967 359.58694 359.57776
332.0 0.003012 360.02917 360.02005
333.0 0.003003 360.47296 360.46387
346.0 0.002890 360.91833 360.90930
354.0 0.002825 361.36505 361.35620
355.0 0.002817 361.81342 361.80453
346.0 0.002890 362.26312 362.25424
342.0 0.002924 362.71408 362.70541
338.0 0.002959 363.16647 363.15790
345.0 0.002899 363.62030 363.61182
356.0 0.002809 364.07541 364.06696
333.0 0.003003 364.53189 364.52338
353.0 0.002833 364.98938 364.98108
366.0 0.002732 365.44827 365.44000
353.0 0.002833 365.90833 365.90015
345.0 0.002899 366.36963 366.36145
344.0 0.002907 366.83200 366.82391
346.0 0.002890 367.29550 367.28760
345.0 0.002899 367.76010 367.75214
359.0 0.002786 368.22583 368.21799
353.0 0.002833 368.69254 368.68481
366.0 0.002732 369.16040 369.15259
378.0 0.002646 369.62909 369.62140
346.0 0.002890 370.09879 370.09122
326.0 0.003067 370.56949 370.56195
324.0 0.003086 371.04108 371.03363
349.0 0.002865 371.51355 371.50616
338.0 0.002959 371.98688 371.97955
329.0 0.003040 372.46106 372.45377
350.0 0.002857 372.93604 372.92896
348.0 0.002874 373.41196 373.40479
358.0 0.002793 373.88852 373.88141
383.0 0.002611 374.36572 374.35876
350.0 0.002857 374.84384 374.83688
320.0 0.003125 375.32254 375.31567
370.0 0.002703 375.80203 375.79523
313.0 0.003195 376.28217 376.27533
352.0 0.002841 376.76279 376.75613
334.0 0.002994 377.24408 377.23746
371.0 0.002695 377.72598 377.71954
357.0 0.002801 378.20847 378.20203
330.0 0.003030 378.69144 378.68506
323.0 0.003096 379.17493 379.16861
359.0 0.002786 379.65897 379.65268
331.0 0.003021 380.14346 380.13727
334.0 0.002994 380.62833 380.62219
358.0 0.002793 381.11374 381.10760
349.0 0.002865 381.59949 381.59344
360.0 0.002778 382.08551 382.07956
359.0 0.002786 382.57208 382.56622
365.0 0.002740 383.05893 383.05316
345.0 0.002899 383.54611 383.54031
335.0 0.002985 384.03354 384.02783
397.0 0.002519 384.52127 384.51563
380.0 0.002632 385.00925 385.00366
360.0 0.002778 385.49750 385.49194
363.0 0.002755 385.98590 385.98044
358.0 0.002793 386.47461 386.46915
339.0 0.002950 386.96344 386.95798
345.0 0.002899 387.45236 387.44702
349.0 0.002865 387.94150 387.93616
360.0 0.002778 388.43066 388.42548
359.0 0.002786 388.91992 388.91479
348.0 0.002874 389.40936 389.40427
343.0 0.002915 389.89880 389.89377
356.0 0.002809 390.38821 390.38330
372.0 0.002688 390.87775 390.87283
345.0 0.002899 391.36722 391.36240
342.0 0.002924 391.85672 391.85184
355.0 0.002817 392.34613 392.34134
351.0 0.002849 392.83554 392.83090
343.0 0.002915 393.32474 393.32013
349.0 0.002865 393.81403 393.80942
357.0 0.002801 394.30313 394.29855
343.0 0.002915 394.79205 394.78760
352.0 0.002841 395.28091 395.27643
381.0 0.002625 395.76959 395.76517
349.0 0.002865 396.25812 396.25360
343.0 0.002915 396.74622 396.74188
371.0 0.002695 397.23431 397.23001
344.0 0.002907 397.72214 397.71799
331.0 0.003021 398.20966 398.20547
358.0 0.002793 398.69696 398.69287
361.0 0.002770 399.18393 399.17987
361.0 0.002770 399.67072 399.66663
356.0 0.002809 400.15704 400.15305
359.0 0.002786 400.64307 400.63913
373.0 0.002681 401.12872 401.12482
392.0 0.002551 401.61407 401.61023
413.0 0.002421 402.09903 402.09515
378.0 0.002646 402.58359 402.57977
353.0 0.002833 403.06760 403.06387
320.0 0.003125 403.55127 403.54758
340.0 0.002941 404.03458 404.03088
369.0 0.002710 404.51730 404.51370
345.0 0.002899 404.99957 404.99600
373.0 0.002681 405.48138 405.47781
399.0 0.002506 405.96255 405.95905
324.0 0.003086 406.44333 406.43988
375.0 0.002667 406.92352 406.93085
330.0 0.003030 407.40320 407.41138
332.0 0.003012 407.88220 407.89139
348.0 0.002874 408.36078 408.37637
354.0 0.002825 408.83862 408.85587
386.0 0.002591 409.31595 409.33496
357.0 0.002801 409.79257 409.81375
339.0 0.002950 410.26862 410.29214
374.0 0.002674 410.74393 410.77017
367.0 0.002725 411.21854 412.62814
356.0 0.002809 411.69260 413.20941
366.0 0.002732 412.16586 413.80341
367.0 0.002725 412.63849 415.11313
356.0 0.002809 413.11029 415.79340
350.0 0.002857 413.58139 417.13318
390.0 0.002564 414.05182 417.92993
397.0 0.002519 414.52139 418.79150
388.0 0.002577 414.99026 420.06143
377.0 0.002653 415.45822 421.13806
396.0 0.002525 415.92551 422.33578
369.0 0.002710 416.39188 423.68399
372.0 0.002688 416.85751 425.22192
390.0 0.002564 417.32217 427.01495
383.0 0.002611 417.78610 429.20300
401.0 0.002494 418.24905 432.25299
418.0 0.002392 418.71124 437.64691
429.0 0.002331 419.17245 447.37762
445.0 0.002247 419.63290 461.79761
470.0 0.002128 420.09222 480.53610
471.0 0.002123 420.55075 504.28659
467.0 0.002141 421.00830 534.05164
521.0 0.001919 421.46500 570.69537
557.0 0.001795 421.92072 613.14282
568.0 0.001761 422.37534 658.94824
609.0 0.001642 422.82895 713.93951
717.0 0.001395 423.28174 781.86340
863.0 0.001159 423.73346 864.15167
966.0 0.001035 424.18414 969.83960
1104.0 0.000906 424.63376 1113.38037
1371.0 0.000729 425.08237 1327.88196
1728.0 0.000579 425.52997 1659.77966
2003.0 0.000499 425.97650 1934.29333
1783.0 0.000561 426.42200 1698.11499
1574.0 0.000635 426.86630 1446.90686
1520.0 0.000658 427.30954 1421.01355
1289.0 0.000776 427.75180 1283.26587
1136.0 0.000880 428.19281 1116.56396
899.0 0.001112 428.63272 878.41290
779.0 0.001284 429.07150 769.69067
673.0 0.001486 429.50922 681.98462
549.0 0.001821 429.94568 548.99530
417.0 0.002398 430.38113 485.15302
443.0 0.002257 430.81531 465.74173
406.0 0.002463 431.24826 457.44699
394.0 0.002538 431.68008 452.42535
366.0 0.002732 432.11072 449.05847
334.0 0.002994 432.54013 446.72159
364.0 0.002747 432.96841 445.04034
405.0 0.002469 433.39529 443.82416
446.0 0.002242 433.82108 442.93558
416.0 0.002404 434.24564 442.28885
421.0 0.002375 434.66885 441.82584
384.0 0.002604 435.09091 441.50497
435.0 0.002299 435.51160 441.29602
448.0 0.002232 435.93103 439.27811
428.0 0.002336 436.34924 439.37741
432.0 0.002315 436.76608 438.51563
412.0 0.002427 437.18161 438.77246
431.0 0.002320 437.59595 438.15955
434.0 0.002304 438.00888 451.25055
404.0 0.002475 438.42056 452.56134
399.0 0.002506 438.83081 453.55466
423.0 0.002364 439.23978 461.54321
444.0 0.002252 439.64737 463.76584
453.0 0.002208 440.05365 466.22684
436.0 0.002294 440.45856 468.97290
432.0 0.002315 440.86206 472.06290
468.0 0.002137 441.26419 475.57294
473.0 0.002114 441.66486 479.60394
481.0 0.002079 442.06433 484.29221
525.0 0.001905 442.46222 489.82813
561.0 0.001783 442.85883 496.48776
577.0 0.001733 443.25403 504.69403
583.0 0.001715 443.64777 515.15790
618.0 0.001618 444.04004 529.45624
700.0 0.001429 444.43094 553.24133
761.0 0.001314 444.82037 603.21350
826.0 0.001211 445.20837 698.07935
931.0 0.001074 445.59491 837.42297
1067.0 0.000937 445.97998 1017.16583
1189.0 0.000841 446.36359 1242.66748
1406.0 0.000711 446.74576 1514.54297
1666.0 0.000600 447.12637 1832.81104
1962.0 0.000510 447.50562 2205.32324
2380.0 0.000420 447.88327 2647.00439
3030.0 0.0003300 448.25943 3181.68506
3738.0 0.0002675 448.63419 3847.85474
4685.0 0.0002134 449.00739 4710.69873
6051.0 0.0001653 449.37903 5903.87158
8018.0 0.0001247 449.74921 7752.79590
11096.0 0.0000901 450.11786 10631.20898
12711.0 0.0000787 450.48499 12608.84180
9601.0 0.0001042 450.85062 9660.90430
6936.0 0.0001442 451.21469 6936.45313
5967.0 0.0001676 451.57712 6060.11084
3551.0 0.0002816 451.93805 3584.15698
1640.0 0.000610 452.29758 1637.91064
919.0 0.001088 452.65533 1006.54535
736.0 0.001359 453.01163 812.43591
604.0 0.001656 453.36633 715.15607
625.0 0.001600 453.71948 654.48853
545.0 0.001835 454.07101 613.60480
542.0 0.001845 454.42105 584.60974
504.0 0.001984 454.76938 563.24036
523.0 0.001912 455.11618 547.01453
547.0 0.001828 455.46140 534.39685
488.0 0.002049 455.80505 524.39337
484.0 0.002066 456.14697 516.33472
525.0 0.001905 456.48737 509.75412
525.0 0.001905 456.82614 504.31888
497.0 0.002012 457.16336 499.78537
465.0 0.002151 457.49890 495.97272
443.0 0.002257 457.83279 492.74341
450.0 0.002222 458.16507 489.99106
447.0 0.002237 458.49570 469.86450
464.0 0.002155 458.82474 469.20490
457.0 0.002188 459.15216 459.14975
470.0 0.002128 459.47784 459.47540
484.0 0.002066 459.80197 459.79950
475.0 0.002105 460.12439 460.12192
457.0 0.002188 460.44522 460.44263
459.0 0.002179 460.76431 460.76175
454.0 0.002203 461.08179 461.07925
465.0 0.002151 461.39755 461.39493
461.0 0.002169 461.71167 461.70911
460.0 0.002174 462.02414 462.02148
461.0 0.002169 462.33502 462.33234
474.0 0.002110 462.64410 462.64142
488.0 0.002049 462.95154 480.33301
479.0 0.002088 463.25739 481.95129
464.0 0.002155 463.56140 483.72604
469.0 0.002132 463.86377 494.31232
474.0 0.002110 464.16449 497.13788
490.0 0.002041 464.46341 500.30060
506.0 0.001976 464.76080 503.86713
509.0 0.001965 465.05637 507.92209
527.0 0.001898 465.35037 512.57513
550.0 0.001818 465.64255 517.96991
573.0 0.001745 465.93304 524.30255
582.0 0.001718 466.22183 531.84540
584.0 0.001712 466.50897 540.99304
642.0 0.001558 466.79440 552.35181
706.0 0.001416 467.07803 566.90979
781.0 0.001280 467.36005 586.77167
895.0 0.001117 467.64023 619.11914
904.0 0.001106 467.91876 686.13239
1020.0 0.000980 468.19562 815.34650
1255.0 0.000797 468.47061 1011.32092
1406.0 0.000711 468.74402 1265.89172
1563.0 0.000640 469.01563 1587.00366
1780.0 0.000562 469.28555 1982.06494
2243.0 0.000446 469.55380 2452.98193
2631.0 0.000380 469.82019 3012.47388
3292.0 0.0003038 470.08493 3688.33984
3967.0 0.0002521 470.34784 4525.03223
5036.0 0.0001986 470.60910 5599.17578
6552.0 0.0001526 470.86868 7061.02930
9128.0 0.0001096 471.12640 9267.75586
12893.0 0.0000776 471.38248 12775.21289
16210.0 0.0000617 471.63672 15960.48926
12881.0 0.0000776 471.88928 13152.01367
8387.0 0.0001192 472.14014 8914.85059
7835.0 0.0001276 472.38919 8051.49609
5649.0 0.0001770 472.63651 5782.26221
2495.0 0.000401 472.88211 2656.87280
1157.0 0.000864 473.12601 1375.22705
894.0 0.001119 473.36810 1009.46014
778.0 0.001285 473.60837 853.46362
702.0 0.001425 473.84708 760.67688
659.0 0.001517 474.08383 699.51056
633.0 0.001580 474.31885 656.75360
623.0 0.001605 474.55231 625.55731
587.0 0.001704 474.78394 602.04962
604.0 0.001656 475.01382 583.85248
570.0 0.001754 475.24179 569.47113
581.0 0.001721 475.46820 557.89777
560.0 0.001786 475.69281 548.44373
561.0 0.001783 475.91574 540.62756
571.0 0.001751 476.13675 534.08978
573.0 0.001745 476.35611 528.57190
580.0 0.001724 476.57370 523.87384
584.0 0.001712 476.78961 519.84363
572.0 0.001748 477.00366 492.54175
580.0 0.001724 477.21600 491.37711
582.0 0.001718 477.42661 506.91943
585.0 0.001709 477.63538 495.39441
626.0 0.001597 477.84259 496.97968
628.0 0.001592 478.04785 506.85648
598.0 0.001672 478.25143 509.40976
618.0 0.001618 478.45322 527.97601
663.0 0.001508 478.65335 532.33466
697.0 0.001435 478.85175 537.26367
710.0 0.001408 479.04822 542.87500
721.0 0.001387 479.24310 557.58801
727.0 0.001376 479.43616 565.67664
744.0 0.001344 479.62753 575.13092
792.0 0.001263 479.81714 586.32947
808.0 0.001238 480.00497 599.80328
875.0 0.001143 480.19107 616.37756
923.0 0.001083 480.37540 637.39349
968.0 0.001033 480.55798 665.85474
1108.0 0.000903 480.73886 712.02734
1299.0 0.000770 480.91794 803.17413
1444.0 0.000693 481.09534 1000.11981
1612.0 0.000620 481.27094 1234.22302
1901.0 0.000526 481.44482 1534.69055
2263.0 0.000442 481.61707 1935.18994
2590.0 0.000386 481.78741 2423.60596
3061.0 0.0003267 481.95612 3051.59229
3795.0 0.0002635 482.12302 3862.04834
4707.0 0.0002124 482.28818 4891.33350
5944.0 0.0001682 482.45175 6208.36377
7719.0 0.0001296 482.61343 7961.55762
10748.0 0.0000930 482.77344 10479.23242
14894.0 0.0000671 482.93170 14313.59473
18739.0 0.0000534 483.08820 18265.58203
17715.0 0.0000564 483.24307 16928.50977
14195.0 0.0000704 483.39615 13659.97266
14343.0 0.0000697 483.54752 14335.00098
15542.0 0.0000643 483.69717 15213.83008
16392.0 0.0000610 483.84512 15607.47559
16868.0 0.0000593 483.99127 16795.66797
13356.0 0.0000749 484.13577 13133.20703
9612.0 0.0001040 484.27853 9620.36035
9361.0 0.0001068 484.41956 9584.44434
7984.0 0.0001253 484.55893 8236.24219
5799.0 0.0001724 484.69659 6018.81445
5134.0 0.0001948 484.83243 5756.73047
5815.0 0.0001720 484.96667 6650.28516
7184.0 0.0001392 485.09906 8055.08154
8813.0 0.0001135 485.22992 9935.37109
11423.0 0.0000875 485.35901 12474.98730
15587.0 0.0000642 485.48639 16129.74023
21776.0 0.0000459 485.61206 21969.86328
28994.0 0.00003449 485.73602 30111.54102
30003.0 0.00003333 485.85831 31988.53125
21736.0 0.0000460 485.97897 21603.45898
16336.0 0.0000612 486.09781 16526.85547
14533.0 0.0000688 486.21506 15712.95508
9574.0 0.0001044 486.33063 9608.79590
4265.0 0.0002345 486.44443 4077.34619
2054.0 0.000487 486.55661 2148.22583
1532.0 0.000653 486.66705 1560.32825
1332.0 0.000751 486.77585 1272.96313
1202.0 0.000832 486.88300 1071.19983
1071.0 0.000934 486.98843 952.21893
1003.0 0.000997 487.09225 873.12756
906.0 0.001104 487.19437 799.23138
838.0 0.001193 487.29483 752.82019
791.0 0.001264 487.39352 719.42542
760.0 0.001316 487.49078 691.03296
719.0 0.001391 487.58615 668.24780
713.0 0.001403 487.68002 649.77673
696.0 0.001437 487.77213 638.03790
663.0 0.001508 487.86261 625.90826
648.0 0.001543 487.95151 616.04541
668.0 0.001497 488.03867 608.11127
695.0 0.001439 488.12424 550.02142
651.0 0.001536 488.20813 549.75201
600.0 0.001667 488.29047 550.50610
634.0 0.001577 488.37112 552.40228
689.0 0.001451 488.45013 530.62799
687.0 0.001456 488.52753 537.68011
703.0 0.001422 488.60324 547.48431
748.0 0.001337 488.67737 564.05676
766.0 0.001305 488.74988 597.77209
816.0 0.001225 488.82083 657.89319
877.0 0.001140 488.89008 743.12158
990.0 0.001010 488.95770 852.08362
1064.0 0.000940 489.02377 990.97168
1215.0 0.000823 489.08823 1165.43250
1394.0 0.000717 489.15106 1380.82849
1631.0 0.000613 489.21231 1651.83215
1899.0 0.000527 489.27197 2006.32642
2540.0 0.000394 489.32999 2485.21289
3461.0 0.0002889 489.38641 3174.36475
4559.0 0.0002193 489.44131 4257.21045
5842.0 0.0001712 489.49463 5587.21533
5457.0 0.0001833 489.54630 5516.62598
4051.0 0.0002469 489.59647 4018.52881
3709.0 0.0002696 489.64499 3689.96338
3745.0 0.0002670 489.69199 3817.97607
3151.0 0.0003174 489.73743 3160.79712
2760.0 0.000362 489.78122 2898.63159
3151.0 0.0003174 489.82352 3414.50879
3436.0 0.0002910 489.86423 3726.67773
2647.0 0.000378 489.90344 2778.92139
2022.0 0.000495 489.94101 2098.95581
1960.0 0.000510 489.97708 2058.96875
1639.0 0.000610 490.01160 1639.99402
983.0 0.001017 490.04459 997.61987
694.0 0.001441 490.07605 720.75110
656.0 0.001524 490.10587 636.70502
648.0 0.001543 490.13434 599.18958
603.0 0.001658 490.16110 576.06476
599.0 0.001669 490.18646 560.24866
574.0 0.001742 490.21033 548.79510
541.0 0.001848 490.23248 540.15881
552.0 0.001812 490.25336 533.43549
564.0 0.001773 490.27255 528.07513
569.0 0.001757 490.29031 515.47992
567.0 0.001764 490.30661 512.52631
546.0 0.001832 490.32132 510.08258
558.0 0.001792 490.33463 503.80869
558.0 0.001792 490.34631 502.41226
559.0 0.001789 490.35660 501.22675
584.0 0.001712 490.36545 500.21078
561.0 0.001783 490.37277 493.99432
524.0 0.001908 490.37860 493.66052
534.0 0.001873 490.38293 493.37100
540.0 0.001852 490.38586 493.11789
531.0 0.001883 490.38724 490.37387
539.0 0.001855 490.38721 490.37369
553.0 0.001808 490.38574 490.37219
553.0 0.001808 490.38284 501.06522
540.0 0.001852 490.37836 501.84735
510.0 0.001961 490.37256 502.71967
533.0 0.001876 490.36530 508.83487
563.0 0.001776 490.35657 510.30560
566.0 0.001767 490.34644 511.96356
539.0 0.001855 490.33484 513.84399
544.0 0.001838 490.32178 515.99066
533.0 0.001876 490.30743 518.45660
602.0 0.001661 490.29160 521.31335
573.0 0.001745 490.27429 524.65082
597.0 0.001675 490.25562 528.59155
594.0 0.001684 490.23553 533.30212
607.0 0.001647 490.21405 539.01074
620.0 0.001613 490.19119 546.05927
671.0 0.001490 490.16699 554.96045
684.0 0.001462 490.14124 566.57208
751.0 0.001332 490.11423 582.63922
833.0 0.001200 490.08585 608.64642
935.0 0.001070 490.05600 661.50269
1022.0 0.000978 490.02490 765.12195
964.0 0.001037 489.99234 923.90155
1235.0 0.000810 489.95840 1130.46948
1519.0 0.000658 489.92319 1394.08008
1832.0 0.000546 489.88651 1731.80469
2165.0 0.000462 489.84860 2155.58203
2590.0 0.000386 489.80927 2686.74683
3271.0 0.0003057 489.76859 3371.88135
4342.0 0.0002303 489.72659 4307.83984
6215.0 0.0001609 489.68326 5725.65332
8434.0 0.0001186 489.63864 7935.07568
10018.0 0.0000998 489.59268 9777.75977
8184.0 0.0001222 489.54535 7797.63770
5542.0 0.0001804 489.49677 5174.02637
5073.0 0.0001971 489.44678 4921.55420
4568.0 0.0002189 489.39554 4523.40039
2686.0 0.000372 489.34299 2530.65161
1275.0 0.000784 489.28912 1285.39417
893.0 0.001120 489.23401 898.72028
784.0 0.001276 489.17755 764.43036
729.0 0.001372 489.11990 692.24030
714.0 0.001401 489.06085 667.29004
691.0 0.001447 489.00058 637.33905
641.0 0.001560 488.93909 616.41681
618.0 0.001618 488.87622 601.42352
629.0 0.001590 488.81219 601.31775
638.0 0.001567 488.74689 594.33423
596.0 0.001678 488.68024 589.72302
600.0 0.001667 488.61240 587.10992
623.0 0.001605 488.54330 586.23511
603.0 0.001658 488.47296 586.99670
613.0 0.001631 488.40140 589.31165
629.0 0.001590 488.32858 593.27661
644.0 0.001553 488.25464 599.06116
685.0 0.001460 488.17932 591.56488
726.0 0.001377 488.10291 603.27631
752.0 0.001330 488.02527 618.20032
807.0 0.001239 487.94635 629.54364
889.0 0.001125 487.86627 656.05554
981.0 0.001019 487.78497 693.65833
1100.0 0.000909 487.70251 758.04028
1266.0 0.000790 487.61880 891.89594
1488.0 0.000672 487.53387 1137.16797
1743.0 0.000574 487.44791 1502.81152
2126.0 0.000470 487.36069 1973.33020
2553.0 0.000392 487.27231 2572.97144
3192.0 0.0003133 487.18277 3341.95801
3858.0 0.0002592 487.09198 4321.24121
5066.0 0.0001974 487.00015 5574.77344
6970.0 0.0001435 486.90710 7241.69336
9661.0 0.0001035 486.81296 9642.54199
14089.0 0.0000710 486.71762 13439.58594
19465.0 0.0000514 486.62115 18137.74023
18559.0 0.0000539 486.52353 17696.37891
11158.0 0.0000896 486.42477 11330.31445
9138.0 0.0001094 486.32495 9073.66895
9932.0 0.0001007 486.22403 9461.36035
7005.0 0.0001428 486.12186 6763.68506
2970.0 0.0003367 486.01868 3122.15845
1492.0 0.000670 485.91440 1629.67944
1080.0 0.000926 485.80896 1180.58289
931.0 0.001074 485.70248 987.46893
822.0 0.001217 485.59479 865.84937
767.0 0.001304 485.48618 778.52942
678.0 0.001475 485.37634 719.75635
655.0 0.001527 485.26556 678.78174
587.0 0.001704 485.15363 648.22455
549.0 0.001821 485.04062 624.55017
532.0 0.001880 484.92657 605.77448
532.0 0.001880 484.81143 590.58582
544.0 0.001838 484.69537 578.10876
542.0 0.001845 484.57819 567.71381
532.0 0.001880 484.45987 558.94958
541.0 0.001848 484.34058 551.48828
518.0 0.001931 484.22025 545.07263
514.0 0.001946 484.09891 506.97653
496.0 0.002016 483.97656 504.71237
515.0 0.001942 483.85318 502.73532
499.0 0.002004 483.72873 500.99677
473.0 0.002114 483.60330 483.74710
484.0 0.002066 483.47687 483.51697
484.0 0.002066 483.34940 483.38364
484.0 0.002066 483.22092 483.25012
490.0 0.002041 483.09155 483.11618
479.0 0.002088 482.96115 482.93903
463.0 0.002160 482.82980 482.80759
457.0 0.002188 482.69739 482.67505
479.0 0.002088 482.56400 482.54166
464.0 0.002155 482.42978 482.40729
437.0 0.002288 482.29453 482.27197
469.0 0.002132 482.15823 482.13571
476.0 0.002101 482.02115 481.99844
451.0 0.002217 481.88297 481.86014
474.0 0.002110 481.74390 481.72104
476.0 0.002101 481.60382 481.58090
479.0 0.002088 481.46295 481.43997
478.0 0.002092 481.32111 481.29797
479.0 0.002088 481.17828 481.15512
465.0 0.002151 481.03458 481.01132
450.0 0.002222 480.88995 480.86661
482.0 0.002075 480.74442 480.72107
465.0 0.002151 480.59802 480.57455
467.0 0.002141 480.45065 480.42703
461.0 0.002169 480.30246 480.27884
455.0 0.002198 480.15335 480.12958
454.0 0.002203 480.00336 479.97955
491.0 0.002037 479.85251 479.82855
466.0 0.002146 479.70068 479.67673
450.0 0.002222 479.54810 479.52405
429.0 0.002331 479.39459 479.37054
459.0 0.002179 479.24026 479.21606
481.0 0.002079 479.08508 479.06076
440.0 0.002273 478.92899 478.90460
452.0 0.002212 478.77209 478.74774
467.0 0.002141 478.61432 478.58981
494.0 0.002024 478.45578 478.43124
485.0 0.002062 478.29639 478.27176
494.0 0.002024 478.13614 478.11142
451.0 0.002217 477.97516 485.43500
494.0 0.002024 477.81317 485.81024
486.0 0.002058 477.65054 486.24500
482.0 0.002075 477.48709 486.74921
461.0 0.002169 477.32275 491.09326
494.0 0.002024 477.15765 492.04404
471.0 0.002123 476.99179 493.13818
483.0 0.002070 476.82523 494.40140
490.0 0.002041 476.65775 495.86731
456.0 0.002193 476.48950 497.57764
450.0 0.002222 476.32053 499.58466
496.0 0.002016 476.15073 501.95877
515.0 0.001942 475.98019 504.79031
554.0 0.001805 475.80893 508.20468
522.0 0.001916 475.63687 512.37524
525.0 0.001905 475.46411 517.54651
575.0 0.001739 475.29059 524.09357
607.0 0.001647 475.11639 532.60248
611.0 0.001637 474.94138 544.12238
663.0 0.001508 474.76556 561.26343
739.0 0.001353 474.58914 592.84760
834.0 0.001199 474.41196 658.55029
925.0 0.001081 474.23416 769.87933
1047.0 0.000955 474.05551 930.41833
1192.0 0.000839 473.87622 1137.11829
1407.0 0.000711 473.69623 1401.86609
1729.0 0.000578 473.51553 1751.71667
2208.0 0.000453 473.33420 2208.04834
2875.0 0.0003478 473.15207 2824.24121
3887.0 0.0002573 472.96930 3721.46411
5621.0 0.0001779 472.78598 5129.84961
7179.0 0.0001393 472.60187 6704.76416
6412.0 0.0001560 472.41711 6167.79004
4340.0 0.0002304 472.23172 3961.21045
3671.0 0.0002724 472.04559 3317.14185
3812.0 0.0002623 471.85895 3582.54688
3055.0 0.0003273 471.67148 2854.43604
1657.0 0.000604 471.48352 1524.58411
874.0 0.001144 471.29483 922.72180
703.0 0.001422 471.10553 742.15161
673.0 0.001486 470.91565 669.08167
635.0 0.001575 470.72510 628.03894
608.0 0.001645 470.53391 602.93427
601.0 0.001664 470.34222 587.62891
586.0 0.001706 470.14981 579.37494
591.0 0.001692 469.95682 577.51678
610.0 0.001639 469.76318 584.84955
630.0 0.001587 469.56909 611.02930
677.0 0.001477 469.37436 665.64398
819.0 0.001221 469.17896 751.75421
902.0 0.001109 468.98303 865.97693
1039.0 0.000962 468.78653 1012.76923
1222.0 0.000818 468.58945 1208.25793
1435.0 0.000697 468.39182 1469.31555
1850.0 0.000541 468.19354 1810.57568
2506.0 0.000399 467.99487 2322.70532
3394.0 0.0002946 467.79550 3127.46387
4413.0 0.0002266 467.59567 4065.13477
4093.0 0.0002443 467.39536 3844.03735
2726.0 0.000367 467.19437 2539.42603
2194.0 0.000456 466.99292 2099.78589
2294.0 0.000436 466.79086 2269.66040
2080.0 0.000481 466.58841 1955.94714
1223.0 0.000818 466.38535 1158.26563
729.0 0.001372 466.18176 756.48932
607.0 0.001647 465.97769 634.37994
551.0 0.001815 465.77316 587.67523
538.0 0.001859 465.56812 562.20251
519.0 0.001927 465.36255 546.91205
532.0 0.001880 465.15646 538.02002
535.0 0.001869 464.94992 534.59229
519.0 0.001927 464.74292 538.66650
509.0 0.001965 464.53543 553.31189
556.0 0.001799 464.32745 579.38428
633.0 0.001580 464.11899 615.22919
633.0 0.001580 463.91003 662.95026
657.0 0.001522 463.70074 727.57880
746.0 0.001340 463.49097 814.86945
876.0 0.001142 463.28067 933.93597
1117.0 0.000895 463.06992 1109.68469
1442.0 0.000693 462.85880 1380.37292
1685.0 0.000593 462.64719 1695.78833
1584.0 0.000631 462.43524 1618.48425
1265.0 0.000791 462.22272 1251.98413
1174.0 0.000852 462.00983 1190.64294
1269.0 0.000788 461.79657 1334.06494
1241.0 0.000806 461.58282 1342.38928
1173.0 0.000853 461.36880 1237.57446
1256.0 0.000796 461.15430 1319.96167
1574.0 0.000635 460.93930 1601.42346
2077.0 0.000481 460.72409 2058.02490
2265.0 0.000442 460.50830 2336.12817
1699.0 0.000589 460.29230 1811.14282
1195.0 0.000837 460.07590 1319.67200
1241.0 0.000806 459.85895 1302.48145
1317.0 0.000759 459.64175 1356.57141
1018.0 0.000982 459.42419 1034.85425
683.0 0.001464 459.20627 699.53802
516.0 0.001938 458.98798 572.26471
461.0 0.002169 458.76926 531.52661
488.0 0.002049 458.55026 511.96857
469.0 0.002132 458.33093 499.80270
444.0 0.002252 458.11127 491.50159
414.0 0.002415 457.89120 485.49731
442.0 0.002262 457.67084 478.73697
458.0 0.002183 457.45010 475.37207
422.0 0.002370 457.22910 472.68423
440.0 0.002273 457.00781 470.48804
430.0 0.002326 456.78616 467.54852
415.0 0.002410 456.56412 466.08383
379.0 0.002639 456.34189 464.82578
413.0 0.002421 456.11929 463.72949
390.0 0.002564 455.89642 462.76300
392.0 0.002551 455.67334 461.90088
440.0 0.002273 455.44977 457.80539
412.0 0.002427 455.22610 457.35931
390.0 0.002564 455.00211 456.94266
432.0 0.002315 454.77783 456.55051
420.0 0.002381 454.55322 454.52048
453.0 0.002208 454.32831 454.29550
388.0 0.002577 454.10327 454.07040
398.0 0.002513 453.87787 453.84497
427.0 0.002342 453.65234 453.61935
429.0 0.002331 453.42648 453.39343
396.0 0.002525 453.20035 453.16727
407.0 0.002457 452.97400 452.94083
408.0 0.002451 452.74741 452.71423
423.0 0.002364 452.52066 452.48734
422.0 0.002370 452.29367 452.26031
431.0 0.002320 452.06619 452.03293
462.0 0.002165 451.83881 451.80539
455.0 0.002198 451.61105 451.57755
394.0 0.002538 451.38315 451.34964
421.0 0.002375 451.15506 451.12149
407.0 0.002457 450.92667 450.89307
433.0 0.002309 450.69818 450.66452
458.0 0.002183 450.46936 450.43570
420.0 0.002381 450.24048 450.20673
422.0 0.002370 450.01135 449.97760
435.0 0.002299 449.78207 449.74814
410.0 0.002439 449.55261 449.51871
410.0 0.002439 449.32291 449.28894
423.0 0.002364 449.09314 449.05914
444.0 0.002252 448.86310 448.82913
457.0 0.002188 448.63293 448.59882
430.0 0.002326 448.40280 448.36853
402.0 0.002488 448.17221 448.13800
417.0 0.002398 447.94159 447.90732
418.0 0.002392 447.71088 447.67657
421.0 0.002375 447.47995 453.60672
419.0 0.002387 447.24887 453.80453
419.0 0.002387 447.01767 454.04904
448.0 0.002232 446.78635 458.13004
448.0 0.002232 446.55496 458.75256
427.0 0.002342 446.32336 462.69885
435.0 0.002299 446.09174 463.77017
427.0 0.002342 445.85995 465.00592
426.0 0.002347 445.62799 470.82947
412.0 0.002427 445.39603 472.79965
431.0 0.002320 445.16382 475.08038
459.0 0.002179 444.93164 477.73334
444.0 0.002252 444.69934 482.02203
441.0 0.002268 444.46698 485.77014
467.0 0.002141 444.23447 490.22583
493.0 0.002028 444.00183 495.57977
508.0 0.001969 443.76920 502.09155
543.0 0.001842 443.53647 510.14423
554.0 0.001805 443.30371 520.30176
615.0 0.001626 443.07086 533.47784
669.0 0.001495 442.83783 551.36560
695.0 0.001439 442.60489 578.52728
778.0 0.001285 442.37177 628.59375
855.0 0.001170 442.13879 723.28796
999.0 0.001001 441.90555 871.87628
1172.0 0.000853 441.67233 1082.15491
1330.0 0.000752 441.43912 1377.12793
1764.0 0.000567 441.20581 1780.23462
2156.0 0.000464 440.97253 2331.35327
3056.0 0.0003272 440.73923 3108.51440
4244.0 0.0002356 440.50577 4273.39307
5840.0 0.0001712 440.27240 5939.88574
6571.0 0.0001522 440.03894 7114.88623
5951.0 0.0001680 439.80554 6190.45996
5634.0 0.0001775 439.57214 5744.51416
6427.0 0.0001556 439.33862 6435.93164
5996.0 0.0001668 439.10522 6116.56592
4736.0 0.0002111 438.87173 4743.98975
4263.0 0.0002346 438.63834 4010.60620
4480.0 0.0002232 438.40488 4276.96338
3854.0 0.0002595 438.17145 3735.68408
2482.0 0.000403 437.93796 2268.57202
1702.0 0.000588 437.70456 1610.53992
1637.0 0.000611 437.47122 1586.90198
1603.0 0.000624 437.23785 1539.49158
1205.0 0.000830 437.00452 1101.34424
824.0 0.001214 436.77121 763.38092
649.0 0.001541 436.53790 638.71429
581.0 0.001721 436.30475 588.87677
533.0 0.001876 436.07150 560.34290
501.0 0.001996 435.83838 541.08215
483.0 0.002070 435.60535 527.29968
477.0 0.002096 435.37219 517.11060
474.0 0.002110 435.13931 509.46884
479.0 0.002088 434.90634 493.09842
467.0 0.002141 434.67343 489.77148
490.0 0.002041 434.44070 487.64651
499.0 0.002004 434.20795 486.61948
501.0 0.001996 433.97537 480.55319
508.0 0.001969 433.74277 477.28128
508.0 0.001969 433.51019 482.37009
535.0 0.001869 433.27786 487.54742
586.0 0.001706 433.04547 488.04160
600.0 0.001667 432.81332 500.04337
614.0 0.001629 432.58118 520.73102
682.0 0.001466 432.34906 564.15247
724.0 0.001381 432.11719 641.43335
838.0 0.001193 431.88535 763.91876
915.0 0.001093 431.65366 923.81403
1088.0 0.000919 431.42209 1134.74402
1394.0 0.000717 431.19049 1423.81689
1783.0 0.000561 430.95917 1827.23950
2416.0 0.000414 430.72781 2427.15796
3538.0 0.0002826 430.49673 3355.17993
4399.0 0.0002273 430.26575 4320.57715
3839.0 0.0002605 430.03476 3859.79443
2336.0 0.000428 429.80408 2471.26611
1955.0 0.000512 429.57343 2042.46619
2267.0 0.000441 429.34302 2288.70020
2340.0 0.000427 429.11264 2270.89648
1382.0 0.000724 428.88239 1454.68481
850.0 0.001176 428.65240 870.69031
632.0 0.001582 428.42255 677.47247
636.0 0.001572 428.19281 627.40009
623.0 0.001605 427.96323 624.88733
625.0 0.001600 427.73373 652.80927
634.0 0.001577 427.50461 701.43512
710.0 0.001408 427.27542 775.75568
830.0 0.001205 427.04660 886.84583
996.0 0.001004 426.81787 1049.44287
1263.0 0.000792 426.58929 1302.50403
1583.0 0.000632 426.36090 1669.98914
1799.0 0.000556 426.13269 1878.93958
1501.0 0.000666 425.90482 1470.11353
1070.0 0.000935 425.67697 1092.07373
1091.0 0.000917 425.44931 1071.35938
1174.0 0.000852 425.22189 1179.74097
1055.0 0.000948 424.99469 1061.42322
873.0 0.001145 424.76764 789.55804
777.0 0.001287 424.54086 696.07184
792.0 0.001263 424.31418 746.18317
894.0 0.001119 424.08786 871.62256
1034.0 0.000967 423.86166 1050.66724
1284.0 0.000779 423.63571 1297.43152
1675.0 0.000597 423.40994 1648.40613
2235.0 0.000447 423.18442 2153.36694
3133.0 0.0003192 422.95914 2933.82983
4302.0 0.0002325 422.73404 4040.46436
4576.0 0.0002185 422.50925 4581.14941
3353.0 0.0002982 422.28461 3286.54590
2269.0 0.000441 422.06021 2204.03979
2221.0 0.000450 421.83615 2160.89990
2457.0 0.000407 421.61215 2463.84497
2086.0 0.000479 421.38858 2084.29810
1241.0 0.000806 421.16519 1198.96228
739.0 0.001353 420.94199 757.90851
617.0 0.001621 420.71918 622.29626
572.0 0.001748 420.49652 573.23846
532.0 0.001880 420.27414 552.43921
532.0 0.001880 420.05203 541.14850
511.0 0.001957 419.83017 519.48596
494.0 0.002024 419.60861 492.40643
448.0 0.002232 419.38733 479.71970
460.0 0.002174 419.16623 476.58414
439.0 0.002278 418.94556 471.90546
439.0 0.002278 418.72501 458.23160
391.0 0.002558 418.50482 447.40173
409.0 0.002445 418.28485 441.92535
398.0 0.002513 418.06528 438.60651
401.0 0.002494 417.84598 436.06427
393.0 0.002545 417.62686 425.23108
382.0 0.002618 417.40814 424.15152
387.0 0.002584 417.18964 423.22287
391.0 0.002558 416.97150 422.40842
381.0 0.002625 416.75369 421.68268
373.0 0.002681 416.53607 416.87152
356.0 0.002809 416.31885 416.60611
428.0 0.002336 416.10190 416.34985
378.0 0.002646 415.88528 416.10086
375.0 0.002667 415.66901 415.85736
387.0 0.002584 415.45294 415.61847
393.0 0.002545 415.23737 415.38324
417.0 0.002398 415.02191 415.05597
395.0 0.002532 414.80698 414.83401
371.0 0.002695 414.59225 414.61325
391.0 0.002558 414.37778 414.39355
374.0 0.002674 414.16382 414.12561
406.0 0.002463 413.95010 413.91183
390.0 0.002564 413.73676 413.69846
368.0 0.002717 413.52374 413.48547
365.0 0.002740 413.31097 413.27280
387.0 0.002584 413.09866 413.06036
395.0 0.002532 412.88672 412.84836
372.0 0.002688 412.67505 412.63675
406.0 0.002463 412.46381 412.42551
393.0 0.002545 412.25278 412.21457
370.0 0.002703 412.04227 412.00394
365.0 0.002740 411.83200 411.79367
356.0 0.002809 411.62216 411.58386
353.0 0.002833 411.41266 411.37433
368.0 0.002717 411.20349 411.16516
366.0 0.002732 410.99475 410.95645
373.0 0.002681 410.78635 410.74805
377.0 0.002653 410.57831 410.54001
407.0 0.002457 410.37070 410.33234
420.0 0.002381 410.16336 410.12506
376.0 0.002660 409.95648 409.91815
370.0 0.002703 409.74988 409.71158
391.0 0.002558 409.54382 409.50549
374.0 0.002674 409.33801 409.29974
375.0 0.002667 409.13260 409.09433
376.0 0.002660 408.92773 408.88943
370.0 0.002703 408.72314 408.68478
379.0 0.002639 408.51895 408.48065
371.0 0.002695 408.31522 408.27686
365.0 0.002740 408.11176 408.07339
348.0 0.002874 407.90878 407.87051
351.0 0.002849 407.70612 407.66785
377.0 0.002653 407.50400 407.46567
386.0 0.002591 407.30222 407.26392
379.0 0.002639 407.10071 407.06250
398.0 0.002513 406.89984 406.86154
383.0 0.002611 406.69928 406.66095
397.0 0.002519 406.49918 406.46091
381.0 0.002625 406.29947 406.26120
388.0 0.002577 406.10007 406.06183
399.0 0.002506 405.90128 405.86298
399.0 0.002506 405.70276 405.66452
394.0 0.002538 405.50470 405.46646
410.0 0.002439 405.30713 405.26892
404.0 0.002475 405.10992 405.07162
396.0 0.002525 404.91321 404.87494
351.0 0.002849 404.71686 404.67868
440.0 0.002273 404.52103 404.48279
405.0 0.002469 404.32553 404.28741
365.0 0.002740 404.13052 404.09232
387.0 0.002584 403.93597 403.89777
346.0 0.002890 403.74185 403.70364
385.0 0.002597 403.54813 403.50998
418.0 0.002392 403.35486 403.31677
397.0 0.002519 403.16211 403.12393
361.0 0.002770 402.96976 402.93161
387.0 0.002584 402.77777 402.73969
371.0 0.002695 402.58640 402.54828
379.0 0.002639 402.39548 402.35724
335.0 0.002985 402.20490 402.16672
371.0 0.002695 402.01480 404.27795
400.0 0.002500 401.82513 404.24698
374.0 0.002674 401.63602 404.23352
395.0 0.002532 401.44736 404.24014
399.0 0.002506 401.25903 404.26990
382.0 0.002618 401.07129 405.48672
390.0 0.002564 400.88400 405.65506
390.0 0.002564 400.69724 405.86880
414.0 0.002415 400.51083 406.13599
415.0 0.002410 400.32495 406.46667
393.0 0.002545 400.13950 406.87314
388.0 0.002577 399.95462 416.46793
404.0 0.002475 399.77014 417.71097
402.0 0.002488 399.58624 419.16104
421.0 0.002375 399.40271 420.86359
423.0 0.002364 399.21973 422.87698
413.0 0.002421 399.03717 429.86111
433.0 0.002309 398.85513 433.08792
453.0 0.002208 398.67358 437.01010
458.0 0.002183 398.49255 445.84125
453.0 0.002208 398.31198 452.29211
477.0 0.002096 398.13184 460.77451
519.0 0.001927 397.95233 472.97314
526.0 0.001901 397.77313 493.99030
557.0 0.001795 397.59454 536.91235
601.0 0.001664 397.41650 600.20331
685.0 0.001460 397.23883 693.36603
836.0 0.001196 397.06177 814.77264
978.0 0.001022 396.88516 978.06354
1250.0 0.000800 396.70905 1219.11389
1644.0 0.000608 396.53357 1591.51196
2266.0 0.000441 396.35840 2109.87915
2445.0 0.000409 396.18384 2365.90015
1971.0 0.000507 396.00986 1823.71826
1534.0 0.000652 395.83624 1420.84387
1603.0 0.000624 395.66321 1544.24817
1991.0 0.000502 395.49069 1961.20825
2242.0 0.000446 395.31873 2308.91724
2205.0 0.000454 395.14722 2420.03101
2536.0 0.000394 394.97617 2827.19702
3520.0 0.0002841 394.80566 3746.57275
5168.0 0.0001935 394.63577 5311.19824
7038.0 0.0001421 394.46640 7228.68262
6711.0 0.0001490 394.29749 7215.72607
4101.0 0.0002438 394.12909 4700.59326
3120.0 0.0003205 393.96127 3536.49438
3582.0 0.0002792 393.79391 3921.35498
4515.0 0.0002215 393.62717 4805.23975
4636.0 0.0002157 393.46085 4683.46387
3764.0 0.0002657 393.29517 3824.26221
3941.0 0.0002537 393.13004 3914.65527
4233.0 0.0002362 392.96527 3965.00903
2814.0 0.000355 392.80118 2858.98706
1984.0 0.000504 392.63766 2158.11108
2172.0 0.000460 392.47449 2265.30884
2736.0 0.000365 392.31198 2770.29102
2907.0 0.0003440 392.15002 2867.60986
1953.0 0.000512 391.98853 1949.95276
1132.0 0.000883 391.82770 1195.26123
936.0 0.001068 391.66724 968.04877
955.0 0.001047 391.50748 979.10864
962.0 0.001040 391.34821 985.06921
775.0 0.001290 391.18948 792.06049
545.0 0.001835 391.03125 603.56750
468.0 0.002137 390.87363 523.57428
445.0 0.002247 390.71655 476.10568
414.0 0.002415 390.56003 459.12485
442.0 0.002262 390.40396 447.63498
438.0 0.002283 390.24857 439.26978
416.0 0.002404 390.09372 432.92731
417.0 0.002398 389.93936 420.43927
414.0 0.002415 389.78558 417.17700
425.0 0.002353 389.63239 414.69247
402.0 0.002488 389.47968 405.95862
385.0 0.002597 389.32755 405.44318
389.0 0.002571 389.17603 405.94034
387.0 0.002584 389.02502 408.52118
380.0 0.002632 388.87463 417.08456
400.0 0.002500 388.72476 423.61920
427.0 0.002342 388.57544 435.54813
461.0 0.002169 388.42664 455.11722
456.0 0.002193 388.27844 483.53342
488.0 0.002049 388.13086 528.98627
527.0 0.001898 387.98383 592.47021
557.0 0.001795 387.83731 635.40179
493.0 0.002028 387.69141 571.34460
452.0 0.002212 387.54602 497.71317
456.0 0.002193 387.40134 483.95303
464.0 0.002155 387.25714 503.57013
463.0 0.002160 387.11340 515.35394
455.0 0.002198 386.97031 474.46231
428.0 0.002336 386.82788 432.04791
420.0 0.002381 386.68588 416.14120
434.0 0.002304 386.54462 412.18127
410.0 0.002439 386.40378 411.79370
431.0 0.002320 386.26355 413.14661
470.0 0.002128 386.12396 415.99054
465.0 0.002151 385.98489 420.55603
453.0 0.002208 385.84647 427.59955
459.0 0.002179 385.70856 441.08810
515.0 0.001942 385.57120 464.74734
564.0 0.001773 385.43442 512.52179
621.0 0.001610 385.29837 588.24512
704.0 0.001420 385.16278 705.52045
780.0 0.001282 385.02771 856.82013
1094.0 0.000914 384.89334 1067.45215
1531.0 0.000653 384.75946 1394.85303
2112.0 0.000473 384.62625 1896.16284
2568.0 0.000389 384.49359 2406.73657
2206.0 0.000453 384.36154 2157.80762
1339.0 0.000747 384.23001 1411.05945
1120.0 0.000893 384.09909 1135.53955
1336.0 0.000749 383.96878 1232.50037
1399.0 0.000715 383.83908 1412.70142
1235.0 0.000810 383.70987 1237.74585
787.0 0.001271 383.58136 800.98193
525.0 0.001905 383.45334 576.36200
454.0 0.002203 383.32602 505.46704
446.0 0.002242 383.19919 478.88931
474.0 0.002110 383.07291 466.66272
468.0 0.002137 382.94739 461.98273
464.0 0.002155 382.82239 463.73788
527.0 0.001898 382.69791 474.93143
524.0 0.001908 382.57407 502.62579
551.0 0.001815 382.45081 549.24445
651.0 0.001536 382.32816 623.79840
739.0 0.001353 382.20609 727.73291
895.0 0.001117 382.08469 887.86328
1188.0 0.000842 381.96381 1135.49414
1565.0 0.000639 381.84348 1518.52954
1926.0 0.000519 381.72375 1977.27600
2021.0 0.000495 381.60471 2100.22510
1868.0 0.000535 381.48624 1885.45007
2103.0 0.000476 381.36826 2053.47949
2555.0 0.000391 381.25098 2490.25415
2423.0 0.000413 381.13437 2424.46387
1835.0 0.000545 381.01816 1794.92639
1318.0 0.000759 380.90271 1297.21875
1244.0 0.000804 380.78778 1195.96680
1373.0 0.000728 380.67343 1292.82556
1212.0 0.000825 380.55978 1175.57153
915.0 0.001093 380.44659 838.97766
756.0 0.001323 380.33411 681.91559
744.0 0.001344 380.22226 681.72357
733.0 0.001364 380.11087 746.71741
831.0 0.001203 380.00018 863.72076
1051.0 0.000951 379.89001 1055.30579
1452.0 0.000689 379.78055 1367.30847
1809.0 0.000553 379.67160 1752.02283
1701.0 0.000588 379.56329 1771.28467
1270.0 0.000787 379.45560 1362.09949
1154.0 0.000867 379.34842 1231.67175
1410.0 0.000709 379.24197 1417.26294
1830.0 0.000546 379.13611 1803.16870
2184.0 0.000458 379.03073 2149.02783
1997.0 0.000501 378.92606 2042.86511
1357.0 0.000737 378.82196 1429.53589
967.0 0.001034 378.71841 991.91278
889.0 0.001125 378.61554 913.47571
1061.0 0.000943 378.51318 1011.88855
1103.0 0.000907 378.41153 1078.66284
840.0 0.001190 378.31039 857.35944
558.0 0.001792 378.20996 602.53577
444.0 0.002252 378.11008 495.78091
405.0 0.002469 378.01077 458.99814
417.0 0.002398 377.91211 441.83490
411.0 0.002433 377.81409 429.77448
431.0 0.002320 377.71652 422.71988
415.0 0.002410 377.61966 418.84506
405.0 0.002469 377.52344 416.70779
414.0 0.002415 377.42776 416.05417
435.0 0.002299 377.33276 415.91412
439.0 0.002278 377.23831 418.45422
475.0 0.002105 377.14447 423.29346
493.0 0.002028 377.05118 432.30292
513.0 0.001949 376.95859 451.19836
527.0 0.001898 376.86652 490.62030
564.0 0.001773 376.77505 555.47913
651.0 0.001536 376.68423 654.07800
752.0 0.001330 376.59399 787.61072
959.0 0.001043 376.50443 975.53595
1269.0 0.000788 376.41544 1274.73279
1744.0 0.000573 376.32700 1708.80847
1983.0 0.000504 376.23920 1991.40369
1500.0 0.000667 376.15195 1551.55176
1008.0 0.000992 376.06537 1048.30579
887.0 0.001127 375.97937 935.36121
964.0 0.001037 375.89404 1051.49011
1124.0 0.000890 375.80917 1183.36523
962.0 0.001040 375.72498 996.06433
665.0 0.001504 375.64145 662.78894
512.0 0.001953 375.55844 502.93839
443.0 0.002257 375.47607 449.64807
409.0 0.002445 375.39432 427.12570
411.0 0.002433 375.31314 414.13867
400.0 0.002500 375.23254 405.66208
400.0 0.002500 375.15256 399.75281
407.0 0.002457 375.07318 395.43680
424.0 0.002358 374.99448 392.16614
409.0 0.002445 374.91626 389.61435
402.0 0.002488 374.83875 387.57730
385.0 0.002597 374.76181 387.49088
384.0 0.002604 374.68542 386.22498
399.0 0.002506 374.60968 385.18976
393.0 0.002545 374.53448 384.33978
390.0 0.002564 374.45993 383.64276
408.0 0.002451 374.38599 383.83987
410.0 0.002439 374.31265 383.43524
391.0 0.002558 374.23987 383.13565
364.0 0.002747 374.16772 382.93423
409.0 0.002445 374.09613 382.82803
388.0 0.002577 374.02521 390.43561
384.0 0.002604 373.95483 391.05551
392.0 0.002551 373.88504 391.84122
419.0 0.002387 373.81589 390.82758
393.0 0.002545 373.74734 392.13812
421.0 0.002375 373.67929 397.39807
406.0 0.002463 373.61200 399.51636
425.0 0.002353 373.54523 402.04559
391.0 0.002558 373.47903 405.10074
375.0 0.002667 373.41342 407.90204
421.0 0.002375 373.34848 412.64713
385.0 0.002597 373.28406 418.74228
450.0 0.002222 373.22028 426.99142
482.0 0.002075 373.15704 439.59094
501.0 0.001996 373.09451 462.40292
541.0 0.001848 373.03247 503.97214
576.0 0.001736 372.97107 565.62579
663.0 0.001508 372.91019 657.18842
770.0 0.001299 372.84995 781.43097
1031.0 0.000970 372.79031 962.62921
1331.0 0.000751 372.73126 1247.73108
1686.0 0.000593 372.67276 1571.78992
1721.0 0.000581 372.61496 1549.43909
1325.0 0.000755 372.55762 1169.09460
1137.0 0.000880 372.50098 1062.02173
1330.0 0.000752 372.44485 1269.61646
1635.0 0.000612 372.38937 1677.43762
2072.0 0.000483 372.33444 2135.33130
2469.0 0.000405 372.28009 2522.55078
3307.0 0.0003024 372.22635 3221.71313
4826.0 0.0002072 372.17319 4526.77930
5883.0 0.0001700 372.12061 5807.47998
4864.0 0.0002056 372.06860 4982.89209
2947.0 0.0003393 372.01724 2985.69556
2080.0 0.000481 371.96640 2241.25610
2370.0 0.000422 371.91620 2451.58765
3008.0 0.0003324 371.86658 3011.02905
2922.0 0.0003422 371.81747 2966.18921
1881.0 0.000532 371.76898 1824.80652
1014.0 0.000986 371.72110 1019.10797
679.0 0.001473 371.67380 732.57257
600.0 0.001667 371.62708 641.56732
593.0 0.001686 371.58087 610.63544
591.0 0.001692 371.53534 611.99908
635.0 0.001575 371.49033 642.19824
719.0 0.001391 371.44592 706.55939
759.0 0.001318 371.40204 765.17072
696.0 0.001437 371.35886 710.54474
645.0 0.001550 371.31613 627.67340
618.0 0.001618 371.27402 630.36560
672.0 0.001488 371.23251 698.24164
778.0 0.001285 371.19156 809.85596
907.0 0.001103 371.15112 928.24719
1042.0 0.000960 371.11133 1058.16602
1147.0 0.000872 371.07211 1182.41162
1015.0 0.000985 371.03348 1063.76624
831.0 0.001203 370.99536 916.15784
944.0 0.001059 370.95782 966.83771
1146.0 0.000873 370.92090 1177.98401
1454.0 0.000688 370.88449 1508.63965
1689.0 0.000592 370.84869 1690.61719
1269.0 0.000788 370.81345 1325.80298
788.0 0.001269 370.77881 890.63184
684.0 0.001462 370.74469 745.08521
820.0 0.001220 370.71115 784.44183
884.0 0.001131 370.67819 881.96527
910.0 0.001099 370.64578 853.69104
643.0 0.001555 370.61392 636.47833
480.0 0.002083 370.58267 488.98291
453.0 0.002208 370.55191 436.09232
424.0 0.002358 370.52179 415.74142
380.0 0.002632 370.49219 404.73392
369.0 0.002710 370.46320 397.62924
367.0 0.002725 370.43469 392.68018
390.0 0.002564 370.40674 389.05640
385.0 0.002597 370.37943 386.29834
360.0 0.002778 370.35260 384.13766
384.0 0.002604 370.32635 382.40396
377.0 0.002653 370.30069 380.63034
380.0 0.002632 370.27557 379.47324
374.0 0.002674 370.25095 378.49963
373.0 0.002681 370.22693 377.67154
360.0 0.002778 370.20346 376.95956
359.0 0.002786 370.18054 376.16019
365.0 0.002740 370.15814 375.88846
371.0 0.002695 370.13641 374.58600
365.0 0.002740 370.11508 374.24564
352.0 0.002841 370.09433 373.94794
356.0 0.002809 370.07422 373.68716
369.0 0.002710 370.05453 373.58221
366.0 0.002732 370.03552 373.39120
379.0 0.002639 370.01703 372.81601
381.0 0.002625 369.99896 371.48038
362.0 0.002762 369.98157 371.45938
368.0 0.002717 369.96457 371.45358
376.0 0.002660 369.94827 371.46399
377.0 0.002653 369.93243 371.49228
380.0 0.002632 369.91711 370.91461
371.0 0.002695 369.90244 371.02390
359.0 0.002786 369.88824 371.15836
383.0 0.002611 369.87448 371.32535
387.0 0.002584 369.86136 371.53503
379.0 0.002639 369.84875 372.43036
354.0 0.002825 369.83667 372.82034
363.0 0.002755 369.82520 373.33032
375.0 0.002667 369.81415 374.02151
374.0 0.002674 369.80374 375.01456
398.0 0.002513 369.79382 376.63834
382.0 0.002618 369.78433 380.11920
373.0 0.002681 369.77551 386.28693
369.0 0.002710 369.76712 396.06396
388.0 0.002577 369.75934 410.85397
436.0 0.002294 369.75201 433.31717
509.0 0.001965 369.74518 464.74258
562.0 0.001779 369.73901 511.80472
595.0 0.001681 369.73325 551.38812
563.0 0.001776 369.72797 516.30511
456.0 0.002193 369.72336 453.74097
428.0 0.002336 369.71921 433.64609
462.0 0.002165 369.71548 441.48013
451.0 0.002217 369.71240 461.76807
451.0 0.002217 369.70984 466.80292
415.0 0.002410 369.70761 433.21790
465.0 0.002151 369.70609 405.51999
405.0 0.002469 369.70499 396.31540
418.0 0.002392 369.70447 395.43509
412.0 0.002427 369.70438 398.70575
421.0 0.002375 369.70480 407.04227
419.0 0.002387 369.70581 424.05627
435.0 0.002299 369.70728 451.39716
477.0 0.002096 369.70932 492.23663
530.0 0.001887 369.71176 551.29376
625.0 0.001600 369.71478 640.30811
772.0 0.001295 369.71826 768.10864
857.0 0.001167 369.72232 853.50793
796.0 0.001256 369.72675 737.39935
651.0 0.001536 369.73175 603.07690
601.0 0.001664 369.73730 590.49731
686.0 0.001458 369.74329 665.16559
812.0 0.001232 369.74979 793.26837
883.0 0.001133 369.75681 902.25616
990.0 0.001010 369.76425 973.35675
1162.0 0.000861 369.77228 1158.48010
1382.0 0.000724 369.78073 1444.54126
1401.0 0.000714 369.78970 1466.31030
1067.0 0.000937 369.79913 1051.57654
766.0 0.001305 369.80914 794.40222
746.0 0.001340 369.81955 783.86938
859.0 0.001164 369.83051 900.97833
1024.0 0.000977 369.84183 1037.67944
1032.0 0.000969 369.85379 983.11011
887.0 0.001127 369.86618 814.21625
779.0 0.001284 369.87906 725.01923
621.0 0.001610 369.89240 604.20087
516.0 0.001938 369.90616 509.67239
506.0 0.001976 369.92056 485.28949
513.0 0.001949 369.93533 493.90955
543.0 0.001842 369.95059 517.16187
541.0 0.001848 369.96631 511.25748
484.0 0.002066 369.98257 456.31229
433.0 0.002309 369.99924 417.50098
424.0 0.002358 370.01639 404.54953
408.0 0.002451 370.03391 398.78354
398.0 0.002513 370.05209 395.84662
395.0 0.002532 370.07062 394.19275
389.0 0.002571 370.08960 392.73148
386.0 0.002591 370.10913 392.49255
385.0 0.002597 370.12909 392.72519
398.0 0.002513 370.14954 393.38647
424.0 0.002358 370.17041 394.47418
387.0 0.002584 370.19177 396.02121
417.0 0.002398 370.21359 397.79773
425.0 0.002353 370.23584 401.24652
411.0 0.002433 370.25854 404.81824
440.0 0.002273 370.28174 409.44122
486.0 0.002058 370.30542 414.04068
500.0 0.002000 370.32950 422.24173
465.0 0.002151 370.35403 433.52966
526.0 0.001901 370.37900 450.28613
567.0 0.001764 370.40448 477.08276
658.0 0.001520 370.43039 529.43268
771.0 0.001297 370.45673 633.60065
843.0 0.001186 370.48346 800.43054
1150.0 0.000870 370.51074 1069.65601
1529.0 0.000654 370.53845 1435.66846
2174.0 0.000460 370.56653 2018.99817
3275.0 0.0003053 370.59506 2833.30884
3713.0 0.0002693 370.62415 3352.70239
2772.0 0.000361 370.65353 2543.56616
1549.0 0.000646 370.68341 1576.41907
1299.0 0.000770 370.71375 1291.08386
1500.0 0.000667 370.74451 1444.34741
1924.0 0.000520 370.77567 1777.00574
1935.0 0.000517 370.80725 1869.42908
1348.0 0.000742 370.83932 1305.36182
840.0 0.001190 370.87177 801.57397
618.0 0.001618 370.90466 602.93567
562.0 0.001779 370.93799 546.04395
556.0 0.001799 370.97174 533.66071
575.0 0.001739 371.00595 547.12439
610.0 0.001639 371.04053 586.61981
731.0 0.001368 371.07556 653.42902
872.0 0.001147 371.11099 762.27795
1006.0 0.000994 371.14685 897.38525
999.0 0.001001 371.18317 903.32996
769.0 0.001300 371.21991 717.84473
618.0 0.001618 371.25702 603.53735
633.0 0.001580 371.29449 594.04034
705.0 0.001418 371.33240 639.09955
777.0 0.001287 371.37067 699.78223
771.0 0.001297 371.40948 683.86902
688.0 0.001453 371.44870 591.68188
649.0 0.001541 371.48825 545.29175
654.0 0.001529 371.52829 548.49768
726.0 0.001377 371.56860 581.56238
847.0 0.001181 371.60941 655.01056
978.0 0.001022 371.65060 812.39850
1187.0 0.000842 371.69217 1091.12146
1552.0 0.000644 371.73407 1528.87573
2167.0 0.000461 371.77655 2164.09106
3196.0 0.0003129 371.81927 3156.60010
4827.0 0.0002072 371.86249 4578.46436
6167.0 0.0001622 371.90604 5799.28857
5014.0 0.0001994 371.94995 4789.21094
2918.0 0.0003427 371.99432 2817.13623
1894.0 0.000528 372.03909 2059.17407
2065.0 0.000484 372.08420 2201.22461
2730.0 0.000366 372.12973 2766.76636
3337.0 0.0002997 372.17563 3204.59839
2651.0 0.000377 372.22192 2473.80688
1578.0 0.000634 372.26855 1405.45264
996.0 0.001004 372.31558 933.04657
840.0 0.001190 372.36298 816.92291
910.0 0.001099 372.41086 840.56860
1022.0 0.000978 372.45898 942.87122
1213.0 0.000824 372.50760 1142.64380
1649.0 0.000606 372.55649 1447.61011
1908.0 0.000524 372.60577 1686.31946
1632.0 0.000613 372.65549 1481.19666
1304.0 0.000767 372.70551 1230.44214
1207.0 0.000829 372.75589 1230.62170
1537.0 0.000651 372.80673 1453.48425
2052.0 0.000487 372.85782 1823.85486
2220.0 0.000450 372.90933 1937.87732
1638.0 0.000611 372.96118 1426.93250
996.0 0.001004 373.01340 994.89917
895.0 0.001117 373.06601 861.33728
891.0 0.001122 373.11893 889.49786
1142.0 0.000876 373.17227 990.90796
1188.0 0.000842 373.22586 999.08301
987.0 0.001013 373.27991 841.70367
871.0 0.001148 373.33429 778.40881
929.0 0.001076 373.38904 857.79504
1087.0 0.000920 373.44403 1062.75574
1451.0 0.000689 373.49942 1413.62451
2028.0 0.000493 373.55527 1974.41687
2637.0 0.000379 373.61127 2674.33936
2998.0 0.0003336 373.66779 3043.50220
3167.0 0.0003158 373.72455 3247.05615
3678.0 0.0002719 373.78165 3821.12939
3621.0 0.0002762 373.83917 3799.54077
2735.0 0.000366 373.89697 2780.04541
2011.0 0.000497 373.95508 2189.24902
1849.0 0.000541 374.01361 1995.84192
1827.0 0.000547 374.07236 1935.04504
1954.0 0.000512 374.13156 2107.09448
1887.0 0.000530 374.19098 1978.63269
1354.0 0.000739 374.25085 1318.03711
871.0 0.001148 374.31091 838.87787
686.0 0.001458 374.37143 655.30939
635.0 0.001575 374.43216 596.98877
593.0 0.001686 374.49326 591.83118
619.0 0.001616 374.55469 629.18005
762.0 0.001312 374.61642 715.05951
907.0 0.001103 374.67856 847.29871
1111.0 0.000900 374.74088 1064.89087
1473.0 0.000679 374.80359 1376.86584
1768.0 0.000566 374.86661 1617.57019
1483.0 0.000674 374.92993 1359.10852
1018.0 0.000982 374.99353 949.79865
836.0 0.001196 375.05750 814.79205
898.0 0.001114 375.12173 880.05463
1075.0 0.000930 375.18631 1056.02954
1343.0 0.000745 375.25119 1244.21362
1265.0 0.000791 375.31635 1235.34949
1183.0 0.000845 375.38184 1176.63013
1237.0 0.000808 375.44760 1205.54858
1024.0 0.000977 375.51364 1028.72229
810.0 0.001235 375.58008 767.92621
677.0 0.001477 375.64670 672.79950
686.0 0.001458 375.71368 693.38696
802.0 0.001247 375.78091 773.67975
940.0 0.001064 375.84848 876.60828
977.0 0.001024 375.91638 883.92609
913.0 0.001095 375.98447 864.03748
1027.0 0.000974 376.05292 988.03986
1178.0 0.000849 376.12161 1252.09692
1823.0 0.000549 376.19055 1681.95349
2311.0 0.000433 376.25983 2181.53320
2229.0 0.000449 376.32944 2180.40210
1678.0 0.000596 376.39920 1665.82031
1595.0 0.000627 376.46930 1535.59033
2071.0 0.000483 376.53973 1850.99121
2916.0 0.0003429 376.61041 2483.03247
3752.0 0.0002665 376.68130 3075.62769
3097.0 0.0003229 376.75256 2663.23047
1773.0 0.000564 376.82401 1634.00378
1160.0 0.000862 376.89578 1129.26978
1241.0 0.000806 376.96780 1067.38965
1346.0 0.000743 377.04007 1213.97668
1594.0 0.000627 377.11264 1381.09814
1426.0 0.000701 377.18536 1202.86560
951.0 0.001052 377.25851 805.36633
602.0 0.001661 377.33185 589.13318
511.0 0.001957 377.40540 509.09988
505.0 0.001980 377.47934 474.70883
459.0 0.002179 377.55334 456.28381
454.0 0.002203 377.62778 445.20987
455.0 0.002198 377.70239 438.27228
443.0 0.002257 377.77725 436.22525
427.0 0.002342 377.85233 439.83517
461.0 0.002169 377.92767 453.91101
500.0 0.002000 378.00333 482.97266
528.0 0.001894 378.07922 529.61029
570.0 0.001754 378.15524 606.55591
698.0 0.001433 378.23163 720.68970
876.0 0.001142 378.30817 872.30005
945.0 0.001058 378.38504 940.16919
788.0 0.001269 378.46207 763.30499
576.0 0.001736 378.53946 593.40253
524.0 0.001908 378.61694 547.16608
536.0 0.001866 378.69467 570.81390
597.0 0.001675 378.77264 632.93250
656.0 0.001524 378.85089 675.18164
594.0 0.001684 378.92935 597.81152
501.0 0.001996 379.00803 491.69409
472.0 0.002119 379.08694 440.74939
461.0 0.002169 379.16599 430.40656
468.0 0.002137 379.24536 438.08481
469.0 0.002132 379.32495 457.67654
472.0 0.002119 379.40475 495.69861
526.0 0.001901 379.48474 551.18860
568.0 0.001761 379.56500 635.95013
696.0 0.001437 379.64542 707.89569
619.0 0.001616 379.72610 649.85156
524.0 0.001908 379.80701 528.46735
459.0 0.002179 379.88803 477.89764
464.0 0.002155 379.96933 479.71988
466.0 0.002146 380.05081 510.10028
528.0 0.001894 380.13254 545.57129
501.0 0.001996 380.21445 530.75946
453.0 0.002208 380.29654 461.73413
409.0 0.002445 380.37878 418.27789
407.0 0.002457 380.46133 401.78668
387.0 0.002584 380.54404 395.29300
372.0 0.002688 380.62698 391.83350
366.0 0.002732 380.71002 389.64862
404.0 0.002475 380.79333 388.16159
391.0 0.002558 380.87680 386.32672
396.0 0.002525 380.96051 385.58984
390.0 0.002564 381.04434 385.03839
411.0 0.002433 381.12839 384.61850
388.0 0.002577 381.21259 384.29489
385.0 0.002597 381.29706 384.04376
371.0 0.002695 381.38162 383.45163
378.0 0.002646 381.46643 383.33109
417.0 0.002398 381.55136 383.23718
358.0 0.002793 381.63651 383.16983
399.0 0.002506 381.72189 383.12433
402.0 0.002488 381.80734 383.19632
350.0 0.002857 381.89301 383.19107
376.0 0.002660 381.97885 383.37314
386.0 0.002591 382.06488 383.40549
372.0 0.002688 382.15106 383.45016
383.0 0.002611 382.23740 383.50632
386.0 0.002591 382.32397 383.17438
401.0 0.002494 382.41049 383.28305
376.0 0.002660 382.49741 383.48633
370.0 0.002703 382.58441 383.62296
371.0 0.002695 382.67157 383.77457
384.0 0.002604 382.75888 383.94537
393.0 0.002545 382.84641 383.91586
401.0 0.002494 382.93402 384.16705
389.0 0.002571 383.02179 384.49689
401.0 0.002494 383.10971 384.99377
403.0 0.002481 383.19785 385.75391
393.0 0.002545 383.28604 386.83893
391.0 0.002558 383.37442 388.47092
388.0 0.002577 383.46298 390.78903
378.0 0.002646 383.55167 393.60229
393.0 0.002545 383.64053 394.62997
406.0 0.002463 383.72949 392.16400
410.0 0.002439 383.81860 390.91556
377.0 0.002653 383.90781 391.64087
388.0 0.002577 383.99722 394.11407
380.0 0.002632 384.08676 398.85944
399.0 0.002506 384.17636 406.09238
427.0 0.002342 384.26614 416.28296
452.0 0.002212 384.35605 433.05081
504.0 0.001984 384.44614 460.44540
505.0 0.001980 384.53638 495.38257
546.0 0.001832 384.62665 519.24371
581.0 0.001721 384.71701 524.68604
510.0 0.001961 384.80759 508.37344
452.0 0.002212 384.89822 469.01794
438.0 0.002283 384.98911 447.66431
452.0 0.002212 385.08002 452.03378
462.0 0.002165 385.17099 462.56854
464.0 0.002155 385.26221 465.31595
448.0 0.002232 385.35342 461.42883
461.0 0.002169 385.44479 439.05405
391.0 0.002558 385.53632 420.10858
391.0 0.002558 385.62790 411.35635
388.0 0.002577 385.71960 409.17914
400.0 0.002500 385.81146 409.43515
403.0 0.002481 385.90338 411.04456
401.0 0.002494 385.99542 414.14771
450.0 0.002222 386.08746 419.91199
406.0 0.002463 386.17978 430.55499
423.0 0.002364 386.27209 447.14572
435.0 0.002299 386.36450 473.98413
472.0 0.002119 386.45709 512.33026
600.0 0.001667 386.54968 566.74664
627.0 0.001595 386.64243 606.53503
589.0 0.001698 386.73526 571.99939
507.0 0.001972 386.82809 519.78558
514.0 0.001946 386.92111 510.80075
567.0 0.001764 387.01419 534.91437
596.0 0.001678 387.10736 583.79175
724.0 0.001381 387.20065 658.00769
821.0 0.001218 387.29395 752.03406
919.0 0.001088 387.38739 895.77014
1169.0 0.000855 387.48087 1162.33411
1614.0 0.000620 387.57446 1643.94922
2417.0 0.000414 387.66815 2359.85083
3345.0 0.0002990 387.76190 3259.98901
3536.0 0.0002828 387.85571 3516.67896
2461.0 0.000406 387.94962 2397.24658
1473.0 0.000679 388.04355 1469.13916
1164.0 0.000859 388.13757 1228.56360
1287.0 0.000777 388.23172 1362.54041
1613.0 0.000620 388.32581 1717.15210
2007.0 0.000498 388.42007 2036.58972
1820.0 0.000549 388.51434 1744.80591
1158.0 0.000864 388.60873 1083.35876
716.0 0.001397 388.70316 723.18445
564.0 0.001773 388.79770 591.44080
517.0 0.001934 388.89212 540.69226
518.0 0.001931 388.98676 518.94641
540.0 0.001852 389.08142 516.35651
542.0 0.001845 389.17615 539.58197
601.0 0.001664 389.27090 586.38812
716.0 0.001397 389.36575 673.44617
880.0 0.001136 389.46063 806.14050
1199.0 0.000834 389.55557 995.80017
1333.0 0.000750 389.65054 1113.98999
1082.0 0.000924 389.74548 932.84918
778.0 0.001285 389.84058 696.56824
650.0 0.001538 389.93570 610.07440
626.0 0.001597 390.03082 623.89532
695.0 0.001439 390.12607 689.54382
858.0 0.001166 390.22119 774.02887
862.0 0.001160 390.31644 770.56561
684.0 0.001462 390.41180 637.34827
588.0 0.001701 390.50705 545.41223
540.0 0.001852 390.60251 517.59528
570.0 0.001754 390.69781 520.35815
544.0 0.001838 390.79327 536.18915
616.0 0.001623 390.88876 582.65759
749.0 0.001335 390.98419 683.69507
932.0 0.001073 391.07974 879.06409
1201.0 0.000833 391.17529 1194.06702
1592.0 0.000628 391.27081 1710.56226
2314.0 0.000432 391.36646 2472.11865
3337.0 0.0002997 391.46204 3319.95654
3401.0 0.0002940 391.55765 3310.33740
2082.0 0.000480 391.65332 2152.28101
1362.0 0.000734 391.74893 1420.55530
1187.0 0.000842 391.84460 1317.79077
1449.0 0.000690 391.94040 1546.34497
1821.0 0.000549 392.03601 1925.02710
2048.0 0.000488 392.13171 2134.03442
1747.0 0.000572 392.22748 1722.88135
1072.0 0.000933 392.32318 1075.69885
704.0 0.001420 392.41898 755.92059
618.0 0.001618 392.51465 657.89130
573.0 0.001745 392.61038 631.47546
549.0 0.001821 392.70615 592.24969
522.0 0.001916 392.80185 532.25275
485.0 0.002062 392.89764 502.14032
491.0 0.002037 392.99344 503.15372
521.0 0.001919 393.08914 524.17316
573.0 0.001745 393.18484 562.70789
658.0 0.001520 393.28061 605.50696
614.0 0.001629 393.37634 594.08173
540.0 0.001852 393.47211 520.67493
471.0 0.002123 393.56784 476.99744
448.0 0.002232 393.66351 467.70737
489.0 0.002045 393.75919 477.43640
495.0 0.002020 393.85489 498.34140
487.0 0.002053 393.95056 515.05621
495.0 0.002020 394.04620 494.82507
479.0 0.002088 394.14185 460.31546
442.0 0.002262 394.23746 444.32922
417.0 0.002398 394.33304 443.60574
437.0 0.002288 394.42856 451.55182
476.0 0.002101 394.52411 463.36151
475.0 0.002105 394.61966 489.47034
540.0 0.001852 394.71521 525.92828
565.0 0.001770 394.81070 549.57043
552.0 0.001812 394.90607 520.92145
510.0 0.001961 395.00150 485.61588
483.0 0.002070 395.09686 479.07596
487.0 0.002053 395.19223 491.45657
510.0 0.001961 395.28757 522.27118
594.0 0.001684 395.38281 573.91284
707.0 0.001414 395.47806 649.00104
806.0 0.001241 395.57324 757.76605
955.0 0.001047 395.66843 963.07941
1331.0 0.000751 395.76355 1303.17944
1915.0 0.000522 395.85873 1805.68054
2388.0 0.000419 395.95370 2230.88232
2086.0 0.000479 396.04868 2064.65747
1565.0 0.000639 396.14365 1558.65332
1035.0 0.000966 396.23862 1117.22766
885.0 0.001130 396.33340 966.99506
1003.0 0.000997 396.42838 1049.07239
1302.0 0.000768 396.52298 1266.36743
1440.0 0.000694 396.61774 1413.38269
1279.0 0.000782 396.71234 1264.70898
1033.0 0.000968 396.80698 1030.91040
893.0 0.001120 396.90158 887.00055
953.0 0.001049 396.99603 906.01550
1003.0 0.000997 397.09052 988.72650
988.0 0.001012 397.18488 916.48236
766.0 0.001305 397.27917 702.98718
570.0 0.001754 397.37338 585.84589
555.0 0.001802 397.46759 561.39844
555.0 0.001802 397.56177 592.88910
650.0 0.001538 397.65582 648.42188
714.0 0.001401 397.74979 692.68756
681.0 0.001468 397.84372 629.70331
547.0 0.001828 397.93759 526.26257
471.0 0.002123 398.03140 473.01428
441.0 0.002268 398.12506 453.36435
419.0 0.002387 398.21875 445.63962
426.0 0.002347 398.31232 442.29303
410.0 0.002439 398.40576 441.32104
447.0 0.002237 398.49915 442.36899
443.0 0.002257 398.59253 445.31766
469.0 0.002132 398.68579 450.57480
471.0 0.002123 398.77899 459.31223
487.0 0.002053 398.87207 473.53848
549.0 0.001821 398.96512 504.01190
614.0 0.001629 399.05798 558.89465
682.0 0.001466 399.15088 644.19373
858.0 0.001166 399.24365 796.05414
1097.0 0.000912 399.33627 1010.21942
1329.0 0.000752 399.42892 1251.38000
1348.0 0.000742 399.52136 1287.39404
1347.0 0.000742 399.61380 1283.22620
1590.0 0.000629 399.70609 1504.49304
1962.0 0.000510 399.79828 1843.35388
1910.0 0.000524 399.89038 1849.61670
1496.0 0.000668 399.98245 1475.84412
1209.0 0.000827 400.07434 1184.17407
1043.0 0.000959 400.16620 1000.12286
927.0 0.001079 400.25790 931.67303
1001.0 0.000999 400.34955 1009.39233
1089.0 0.000918 400.44107 1128.26099
1023.0 0.000978 400.53250 1044.66003
795.0 0.001258 400.62387 791.53186
629.0 0.001590 400.71500 603.86926
534.0 0.001873 400.80615 523.69806
489.0 0.002045 400.89713 495.51160
481.0 0.002079 400.98804 486.06076
510.0 0.001961 401.07877 480.15878
513.0 0.001949 401.16943 473.45724
495.0 0.002020 401.26001 478.20056
508.0 0.001969 401.35046 504.19785
568.0 0.001761 401.44083 555.10120
587.0 0.001704 401.53098 641.90747
731.0 0.001368 401.62109 779.81488
909.0 0.001100 401.71106 938.86652
955.0 0.001047 401.80096 968.36383
751.0 0.001332 401.89066 762.44006
551.0 0.001815 401.98026 595.11902
505.0 0.001980 402.06973 543.99237
526.0 0.001901 402.15915 563.13739
609.0 0.001642 402.24835 618.59186
658.0 0.001520 402.33752 688.34955
700.0 0.001429 402.42648 693.25854
582.0 0.001718 402.51535 582.17566
472.0 0.002119 402.60406 493.97162
443.0 0.002257 402.69272 455.45490
447.0 0.002237 402.78113 442.73972
425.0 0.002353 402.86942 436.44952
435.0 0.002299 402.95770 432.61060
422.0 0.002370 403.04575 432.51630
402.0 0.002488 403.13367 431.93604
421.0 0.002375 403.22147 432.12704
397.0 0.002519 403.30908 432.19556
430.0 0.002326 403.39667 433.36310
408.0 0.002451 403.48404 435.41394
429.0 0.002331 403.57126 438.09564
474.0 0.002110 403.65839 441.50766
452.0 0.002212 403.74533 445.80621
458.0 0.002183 403.83212 451.19974
478.0 0.002092 403.91876 458.10373
488.0 0.002049 404.00525 467.02289
497.0 0.002012 404.09164 478.80154
514.0 0.001946 404.17786 494.82968
569.0 0.001757 404.26389 517.65729
607.0 0.001647 404.34985 553.13129
677.0 0.001477 404.43561 616.87756
816.0 0.001225 404.52121 741.03839
1058.0 0.000945 404.60669 961.41302
1417.0 0.000706 404.69193 1324.03003
1995.0 0.000501 404.77713 1938.43640
2756.0 0.000363 404.86209 2724.68042
3168.0 0.0003157 404.94690 3209.36353
3029.0 0.0003301 405.03162 2978.02148
3008.0 0.0003324 405.11612 2909.11328
2969.0 0.0003368 405.20047 2866.15674
2325.0 0.000430 405.28464 2210.87451
1779.0 0.000562 405.36871 1793.01599
1833.0 0.000546 405.45251 1858.23926
1969.0 0.000508 405.53622 1978.65308
1784.0 0.000561 405.61969 1796.95068
1698.0 0.000589 405.70313 1690.81946
1605.0 0.000623 405.78625 1606.98303
1248.0 0.000801 405.86929 1189.62793
815.0 0.001227 405.95212 813.50177
638.0 0.001567 406.03479 640.22205
528.0 0.001894 406.11737 570.22491
514.0 0.001946 406.19971 535.85516
494.0 0.002024 406.28180 515.59558
484.0 0.002066 406.36383 503.00842
510.0 0.001961 406.44562 499.01245
518.0 0.001931 406.52725 495.27615
471.0 0.002123 406.60870 494.55930
482.0 0.002075 406.69000 496.67621
491.0 0.002037 406.77106 501.81595
509.0 0.001965 406.85199 510.58908
502.0 0.001992 406.93271 524.20697
543.0 0.001842 407.01321 546.73029
643.0 0.001555 407.09360 579.43066
647.0 0.001546 407.17377 636.73077
752.0 0.001330 407.25378 751.42401
992.0 0.001008 407.33356 985.35065
1321.0 0.000757 407.41327 1378.05200
1935.0 0.000517 407.49268 2045.08789
2825.0 0.000354 407.57187 3005.84155
3727.0 0.0002683 407.65094 3952.62842
3491.0 0.0002865 407.72980 3621.02954
2190.0 0.000457 407.80844 2218.37256
1333.0 0.000750 407.88696 1408.29138
1125.0 0.000889 407.96521 1234.29248
1305.0 0.000766 408.04327 1404.81323
1588.0 0.000630 408.12125 1804.18384
2033.0 0.000492 408.19885 2261.05591
2125.0 0.000471 408.27637 2188.93506
1543.0 0.000648 408.35361 1482.62512
965.0 0.001036 408.43076 1002.81738
829.0 0.001206 408.50763 866.09723
925.0 0.001081 408.58435 937.18604
1132.0 0.000883 408.66083 1149.79712
1439.0 0.000695 408.73712 1565.17810
2022.0 0.000495 408.81320 2131.52710
2482.0 0.000403 408.88907 2578.53418
2106.0 0.000475 408.96478 2147.66895
1327.0 0.000754 409.04022 1352.22693
894.0 0.001119 409.11548 976.03851
830.0 0.001205 409.19052 926.40881
965.0 0.001036 409.26538 1065.18286
1266.0 0.000790 409.34003 1327.60010
1508.0 0.000663 409.41446 1601.13110
1426.0 0.000701 409.48862 1505.51587
1125.0 0.000889 409.56262 1115.27869
813.0 0.001230 409.63641 823.44873
622.0 0.001608 409.70999 654.54285
554.0 0.001805 409.78333 582.18188
549.0 0.001821 409.85648 560.06946
557.0 0.001795 409.92938 565.73236
606.0 0.001650 410.00214 595.60718
660.0 0.001515 410.07458 645.66388
736.0 0.001359 410.14682 715.98181
826.0 0.001211 410.21893 812.93457
1015.0 0.000985 410.29071 1020.67072
1331.0 0.000751 410.36230 1300.41980
1473.0 0.000679 410.43381 1462.31531
1214.0 0.000824 410.50491 1174.04065
836.0 0.001196 410.57581 809.97711
648.0 0.001543 410.64658 660.48840
596.0 0.001678 410.71701 650.30371
689.0 0.001451 410.78726 722.76227
813.0 0.001230 410.85724 845.96240
930.0 0.001075 410.92706 950.48206
885.0 0.001130 410.99664 850.10278
626.0 0.001597 411.06604 643.46265
530.0 0.001887 411.13513 527.37250
497.0 0.002012 411.20401 478.13303
444.0 0.002252 411.27264 458.98303
428.0 0.002336 411.34103 448.95438
449.0 0.002227 411.40927 443.59647
431.0 0.002320 411.47726 441.22501
437.0 0.002288 411.54495 441.80618
436.0 0.002294 411.61243 445.52243
470.0 0.002128 411.67966 447.94653
453.0 0.002208 411.74667 447.67178
433.0 0.002309 411.81345 446.96863
460.0 0.002174 411.87994 454.81418
482.0 0.002075 411.94626 470.30496
469.0 0.002132 412.01233 485.49615
457.0 0.002188 412.07813 478.97131
456.0 0.002193 412.14374 457.93274
463.0 0.002160 412.20905 447.17795
441.0 0.002268 412.27414 441.69678
426.0 0.002347 412.33893 442.83588
403.0 0.002481 412.40356 449.59390
427.0 0.002342 412.46796 458.46881
433.0 0.002309 412.53201 458.66473
427.0 0.002342 412.59586 450.98761
433.0 0.002309 412.65952 450.52911
446.0 0.002242 412.72293 460.73370
459.0 0.002179 412.78598 483.43097
494.0 0.002024 412.84885 520.99908
501.0 0.001996 412.91144 569.70264
521.0 0.001919 412.97385 602.87701
535.0 0.001869 413.03604 588.54962
575.0 0.001739 413.09787 593.64563
697.0 0.001435 413.15948 635.62286
715.0 0.001399 413.22073 662.16779
640.0 0.001563 413.28189 621.37915
570.0 0.001754 413.34274 599.03760
555.0 0.001802 413.40335 628.42358
634.0 0.001577 413.46371 677.37720
739.0 0.001353 413.52377 763.32269
853.0 0.001172 413.58365 877.39563
878.0 0.001139 413.64313 897.02686
778.0 0.001285 413.70245 752.49866
655.0 0.001527 413.76151 636.90167
621.0 0.001610 413.82034 623.72137
676.0 0.001479 413.87888 698.58875
873.0 0.001145 413.93716 861.21521
1133.0 0.000883 413.99518 1131.68457
1422.0 0.000703 414.05289 1471.62390
1588.0 0.000630 414.11038 1687.01331
1383.0 0.000723 414.16757 1447.06982
963.0 0.001038 414.22452 994.67365
717.0 0.001395 414.28128 769.39221
740.0 0.001351 414.33771 746.02454
780.0 0.001282 414.39386 847.70203
1010.0 0.000990 414.44977 1067.48889
1339.0 0.000747 414.50534 1380.52698
1588.0 0.000630 414.56076 1626.96521
1628.0 0.000614 414.61584 1619.32104
1344.0 0.000744 414.67068 1344.22144
973.0 0.001028 414.72528 1032.74438
989.0 0.001011 414.77954 966.58527
1093.0 0.000915 414.83353 1078.50171
1325.0 0.000755 414.88727 1201.19092
1180.0 0.000847 414.94073 1139.67603
998.0 0.001002 414.99399 1043.37830
924.0 0.001082 415.04684 958.96899
794.0 0.001259 415.09955 793.27814
669.0 0.001495 415.15195 698.07819
693.0 0.001443 415.20407 707.51007
718.0 0.001393 415.25592 753.31989
732.0 0.001366 415.30743 723.31152
607.0 0.001647 415.35873 608.04077
537.0 0.001862 415.40973 531.58350
496.0 0.002016 415.46048 502.56711
502.0 0.001992 415.51093 498.75812
513.0 0.001949 415.56116 510.53250
519.0 0.001927 415.61099 543.80304
614.0 0.001629 415.66064 605.90308
734.0 0.001362 415.70999 715.88135
875.0 0.001143 415.75900 863.50500
962.0 0.001040 415.80783 967.91901
1022.0 0.000978 415.85629 922.33264
1030.0 0.000971 415.90454 900.72418
1205.0 0.000830 415.95248 953.79510
1131.0 0.000884 416.00015 903.74585
877.0 0.001140 416.04752 759.99329
717.0 0.001395 416.09460 709.77075
751.0 0.001332 416.14145 733.56122
740.0 0.001351 416.18787 726.64990
741.0 0.001350 416.23419 684.69037
762.0 0.001312 416.28012 688.79352
769.0 0.001300 416.32584 693.09900
673.0 0.001486 416.37115 617.34979
558.0 0.001792 416.41626 541.34088
491.0 0.002037 416.46106 515.24231
495.0 0.002020 416.50558 527.39410
547.0 0.001828 416.54980 570.21985
624.0 0.001603 416.59372 652.25574
701.0 0.001427 416.63742 772.19196
786.0 0.001272 416.68073 871.88306
765.0 0.001307 416.72382 814.09894
675.0 0.001481 416.76657 690.50745
668.0 0.001497 416.80911 672.85742
741.0 0.001350 416.85132 764.24005
938.0 0.001066 416.89319 960.14093
1145.0 0.000873 416.93484 1206.88965
1201.0 0.000833 416.97617 1301.42383
990.0 0.001010 417.01718 1066.43542
753.0 0.001328 417.05792 782.06110
577.0 0.001733 417.09839 638.76709
558.0 0.001792 417.13852 612.21954
610.0 0.001639 417.17847 646.34894
686.0 0.001458 417.21796 737.22345
760.0 0.001316 417.25717 803.39532
713.0 0.001403 417.29614 741.01282
619.0 0.001616 417.33484 600.83014
520.0 0.001923 417.37332 522.57825
473.0 0.002114 417.41144 494.98041
504.0 0.001984 417.44913 492.21097
463.0 0.002160 417.48666 505.88239
550.0 0.001818 417.52386 534.26434
594.0 0.001684 417.56082 585.88599
637.0 0.001570 417.59741 642.38770
692.0 0.001445 417.63367 650.96234
603.0 0.001658 417.66962 604.32715
592.0 0.001689 417.70535 604.03552
668.0 0.001497 417.74075 679.38232
799.0 0.001252 417.77585 821.47076
1074.0 0.000931 417.81067 1057.77454
1304.0 0.000767 417.84512 1228.23096
1142.0 0.000876 417.87939 1108.22021
816.0 0.001225 417.91330 821.88959
638.0 0.001567 417.94684 651.45673
605.0 0.001653 417.98016 608.28259
616.0 0.001623 418.01312 637.87567
723.0 0.001383 418.04587 725.23865
857.0 0.001167 418.07825 868.21729
1001.0 0.000999 418.11029 974.29144
948.0 0.001055 418.14209 976.26538
984.0 0.001016 418.17358 1057.86597
1088.0 0.000919 418.20477 1154.52100
975.0 0.001026 418.23569 1030.60437
738.0 0.001355 418.26617 760.05707
593.0 0.001686 418.29642 609.77661
501.0 0.001996 418.32639 569.74963
525.0 0.001905 418.35605 587.86224
616.0 0.001623 418.38544 645.84619
728.0 0.001374 418.41440 741.34094
773.0 0.001294 418.44312 781.77686
672.0 0.001488 418.47156 680.76947
512.0 0.001953 418.49969 557.45984
469.0 0.002132 418.52750 495.91013
443.0 0.002257 418.55499 471.69385
438.0 0.002283 418.58218 461.11230
444.0 0.002252 418.60913 455.21317
450.0 0.002222 418.63565 452.17877
451.0 0.002217 418.66190 450.77173
466.0 0.002146 418.68793 454.63483
440.0 0.002273 418.71356 455.78641
449.0 0.002227 418.73889 458.03159
471.0 0.002123 418.76392 461.51721
448.0 0.002232 418.78867 465.37350
462.0 0.002165 418.81305 473.75702
478.0 0.002092 418.83722 484.17291
489.0 0.002045 418.86093 499.52603
546.0 0.001832 418.88449 525.94641
588.0 0.001701 418.90762 570.82086
685.0 0.001460 418.93048 663.92303
831.0 0.001203 418.95297 850.30341
1124.0 0.000890 418.97525 1143.54138
1524.0 0.000656 418.99719 1622.97534
2044.0 0.000489 419.01880 2092.66699
1966.0 0.000509 419.04007 2018.02087
1359.0 0.000736 419.06110 1366.51062
886.0 0.001129 419.08179 923.38074
752.0 0.001330 419.10211 780.59271
747.0 0.001339 419.12219 810.66541
864.0 0.001157 419.14194 939.19012
1073.0 0.000932 419.16135 1180.37268
1310.0 0.000763 419.18045 1368.49536
1267.0 0.000789 419.19931 1244.27283
922.0 0.001085 419.21771 925.96906
713.0 0.001403 419.23596 757.23846
774.0 0.001292 419.25385 736.67700
897.0 0.001115 419.27133 831.84979
1023.0 0.000978 419.28857 1073.21497
1432.0 0.000698 419.30551 1465.05066
2070.0 0.000483 419.32205 2109.60889
2732.0 0.000366 419.33838 2691.41016
2587.0 0.000387 419.35434 2524.99414
1762.0 0.000568 419.37003 1735.18494
1245.0 0.000803 419.38535 1313.01172
1272.0 0.000786 419.40045 1327.46594
1568.0 0.000638 419.41516 1611.40186
1866.0 0.000536 419.42950 1865.86047
1969.0 0.000508 419.44357 1981.97449
2029.0 0.000493 419.45737 2062.56396
1924.0 0.000520 419.47073 1921.89661
1697.0 0.000589 419.48395 1734.85461
1710.0 0.000585 419.49680 1786.13037
1703.0 0.000587 419.50931 1740.14648
1384.0 0.000723 419.52145 1446.14880
1103.0 0.000907 419.53333 1182.77686
970.0 0.001031 419.54489 955.58160
882.0 0.001134 419.55618 870.18341
936.0 0.001068 419.56705 938.79266
1140.0 0.000877 419.57761 1155.37793
1437.0 0.000696 419.58801 1438.15845
1710.0 0.000585 419.59790 1652.94470
1757.0 0.000569 419.60757 1612.54102
1427.0 0.000701 419.61694 1297.69238
1042.0 0.000960 419.62598 983.01331
946.0 0.001057 419.63467 906.55432
1104.0 0.000906 419.64310 1052.01428
1479.0 0.000676 419.65112 1383.10034
2077.0 0.000481 419.65894 1946.95984
2656.0 0.000377 419.66632 2514.38306
2568.0 0.000389 419.67340 2422.36304
1808.0 0.000553 419.68027 1637.48523
1114.0 0.000898 419.68677 1067.90222
848.0 0.001179 419.69290 861.67975
859.0 0.001164 419.69879 876.41437
959.0 0.001043 419.70428 1017.63135
1221.0 0.000819 419.70950 1262.93604
1402.0 0.000713 419.71439 1437.26318
1294.0 0.000773 419.71899 1291.16785
942.0 0.001062 419.72330 924.37097
669.0 0.001495 419.72720 686.46472
552.0 0.001812 419.73083 585.41522
524.0 0.001908 419.73416 551.76385
493.0 0.002028 419.73715 545.69586
483.0 0.002070 419.73981 541.26038
479.0 0.002088 419.74219 524.12701
456.0 0.002193 419.74423 503.88211
446.0 0.002242 419.74594 486.18079
450.0 0.002222 419.74734 470.09549
437.0 0.002288 419.74844 463.73730
414.0 0.002415 419.74927 459.09802
448.0 0.002232 419.74966 456.76239
420.0 0.002381 419.74982 454.87875
439.0 0.002278 419.74960 453.27997
435.0 0.002299 419.74918 454.14920
432.0 0.002315 419.74829 456.14304
437.0 0.002288 419.74716 459.07312
494.0 0.002024 419.74576 464.90695
449.0 0.002227 419.74399 471.33878
473.0 0.002114 419.74185 481.05927
484.0 0.002066 419.73947 497.21820
554.0 0.001805 419.73676 519.60284
626.0 0.001597 419.73376 567.97003
727.0 0.001376 419.73032 662.92297
851.0 0.001175 419.72672 828.83691
1156.0 0.000865 419.72269 1071.19873
1531.0 0.000653 419.71841 1431.82434
1815.0 0.000551 419.71375 1635.10010
1526.0 0.000655 419.70886 1354.42871
953.0 0.001049 419.70355 932.64844
750.0 0.001333 419.69797 727.23010
715.0 0.001399 419.69214 685.83862
750.0 0.001333 419.68597 735.51624
883.0 0.001133 419.67941 845.22827
1085.0 0.000922 419.67255 1029.34692
1228.0 0.000814 419.66544 1157.74573
1221.0 0.000819 419.65796 1081.28711
1103.0 0.000907 419.65015 998.68372
1161.0 0.000861 419.64206 1136.60620
1505.0 0.000664 419.63361 1492.79810
2000.0 0.000500 419.62488 2011.24097
2228.0 0.000449 419.61581 2181.50146
1726.0 0.000579 419.60648 1648.93567
1109.0 0.000902 419.59677 1097.41809
892.0 0.001121 419.58679 871.78088
899.0 0.001112 419.57648 868.92676
1016.0 0.000984 419.56592 983.96307
1172.0 0.000853 419.55490 1151.52112
1403.0 0.000713 419.54370 1385.59937
1481.0 0.000675 419.53204 1505.74023
1418.0 0.000705 419.52020 1330.66211
1231.0 0.000812 419.50800 1175.86572
1159.0 0.000863 419.49548 1144.16333
1101.0 0.000908 419.48267 1090.50830
1167.0 0.000857 419.46948 1095.17798
1264.0 0.000791 419.45609 1147.38416
1164.0 0.000859 419.44223 1052.98474
871.0 0.001148 419.42825 841.03143
749.0 0.001335 419.41379 731.03363
738.0 0.001355 419.39908 737.67639
795.0 0.001258 419.38406 775.07184
772.0 0.001295 419.36874 775.47839
845.0 0.001183 419.35309 801.46552
916.0 0.001092 419.33710 893.43011
969.0 0.001032 419.32077 963.59125
948.0 0.001055 419.30426 964.53796
891.0 0.001122 419.28726 883.31476
709.0 0.001410 419.27011 709.00824
592.0 0.001689 419.25253 589.26788
503.0 0.001988 419.23477 542.00940
513.0 0.001949 419.21664 536.99030
506.0 0.001976 419.19812 559.23499
604.0 0.001656 419.17944 602.84613
630.0 0.001587 419.16028 667.70386
707.0 0.001414 419.14084 697.52753
709.0 0.001410 419.12122 679.30444
730.0 0.001370 419.10120 720.74164
853.0 0.001172 419.08087 869.06775
1067.0 0.000937 419.06021 1132.06787
1321.0 0.000757 419.03928 1390.27869
1263.0 0.000792 419.01807 1317.76587
942.0 0.001062 418.99649 947.21210
645.0 0.001550 418.97464 696.52325
560.0 0.001786 418.95248 602.99048
531.0 0.001883 418.92999 601.46191
597.0 0.001675 418.90710 660.56287
720.0 0.001389 418.88397 775.10748
813.0 0.001230 418.86066 912.38556
886.0 0.001129 418.83688 914.26776
765.0 0.001307 418.81284 730.74695
556.0 0.001799 418.78851 577.44067
477.0 0.002096 418.76389 505.82587
479.0 0.002088 418.73895 476.15576
468.0 0.002137 418.71365 462.40054
438.0 0.002283 418.68808 455.00552
427.0 0.002342 418.66226 450.75143
430.0 0.002326 418.63605 448.49454
426.0 0.002347 418.60968 444.47211
430.0 0.002326 418.58279 440.47794
421.0 0.002375 418.55566 442.25375
427.0 0.002342 418.52835 441.54102
424.0 0.002358 418.50061 441.83835
414.0 0.002415 418.47260 443.00439
414.0 0.002415 418.44434 445.21387
442.0 0.002262 418.41565 449.04071
444.0 0.002252 418.38678 455.60440
442.0 0.002262 418.35760 468.75601
476.0 0.002101 418.32806 492.84592
526.0 0.001901 418.29825 536.25751
606.0 0.001650 418.26807 599.38721
664.0 0.001506 418.23764 663.25946
722.0 0.001385 418.20691 722.49506
740.0 0.001351 418.17587 785.44147
775.0 0.001290 418.14459 784.35712
666.0 0.001502 418.11298 700.73859
587.0 0.001704 418.08096 600.53113
547.0 0.001828 418.04877 553.47821
563.0 0.001776 418.01627 556.14685
582.0 0.001718 417.98340 579.20441
598.0 0.001672 417.95026 604.92676
594.0 0.001684 417.91681 638.81537
618.0 0.001618 417.88312 656.32642
591.0 0.001692 417.84906 631.17407
606.0 0.001650 417.81473 589.43323
592.0 0.001689 417.78006 573.00659
588.0 0.001701 417.74521 595.03986
648.0 0.001543 417.70993 664.89734
835.0 0.001198 417.67447 825.11090
1057.0 0.000946 417.63867 1148.18591
1565.0 0.000639 417.60251 1670.37573
2370.0 0.000422 417.56616 2385.23120
2828.0 0.000354 417.52942 2699.89893
2041.0 0.000490 417.49240 2064.16406
1246.0 0.000803 417.45517 1283.43042
852.0 0.001174 417.41754 900.06567
787.0 0.001271 417.37967 794.32721
807.0 0.001239 417.34152 849.86017
982.0 0.001018 417.30304 1033.06006
1223.0 0.000818 417.26422 1342.89282
1525.0 0.000656 417.22519 1597.03333
1467.0 0.000682 417.18588 1429.67249
995.0 0.001005 417.14627 992.98706
712.0 0.001404 417.10629 721.57074
609.0 0.001642 417.06607 610.30261
537.0 0.001862 417.02554 575.69098
549.0 0.001821 416.98474 582.87292
590.0 0.001695 416.94370 625.24554
655.0 0.001527 416.90234 702.59222
670.0 0.001493 416.86060 769.62317
669.0 0.001495 416.81866 743.24792
686.0 0.001458 416.77640 671.96863
661.0 0.001513 416.73389 664.94952
691.0 0.001447 416.69110 710.65814
738.0 0.001355 416.64798 720.73492
692.0 0.001445 416.60458 659.85529
635.0 0.001575 416.56088 623.41101
614.0 0.001629 416.51691 633.36151
622.0 0.001608 416.47263 630.23169
618.0 0.001618 416.42810 590.45599
581.0 0.001721 416.38324 571.57794
599.0 0.001669 416.33817 588.60632
609.0 0.001642 416.29282 607.40558
616.0 0.001623 416.24707 582.89191
591.0 0.001692 416.20111 551.25677
550.0 0.001818 416.15482 544.40680
589.0 0.001698 416.10837 561.58820
643.0 0.001555 416.06155 603.29639
748.0 0.001337 416.01440 689.51947
925.0 0.001081 415.96710 875.62872
1340.0 0.000746 415.91943 1249.08716
1976.0 0.000506 415.87143 1855.14783
2784.0 0.000359 415.82324 2660.19287
3075.0 0.0003252 415.77472 2982.19531
2259.0 0.000443 415.72592 2236.50952
1315.0 0.000760 415.67688 1370.91492
861.0 0.001161 415.62756 947.17242
788.0 0.001269 415.57797 824.93274
776.0 0.001289 415.52808 877.71680
1031.0 0.000970 415.47787 1076.32324
1386.0 0.000722 415.42749 1415.55432
1785.0 0.000560 415.37674 1726.63843
1643.0 0.000609 415.32574 1581.47864
1142.0 0.000876 415.27441 1086.91675
726.0 0.001377 415.22287 754.24847
579.0 0.001727 415.17105 605.70654
547.0 0.001828 415.11899 542.60211
544.0 0.001838 415.06662 510.03268
461.0 0.002169 415.01398 490.07007
476.0 0.002101 414.96103 476.61383
445.0 0.002247 414.90784 467.63794
461.0 0.002169 414.85443 461.55133
419.0 0.002387 414.80075 457.68820
452.0 0.002212 414.74670 455.82568
465.0 0.002151 414.69241 456.09320
479.0 0.002088 414.63785 459.96915
486.0 0.002058 414.58313 474.62415
542.0 0.001845 414.52792 501.11978
569.0 0.001757 414.47263 555.75415
672.0 0.001488 414.41702 637.09161
792.0 0.001263 414.36121 723.72760
808.0 0.001238 414.30499 716.61340
637.0 0.001570 414.24854 607.23724
540.0 0.001852 414.19189 523.97113
462.0 0.002165 414.13495 486.01471
477.0 0.002096 414.07773 479.84711
477.0 0.002096 414.02023 492.14047
525.0 0.001905 413.96249 522.84045
583.0 0.001715 413.90451 567.79297
623.0 0.001605 413.84616 596.85443
576.0 0.001736 413.78769 565.66602
490.0 0.002041 413.72885 514.09430
475.0 0.002105 413.66983 490.40918
503.0 0.001988 413.61053 485.34607
532.0 0.001880 413.55090 498.20963
521.0 0.001919 413.49106 523.00061
522.0 0.001916 413.43100 553.57074
532.0 0.001880 413.37067 563.22369
548.0 0.001825 413.31003 545.33142
547.0 0.001828 413.24918 536.98083
547.0 0.001828 413.18799 550.42157
606.0 0.001650 413.12662 585.20709
709.0 0.001410 413.06500 650.65991
871.0 0.001148 413.00311 781.21698
1085.0 0.000922 412.94092 1042.53809
1510.0 0.000662 412.87851 1489.42834
2136.0 0.000468 412.81583 2136.52832
2632.0 0.000380 412.75290 2691.68726
2639.0 0.000379 412.68979 2645.43994
2482.0 0.000403 412.62634 2416.36646
2233.0 0.000448 412.56268 2240.06567
1684.0 0.000594 412.49872 1731.85474
1298.0 0.000770 412.43457 1257.61182
1101.0 0.000908 412.37009 1119.45105
1244.0 0.000804 412.30539 1247.20886
1451.0 0.000689 412.24051 1531.23779
1655.0 0.000604 412.17529 1694.19299
1594.0 0.000627 412.10989 1577.18579
1486.0 0.000673 412.04425 1494.51575
1329.0 0.000752 411.97830 1381.77173
1223.0 0.000818 411.91208 1162.59473
1097.0 0.000912 411.84570 1107.89868
1232.0 0.000812 411.77899 1269.17444
1433.0 0.000698 411.71207 1491.28931
1332.0 0.000751 411.64493 1410.20032
986.0 0.001014 411.57755 1037.82751
727.0 0.001376 411.50992 774.71466
619.0 0.001616 411.44202 672.93445
683.0 0.001464 411.37390 674.44482
791.0 0.001264 411.30554 762.97974
973.0 0.001028 411.23691 940.17462
1146.0 0.000873 411.16803 1170.51807
1232.0 0.000812 411.09897 1251.06787
1058.0 0.000945 411.02960 1030.04956
782.0 0.001279 410.96002 756.30664
579.0 0.001727 410.89023 607.92188
502.0 0.001992 410.82016 551.62207
492.0 0.002033 410.74991 542.89935
549.0 0.001821 410.67938 563.73865
585.0 0.001709 410.60864 593.66119
633.0 0.001580 410.53763 625.55219
636.0 0.001572 410.46640 585.73889
579.0 0.001727 410.39496 524.86847
475.0 0.002105 410.32327 493.48947
461.0 0.002169 410.25131 487.36520
509.0 0.001965 410.17911 500.66254
562.0 0.001779 410.10675 542.61005
591.0 0.001692 410.03415 631.93896
672.0 0.001488 409.96130 768.53467
832.0 0.001202 409.88815 912.41364
897.0 0.001115 409.81482 942.06970
729.0 0.001372 409.74133 751.90985
584.0 0.001712 409.66754 595.16522
527.0 0.001898 409.59354 525.80487
504.0 0.001984 409.51929 508.26193
498.0 0.002008 409.44479 520.91595
543.0 0.001842 409.37015 569.12970
614.0 0.001629 409.29523 638.77911
643.0 0.001555 409.22012 715.98828
678.0 0.001475 409.14471 722.01221
674.0 0.001484 409.06909 664.87634
681.0 0.001468 408.99335 655.60693
774.0 0.001292 408.91733 687.13824
739.0 0.001353 408.84106 670.22113
630.0 0.001587 408.76453 578.21252
544.0 0.001838 408.68790 514.52295
531.0 0.001883 408.61096 488.89529
500.0 0.002000 408.53381 484.99884
486.0 0.002058 408.45645 495.99127
516.0 0.001938 408.37891 522.71436
553.0 0.001808 408.30112 559.66010
629.0 0.001590 408.22305 599.78705
664.0 0.001506 408.14490 603.78619
652.0 0.001534 408.06650 588.45465
667.0 0.001499 407.98776 610.98560
767.0 0.001304 407.90891 702.99725
911.0 0.001098 407.82986 923.11395
1267.0 0.000789 407.75058 1337.44128
1916.0 0.000522 407.67108 1863.71606
2484.0 0.000403 407.59128 2349.86353
2261.0 0.000442 407.51129 2138.44849
1434.0 0.000697 407.43121 1413.92029
977.0 0.001024 407.35086 946.03845
755.0 0.001325 407.27029 761.38324
689.0 0.001451 407.18954 726.46405
758.0 0.001319 407.10855 797.01807
903.0 0.001107 407.02740 984.51227
1152.0 0.000868 406.94598 1232.11084
1384.0 0.000723 406.86435 1444.42822
1391.0 0.000719 406.78253 1284.01709
993.0 0.001007 406.70056 948.94440
825.0 0.001212 406.61832 775.59320
780.0 0.001282 406.53592 734.35925
769.0 0.001300 406.45325 722.92004
659.0 0.001517 406.37039 640.57111
569.0 0.001757 406.28745 571.10516
575.0 0.001739 406.20419 544.67426
571.0 0.001751 406.12073 542.44421
538.0 0.001859 406.03711 530.34894
512.0 0.001953 405.95325 515.67871
533.0 0.001876 405.86923 521.96057
572.0 0.001748 405.78494 540.34021
532.0 0.001880 405.70059 548.72021
517.0 0.001934 405.61597 516.49060
474.0 0.002110 405.53113 490.79904
461.0 0.002169 405.44608 483.95914
486.0 0.002058 405.36093 486.84360
482.0 0.002075 405.27551 482.37863
462.0 0.002165 405.18988 475.43497
455.0 0.002198 405.10410 478.67041
531.0 0.001883 405.01804 496.47516
569.0 0.001757 404.93195 537.06836
618.0 0.001618 404.84552 631.60327
792.0 0.001263 404.75900 779.49298
997.0 0.001003 404.67233 939.42871
1031.0 0.000970 404.58533 1001.39435
840.0 0.001190 404.49823 819.79913
661.0 0.001513 404.41092 652.58154
586.0 0.001706 404.32339 582.67010
584.0 0.001712 404.23569 580.88696
670.0 0.001493 404.14783 638.60950
852.0 0.001174 404.05981 791.20874
1047.0 0.000955 403.97159 1074.50134
1421.0 0.000704 403.88315 1421.43616
1708.0 0.000585 403.79456 1690.10425
1480.0 0.000676 403.70572 1457.59912
1086.0 0.000921 403.61679 1003.38275
770.0 0.001299 403.52768 741.72095
634.0 0.001577 403.43832 657.19727
661.0 0.001513 403.34875 673.13885
784.0 0.001276 403.25903 753.22205
879.0 0.001138 403.16928 883.57928
916.0 0.001092 403.07925 973.05786
991.0 0.001009 402.98904 1031.85864
919.0 0.001088 402.89856 941.65814
777.0 0.001287 402.80801 758.81866
626.0 0.001597 402.71729 648.75757
537.0 0.001862 402.62634 583.79858
470.0 0.002128 402.53525 556.73450
601.0 0.001664 402.44391 558.80786
547.0 0.001828 402.35254 570.45563
527.0 0.001898 402.26096 553.56274
542.0 0.001845 402.16913 532.10388
521.0 0.001919 402.07721 540.95392
577.0 0.001733 401.98505 584.19873
699.0 0.001431 401.89276 676.79578
895.0 0.001117 401.80029 821.28906
1018.0 0.000982 401.70773 1012.82880
1182.0 0.000846 401.61493 1145.48718
1088.0 0.000919 401.52197 1081.41675
831.0 0.001203 401.42880 835.19092
639.0 0.001565 401.33557 653.65796
533.0 0.001876 401.24210 578.86328
555.0 0.001802 401.14853 569.26227
611.0 0.001637 401.05472 608.75275
727.0 0.001376 400.96082 704.58044
875.0 0.001143 400.86667 866.64398
1024.0 0.000977 400.77240 1077.18091
1184.0 0.000845 400.67798 1251.62549
1336.0 0.000749 400.58337 1321.98279
1168.0 0.000856 400.48868 1197.31506
868.0 0.001152 400.39380 881.28119
628.0 0.001592 400.29877 667.92273
542.0 0.001845 400.20355 574.10095
515.0 0.001942 400.10815 546.27966
546.0 0.001832 400.01266 557.84247
590.0 0.001695 399.91702 614.00702
648.0 0.001543 399.82117 709.60553
736.0 0.001359 399.72516 814.77271
780.0 0.001282 399.62906 843.33295
746.0 0.001340 399.53271 760.00818
732.0 0.001366 399.43631 756.57404
840.0 0.001190 399.33972 890.92706
1038.0 0.000963 399.24301 1093.46680
1188.0 0.000842 399.14615 1249.29736
1073.0 0.000932 399.04910 1093.07751
806.0 0.001241 398.95193 837.09998
714.0 0.001401 398.85464 708.90765
679.0 0.001473 398.75720 669.65649
611.0 0.001637 398.65958 626.60071
578.0 0.001730 398.56177 605.98846
617.0 0.001621 398.46387 653.45990
681.0 0.001468 398.36584 745.41266
793.0 0.001261 398.26767 829.66815
817.0 0.001224 398.16928 777.41229
625.0 0.001600 398.07089 641.04865
562.0 0.001779 397.97229 561.99139
523.0 0.001912 397.87354 534.14319
521.0 0.001919 397.77469 505.64618
525.0 0.001905 397.67557 472.21796
418.0 0.002392 397.57648 453.97922
407.0 0.002457 397.47717 448.62988
463.0 0.002160 397.37778 455.97552
471.0 0.002123 397.27820 473.29761
512.0 0.001953 397.17847 497.96719
556.0 0.001799 397.07867 518.71558
534.0 0.001873 396.97864 534.34027
588.0 0.001701 396.87851 509.61548
467.0 0.002141 396.77838 466.35330
449.0 0.002227 396.67801 441.33517
396.0 0.002525 396.57745 431.80408
448.0 0.002232 396.47693 432.49069
445.0 0.002247 396.37613 439.27164
445.0 0.002247 396.27521 451.15170
470.0 0.002128 396.17426 462.29907
490.0 0.002041 396.07312 473.02805
451.0 0.002217 395.97183 465.83087
446.0 0.002242 395.87045 445.08533
441.0 0.002268 395.76898 431.64539
422.0 0.002370 395.66733 427.17322
425.0 0.002353 395.56555 427.69910
407.0 0.002457 395.46368 431.84161
426.0 0.002347 395.36172 439.59857
455.0 0.002198 395.25958 453.21207
488.0 0.002049 395.15735 478.99121
499.0 0.002004 395.05496 529.91144
608.0 0.001645 394.95248 635.56134
799.0 0.001252 394.84998 811.13586
960.0 0.001042 394.74725 1008.56860
1025.0 0.000976 394.64441 1103.96265
903.0 0.001107 394.54141 907.08014
690.0 0.001449 394.43839 678.49872
575.0 0.001739 394.33524 560.91376
519.0 0.001927 394.23193 524.59601
544.0 0.001838 394.12851 532.55322
598.0 0.001672 394.02493 575.21753
658.0 0.001520 393.92139 652.08466
712.0 0.001404 393.81769 740.08038
751.0 0.001332 393.71381 811.77869
710.0 0.001408 393.60989 751.22821
624.0 0.001603 393.50574 615.91479
547.0 0.001828 393.40164 534.16052
527.0 0.001898 393.29739 511.93402
515.0 0.001942 393.19299 536.62158
568.0 0.001761 393.08850 609.24805
719.0 0.001391 392.98386 717.76715
812.0 0.001232 392.87918 811.62360
726.0 0.001377 392.77438 781.52551
607.0 0.001647 392.66946 641.44458
520.0 0.001923 392.56448 537.97284
478.0 0.002092 392.45935 488.37177
470.0 0.002128 392.35413 471.86292
452.0 0.002212 392.24881 475.31082
479.0 0.002088 392.14337 499.86679
537.0 0.001862 392.03790 547.48071
571.0 0.001751 391.93231 602.28119
560.0 0.001786 391.82657 624.33112
573.0 0.001745 391.72086 570.64233
522.0 0.001916 391.61499 519.88428
524.0 0.001908 391.50894 506.23685
512.0 0.001953 391.40283 526.69604
630.0 0.001587 391.29672 588.01599
719.0 0.001391 391.19043 691.38849
901.0 0.001110 391.08411 828.63007
963.0 0.001038 390.97760 934.76825
1046.0 0.000956 390.87103 1011.94843
1007.0 0.000993 390.76443 1018.24561
1012.0 0.000988 390.65768 1033.64954
1067.0 0.000937 390.55087 1001.05292
817.0 0.001224 390.44400 825.68958
742.0 0.001348 390.33698 702.17395
709.0 0.001410 390.22989 687.55609
727.0 0.001376 390.12280 752.70349
922.0 0.001085 390.01550 859.94733
1080.0 0.000926 389.90817 999.48816
1297.0 0.000771 389.80075 1188.54248
1575.0 0.000635 389.69324 1423.30957
1804.0 0.000554 389.58572 1636.39380
1730.0 0.000578 389.47797 1524.24280
1419.0 0.000705 389.37024 1316.23169
1180.0 0.000847 389.26242 1112.70300
904.0 0.001106 389.15460 861.66400
726.0 0.001377 389.04657 709.92072
661.0 0.001513 388.93854 662.51019
675.0 0.001481 388.83035 690.49005
840.0 0.001190 388.72220 778.73431
990.0 0.001010 388.61386 892.36597
967.0 0.001034 388.50555 935.18854
934.0 0.001071 388.39713 886.74506
874.0 0.001144 388.28857 857.89990
807.0 0.001239 388.18002 810.67377
745.0 0.001342 388.07132 818.28180
790.0 0.001266 387.96262 891.50403
824.0 0.001214 387.85385 932.35004
738.0 0.001355 387.74496 801.25842
616.0 0.001623 387.63608 654.02832
566.0 0.001767 387.52707 588.91376
578.0 0.001730 387.41797 600.35901
631.0 0.001585 387.30884 678.82159
775.0 0.001290 387.19962 802.42505
926.0 0.001080 387.09033 922.49048
896.0 0.001116 386.98099 923.66815
761.0 0.001314 386.87161 853.54456
675.0 0.001481 386.76215 760.75934
597.0 0.001675 386.65262 652.51312
547.0 0.001828 386.54297 600.83081
598.0 0.001672 386.43338 615.55902
683.0 0.001464 386.32370 706.44366
829.0 0.001206 386.21390 886.39496
1093.0 0.000915 386.10403 1118.46606
1289.0 0.000776 385.99420 1295.02026
1297.0 0.000771 385.88422 1286.41272
1280.0 0.000781 385.77426 1340.36377
1533.0 0.000652 385.66422 1537.09668
1603.0 0.000624 385.55408 1654.78613
1339.0 0.000747 385.44391 1336.10718
898.0 0.001114 385.33368 956.70319
685.0 0.001460 385.22339 776.97717
690.0 0.001449 385.11307 753.20831
776.0 0.001289 385.00266 798.61176
791.0 0.001264 384.89221 829.81836
793.0 0.001261 384.78183 836.41650
876.0 0.001142 384.67120 911.56372
973.0 0.001028 384.56070 1020.19281
986.0 0.001014 384.44998 994.99725
769.0 0.001300 384.33932 788.62585
641.0 0.001560 384.22861 631.06366
583.0 0.001715 384.11786 570.42584
571.0 0.001751 384.00702 585.21606
605.0 0.001653 383.89609 657.17914
710.0 0.001408 383.78516 746.00806
804.0 0.001244 383.67419 771.83691
684.0 0.001462 383.56329 660.04358
535.0 0.001869 383.45221 549.33551
474.0 0.002110 383.34113 491.85315
465.0 0.002151 383.22992 471.17545
449.0 0.002227 383.11880 470.33136
504.0 0.001984 383.00760 487.23846
528.0 0.001894 382.89636 531.08990
608.0 0.001645 382.78506 610.46588
732.0 0.001366 382.67371 724.06421
834.0 0.001199 382.56241 831.64270
931.0 0.001074 382.45096 898.70471
932.0 0.001073 382.33957 890.18665
753.0 0.001328 382.22812 725.05927
599.0 0.001669 382.11664 572.91113
497.0 0.002012 382.00504 494.68121
436.0 0.002294 381.89352 463.74023
436.0 0.002294 381.78189 456.44638
479.0 0.002088 381.67023 468.06192
534.0 0.001873 381.55859 505.36200
574.0 0.001742 381.44690 566.00018
626.0 0.001597 381.33517 622.71851
642.0 0.001558 381.22345 610.09918
542.0 0.001845 381.11176 530.54449
447.0 0.002237 380.99988 471.89352
427.0 0.002342 380.88800 448.72037
434.0 0.002304 380.77618 449.06433
464.0 0.002155 380.66431 469.03729
501.0 0.001996 380.55237 521.39130
577.0 0.001733 380.44046 613.65143
735.0 0.001361 380.32852 713.02557
720.0 0.001389 380.21649 735.48444
612.0 0.001634 380.10449 622.64874
492.0 0.002033 379.99249 515.19843
490.0 0.002041 379.88040 459.86914
433.0 0.002309 379.76840 439.09534
416.0 0.002404 379.65637 434.68445
388.0 0.002577 379.54425 444.11362
447.0 0.002237 379.43210 472.81766
466.0 0.002146 379.31995 520.29626
517.0 0.001934 379.20779 565.11163
538.0 0.001859 379.09564 556.85382
531.0 0.001883 378.98349 494.88483
480.0 0.002083 378.87125 446.74585
456.0 0.002193 378.75906 424.14856
427.0 0.002342 378.64679 415.30048
424.0 0.002358 378.53464 412.39008
393.0 0.002545 378.42239 412.44501
409.0 0.002445 378.31012 414.73590
407.0 0.002457 378.19778 419.38904
427.0 0.002342 378.08560 427.16736
457.0 0.002188 377.97330 440.48074
459.0 0.002179 377.86099 463.21472
535.0 0.001869 377.74866 508.52689
612.0 0.001634 377.63635 605.66650
765.0 0.001307 377.52408 786.09589
985.0 0.001015 377.41174 1013.59235
1054.0 0.000949 377.29938 1159.13171
997.0 0.001003 377.18704 1021.60437
800.0 0.001250 377.07471 823.96539
788.0 0.001269 376.96240 754.21405
729.0 0.001372 376.85007 757.93164
676.0 0.001479 376.73773 712.46783
612.0 0.001634 376.62537 625.24713
566.0 0.001767 376.51297 600.55225
625.0 0.001600 376.40060 658.18335
710.0 0.001408 376.28830 750.88892
765.0 0.001307 376.17596 794.22064
714.0 0.001401 376.06357 701.06750
629.0 0.001590 375.95129 605.30304
594.0 0.001684 375.83893 574.06873
601.0 0.001664 375.72659 571.00024
519.0 0.001927 375.61429 534.34009
461.0 0.002169 375.50198 478.94727
422.0 0.002370 375.38962 443.61996
406.0 0.002463 375.27734 428.07510
408.0 0.002451 375.16504 422.11588
424.0 0.002358 375.05270 422.28839
447.0 0.002237 374.94040 429.29269
473.0 0.002114 374.82809 449.06870
513.0 0.001949 374.71588 494.51468
548.0 0.001825 374.60367 561.96509
597.0 0.001675 374.49139 623.37347
613.0 0.001631 374.37912 612.14520
557.0 0.001795 374.26691 532.26666
465.0 0.002151 374.15472 473.05649
432.0 0.002315 374.04248 447.15421
419.0 0.002387 373.93030 441.91431
460.0 0.002174 373.81818 448.69388
452.0 0.002212 373.70602 465.75250
492.0 0.002033 373.59390 497.98215
548.0 0.001825 373.48181 542.65259
609.0 0.001642 373.36969 596.81213
635.0 0.001575 373.25760 645.88306
710.0 0.001408 373.14545 733.49200
883.0 0.001133 373.03348 921.79016
1035.0 0.000966 372.92151 1137.46948
1083.0 0.000923 372.80945 1178.73291
848.0 0.001179 372.69745 929.78308
619.0 0.001616 372.58548 696.71887
524.0 0.001908 372.47351 579.25433
543.0 0.001842 372.36169 537.81268
559.0 0.001789 372.24976 534.43909
550.0 0.001818 372.13788 555.24481
617.0 0.001621 372.02606 612.99402
687.0 0.001456 371.91425 725.42358
824.0 0.001214 371.80237 858.78571
977.0 0.001024 371.69064 928.14142
901.0 0.001110 371.57889 918.94305
968.0 0.001033 371.46719 1024.17200
1221.0 0.000819 371.35553 1249.56982
1315.0 0.000760 371.24380 1401.40015
1197.0 0.000835 371.13226 1200.74426
856.0 0.001168 371.02060 897.42047
716.0 0.001397 370.90903 726.05664
654.0 0.001529 370.79761 654.53571
661.0 0.001513 370.68610 603.75586
565.0 0.001770 370.57455 579.24927
635.0 0.001575 370.46317 609.53790
689.0 0.001451 370.35175 711.60315
792.0 0.001263 370.24036 868.72125
896.0 0.001116 370.12909 980.04077
859.0 0.001164 370.01776 910.88776
759.0 0.001318 369.90652 765.48798
706.0 0.001416 369.79529 677.98889
685.0 0.001460 369.68411 665.59277
731.0 0.001368 369.57303 714.19409
866.0 0.001155 369.46188 869.54504
1101.0 0.000908 369.35080 1179.71448
1417.0 0.000706 369.23978 1554.14844
1593.0 0.000628 369.12881 1718.89026
1404.0 0.000712 369.01788 1433.84888
1152.0 0.000868 368.90695 1112.63306
964.0 0.001037 368.79608 908.00342
786.0 0.001272 368.68521 748.73364
658.0 0.001520 368.57449 663.17822
650.0 0.001538 368.46378 659.00623
720.0 0.001389 368.35312 743.87567
895.0 0.001117 368.24243 925.94043
1078.0 0.000928 368.13181 1143.67761
1139.0 0.000878 368.02127 1229.43762
1020.0 0.000980 367.91080 1058.23767
853.0 0.001172 367.80035 873.11627
784.0 0.001276 367.68985 782.74878
785.0 0.001274 367.57956 760.41064
801.0 0.001248 367.46927 817.79602
967.0 0.001034 367.35904 944.15161
1089.0 0.000918 367.24878 1095.11548
1315.0 0.000760 367.13864 1259.64990
1558.0 0.000642 367.02853 1587.02002
2133.0 0.000469 366.91852 2144.38110
2870.0 0.0003484 366.80850 2799.16821
3225.0 0.0003101 366.69846 3027.13477
2464.0 0.000406 366.58868 2294.64673
1545.0 0.000647 366.47873 1491.64954
1095.0 0.000913 366.36905 1074.00171
855.0 0.001170 366.25934 939.08923
887.0 0.001127 366.14960 932.14752
1005.0 0.000995 366.04001 963.40686
1075.0 0.000930 365.93036 1063.50342
1207.0 0.000829 365.82092 1278.27759
1583.0 0.000632 365.71152 1582.55042
1836.0 0.000545 365.60214 1745.19678
1515.0 0.000660 365.49274 1424.38379
1079.0 0.000927 365.38351 979.71771
739.0 0.001353 365.27432 710.19708
601.0 0.001664 365.16519 586.00574
554.0 0.001805 365.05606 532.96283
502.0 0.001992 364.94708 507.97650
530.0 0.001887 364.83810 487.89056
477.0 0.002096 364.72922 464.19223
464.0 0.002155 364.62033 444.32944
445.0 0.002247 364.51166 432.94522
446.0 0.002242 364.40286 424.65543
474.0 0.002110 364.29422 418.49863
449.0 0.002227 364.18573 417.57928
448.0 0.002232 364.07721 416.70175
427.0 0.002342 363.96875 417.80066
465.0 0.002151 363.86035 420.96332
440.0 0.002273 363.75208 429.20621
461.0 0.002169 363.64386 446.20090
504.0 0.001984 363.53568 484.19455
591.0 0.001692 363.42758 560.41724
685.0 0.001460 363.31958 666.35004
782.0 0.001279 363.21158 756.93976
715.0 0.001399 363.10367 721.92957
631.0 0.001585 362.99591 605.73480
607.0 0.001647 362.88818 536.28784
613.0 0.001631 362.78049 531.79370
662.0 0.001511 362.67288 580.73169
757.0 0.001321 362.56534 652.06433
792.0 0.001263 362.45795 689.70062
738.0 0.001355 362.35059 664.95398
712.0 0.001404 362.24329 660.43365
733.0 0.001364 362.13605 703.27869
740.0 0.001351 362.02890 762.15491
826.0 0.001211 361.92181 823.81622
952.0 0.001050 361.81488 904.21649
921.0 0.001086 361.70795 903.88855
792.0 0.001263 361.60110 785.26624
722.0 0.001385 361.49435 702.04449
715.0 0.001399 361.38766 678.47406
733.0 0.001364 361.28107 675.86151
786.0 0.001272 361.17456 730.71942
908.0 0.001101 361.06808 920.03174
1231.0 0.000812 360.96176 1260.37610
1492.0 0.000670 360.85550 1600.54333
1508.0 0.000663 360.74927 1603.45544
1200.0 0.000833 360.64316 1249.76868
865.0 0.001156 360.53708 896.09882
657.0 0.001522 360.43115 674.28741
544.0 0.001838 360.32535 570.27600
527.0 0.001898 360.21957 533.55267
552.0 0.001812 360.11389 542.78210
596.0 0.001678 360.00833 607.35980
670.0 0.001493 359.90277 742.27618
851.0 0.001175 359.79736 900.26111
879.0 0.001138 359.69199 945.45905
751.0 0.001332 359.58670 779.33911
588.0 0.001701 359.48157 600.07257
493.0 0.002028 359.37646 498.54849
467.0 0.002141 359.27151 453.53043
478.0 0.002092 359.16663 434.36481
431.0 0.002320 359.06183 422.85776
411.0 0.002433 358.95709 410.00409
441.0 0.002268 358.85248 399.12152
399.0 0.002506 358.74786 392.27426
395.0 0.002532 358.64346 390.31448
425.0 0.002353 358.53912 389.26569
377.0 0.002653 358.43484 389.44522
407.0 0.002457 358.33069 395.85452
441.0 0.002268 358.22659 407.75894
435.0 0.002299 358.12265 418.29294
433.0 0.002309 358.01874 415.01340
436.0 0.002294 357.91495 403.03525
415.0 0.002410 357.81125 393.36365
443.0 0.002257 357.70770 392.29956
432.0 0.002315 357.60416 397.02679
426.0 0.002347 357.50073 396.68164
419.0 0.002387 357.39746 391.28168
404.0 0.002475 357.29422 387.29840
393.0 0.002545 357.19116 389.71915
426.0 0.002347 357.08820 393.45490
449.0 0.002227 356.98514 389.12045
467.0 0.002141 356.88242 382.70990
449.0 0.002227 356.77966 381.20270
424.0 0.002358 356.67709 383.70618
419.0 0.002387 356.57458 388.79877
415.0 0.002410 356.47214 390.68430
417.0 0.002398 356.36975 389.57507
418.0 0.002392 356.26761 389.63077
414.0 0.002415 356.16550 393.62653
431.0 0.002320 356.06348 400.89902
464.0 0.002155 355.96155 413.31635
482.0 0.002075 355.85980 436.43460
489.0 0.002045 355.75815 484.08041
535.0 0.001869 355.65649 583.75409
646.0 0.001548 355.55502 750.22131
800.0 0.001250 355.45367 887.59955
854.0 0.001171 355.35236 806.66241
749.0 0.001335 355.25119 650.58807
618.0 0.001618 355.15024 564.08704
595.0 0.001681 355.04919 556.42291
672.0 0.001488 354.94839 629.68872
786.0 0.001272 354.84753 814.86603
984.0 0.001016 354.74695 1109.25586
1162.0 0.000861 354.64648 1273.61035
1163.0 0.000860 354.54605 1105.38147
1004.0 0.000996 354.44574 928.43933
805.0 0.001242 354.34558 798.65955
676.0 0.001479 354.24545 655.78741
630.0 0.001587 354.14554 560.62744
549.0 0.001821 354.04568 522.01935
521.0 0.001919 353.94586 531.61359
582.0 0.001718 353.84625 600.00476
688.0 0.001453 353.74670 751.29315
875.0 0.001143 353.64731 950.11633
1022.0 0.000978 353.54807 984.66998
977.0 0.001024 353.44879 810.61273
781.0 0.001280 353.34976 644.32928
663.0 0.001508 353.25079 573.32013
595.0 0.001681 353.15198 587.43665
638.0 0.001567 353.05331 660.82538
705.0 0.001418 352.95462 704.28217
761.0 0.001314 352.85614 675.87250
768.0 0.001302 352.75778 670.33197
707.0 0.001414 352.65948 671.12866
694.0 0.001441 352.56134 638.53662
672.0 0.001488 352.46335 594.96729
613.0 0.001631 352.36542 539.15491
580.0 0.001724 352.26770 511.33401
561.0 0.001783 352.16998 517.51514
577.0 0.001733 352.07239 562.00403
637.0 0.001570 351.97491 632.82751
732.0 0.001366 351.87759 705.65076
790.0 0.001266 351.78043 832.12903
1017.0 0.000983 351.68341 1088.29126
1285.0 0.000778 351.58640 1357.37634
1387.0 0.000721 351.48959 1316.36584
1265.0 0.000791 351.39285 1105.32397
1061.0 0.000943 351.29626 1027.55969
1053.0 0.000950 351.19983 979.15790
931.0 0.001074 351.10345 812.89362
766.0 0.001305 351.00720 668.52490
647.0 0.001546 350.91113 603.73737
590.0 0.001695 350.81509 611.61432
639.0 0.001565 350.71924 690.83057
786.0 0.001272 350.62357 840.93018
905.0 0.001105 350.52786 970.90521
952.0 0.001050 350.43243 954.04749
1005.0 0.000995 350.33707 965.76685
1104.0 0.000906 350.24185 1149.66687
1342.0 0.000745 350.14676 1463.37195
1582.0 0.000632 350.05179 1737.35059
1528.0 0.000654 349.95691 1568.71558
1233.0 0.000811 349.86221 1159.73914
950.0 0.001053 349.76761 897.07288
854.0 0.001171 349.67319 815.44189
873.0 0.001145 349.57874 891.06079
1097.0 0.000912 349.48453 1164.28442
1526.0 0.000655 349.39050 1703.49695
2135.0 0.000468 349.29648 2331.11694
2485.0 0.000402 349.20267 2380.55469
2218.0 0.000451 349.10898 2041.38684
1908.0 0.000524 349.01544 1847.70642
1763.0 0.000567 348.92203 1704.97876
1652.0 0.000605 348.82864 1535.39563
1447.0 0.000691 348.73547 1209.36890
1090.0 0.000917 348.64243 939.18146
892.0 0.001121 348.54953 841.22290
932.0 0.001073 348.45676 924.95563
1088.0 0.000919 348.36411 1169.47009
1237.0 0.000808 348.27151 1387.42346
1436.0 0.000696 348.17911 1257.57239
1219.0 0.000820 348.08685 1014.02148
1026.0 0.000975 347.99481 920.44690
987.0 0.001013 347.90277 948.14435
1021.0 0.000979 347.81088 922.19257
932.0 0.001073 347.71918 811.95111
800.0 0.001250 347.62753 746.44031
763.0 0.001311 347.53616 691.16193
677.0 0.001477 347.44479 590.80066
557.0 0.001795 347.35361 508.69681
515.0 0.001942 347.26257 462.93375
478.0 0.002092 347.17157 444.52838
496.0 0.002016 347.08090 441.71527
479.0 0.002088 346.99017 451.54437
474.0 0.002110 346.89969 453.70004
490.0 0.002041 346.80939 448.03403
494.0 0.002024 346.71912 458.10483
491.0 0.002037 346.62906 481.56845
506.0 0.001976 346.53909 477.08304
497.0 0.002012 346.44928 439.88019
472.0 0.002119 346.35953 404.64185
438.0 0.002283 346.26999 387.78336
390.0 0.002564 346.18057 378.24524
397.0 0.002519 346.09137 374.28366
399.0 0.002506 346.00226 370.56259
392.0 0.002551 345.91318 369.58636
397.0 0.002519 345.82437 369.34076
413.0 0.002421 345.73563 369.70963
404.0 0.002475 345.64716 370.66226
387.0 0.002584 345.55869 372.24176
381.0 0.002625 345.47034 374.55405
413.0 0.002421 345.38223 375.71973
430.0 0.002326 345.29428 380.36191
414.0 0.002415 345.20642 386.66260
411.0 0.002433 345.11862 395.27945
423.0 0.002364 345.03104 407.40332
459.0 0.002179 344.94363 427.67511
506.0 0.001976 344.85632 463.57425
559.0 0.001789 344.76917 534.45898
664.0 0.001506 344.68213 675.07318
875.0 0.001143 344.59534 906.02234
1090.0 0.000917 344.50858 1136.62659
1269.0 0.000788 344.42203 1244.79016
1349.0 0.000741 344.33560 1244.31165
1204.0 0.000831 344.24924 1023.25983
936.0 0.001068 344.16309 755.71985
692.0 0.001445 344.07706 593.90814
558.0 0.001792 343.99121 523.37970
520.0 0.001923 343.90558 510.59174
546.0 0.001832 343.81998 546.22437
595.0 0.001681 343.73453 640.89178
687.0 0.001456 343.64920 780.09631
827.0 0.001209 343.56409 867.68610
950.0 0.001053 343.47916 872.70129
914.0 0.001094 343.39423 835.66034
848.0 0.001179 343.30960 703.63080
685.0 0.001460 343.22504 563.25659
556.0 0.001799 343.14056 479.00464
486.0 0.002058 343.05637 439.89496
448.0 0.002232 342.97226 428.50961
497.0 0.002012 342.88828 439.04272
487.0 0.002053 342.80450 471.94223
530.0 0.001887 342.72086 509.49115
553.0 0.001808 342.63727 497.71698
529.0 0.001890 342.55399 448.10016
448.0 0.002232 342.47070 409.28766
453.0 0.002208 342.38770 388.56329
409.0 0.002445 342.30478 379.03857
396.0 0.002525 342.22195 375.00244
430.0 0.002326 342.13934 373.70206
376.0 0.002660 342.05685 374.45792
423.0 0.002364 341.97455 379.09674
409.0 0.002445 341.89240 388.91022
425.0 0.002353 341.81033 402.40683
443.0 0.002257 341.72852 404.18616
447.0 0.002237 341.64679 391.21542
456.0 0.002193 341.56516 382.59900
397.0 0.002519 341.48383 380.60101
413.0 0.002421 341.40256 384.05704
425.0 0.002353 341.32132 392.32016
432.0 0.002315 341.24039 406.67294
443.0 0.002257 341.15955 432.91956
474.0 0.002110 341.07889 488.08966
566.0 0.001767 340.99841 606.21515
688.0 0.001453 340.91800 814.78259
881.0 0.001135 340.83780 1039.76843
932.0 0.001073 340.75778 1004.54260
800.0 0.001250 340.67786 766.97278
596.0 0.001678 340.59814 581.12476
500.0 0.002000 340.51846 484.33704
447.0 0.002237 340.43906 443.07166
448.0 0.002232 340.35971 428.93600
459.0 0.002179 340.28061 431.88046
466.0 0.002146 340.20166 456.95535
526.0 0.001901 340.12280 522.15430
619.0 0.001616 340.04410 645.25824
721.0 0.001387 339.96558 779.76019
772.0 0.001295 339.88721 761.51245
694.0 0.001441 339.80899 614.42078
576.0 0.001736 339.73090 495.01550
482.0 0.002075 339.65298 430.33521
401.0 0.002494 339.57513 400.03098
382.0 0.002618 339.49759 385.56799
402.0 0.002488 339.42017 378.39240
410.0 0.002439 339.34290 376.12283
400.0 0.002500 339.26572 379.93521
434.0 0.002304 339.18875 390.44217
459.0 0.002179 339.11194 401.27103
431.0 0.002320 339.03528 395.59872
437.0 0.002288 338.95877 380.16968
406.0 0.002463 338.88235 369.23227
407.0 0.002457 338.80615 363.66287
386.0 0.002591 338.73010 361.57141
387.0 0.002584 338.65424 361.31094
400.0 0.002500 338.57855 362.22644
391.0 0.002558 338.50290 364.18494
392.0 0.002551 338.42752 367.58316
378.0 0.002646 338.35217 373.14423
396.0 0.002525 338.27707 382.42203
393.0 0.002545 338.20215 398.08432
406.0 0.002463 338.12732 422.81335
460.0 0.002174 338.05267 456.87567
552.0 0.001812 337.97818 510.71274
619.0 0.001616 337.90384 624.74432
739.0 0.001353 337.82968 816.76843
863.0 0.001159 337.75571 967.29291
1012.0 0.000988 337.68179 860.86310
772.0 0.001295 337.60812 655.28271
544.0 0.001838 337.53464 517.40900
462.0 0.002165 337.46121 449.86020
396.0 0.002525 337.38794 423.74747
438.0 0.002283 337.31488 417.61096
433.0 0.002309 337.24194 423.03082
430.0 0.002326 337.16925 439.13556
457.0 0.002188 337.09662 482.19928
511.0 0.001957 337.02420 566.32507
566.0 0.001767 336.95187 655.01794
623.0 0.001605 336.87979 632.26520
546.0 0.001832 336.80786 530.95782
495.0 0.002020 336.73605 455.04468
453.0 0.002208 336.66440 414.36032
442.0 0.002262 336.59286 391.19739
421.0 0.002375 336.52155 377.57974
392.0 0.002551 336.45038 369.70425
390.0 0.002564 336.37939 365.67496
393.0 0.002545 336.30853 364.29907
402.0 0.002488 336.23779 364.96484
418.0 0.002392 336.16727 368.38010
418.0 0.002392 336.09689 377.08472
416.0 0.002404 336.02667 397.02512
492.0 0.002033 335.95657 436.40829
582.0 0.001718 335.88669 492.55273
604.0 0.001656 335.81699 518.77618
585.0 0.001709 335.74741 476.76645
516.0 0.001938 335.67795 424.92419
423.0 0.002364 335.60867 394.42874
396.0 0.002525 335.53955 382.87613
403.0 0.002481 335.47067 384.52487
407.0 0.002457 335.40192 392.99869
416.0 0.002404 335.33325 403.04477
424.0 0.002358 335.26480 415.33340
457.0 0.002188 335.19650 445.85767
540.0 0.001852 335.12833 498.22665
566.0 0.001767 335.06042 532.10742
565.0 0.001770 334.99252 499.08304
510.0 0.001961 334.92487 447.76917
419.0 0.002387 334.85739 417.67682
432.0 0.002315 334.79004 409.57199
441.0 0.002268 334.72287 422.65167
478.0 0.002092 334.65582 462.72485
531.0 0.001883 334.58896 545.32642
593.0 0.001686 334.52225 677.11804
721.0 0.001387 334.45569 794.13361
757.0 0.001321 334.38931 748.62878
693.0 0.001443 334.32309 621.13123
527.0 0.001898 334.25702 516.24756
484.0 0.002066 334.19110 452.77927
450.0 0.002222 334.12543 422.12158
473.0 0.002114 334.05981 411.49503
430.0 0.002326 333.99438 416.15582
454.0 0.002203 333.92911 439.72910
460.0 0.002174 333.86398 494.23831
550.0 0.001818 333.79907 585.89178
581.0 0.001721 333.73425 674.37305
622.0 0.001608 333.66959 670.50067
577.0 0.001733 333.60519 590.11786
552.0 0.001812 333.54083 531.17084
487.0 0.002053 333.47678 497.77158
515.0 0.001942 333.41278 459.40631
451.0 0.002217 333.34891 428.19305
412.0 0.002427 333.28531 413.93585
420.0 0.002381 333.22180 413.07794
440.0 0.002273 333.15839 425.27423
469.0 0.002132 333.09525 451.16916
480.0 0.002083 333.03226 485.95529
520.0 0.001923 332.96942 522.82129
590.0 0.001695 332.90668 587.66925
702.0 0.001425 332.84415 723.70856
835.0 0.001198 332.78174 912.02875
991.0 0.001009 332.71957 980.14203
893.0 0.001120 332.65747 826.58722
688.0 0.001453 332.59555 641.45233
527.0 0.001898 332.53381 528.25140
465.0 0.002151 332.47232 475.31821
451.0 0.002217 332.41083 456.62476
477.0 0.002096 332.34958 456.37711
490.0 0.002041 332.28839 471.50067
498.0 0.002008 332.22757 506.67303
571.0 0.001751 332.16678 575.52307
670.0 0.001493 332.10611 692.93860
799.0 0.001252 332.04565 836.92828
971.0 0.001030 331.98532 953.11389
1122.0 0.000891 331.92523 1117.62158
1323.0 0.000756 331.86523 1396.53918
1469.0 0.000681 331.80539 1533.52637
1419.0 0.000705 331.74579 1369.10486
1306.0 0.000766 331.68619 1255.86548
1240.0 0.000806 331.62689 1265.81982
1111.0 0.000900 331.56778 1133.72473
940.0 0.001064 331.50864 877.95642
732.0 0.001366 331.44983 692.46436
596.0 0.001678 331.39111 605.76361
590.0 0.001695 331.33258 598.13330
637.0 0.001570 331.27420 663.71252
723.0 0.001383 331.21594 804.87274
880.0 0.001136 331.15787 960.89905
948.0 0.001055 331.10001 969.54517
950.0 0.001053 331.04224 901.11719
918.0 0.001089 330.98468 922.39844
950.0 0.001053 330.92728 1000.82758
1006.0 0.000994 330.86993 1060.38867
1137.0 0.000880 330.81290 1165.29773
1225.0 0.000816 330.75589 1173.90588
992.0 0.001008 330.69913 958.04865
733.0 0.001364 330.64249 731.63116
560.0 0.001786 330.58597 600.43158
592.0 0.001689 330.52969 556.24969
583.0 0.001715 330.47354 577.99115
606.0 0.001650 330.41748 648.62573
696.0 0.001437 330.36166 710.47858
682.0 0.001466 330.30597 697.14575
687.0 0.001456 330.25046 685.74188
686.0 0.001458 330.19510 723.13556
742.0 0.001348 330.13986 775.94507
745.0 0.001342 330.08481 732.76978
704.0 0.001420 330.02991 609.11719
563.0 0.001776 329.97516 511.00113
492.0 0.002033 329.92059 461.32693
470.0 0.002128 329.86621 450.74261
459.0 0.002179 329.81192 469.13034
487.0 0.002053 329.75787 504.23718
556.0 0.001799 329.70383 515.27478
516.0 0.001938 329.65002 487.46686
462.0 0.002165 329.59637 459.15533
453.0 0.002208 329.54294 437.20352
463.0 0.002160 329.48959 428.68369
452.0 0.002212 329.43652 442.30222
465.0 0.002151 329.38342 492.60144
541.0 0.001848 329.33060 592.35443
647.0 0.001546 329.27789 718.99756
668.0 0.001497 329.22540 746.47729
599.0 0.001669 329.17294 631.12329
514.0 0.001946 329.12076 514.65582
436.0 0.002294 329.06866 447.20856
438.0 0.002283 329.01678 419.48373
468.0 0.002137 328.96500 416.24344
484.0 0.002066 328.91336 426.56393
506.0 0.001976 328.86194 434.27396
503.0 0.001988 328.81070 436.39172
491.0 0.002037 328.75955 456.38345
505.0 0.001980 328.70856 506.48877
518.0 0.001931 328.65771 564.00580
565.0 0.001770 328.60703 556.88654
508.0 0.001969 328.55649 496.13190
456.0 0.002193 328.50616 448.90945
459.0 0.002179 328.45599 436.28958
479.0 0.002088 328.40591 459.02417
537.0 0.001862 328.35599 514.01477
604.0 0.001656 328.30630 566.26581
595.0 0.001681 328.25668 543.31177
487.0 0.002053 328.20724 476.32031
424.0 0.002358 328.15799 426.95120
409.0 0.002445 328.10886 404.15625
425.0 0.002353 328.05994 400.41116
416.0 0.002404 328.01114 407.95029
424.0 0.002358 327.96243 418.76663
457.0 0.002188 327.91391 433.77087
494.0 0.002024 327.86551 470.76462
525.0 0.001905 327.81732 546.33630
638.0 0.001567 327.76929 641.78326
683.0 0.001464 327.72137 661.48883
676.0 0.001479 327.67361 578.84949
509.0 0.001965 327.62607 493.57635
448.0 0.002232 327.57858 447.17264
420.0 0.002381 327.53125 436.28427
462.0 0.002165 327.48416 454.80634
492.0 0.002033 327.43713 506.22366
569.0 0.001757 327.39029 587.57562
685.0 0.001460 327.34363 653.93256
650.0 0.001538 327.29715 645.26361
680.0 0.001471 327.25073 631.40387
630.0 0.001587 327.20450 670.47974
658.0 0.001520 327.15845 737.19861
836.0 0.001196 327.11252 788.47272
741.0 0.001350 327.06671 737.54034
688.0 0.001453 327.02115 622.02362
545.0 0.001835 326.97562 545.70190
506.0 0.001976 326.93030 534.21985
560.0 0.001786 326.88516 594.00409
701.0 0.001427 326.84012 729.34082
812.0 0.001232 326.79517 894.18036
922.0 0.001085 326.75049 931.87756
916.0 0.001092 326.70590 793.94269
701.0 0.001427 326.66147 660.12427
599.0 0.001669 326.61722 608.80975
603.0 0.001658 326.57306 600.92529
581.0 0.001721 326.52914 558.11505
511.0 0.001957 326.48529 492.97226
453.0 0.002208 326.44162 449.18597
412.0 0.002427 326.39810 435.13101
427.0 0.002342 326.35461 450.99881
477.0 0.002096 326.31140 499.61407
523.0 0.001912 326.26834 567.98853
541.0 0.001848 326.22534 588.54620
542.0 0.001845 326.18256 529.38464
470.0 0.002128 326.13995 467.08020
407.0 0.002457 326.09738 433.27789
415.0 0.002410 326.05502 420.52866
400.0 0.002500 326.01282 420.96979
426.0 0.002347 325.97083 433.31506
471.0 0.002123 325.92886 444.17300
457.0 0.002188 325.88702 444.27914
454.0 0.002203 325.84546 458.26645
495.0 0.002020 325.80399 509.54755
602.0 0.001661 325.76263 604.97498
707.0 0.001414 325.72144 713.11151
741.0 0.001350 325.68036 759.58032
705.0 0.001418 325.63956 676.67139
542.0 0.001845 325.59875 554.40387
468.0 0.002137 325.55814 471.52576
415.0 0.002410 325.51767 430.02875
405.0 0.002469 325.47733 416.18753
426.0 0.002347 325.43716 411.35422
410.0 0.002439 325.39719 405.82343
411.0 0.002433 325.35721 409.24881
436.0 0.002294 325.31744 431.99060
473.0 0.002114 325.27795 479.22549
503.0 0.001988 325.23837 534.57019
541.0 0.001848 325.19910 563.59314
536.0 0.001866 325.15991 532.65710
465.0 0.002151 325.12088 479.27728
440.0 0.002273 325.08194 430.77997
406.0 0.002463 325.04324 394.20767
379.0 0.002639 325.00461 372.07166
330.0 0.003030 324.96616 360.82141
340.0 0.002941 324.92773 355.27460
363.0 0.002755 324.88959 352.71902
330.0 0.003030 324.85156 351.98468
357.0 0.002801 324.81369 353.45239
334.0 0.002994 324.77588 355.69788
311.0 0.003215 324.73822 359.84442
306.0 0.003268 324.70074 367.98087
316.0 0.003165 324.66339 377.64609
349.0 0.002865 324.62625 384.60922
388.0 0.002577 324.58914 394.21494
408.0 0.002451 324.55222 417.36185
442.0 0.002262 324.51541 454.54471
455.0 0.002198 324.47876 494.84604
509.0 0.001965 324.44229 540.58649
571.0 0.001751 324.40585 570.25342
521.0 0.001919 324.36960 544.11139
497.0 0.002012 324.33356 513.98553
506.0 0.001976 324.29752 520.07605
535.0 0.001869 324.26175 537.18414
497.0 0.002012 324.22601 512.98102
420.0 0.002381 324.19049 471.82031
391.0 0.002558 324.15509 446.85416
403.0 0.002481 324.11975 437.99017
414.0 0.002415 324.08463 445.40466
409.0 0.002445 324.04962 465.08826
430.0 0.002326 324.01471 493.28918
454.0 0.002203 323.97995 520.05121
471.0 0.002123 323.94540 531.26733
478.0 0.002092 323.91089 561.70868
547.0 0.001828 323.87659 644.62781
679.0 0.001473 323.84235 753.32623
772.0 0.001295 323.80826 817.85925
800.0 0.001250 323.77435 842.04047
730.0 0.001370 323.74051 769.77753
623.0 0.001605 323.70685 625.72510
498.0 0.002008 323.67334 513.44763
414.0 0.002415 323.63989 452.53467
381.0 0.002625 323.60663 425.69174
407.0 0.002457 323.57349 417.16333
398.0 0.002513 323.54050 422.48929
405.0 0.002469 323.50757 444.96387
442.0 0.002262 323.47482 484.65265
467.0 0.002141 323.44223 531.99139
546.0 0.001832 323.40976 571.45624
562.0 0.001779 323.37741 608.30054
579.0 0.001727 323.34521 621.18591
576.0 0.001736 323.31308 613.27954
546.0 0.001832 323.28113 640.03021
565.0 0.001770 323.24930 668.51965
581.0 0.001721 323.21759 612.73297
502.0 0.001992 323.18604 521.54932
445.0 0.002247 323.15457 459.87729
404.0 0.002475 323.12320 434.48373
449.0 0.002227 323.09201 437.27542
443.0 0.002257 323.06097 459.92667
516.0 0.001938 323.03003 491.73706
472.0 0.002119 322.99927 504.11395
478.0 0.002092 322.96857 505.92892
469.0 0.002132 322.93796 537.13477
491.0 0.002037 322.90756 590.12201
490.0 0.002041 322.87726 605.06726
503.0 0.001988 322.84705 553.89233
457.0 0.002188 322.81705 479.01364
405.0 0.002469 322.78717 426.56357
373.0 0.002681 322.75729 402.14554
370.0 0.002703 322.72766 398.40512
398.0 0.002513 322.69806 407.34821
410.0 0.002439 322.66864 419.51529
417.0 0.002398 322.63937 423.58810
406.0 0.002463 322.61017 416.50064
385.0 0.002597 322.58105 416.32687
380.0 0.002632 322.55215 425.91425
374.0 0.002674 322.52338 424.13788
362.0 0.002762 322.49472 408.68335
372.0 0.002688 322.46609 400.90088
388.0 0.002577 322.43768 415.03427
445.0 0.002247 322.40933 458.87582
498.0 0.002008 322.38116 532.53552
527.0 0.001898 322.35312 594.42480
524.0 0.001908 322.32513 565.05219
470.0 0.002128 322.29730 484.48416
414.0 0.002415 322.26956 422.12646
378.0 0.002646 322.24191 388.10254
358.0 0.002793 322.21448 373.02255
356.0 0.002809 322.18716 366.65649
365.0 0.002740 322.15991 363.86090
351.0 0.002849 322.13278 365.00983
330.0 0.003030 322.10583 373.94489
344.0 0.002907 322.07886 395.50146
391.0 0.002558 322.05212 435.29770
462.0 0.002165 322.02548 488.35458
481.0 0.002079 321.99896 523.21069
470.0 0.002128 321.97260 530.80115
486.0 0.002058 321.94632 521.43219
441.0 0.002268 321.92010 478.75351
408.0 0.002451 321.89404 434.64807
375.0 0.002667 321.86810 405.14133
361.0 0.002770 321.84225 381.45560
326.0 0.003067 321.81653 363.95853
312.0 0.003205 321.79092 354.07834
314.0 0.003185 321.76544 349.56641
312.0 0.003205 321.74005 349.58737
317.0 0.003155 321.71481 355.28674
349.0 0.002865 321.68970 369.05704
363.0 0.002755 321.66461 390.37451
379.0 0.002639 321.63974 408.05844
361.0 0.002770 321.61493 402.84259
385.0 0.002597 321.59021 382.52667
338.0 0.002959 321.56567 366.07532
329.0 0.003040 321.54120 353.93442
311.0 0.003215 321.51685 344.09790
315.0 0.003175 321.49261 337.76138
346.0 0.002890 321.46851 334.31836
363.0 0.002755 321.44443 332.40543
351.0 0.002849 321.42053 331.89572
330.0 0.003030 321.39670 332.49814
312.0 0.003205 321.37305 333.83163
344.0 0.002907 321.34943 334.24731
328.0 0.003049 321.32593 332.58356
330.0 0.003030 321.30264 330.60529
302.0 0.003311 321.27936 328.91382
334.0 0.002994 321.25616 328.38193
332.0 0.003012 321.23318 328.31619
299.0 0.003344 321.21024 328.55917
315.0 0.003175 321.18738 329.06573
328.0 0.003049 321.16467 329.90829
365.0 0.002740 321.14203 331.18173
331.0 0.003021 321.11957 333.34927
317.0 0.003155 321.09720 337.20282
349.0 0.002865 321.07486 343.94128
337.0 0.002967 321.05264 353.97580
346.0 0.002890 321.03061 363.28494
358.0 0.002793 321.00861 363.38397
355.0 0.002817 320.98679 359.22647
361.0 0.002770 320.96497 359.74207
353.0 0.002833 320.94327 369.24109
390.0 0.002564 320.92169 392.97049
448.0 0.002232 320.90021 436.20157
505.0 0.001980 320.87894 495.30750
533.0 0.001876 320.85767 542.65973
551.0 0.001815 320.83652 568.60614
566.0 0.001767 320.81543 558.40704
530.0 0.001887 320.79446 497.68103
465.0 0.002151 320.77365 438.33694
409.0 0.002445 320.75290 400.39047
365.0 0.002740 320.73224 376.84293
343.0 0.002915 320.71173 363.78677
354.0 0.002825 320.69125 358.90250
370.0 0.002703 320.67084 361.81375
383.0 0.002611 320.65060 374.02377
405.0 0.002469 320.63052 396.99432
409.0 0.002445 320.61041 424.09128
458.0 0.002183 320.59052 441.30222
459.0 0.002179 320.57065 448.01477
405.0 0.002469 320.55084 429.75903
400.0 0.002500 320.53119 394.26324
363.0 0.002755 320.51160 366.00784
345.0 0.002899 320.49219 349.40973
342.0 0.002924 320.47278 340.71341
312.0 0.003205 320.45352 336.12125
312.0 0.003205 320.43436 333.45605
317.0 0.003155 320.41528 331.87891
317.0 0.003155 320.39618 331.12820
318.0 0.003145 320.37729 331.33130
335.0 0.002985 320.35855 333.01556
328.0 0.003049 320.33981 336.64252
319.0 0.003135 320.32117 342.63879
337.0 0.002967 320.30264 347.84262
342.0 0.002924 320.28421 348.17972
335.0 0.002985 320.26593 344.55194
338.0 0.002959 320.24768 338.67740
303.0 0.003300 320.22952 333.75906
294.0 0.003401 320.21146 330.88708
313.0 0.003195 320.19342 329.82254
335.0 0.002985 320.17560 329.50742
308.0 0.003247 320.15775 329.85919
310.0 0.003226 320.14008 330.92447
323.0 0.003096 320.12250 333.04617
329.0 0.003040 320.10489 336.52814
341.0 0.002933 320.08755 341.53720
335.0 0.002985 320.07016 346.17291
345.0 0.002899 320.05292 350.41202
353.0 0.002833 320.03574 356.98026
383.0 0.002611 320.01868 370.52853
381.0 0.002625 320.00159 397.24664
411.0 0.002433 319.98471 433.50613
444.0 0.002252 319.96793 452.93869
439.0 0.002278 319.95117 435.66388
385.0 0.002597 319.93454 401.65634
356.0 0.002809 319.91794 373.91617
354.0 0.002825 319.90146 359.07269
380.0 0.002632 319.88507 354.49463
355.0 0.002817 319.86874 357.16278
365.0 0.002740 319.85254 363.51227
382.0 0.002618 319.83640 367.11359
390.0 0.002564 319.82031 366.93192
375.0 0.002667 319.80432 372.64450
395.0 0.002532 319.78845 389.83847
435.0 0.002299 319.77261 415.85040
428.0 0.002336 319.75690 435.67099
418.0 0.002392 319.74124 436.94559
408.0 0.002451 319.72571 421.11667
391.0 0.002558 319.71024 406.85779
408.0 0.002451 319.69482 411.00061
406.0 0.002463 319.67953 438.17676
440.0 0.002273 319.66425 480.95056
482.0 0.002075 319.64905 511.56668
490.0 0.002041 319.63403 516.25824
467.0 0.002141 319.61899 499.38022
428.0 0.002336 319.60403 462.41672
410.0 0.002439 319.58920 435.16861
429.0 0.002331 319.57437 432.36453
466.0 0.002146 319.55975 450.16571
482.0 0.002075 319.54517 484.55838
513.0 0.001949 319.53058 520.59711
499.0 0.002004 319.51602 519.61902
477.0 0.002096 319.50171 481.31592
439.0 0.002278 319.48740 452.37173
421.0 0.002375 319.47318 444.63730
409.0 0.002445 319.45901 442.09631
399.0 0.002506 319.44495 436.29123
422.0 0.002370 319.43091 424.49216
392.0 0.002551 319.41690 405.47186
393.0 0.002545 319.40308 393.03079
391.0 0.002558 319.38925 393.26343
429.0 0.002331 319.37558 405.76166
417.0 0.002398 319.36185 433.82150
460.0 0.002174 319.34833 474.81848
466.0 0.002146 319.33475 507.06207
526.0 0.001901 319.32138 515.27234
450.0 0.002222 319.30798 495.89597
442.0 0.002262 319.29471 473.17575
438.0 0.002283 319.28149 459.99664
381.0 0.002625 319.26834 440.21927
390.0 0.002564 319.25531 422.97845
428.0 0.002336 319.24228 425.49051
414.0 0.002415 319.22937 455.62534
451.0 0.002217 319.21643 512.99615
532.0 0.001880 319.20358 570.31201
513.0 0.001949 319.19092 567.76245
513.0 0.001949 319.17813 518.05640
476.0 0.002101 319.16556 481.73068
447.0 0.002237 319.15305 467.13287
425.0 0.002353 319.14056 454.54868
399.0 0.002506 319.12817 440.38608
393.0 0.002545 319.11578 429.16068
400.0 0.002500 319.10352 418.04724
391.0 0.002558 319.09131 413.29016
450.0 0.002222 319.07916 426.21817
467.0 0.002141 319.06702 467.71365
517.0 0.001934 319.05511 548.03510
618.0 0.001618 319.04309 661.23578
693.0 0.001443 319.03119 752.61536
689.0 0.001451 319.01938 734.21356
613.0 0.001631 319.00763 620.47198
492.0 0.002033 318.99588 514.59637
441.0 0.002268 318.98422 448.80798
404.0 0.002475 318.97269 411.30695
388.0 0.002577 318.96109 389.74762
386.0 0.002591 318.94971 378.75125
381.0 0.002625 318.93823 375.41739
389.0 0.002571 318.92694 379.97443
386.0 0.002591 318.91565 395.52298
410.0 0.002439 318.90442 427.31400
443.0 0.002257 318.89325 476.62341
460.0 0.002174 318.88223 526.76373
492.0 0.002033 318.87106 534.11407
492.0 0.002033 318.86017 493.17731
432.0 0.002315 318.84921 449.45731
413.0 0.002421 318.83826 421.99838
406.0 0.002463 318.82751 415.40094
411.0 0.002433 318.81671 432.96198
458.0 0.002183 318.80603 480.89505
482.0 0.002075 318.79535 558.17548
564.0 0.001773 318.78473 625.89008
545.0 0.001835 318.77420 611.74554
480.0 0.002083 318.76370 547.45001
491.0 0.002037 318.75327 493.20059
437.0 0.002288 318.74292 449.05725
408.0 0.002451 318.73260 414.42035
393.0 0.002545 318.72229 393.93848
380.0 0.002632 318.71210 384.58685
386.0 0.002591 318.70197 380.91843
379.0 0.002639 318.69177 382.38306
352.0 0.002841 318.68176 392.38892
387.0 0.002584 318.67172 416.47333
396.0 0.002525 318.66177 456.67889
441.0 0.002268 318.65189 499.23428
450.0 0.002222 318.64200 508.02341
490.0 0.002041 318.63217 493.99176
523.0 0.001912 318.62241 499.82608
594.0 0.001684 318.61273 542.88232
687.0 0.001456 318.60303 627.89258
833.0 0.001200 318.59338 718.04041
822.0 0.001217 318.58383 706.94141
656.0 0.001524 318.57431 600.59106
533.0 0.001876 318.56482 500.18655
444.0 0.002252 318.55542 436.93146
414.0 0.002415 318.54602 404.53204
393.0 0.002545 318.53668 390.78387
406.0 0.002463 318.52747 387.96881
380.0 0.002632 318.51813 393.37195
433.0 0.002309 318.50900 410.38367
483.0 0.002070 318.49982 448.71860
542.0 0.001845 318.49069 523.84235
660.0 0.001515 318.48163 645.74445
802.0 0.001247 318.47260 779.86896
843.0 0.001186 318.46362 800.68243
716.0 0.001397 318.45471 680.99670
556.0 0.001799 318.44580 548.76807
457.0 0.002188 318.43695 459.73413
400.0 0.002500 318.42816 411.21509
395.0 0.002532 318.41937 386.75220
380.0 0.002632 318.41068 374.77716
378.0 0.002646 318.40201 369.58618
382.0 0.002618 318.39331 369.78900
381.0 0.002625 318.38474 376.47595
403.0 0.002481 318.37619 394.66650
429.0 0.002331 318.36761 427.57486
427.0 0.002342 318.35916 470.17212
457.0 0.002188 318.35071 489.15433
460.0 0.002174 318.34229 462.17337
405.0 0.002469 318.33389 423.99820
378.0 0.002646 318.32559 399.11859
381.0 0.002625 318.31729 392.05426
401.0 0.002494 318.30905 402.55710
413.0 0.002421 318.30078 434.95450
475.0 0.002105 318.29263 493.68262
549.0 0.001821 318.28445 566.70081
562.0 0.001779 318.27634 594.46259
517.0 0.001934 318.26828 541.86096
477.0 0.002096 318.26022 472.90634
436.0 0.002294 318.25220 428.40189
417.0 0.002398 318.24420 411.12814
422.0 0.002370 318.23633 417.47900
425.0 0.002353 318.22839 441.71414
490.0 0.002041 318.22058 485.37234
559.0 0.001789 318.21271 530.81848
517.0 0.001934 318.20490 532.24792
461.0 0.002169 318.19711 496.83600
442.0 0.002262 318.18933 475.30994
417.0 0.002398 318.18164 481.69775
446.0 0.002242 318.17392 493.12888
494.0 0.002024 318.16629 472.78503
433.0 0.002309 318.15869 434.91794
408.0 0.002451 318.15106 407.14536
366.0 0.002732 318.14352 395.42535
388.0 0.002577 318.13596 399.80109
415.0 0.002410 318.12848 417.88235
408.0 0.002451 318.12100 455.82532
518.0 0.001931 318.11349 517.97015
567.0 0.001764 318.10611 583.15344
584.0 0.001712 318.09869 614.61945
626.0 0.001597 318.09134 581.64642
527.0 0.001898 318.08401 513.43848
465.0 0.002151 318.07672 462.07797
467.0 0.002141 318.06946 441.75385
455.0 0.002198 318.06216 453.12854
474.0 0.002110 318.05490 497.88983
584.0 0.001712 318.04767 573.79291
628.0 0.001592 318.04059 646.82983
660.0 0.001515 318.03336 642.50885
586.0 0.001706 318.02625 579.59003
530.0 0.001887 318.01910 536.81171
533.0 0.001876 318.01205 542.38739
566.0 0.001767 318.00497 584.91736
623.0 0.001605 317.99796 613.53265
612.0 0.001634 317.99091 577.44702
534.0 0.001873 317.98395 516.21112
478.0 0.002092 317.97699 475.26041
466.0 0.002146 317.96988 465.35596
538.0 0.001859 317.96304 488.40570
614.0 0.001629 317.95605 551.87006
725.0 0.001379 317.94913 660.56598
863.0 0.001159 317.94235 792.80621
939.0 0.001065 317.93549 899.07965
921.0 0.001086 317.92862 901.40009
794.0 0.001259 317.92178 780.34174
649.0 0.001541 317.91507 656.13434
590.0 0.001695 317.90826 583.91821
552.0 0.001812 317.90143 536.68787
479.0 0.002088 317.89474 496.35693
447.0 0.002237 317.88803 470.22614
452.0 0.002212 317.88129 463.07971
494.0 0.002024 317.87463 476.84265
527.0 0.001898 317.86795 519.56647
609.0 0.001642 317.86124 606.38733
780.0 0.001282 317.85468 753.33868
962.0 0.001040 317.84802 945.88434
1059.0 0.000944 317.84137 1093.15186
1116.0 0.000896 317.83478 1145.35938
1176.0 0.000850 317.82822 1190.87573
1201.0 0.000833 317.82172 1192.41919
942.0 0.001062 317.81506 1023.58081
742.0 0.001348 317.80853 794.93494
560.0 0.001786 317.80200 626.84186
504.0 0.001984 317.79550 529.40088
496.0 0.002016 317.78897 481.54620
457.0 0.002188 317.78247 464.19708
457.0 0.002188 317.77597 469.55807
497.0 0.002012 317.76950 497.86188
543.0 0.001842 317.76306 549.47247
625.0 0.001600 317.75659 605.20502
614.0 0.001629 317.75021 639.42383
650.0 0.001538 317.74377 678.59583
748.0 0.001337 317.73737 732.33130
778.0 0.001285 317.73090 726.99237
649.0 0.001541 317.72455 636.51642
510.0 0.001961 317.71808 540.66266
469.0 0.002132 317.71170 477.90927
460.0 0.002174 317.70535 445.57834
410.0 0.002439 317.69904 433.37677
434.0 0.002304 317.69263 433.47882
452.0 0.002212 317.68625 443.14398
484.0 0.002066 317.67996 464.04245
491.0 0.002037 317.67365 502.86618
591.0 0.001692 317.66730 572.12897
724.0 0.001381 317.66098 694.69440
913.0 0.001095 317.65466 888.61542
1152.0 0.000868 317.64828 1155.86462
1489.0 0.000672 317.64200 1485.21057
1698.0 0.000589 317.63568 1708.97522
1457.0 0.000686 317.62939 1542.62366
1027.0 0.000974 317.62314 1164.90710
741.0 0.001350 317.61685 855.96173
623.0 0.001605 317.61053 671.70471
570.0 0.001754 317.60425 583.27075
524.0 0.001908 317.59793 554.47217
567.0 0.001764 317.59167 560.42908
615.0 0.001626 317.58539 579.08008
590.0 0.001695 317.57910 595.99231
621.0 0.001610 317.57291 635.98877
712.0 0.001404 317.56656 722.08215
850.0 0.001176 317.56030 856.42230
1026.0 0.000975 317.55402 1023.72656
1086.0 0.000921 317.54770 1109.29993
975.0 0.001026 317.54147 1000.90295
793.0 0.001261 317.53525 826.84271
657.0 0.001522 317.52893 704.79785
597.0 0.001675 317.52271 643.80786
616.0 0.001623 317.51642 626.39899
650.0 0.001538 317.51013 660.00079
734.0 0.001362 317.50385 746.33142
839.0 0.001192 317.49759 846.94946
962.0 0.001040 317.49130 921.07513
982.0 0.001018 317.48499 973.94836
893.0 0.001120 317.47870 926.23029
687.0 0.001456 317.47238 773.88226
580.0 0.001724 317.46613 634.09357
502.0 0.001992 317.45981 548.15295
495.0 0.002020 317.45352 504.58759
488.0 0.002049 317.44724 485.76462
492.0 0.002033 317.44089 485.23706
504.0 0.001984 317.43454 494.48123
530.0 0.001887 317.42828 518.02856
561.0 0.001783 317.42188 575.78802
706.0 0.001416 317.41562 682.50702
847.0 0.001181 317.40924 826.05554
992.0 0.001008 317.40289 959.63922
981.0 0.001019 317.39661 988.08405
827.0 0.001209 317.39020 866.07318
683.0 0.001464 317.38385 696.38239
566.0 0.001767 317.37744 570.48120
516.0 0.001938 317.37103 500.14407
465.0 0.002151 317.36469 476.81274
484.0 0.002066 317.35828 477.11365
460.0 0.002174 317.35184 473.45313
464.0 0.002155 317.34546 451.96899
462.0 0.002165 317.33905 432.50555
444.0 0.002252 317.33264 430.12518
457.0 0.002188 317.32617 450.18210
491.0 0.002037 317.31964 490.75003
552.0 0.001812 317.31323 531.22339
547.0 0.001828 317.30673 523.51013
484.0 0.002066 317.30029 475.18253
468.0 0.002137 317.29373 429.98032
407.0 0.002457 317.28717 402.78232
397.0 0.002519 317.28070 391.06882
412.0 0.002427 317.27420 392.78140
424.0 0.002358 317.26764 400.25497
428.0 0.002336 317.26108 402.06393
425.0 0.002353 317.25452 393.86655
403.0 0.002481 317.24789 385.58459
395.0 0.002532 317.24133 382.88580
396.0 0.002525 317.23471 387.21631
417.0 0.002398 317.22812 399.97867
443.0 0.002257 317.22144 427.15927
510.0 0.001961 317.21475 472.23044
558.0 0.001792 317.20813 539.50830
588.0 0.001701 317.20148 607.62646
644.0 0.001553 317.19467 634.87817
675.0 0.001481 317.18796 643.94000
727.0 0.001376 317.18130 695.16699
820.0 0.001220 317.17447 795.45685
866.0 0.001155 317.16772 867.16870
840.0 0.001190 317.16095 827.21008
776.0 0.001289 317.15414 757.29651
749.0 0.001335 317.14737 743.77618
762.0 0.001312 317.14053 778.73352
771.0 0.001297 317.13367 796.06018
722.0 0.001385 317.12677 744.51886
645.0 0.001550 317.11987 659.22021
612.0 0.001634 317.11298 602.59369
593.0 0.001686 317.10611 580.45758
537.0 0.001862 317.09912 564.63068
511.0 0.001957 317.09213 554.70148
564.0 0.001773 317.08521 574.46454
646.0 0.001548 317.07822 626.82330
704.0 0.001420 317.07114 677.59692
736.0 0.001359 317.06412 690.17474
698.0 0.001433 317.05704 712.80945
814.0 0.001229 317.04996 803.93542
1017.0 0.000983 317.04282 962.17578
1071.0 0.000934 317.03577 1092.07581
909.0 0.001100 317.02853 1036.97791
765.0 0.001307 317.02142 837.74170
597.0 0.001675 317.01416 651.84546
505.0 0.001980 317.00702 529.88184
435.0 0.002299 316.99973 461.43619
431.0 0.002320 316.99246 425.72504
392.0 0.002551 316.98514 407.47241
400.0 0.002500 316.97794 398.89154
412.0 0.002427 316.97058 397.88962
417.0 0.002398 316.96323 406.34912
458.0 0.002183 316.95584 429.54364
497.0 0.002012 316.94846 473.98871
517.0 0.001934 316.94098 541.26691
579.0 0.001727 316.93356 606.09418
595.0 0.001681 316.92609 605.14099
554.0 0.001805 316.91858 537.55756
469.0 0.002132 316.91107 468.50238
424.0 0.002358 316.90344 424.27036
412.0 0.002427 316.89590 405.80695
434.0 0.002304 316.88824 404.42804
440.0 0.002273 316.88071 407.45898
435.0 0.002299 316.87296 400.39001
422.0 0.002370 316.86530 383.62082
381.0 0.002625 316.85767 368.41568
364.0 0.002747 316.84988 358.62012
363.0 0.002755 316.84213 355.03848
357.0 0.002801 316.83441 357.28220
370.0 0.002703 316.82654 365.17517
403.0 0.002481 316.81863 377.32162
412.0 0.002427 316.81079 384.63861
399.0 0.002506 316.80289 380.65833
396.0 0.002525 316.79495 372.28531
388.0 0.002577 316.78696 366.50009
406.0 0.002463 316.77899 366.19516
422.0 0.002370 316.77097 369.25623
401.0 0.002494 316.76288 370.00320
387.0 0.002584 316.75482 366.93512
412.0 0.002427 316.74667 365.68210
397.0 0.002519 316.73859 368.08905
381.0 0.002625 316.73041 377.08597
391.0 0.002558 316.72217 396.59006
417.0 0.002398 316.71399 421.58115
433.0 0.002309 316.70566 437.01566
434.0 0.002304 316.69736 425.79398
420.0 0.002381 316.68909 400.87329
387.0 0.002584 316.68069 378.07843
387.0 0.002584 316.67230 362.51013
361.0 0.002770 316.66385 353.61838
369.0 0.002710 316.65546 350.19562
371.0 0.002695 316.64700 350.63312
395.0 0.002532 316.63840 354.67004
407.0 0.002457 316.62988 362.47806
410.0 0.002439 316.62131 374.19156
402.0 0.002488 316.61267 390.68179
447.0 0.002237 316.60400 416.44568
496.0 0.002016 316.59531 457.49704
531.0 0.001883 316.58658 512.41656
556.0 0.001799 316.57785 556.63660
572.0 0.001748 316.56903 555.26611
554.0 0.001805 316.56018 516.40631
497.0 0.002012 316.55136 485.96655
489.0 0.002045 316.54242 479.44397
499.0 0.002004 316.53357 482.06702
516.0 0.001938 316.52457 481.19141
455.0 0.002198 316.51550 479.49094
489.0 0.002045 316.50653 467.28094
435.0 0.002299 316.49741 449.03448
427.0 0.002342 316.48834 430.97369
411.0 0.002433 316.47916 418.50522
426.0 0.002347 316.46997 418.43121
451.0 0.002217 316.46075 435.30371
456.0 0.002193 316.45151 466.92538
523.0 0.001912 316.44223 499.80042
566.0 0.001767 316.43286 524.25305
609.0 0.001642 316.42355 555.69226
628.0 0.001592 316.41409 586.34784
606.0 0.001650 316.40466 580.96136
563.0 0.001776 316.39511 551.85583
535.0 0.001869 316.38565 539.52106
547.0 0.001828 316.37610 554.27802
600.0 0.001667 316.36652 588.19196
616.0 0.001623 316.35690 615.06635
604.0 0.001656 316.34717 588.48340
517.0 0.001934 316.33752 520.63031
484.0 0.002066 316.32776 459.13754
430.0 0.002326 316.31790 421.12296
392.0 0.002551 316.30811 405.03851
421.0 0.002375 316.29825 406.10953
440.0 0.002273 316.28836 420.27811
427.0 0.002342 316.27841 439.39386
436.0 0.002294 316.26840 445.44446
424.0 0.002358 316.25833 433.74228
433.0 0.002309 316.24832 424.46954
456.0 0.002193 316.23822 427.86670
434.0 0.002304 316.22806 444.62531
462.0 0.002165 316.21786 467.47986
497.0 0.002012 316.20758 475.83630
477.0 0.002096 316.19736 456.87540
447.0 0.002237 316.18698 430.49405
427.0 0.002342 316.17673 413.26596
437.0 0.002288 316.16626 408.85733
448.0 0.002232 316.15576 416.71686
457.0 0.002188 316.14536 439.09830
502.0 0.001992 316.13483 483.62872
571.0 0.001751 316.12424 563.13800
737.0 0.001357 316.11362 689.79742
928.0 0.001078 316.10300 850.93970
1097.0 0.000912 316.09225 997.14417
1072.0 0.000933 316.08160 1047.19739
946.0 0.001057 316.07080 962.24414
790.0 0.001266 316.05997 820.93011
676.0 0.001479 316.04907 680.45630
559.0 0.001789 316.03818 576.24402
531.0 0.001883 316.02719 516.53668
492.0 0.002033 316.01620 491.55688
481.0 0.002079 316.00519 497.38068
562.0 0.001779 315.99411 538.32184
672.0 0.001488 315.98294 623.36987
782.0 0.001279 315.97177 754.15637
918.0 0.001089 315.96051 887.78540
916.0 0.001092 315.94928 936.89313
916.0 0.001092 315.93799 909.07367
859.0 0.001164 315.92664 862.71423
788.0 0.001269 315.91519 787.71338
697.0 0.001435 315.90378 688.86017
578.0 0.001730 315.89227 594.82336
540.0 0.001852 315.88074 519.45947
513.0 0.001949 315.86923 472.10577
454.0 0.002203 315.85760 450.62216
459.0 0.002179 315.84589 449.34900
472.0 0.002119 315.83420 463.20532
456.0 0.002193 315.82239 487.03424
553.0 0.001808 315.81061 526.94147
607.0 0.001647 315.79877 577.55371
592.0 0.001689 315.78687 596.76459
575.0 0.001739 315.77490 552.66467
473.0 0.002114 315.76297 485.87967
422.0 0.002370 315.75089 431.31244
394.0 0.002538 315.73880 395.55222
378.0 0.002646 315.72665 374.52249
376.0 0.002660 315.71445 362.88165
351.0 0.002849 315.70221 356.97382
359.0 0.002786 315.69006 355.06580
382.0 0.002618 315.67767 356.54645
390.0 0.002564 315.66528 360.50818
390.0 0.002564 315.65286 364.20776
381.0 0.002625 315.64041 365.16629
406.0 0.002463 315.62793 366.13705
394.0 0.002538 315.61536 366.60995
389.0 0.002571 315.60275 364.15442
403.0 0.002481 315.59009 359.42316
389.0 0.002571 315.57742 356.32040
382.0 0.002618 315.56464 353.68585
379.0 0.002639 315.55179 350.93167
358.0 0.002793 315.53900 348.71417
365.0 0.002740 315.52606 347.68265
376.0 0.002660 315.51318 348.23944
374.0 0.002674 315.50021 352.15131
387.0 0.002584 315.48709 361.47925
407.0 0.002457 315.47409 378.72592
426.0 0.002347 315.46088 405.15503
441.0 0.002268 315.44769 433.66003
494.0 0.002024 315.43445 445.19443
443.0 0.002257 315.42117 428.74588
410.0 0.002439 315.40784 404.70120
391.0 0.002558 315.39444 388.15393
391.0 0.002558 315.38107 381.40436
387.0 0.002584 315.36761 384.04843
403.0 0.002481 315.35403 396.22818
411.0 0.002433 315.34045 420.74472
464.0 0.002155 315.32672 459.88440
529.0 0.001890 315.31311 507.79947
507.0 0.001972 315.29941 542.70508
499.0 0.002004 315.28555 554.60437
583.0 0.001715 315.27176 577.87085
672.0 0.001488 315.25784 646.92993
839.0 0.001192 315.24390 761.32501
973.0 0.001028 315.22995 862.23761
913.0 0.001095 315.21588 849.45648
736.0 0.001359 315.20178 738.57837
596.0 0.001678 315.18774 615.87488
482.0 0.002075 315.17349 520.62433
468.0 0.002137 315.15930 462.13303
433.0 0.002309 315.14493 434.95563
430.0 0.002326 315.13068 431.22751
465.0 0.002151 315.11627 445.59158
459.0 0.002179 315.10184 470.53671
508.0 0.001969 315.08731 489.48129
506.0 0.001976 315.07278 490.70474
506.0 0.001976 315.05823 489.37057
553.0 0.001808 315.04358 508.27179
584.0 0.001712 315.02890 552.73523
652.0 0.001534 315.01413 597.01270
643.0 0.001555 314.99933 594.99261
611.0 0.001637 314.98453 556.05078
549.0 0.001821 314.96960 519.15039
524.0 0.001908 314.95462 495.01212
501.0 0.001996 314.93970 471.06299
447.0 0.002237 314.92462 439.13788
412.0 0.002427 314.90952 412.18994
416.0 0.002404 314.89432 397.33426
405.0 0.002469 314.87912 395.28033
438.0 0.002283 314.86383 404.22461
460.0 0.002174 314.84851 422.39987
484.0 0.002066 314.83319 447.50623
527.0 0.001898 314.81775 476.35666
536.0 0.001866 314.80228 484.56949
483.0 0.002070 314.78680 459.27362
440.0 0.002273 314.77118 426.12878
427.0 0.002342 314.75562 405.27716
425.0 0.002353 314.73993 399.55301
411.0 0.002433 314.72424 402.82220
405.0 0.002469 314.70844 402.61890
422.0 0.002370 314.69260 393.47369
414.0 0.002415 314.67676 384.90936
393.0 0.002545 314.66074 385.40753
415.0 0.002410 314.64478 398.91272
442.0 0.002262 314.62875 428.93683
514.0 0.001946 314.61273 476.70352
562.0 0.001779 314.59659 528.70990
557.0 0.001795 314.58032 552.13678
511.0 0.001957 314.56406 529.84613
487.0 0.002053 314.54779 484.78903
427.0 0.002342 314.53143 440.35437
432.0 0.002315 314.51505 405.09476
395.0 0.002532 314.49860 381.64389
356.0 0.002809 314.48212 368.56497
360.0 0.002778 314.46548 362.13391
350.0 0.002857 314.44888 359.45355
375.0 0.002667 314.43222 360.03070
365.0 0.002740 314.41556 364.87338
407.0 0.002457 314.39874 373.91595
405.0 0.002469 314.38193 387.43924
433.0 0.002309 314.36508 407.36572
442.0 0.002262 314.34811 428.88541
509.0 0.001965 314.33112 438.34338
451.0 0.002217 314.31412 432.32889
441.0 0.002268 314.29703 428.53802
471.0 0.002123 314.27985 437.16214
501.0 0.001996 314.26270 460.92465
516.0 0.001938 314.24551 498.36548
580.0 0.001724 314.22824 535.14899
612.0 0.001634 314.21085 560.39783
602.0 0.001661 314.19348 596.47925
671.0 0.001490 314.17599 654.61053
708.0 0.001412 314.15851 694.98987
732.0 0.001366 314.14096 671.99023
614.0 0.001629 314.12332 623.47455
613.0 0.001631 314.10565 589.96637
562.0 0.001779 314.08798 557.39331
508.0 0.001969 314.07019 507.65353
445.0 0.002247 314.05237 459.83954
412.0 0.002427 314.03445 428.83636
390.0 0.002564 314.01657 416.18970
417.0 0.002398 313.99860 419.76013
468.0 0.002137 313.98053 435.95450
476.0 0.002101 313.96249 457.30594
457.0 0.002188 313.94440 476.55310
509.0 0.001965 313.92621 502.77069
548.0 0.001825 313.90802 543.79028
553.0 0.001808 313.88965 578.32874
551.0 0.001815 313.87131 570.71899
535.0 0.001869 313.85294 538.69702
541.0 0.001848 313.83450 516.98669
531.0 0.001883 313.81601 509.33063
496.0 0.002016 313.79749 509.08383
514.0 0.001946 313.77890 530.19598
603.0 0.001658 313.76019 588.34027
729.0 0.001372 313.74155 678.24707
779.0 0.001284 313.72275 751.78540
720.0 0.001389 313.70395 736.48114
604.0 0.001656 313.68515 642.96912
501.0 0.001996 313.66620 543.71313
431.0 0.002320 313.64725 474.79562
420.0 0.002381 313.62827 436.87119
409.0 0.002445 313.60913 418.72467
403.0 0.002481 313.59006 406.34149
407.0 0.002457 313.57086 396.16034
400.0 0.002500 313.55161 391.60645
383.0 0.002611 313.53244 396.29111
405.0 0.002469 313.51303 414.69623
434.0 0.002304 313.49368 453.16287
537.0 0.001862 313.47427 517.18414
592.0 0.001689 313.45477 600.12469
633.0 0.001580 313.43527 662.88422
649.0 0.001541 313.41568 651.96094
564.0 0.001773 313.39603 578.60541
475.0 0.002105 313.37637 496.83273
444.0 0.002252 313.35660 436.96191
398.0 0.002513 313.33685 401.70401
361.0 0.002770 313.31696 384.45810
334.0 0.002994 313.29712 376.98315
360.0 0.002778 313.27725 372.34442
362.0 0.002762 313.25717 366.66296
359.0 0.002786 313.23712 360.81274
381.0 0.002625 313.21710 358.54904
356.0 0.002809 313.19702 361.99274
391.0 0.002558 313.17676 372.38364
412.0 0.002427 313.15652 388.11841
417.0 0.002398 313.13620 400.45056
402.0 0.002488 313.11588 395.95300
379.0 0.002639 313.09552 378.62115
317.0 0.003155 313.07501 361.55942
351.0 0.002849 313.05457 349.87131
330.0 0.003030 313.03400 343.53503
355.0 0.002817 313.01337 341.24051
381.0 0.002625 312.99277 341.54205
366.0 0.002732 312.97208 342.71606
359.0 0.002786 312.95139 342.77643
358.0 0.002793 312.93057 341.15442
336.0 0.002976 312.90970 338.13770
333.0 0.003003 312.88882 335.86459
326.0 0.003067 312.86786 334.86258
360.0 0.002778 312.84689 334.75250
362.0 0.002762 312.82587 335.40567
361.0 0.002770 312.80475 337.40729
351.0 0.002849 312.78366 340.60403
344.0 0.002907 312.76245 345.57663
347.0 0.002882 312.74121 353.33319
380.0 0.002632 312.71994 365.97702
395.0 0.002532 312.69864 385.99048
457.0 0.002188 312.67725 414.85260
523.0 0.001912 312.65579 448.62637
535.0 0.001869 312.63431 477.27765
551.0 0.001815 312.61279 503.66708
599.0 0.001669 312.59125 528.94537
620.0 0.001613 312.56958 547.76532
624.0 0.001603 312.54788 568.48309
594.0 0.001684 312.52621 577.33832
518.0 0.001931 312.50446 545.71179
441.0 0.002268 312.48257 492.83514
411.0 0.002433 312.46078 451.01511
432.0 0.002315 312.43884 430.80954
438.0 0.002283 312.41693 433.69647
477.0 0.002096 312.39493 460.51172
535.0 0.001869 312.37283 511.75565
601.0 0.001664 312.35083 581.74811
629.0 0.001590 312.32858 643.27637
606.0 0.001650 312.30640 649.29449
557.0 0.001795 312.28418 603.06488
535.0 0.001869 312.26184 553.07330
562.0 0.001779 312.23953 518.89374
489.0 0.002045 312.21713 501.39697
468.0 0.002137 312.19467 498.34457
463.0 0.002160 312.17224 492.41986
488.0 0.002049 312.14969 475.89560
471.0 0.002123 312.12720 465.83868
505.0 0.001980 312.10461 473.84396
516.0 0.001938 312.08191 495.42426
547.0 0.001828 312.05930 510.18750
506.0 0.001976 312.03656 508.59323
499.0 0.002004 312.01367 508.50125
541.0 0.001848 311.99081 517.75775
473.0 0.002114 311.96793 517.25769
489.0 0.002045 311.94504 489.93158
465.0 0.002151 311.92203 451.59000
420.0 0.002381 311.89908 423.05273
401.0 0.002494 311.87595 410.87833
396.0 0.002525 311.85287 415.00699
439.0 0.002278 311.82974 432.64066
448.0 0.002232 311.80652 456.05954
478.0 0.002092 311.78329 471.81961
480.0 0.002083 311.75995 482.59222
512.0 0.001953 311.73669 506.90973
576.0 0.001736 311.71326 548.33435
599.0 0.001669 311.68982 585.40070
592.0 0.001689 311.66641 583.37396
497.0 0.002012 311.64285 536.03162
445.0 0.002247 311.61932 478.30438
431.0 0.002320 311.59579 432.83014
410.0 0.002439 311.57208 403.58386
368.0 0.002717 311.54840 388.41141
383.0 0.002611 311.52472 383.75372
371.0 0.002695 311.50095 387.54517
385.0 0.002597 311.47711 399.55258
427.0 0.002342 311.45331 420.50894
463.0 0.002160 311.42938 449.58578
488.0 0.002049 311.40552 486.17700
547.0 0.001828 311.38150 538.76080
626.0 0.001597 311.35748 612.49799
690.0 0.001449 311.33347 682.11310
664.0 0.001506 311.30933 698.32056
619.0 0.001616 311.28519 656.52612
581.0 0.001721 311.26099 591.23090
509.0 0.001965 311.23682 529.94580
506.0 0.001976 311.21252 489.60751
491.0 0.002037 311.18823 478.83621
479.0 0.002088 311.16385 497.43222
518.0 0.001931 311.13950 537.74908
583.0 0.001715 311.11511 581.04181
602.0 0.001661 311.09064 597.76440
564.0 0.001773 311.06616 574.44635
527.0 0.001898 311.04160 540.05554
532.0 0.001880 311.01700 515.38574
519.0 0.001927 310.99243 507.90515
515.0 0.001942 310.96771 518.31915
517.0 0.001934 310.94305 527.09277
482.0 0.002075 310.91824 512.52557
459.0 0.002179 310.89352 487.18198
459.0 0.002179 310.86871 469.60110
477.0 0.002096 310.84378 466.99777
463.0 0.002160 310.81894 485.62674
583.0 0.001715 310.79401 526.09003
613.0 0.001631 310.76904 570.90387
606.0 0.001650 310.74405 586.77551
553.0 0.001808 310.71902 569.19550
497.0 0.002012 310.69382 533.44751
469.0 0.002132 310.66876 488.01300
456.0 0.002193 310.64362 446.78442
357.0 0.002801 310.61844 414.58862
388.0 0.002577 310.59323 391.35358
337.0 0.002967 310.56793 377.62415
399.0 0.002506 310.54266 369.16730
358.0 0.002793 310.51727 364.85040
339.0 0.002950 310.49191 365.13046
354.0 0.002825 310.46652 371.32831
396.0 0.002525 310.44110 383.11340
438.0 0.002283 310.41559 399.82593
459.0 0.002179 310.39008 421.57660
478.0 0.002092 310.36456 441.16498
494.0 0.002024 310.33899 442.83557
459.0 0.002179 310.31335 423.28943
409.0 0.002445 310.28766 396.05249
376.0 0.002660 310.26199 373.02036
369.0 0.002710 310.23630 358.03629
377.0 0.002653 310.21045 350.55667
383.0 0.002611 310.18478 349.53198
373.0 0.002681 310.15891 354.58813
384.0 0.002604 310.13303 363.95547
420.0 0.002381 310.10718 374.12918
393.0 0.002545 310.08118 376.64905
364.0 0.002747 310.05521 369.38708
366.0 0.002732 310.02927 359.48792
377.0 0.002653 310.00327 351.30463
369.0 0.002710 309.97723 346.60410
357.0 0.002801 309.95114 345.49289
359.0 0.002786 309.92502 346.40683
382.0 0.002618 309.89886 345.36301
382.0 0.002618 309.87265 341.33429
354.0 0.002825 309.84650 337.11871
341.0 0.002933 309.82019 334.61441
364.0 0.002747 309.79395 334.37823
363.0 0.002755 309.76764 336.32410
349.0 0.002865 309.74127 340.97391
373.0 0.002681 309.71497 347.99481
388.0 0.002577 309.68854 356.36572
390.0 0.002564 309.66211 361.26105
394.0 0.002538 309.63568 359.97623
357.0 0.002801 309.60922 355.61337
355.0 0.002817 309.58267 352.74567
355.0 0.002817 309.55612 353.76242
361.0 0.002770 309.52960 360.52930
407.0 0.002457 309.50299 373.11362
410.0 0.002439 309.47635 391.98456
413.0 0.002421 309.44974 414.97818
467.0 0.002141 309.42303 439.18890
505.0 0.001980 309.39627 461.86829
483.0 0.002070 309.36957 478.06631
475.0 0.002105 309.34277 481.32172
440.0 0.002273 309.31598 479.25836
487.0 0.002053 309.28918 494.85202
528.0 0.001894 309.26236 543.98834
670.0 0.001493 309.23550 631.44055
813.0 0.001230 309.20859 739.44977
831.0 0.001203 309.18167 803.67328
710.0 0.001408 309.15479 764.12775
596.0 0.001678 309.12775 665.43707
528.0 0.001894 309.10083 571.03845
446.0 0.002242 309.07373 502.85849
452.0 0.002212 309.04666 464.05786
437.0 0.002288 309.01959 448.45618
423.0 0.002364 308.99258 447.55832
436.0 0.002294 308.96539 455.87762
437.0 0.002288 308.93829 470.57629
464.0 0.002155 308.91110 487.49570
498.0 0.002008 308.88391 502.55618
487.0 0.002053 308.85669 511.94000
529.0 0.001890 308.82947 517.40948
502.0 0.001992 308.80225 535.32831
525.0 0.001905 308.77496 571.66949
577.0 0.001733 308.74762 603.93463
586.0 0.001706 308.72031 595.46875
511.0 0.001957 308.69296 555.54413
463.0 0.002160 308.66562 520.48401
481.0 0.002079 308.63821 509.84650
549.0 0.001821 308.61078 531.84003
626.0 0.001597 308.58337 586.82733
694.0 0.001441 308.55594 657.40918
661.0 0.001513 308.52841 694.79523
611.0 0.001637 308.50095 666.40442
553.0 0.001808 308.47342 614.91602
573.0 0.001745 308.44592 586.24359
570.0 0.001754 308.41837 585.79413
578.0 0.001730 308.39081 593.71509
601.0 0.001664 308.36325 581.14685
541.0 0.001848 308.33566 536.96362
455.0 0.002198 308.30795 483.47809
437.0 0.002288 308.28036 441.76044
412.0 0.002427 308.25266 417.10724
386.0 0.002591 308.22507 408.32086
420.0 0.002381 308.19733 414.51639
420.0 0.002381 308.16965 436.45847
474.0 0.002110 308.14188 475.96906
540.0 0.001852 308.11414 530.27490
625.0 0.001600 308.08640 581.19360
640.0 0.001563 308.05859 601.25317
628.0 0.001592 308.03079 599.77429
612.0 0.001634 308.00296 607.13690
589.0 0.001698 307.97522 621.16602
566.0 0.001767 307.94736 618.06964
564.0 0.001773 307.91946 588.41785
505.0 0.001980 307.89163 537.50232
474.0 0.002110 307.86371 484.91650
432.0 0.002315 307.83588 448.57074
426.0 0.002347 307.80795 433.56726
486.0 0.002058 307.78003 437.07196
440.0 0.002273 307.75208 450.14117
495.0 0.002020 307.72421 455.12936
432.0 0.002315 307.69617 440.84445
436.0 0.002294 307.66827 421.62744
418.0 0.002392 307.64026 409.38812
399.0 0.002506 307.61227 406.14090
395.0 0.002532 307.58417 410.03741
408.0 0.002451 307.55615 420.62439
380.0 0.002632 307.52817 434.65042
426.0 0.002347 307.50009 440.16275
446.0 0.002242 307.47214 431.02231
389.0 0.002571 307.44397 411.95334
395.0 0.002532 307.41592 392.33490
389.0 0.002571 307.38788 379.46622
392.0 0.002551 307.35977 375.57455
388.0 0.002577 307.33173 380.89807
417.0 0.002398 307.30356 394.15948
406.0 0.002463 307.27539 410.97903
420.0 0.002381 307.24734 424.88892
449.0 0.002227 307.21924 438.79742
494.0 0.002024 307.19110 457.37073
499.0 0.002004 307.16290 471.37024
461.0 0.002169 307.13474 466.84219
451.0 0.002217 307.10660 453.28683
470.0 0.002128 307.07837 445.78186
457.0 0.002188 307.05026 447.58487
468.0 0.002137 307.02203 458.87051
504.0 0.001984 306.99384 477.72690
495.0 0.002020 306.96573 485.03247
430.0 0.002326 306.93744 464.30032
405.0 0.002469 306.90924 429.40509
398.0 0.002513 306.88101 399.23505
333.0 0.003003 306.85281 379.20782
356.0 0.002809 306.82462 369.21698
387.0 0.002584 306.79639 367.94623
391.0 0.002558 306.76819 374.93970
407.0 0.002457 306.73990 389.54648
412.0 0.002427 306.71170 409.07199
446.0 0.002242 306.68347 426.28781
456.0 0.002193 306.65524 438.49631
454.0 0.002203 306.62701 450.64572
454.0 0.002203 306.59869 458.91217
434.0 0.002304 306.57053 455.34665
430.0 0.002326 306.54230 446.14481
433.0 0.002309 306.51401 437.76114
438.0 0.002283 306.48581 424.72794
405.0 0.002469 306.45752 403.45160
362.0 0.002762 306.42929 382.71878
360.0 0.002778 306.40103 368.37384
353.0 0.002833 306.37274 360.53281
373.0 0.002681 306.34454 358.01965
375.0 0.002667 306.31625 359.47061
397.0 0.002519 306.28799 363.43390
376.0 0.002660 306.25983 369.92010
389.0 0.002571 306.23154 381.62637
400.0 0.002500 306.20331 401.35977
459.0 0.002179 306.17505 431.58588
508.0 0.001969 306.14679 473.83316
594.0 0.001684 306.11859 526.04742
629.0 0.001590 306.09039 579.10034
597.0 0.001675 306.06216 609.61310
590.0 0.001695 306.03391 602.70734
562.0 0.001779 306.00574 584.74493
544.0 0.001838 305.97751 578.85187
517.0 0.001934 305.94934 578.77899
526.0 0.001901 305.92105 578.11371
507.0 0.001972 305.89288 572.34222
454.0 0.002203 305.86469 546.69641
466.0 0.002146 305.83655 508.39191
418.0 0.002392 305.80835 479.97238
443.0 0.002257 305.78021 470.32837
442.0 0.002262 305.75198 474.58545
452.0 0.002212 305.72382 476.91092
451.0 0.002217 305.69571 468.63644
422.0 0.002370 305.66754 461.92041
458.0 0.002183 305.63937 467.59845
476.0 0.002101 305.61124 483.07605
498.0 0.002008 305.58313 491.91113
465.0 0.002151 305.55502 486.80698
459.0 0.002179 305.52692 482.57785
492.0 0.002033 305.49890 489.42468
532.0 0.001880 305.47070 505.39694
544.0 0.001838 305.44269 528.87262
584.0 0.001712 305.41461 552.55035
567.0 0.001764 305.38660 553.64252
522.0 0.001916 305.35855 522.33087
485.0 0.002062 305.33044 479.83600
438.0 0.002283 305.30249 447.36948
414.0 0.002415 305.27444 427.71671
390.0 0.002564 305.24649 412.16904
365.0 0.002740 305.21848 395.51532
360.0 0.002778 305.19055 381.71255
380.0 0.002632 305.16251 374.95392
399.0 0.002506 305.13464 376.36435
408.0 0.002451 305.10669 386.16733
418.0 0.002392 305.07880 403.44299
430.0 0.002326 305.05087 424.08231
432.0 0.002315 305.02295 436.67490
401.0 0.002494 304.99509 434.69324
417.0 0.002398 304.96725 429.05734
423.0 0.002364 304.93942 428.31519
416.0 0.002404 304.91156 427.99033
436.0 0.002294 304.88379 422.13004
444.0 0.002252 304.85599 417.63431
487.0 0.002053 304.82822 424.83499
552.0 0.001812 304.80048 447.84399
562.0 0.001779 304.77267 483.01572
576.0 0.001736 304.74500 512.89471
558.0 0.001792 304.71732 514.37976
510.0 0.001961 304.68961 494.42944
491.0 0.002037 304.66190 479.36401
526.0 0.001901 304.63428 482.29184
516.0 0.001938 304.60663 499.46597
511.0 0.001957 304.57901 510.69620
471.0 0.002123 304.55142 497.19669
413.0 0.002421 304.52386 468.68945
424.0 0.002358 304.49631 444.00662
408.0 0.002451 304.46878 431.69696
415.0 0.002410 304.44125 432.13144
446.0 0.002242 304.41379 443.45425
434.0 0.002304 304.38635 459.44598
474.0 0.002110 304.35889 467.97055
485.0 0.002062 304.33139 463.58972
487.0 0.002053 304.30408 457.14056
496.0 0.002016 304.27670 451.33868
423.0 0.002364 304.24933 437.28665
388.0 0.002577 304.22205 417.10828
394.0 0.002538 304.19473 401.61389
375.0 0.002667 304.16745 395.78333
403.0 0.002481 304.14017 397.17038
375.0 0.002667 304.11295 396.54694
381.0 0.002625 304.08575 387.38583
378.0 0.002646 304.05856 374.95740
346.0 0.002890 304.03143 366.40329
336.0 0.002976 304.00427 363.50543
394.0 0.002538 303.97720 365.85062
360.0 0.002778 303.95007 372.44345
363.0 0.002755 303.92300 380.43948
374.0 0.002674 303.89606 383.36224
379.0 0.002639 303.86908 376.85803
343.0 0.002915 303.84207 364.84753
351.0 0.002849 303.81512 353.62860
346.0 0.002890 303.78815 347.03662
343.0 0.002915 303.76132 345.90598
325.0 0.003077 303.73447 349.46710
328.0 0.003049 303.70767 354.88412
363.0 0.002755 303.68088 357.00330
341.0 0.002933 303.65408 353.90015
327.0 0.003058 303.62744 350.16550
358.0 0.002793 303.60068 349.90463
342.0 0.002924 303.57397 354.02618
357.0 0.002801 303.54733 361.51547
383.0 0.002611 303.52075 370.29977
401.0 0.002494 303.49420 382.61316
401.0 0.002494 303.46765 401.48248
432.0 0.002315 303.44113 423.20065
450.0 0.002222 303.41470 434.02890
426.0 0.002347 303.38818 423.09836
409.0 0.002445 303.36179 398.56750
366.0 0.002732 303.33545 374.53195
337.0 0.002967 303.30914 357.74951
345.0 0.002899 303.28281 348.51663
354.0 0.002825 303.25656 345.09937
334.0 0.002994 303.23032 343.44278
321.0 0.003115 303.20407 340.89532
305.0 0.003279 303.17798 338.79846
315.0 0.003175 303.15173 339.57825
305.0 0.003279 303.12573 344.23962
336.0 0.002976 303.09964 353.40106
405.0 0.002469 303.07361 365.47446
393.0 0.002545 303.04770 378.47037
389.0 0.002571 303.02173 389.08441
382.0 0.002618 302.99582 393.50714
391.0 0.002558 302.96997 391.35580
375.0 0.002667 302.94412 380.12167
321.0 0.003115 302.91833 363.26230
333.0 0.003003 302.89261 347.00681
329.0 0.003040 302.86688 334.70563
335.0 0.002985 302.84122 326.46448
333.0 0.003003 302.81555 321.53622
357.0 0.002801 302.79001 318.72708
329.0 0.003040 302.76443 317.26718
335.0 0.002985 302.73892 316.77591
318.0 0.003145 302.71350 317.19217
315.0 0.003175 302.68808 318.58350
297.0 0.003367 302.66269 321.46689
341.0 0.002933 302.63733 325.75693
341.0 0.002933 302.61203 330.87231
343.0 0.002915 302.58685 334.96661
295.0 0.003390 302.56165 335.66940
348.0 0.002874 302.53653 335.11652
369.0 0.002710 302.51132 336.76648
353.0 0.002833 302.48627 343.28922
362.0 0.002762 302.46130 355.53888
426.0 0.002347 302.43628 372.19110
395.0 0.002532 302.41135 386.58899
396.0 0.002525 302.38638 387.38190
378.0 0.002646 302.36160 373.94635
366.0 0.002732 302.33679 357.21698
333.0 0.003003 302.31201 344.17371
327.0 0.003058 302.28735 336.62936
324.0 0.003086 302.26263 334.28915
342.0 0.002924 302.23807 336.57593
355.0 0.002817 302.21353 343.33606
355.0 0.002817 302.18900 354.51370
388.0 0.002577 302.16452 369.58847
422.0 0.002370 302.14011 384.65213
423.0 0.002364 302.11575 389.97165
390.0 0.002564 302.09143 382.01059
363.0 0.002755 302.06717 369.56161
345.0 0.002899 302.04291 361.40778
370.0 0.002703 302.01877 360.10995
386.0 0.002591 301.99466 363.25137
368.0 0.002717 301.97058 365.11597
346.0 0.002890 301.94656 360.90988
328.0 0.003049 301.92258 353.25180
307.0 0.003257 301.89868 346.66742
317.0 0.003155 301.87485 343.57294
353.0 0.002833 301.85110 344.98300
352.0 0.002841 301.82733 352.15521
343.0 0.002915 301.80356 366.55197
392.0 0.002551 301.77991 390.81665
445.0 0.002247 301.75629 426.83630
505.0 0.001980 301.73282 472.22614
535.0 0.001869 301.70935 512.77985
508.0 0.001969 301.68594 527.70178
482.0 0.002075 301.66254 514.24725
456.0 0.002193 301.63925 483.31680
426.0 0.002347 301.61600 448.93402
403.0 0.002481 301.59274 419.33148
385.0 0.002597 301.56964 393.89566
346.0 0.002890 301.54654 373.59784
351.0 0.002849 301.52347 359.55405
333.0 0.003003 301.50058 351.39310
356.0 0.002809 301.47760 348.27319
339.0 0.002950 301.45474 350.01788
341.0 0.002933 301.43201 357.03256
378.0 0.002646 301.40921 370.20764
392.0 0.002551 301.38654 389.41080
387.0 0.002584 301.36398 412.69287
437.0 0.002288 301.34131 437.12744
430.0 0.002326 301.31882 458.29587
454.0 0.002203 301.29636 466.11426
471.0 0.002123 301.27399 457.82187
418.0 0.002392 301.25171 441.15976
407.0 0.002457 301.22949 423.66058
404.0 0.002475 301.20718 411.22354
387.0 0.002584 301.18515 404.14056
392.0 0.002551 301.16309 397.12875
388.0 0.002577 301.14099 386.84927
381.0 0.002625 301.11911 376.00006
335.0 0.002985 301.09714 368.25357
356.0 0.002809 301.07538 365.57932
399.0 0.002506 301.05365 368.79318
413.0 0.002421 301.03195 376.84702
389.0 0.002571 301.01028 386.11188
409.0 0.002445 300.98868 393.49115
396.0 0.002525 300.96719 400.74170
379.0 0.002639 300.94577 411.58615
422.0 0.002370 300.92438 427.76068
445.0 0.002247 300.90314 448.55652
461.0 0.002169 300.88187 472.19595
499.0 0.002004 300.86066 492.56516
496.0 0.002016 300.83957 507.50015
491.0 0.002037 300.81857 514.00244
494.0 0.002024 300.79758 505.17773
467.0 0.002141 300.77664 488.29865
454.0 0.002203 300.75583 474.43954
451.0 0.002217 300.73505 465.48471
437.0 0.002288 300.71439 459.47495
469.0 0.002132 300.69370 457.82498
480.0 0.002083 300.67322 459.86932
466.0 0.002146 300.65265 459.74579
450.0 0.002222 300.63229 450.10095
430.0 0.002326 300.61185 434.71432
406.0 0.002463 300.59167 425.71408
412.0 0.002427 300.57141 430.19501
445.0 0.002247 300.55133 450.30096
464.0 0.002155 300.53125 482.35806
458.0 0.002183 300.51123 515.95624
523.0 0.001912 300.49130 541.30371
588.0 0.001701 300.47141 563.39600
582.0 0.001718 300.45166 580.85217
568.0 0.001761 300.43198 583.07605
559.0 0.001789 300.41232 572.85681
516.0 0.001938 300.39276 552.06396
441.0 0.002268 300.37323 517.92450
437.0 0.002288 300.35388 481.31610
425.0 0.002353 300.33453 454.41498
425.0 0.002353 300.31528 439.85080
460.0 0.002174 300.29611 434.48099
429.0 0.002331 300.27698 433.67801
469.0 0.002132 300.25793 435.45520
477.0 0.002096 300.23904 436.14362
414.0 0.002415 300.22006 430.05972
433.0 0.002309 300.20126 420.37677
454.0 0.002203 300.18262 412.96310
389.0 0.002571 300.16385 408.48080
410.0 0.002439 300.14532 405.76926
384.0 0.002604 300.12683 406.92325
461.0 0.002169 300.10843 410.82465
436.0 0.002294 300.09009 412.42093
409.0 0.002445 300.07178 409.66608
412.0 0.002427 300.05359 400.53189
367.0 0.002725 300.03549 383.93854
381.0 0.002625 300.01746 366.20831
366.0 0.002732 299.99954 352.83694
345.0 0.002899 299.98163 345.47742
355.0 0.002817 299.96387 343.97519
344.0 0.002907 299.94611 347.08914
337.0 0.002967 299.92850 352.79709
378.0 0.002646 299.91098 356.98141
368.0 0.002717 299.89349 355.66510
361.0 0.002770 299.87607 349.51617
337.0 0.002967 299.85880 341.25690
348.0 0.002874 299.84161 333.22052
320.0 0.003125 299.82440 327.26816
320.0 0.003125 299.80737 323.64694
342.0 0.002924 299.79044 321.99445
330.0 0.003030 299.77347 322.42273
339.0 0.002950 299.75671 324.75992
344.0 0.002907 299.73996 328.93854
326.0 0.003067 299.72333 334.68744
330.0 0.003030 299.70679 340.90298
378.0 0.002646 299.69031 346.34262
351.0 0.002849 299.67395 352.15118
357.0 0.002801 299.65762 360.93292
406.0 0.002463 299.64139 374.11520
416.0 0.002404 299.62531 387.17160
401.0 0.002494 299.60922 390.68430
392.0 0.002551 299.59332 380.43484
358.0 0.002793 299.57742 364.68262
351.0 0.002849 299.56165 350.49954
332.0 0.003012 299.54599 339.98953
307.0 0.003257 299.53036 333.96637
311.0 0.003215 299.51483 331.88885
309.0 0.003236 299.49939 333.00598
333.0 0.003003 299.48401 337.67111
362.0 0.002762 299.46878 344.98419
363.0 0.002755 299.45361 354.26831
355.0 0.002817 299.43854 362.84299
347.0 0.002882 299.42352 370.18924
381.0 0.002625 299.40866 379.91946
399.0 0.002506 299.39386 397.27353
445.0 0.002247 299.37909 426.39352
507.0 0.001972 299.36450 467.27957
566.0 0.001767 299.34995 509.29254
577.0 0.001733 299.33554 530.09619
547.0 0.001828 299.32120 515.55139
441.0 0.002268 299.30685 475.89847
390.0 0.002564 299.29266 430.85562
377.0 0.002653 299.27859 394.06866
331.0 0.003021 299.26465 369.23776
357.0 0.002801 299.25079 354.22113
307.0 0.003257 299.23694 346.09399
316.0 0.003165 299.22330 342.75677
295.0 0.003390 299.20966 343.12027
311.0 0.003215 299.19601 346.56717
347.0 0.002882 299.18262 352.35019
391.0 0.002558 299.16934 360.08218
362.0 0.002762 299.15610 371.21347
394.0 0.002538 299.14291 385.99753
426.0 0.002347 299.12988 400.75473
414.0 0.002415 299.11691 412.19522
403.0 0.002481 299.10406 421.25388
420.0 0.002381 299.09128 425.28156
443.0 0.002257 299.07861 418.99200
408.0 0.002451 299.06604 403.84821
385.0 0.002597 299.05365 386.56259
363.0 0.002755 299.04120 373.43555
352.0 0.002841 299.02893 366.27228
384.0 0.002604 299.01672 363.30841
371.0 0.002695 299.00464 361.10815
373.0 0.002681 298.99265 356.96558
359.0 0.002786 298.98080 352.56808
356.0 0.002809 298.96902 350.39594
334.0 0.002994 298.95721 351.79794
342.0 0.002924 298.94565 358.22910
391.0 0.002558 298.93420 371.13724
399.0 0.002506 298.92276 390.62363
419.0 0.002387 298.91147 414.02515
437.0 0.002288 298.90030 435.50992
439.0 0.002278 298.88916 444.79266
419.0 0.002387 298.87820 433.46460
382.0 0.002618 298.86728 408.50858
342.0 0.002924 298.85651 383.67148
344.0 0.002907 298.84573 365.58713
341.0 0.002933 298.83514 354.61362
341.0 0.002933 298.82465 349.07889
348.0 0.002874 298.81433 347.34045
355.0 0.002817 298.80399 347.67032
346.0 0.002890 298.79385 348.65878
335.0 0.002985 298.78369 350.42017
347.0 0.002882 298.77374 354.42834
393.0 0.002545 298.76379 361.16788
375.0 0.002667 298.75409 369.73944
377.0 0.002653 298.74438 380.60489
402.0 0.002488 298.73480 396.94034
431.0 0.002320 298.72531 420.97787
461.0 0.002169 298.71594 450.08130
474.0 0.002110 298.70670 472.42029
453.0 0.002208 298.69748 475.98041
425.0 0.002353 298.68848 465.74277
446.0 0.002242 298.67947 458.00671
469.0 0.002132 298.67065 459.80658
501.0 0.001996 298.66190 465.29166
448.0 0.002232 298.65332 463.51147
433.0 0.002309 298.64481 455.23993
465.0 0.002151 298.63632 449.68826
452.0 0.002212 298.62802 446.35745
415.0 0.002410 298.61981 438.28165
383.0 0.002611 298.61172 424.95248
420.0 0.002381 298.60373 409.68024
385.0 0.002597 298.59583 394.70438
410.0 0.002439 298.58810 382.26505
364.0 0.002747 298.58029 373.90353
344.0 0.002907 298.57278 371.17572
376.0 0.002660 298.56531 373.83655
397.0 0.002519 298.55801 379.27921
363.0 0.002755 298.55069 383.03433
359.0 0.002786 298.54358 384.35864
406.0 0.002463 298.53659 387.97586
393.0 0.002545 298.52966 396.02997
397.0 0.002519 298.52289 404.67847
405.0 0.002469 298.51614 407.49106
419.0 0.002387 298.50955 402.06503
422.0 0.002370 298.50302 394.62564
399.0 0.002506 298.49673 389.73700
386.0 0.002591 298.49051 385.45920
369.0 0.002710 298.48428 378.86169
362.0 0.002762 298.47824 371.15021
358.0 0.002793 298.47232 364.01517
348.0 0.002874 298.46649 359.43234
334.0 0.002994 298.46082 359.48129
367.0 0.002725 298.45523 365.26147
409.0 0.002445 298.44971 377.22189
448.0 0.002232 298.44440 392.74057
433.0 0.002309 298.43906 405.60553
432.0 0.002315 298.43396 407.85880
418.0 0.002392 298.42896 402.33722
399.0 0.002506 298.42395 398.29910
412.0 0.002427 298.41916 399.43814
415.0 0.002410 298.41446 402.14053
403.0 0.002481 298.40997 400.52295
378.0 0.002646 298.40546 392.29822
378.0 0.002646 298.40106 380.13654
394.0 0.002538 298.39685 368.11368
381.0 0.002625 298.39270 359.76129
364.0 0.002747 298.38873 356.63910
377.0 0.002653 298.38483 359.31549
399.0 0.002506 298.38098 368.05219
407.0 0.002457 298.37735 382.41318
410.0 0.002439 298.37384 400.20557
420.0 0.002381 298.37033 417.47937
444.0 0.002252 298.36703 433.50934
457.0 0.002188 298.36386 452.02545
471.0 0.002123 298.36069 473.08755
546.0 0.001832 298.35779 496.13626
553.0 0.001808 298.35492 520.54065
529.0 0.001890 298.35214 535.77496
509.0 0.001965 298.34952 527.58160
456.0 0.002193 298.34695 499.14948
424.0 0.002358 298.34464 466.35217
412.0 0.002427 298.34229 439.31689
388.0 0.002577 298.34015 422.47415
425.0 0.002353 298.33810 418.02698
441.0 0.002268 298.33621 427.93750
454.0 0.002203 298.33441 453.00153
545.0 0.001835 298.33267 491.17352
615.0 0.001626 298.33112 532.75330
566.0 0.001767 298.32965 557.73187
530.0 0.001887 298.32834 554.81030
485.0 0.002062 298.32712 535.44879
519.0 0.001927 298.32599 521.01276
520.0 0.001923 298.32501 525.24554
586.0 0.001706 298.32416 551.78955
623.0 0.001605 298.32339 593.91779
684.0 0.001462 298.32281 628.33972
621.0 0.001610 298.32224 626.03632
584.0 0.001712 298.32184 586.52203
511.0 0.001957 298.32166 534.65137
468.0 0.002137 298.32147 488.28183
404.0 0.002475 298.32141 451.00174
390.0 0.002564 298.32150 422.04330
381.0 0.002625 298.32175 403.47165
376.0 0.002660 298.32211 396.22021
424.0 0.002358 298.32251 399.50308
398.0 0.002513 298.32312 411.17429
415.0 0.002410 298.32385 424.98444
405.0 0.002469 298.32465 430.81613
413.0 0.002421 298.32556 423.38522
372.0 0.002688 298.32666 409.66428
386.0 0.002591 298.32782 399.53705
406.0 0.002463 298.32913 398.61194
413.0 0.002421 298.33054 407.81226
420.0 0.002381 298.33212 423.40692
462.0 0.002165 298.33383 435.28809
452.0 0.002212 298.33557 432.95490
394.0 0.002538 298.33749 419.05270
395.0 0.002532 298.33951 403.19855
384.0 0.002604 298.34164 388.35132
340.0 0.002941 298.34406 373.28497
337.0 0.002967 298.34641 358.52975
347.0 0.002882 298.34888 346.43549
331.0 0.003021 298.35162 337.84448
324.0 0.003086 298.35437 332.51718
302.0 0.003311 298.35730 329.86975
314.0 0.003185 298.36032 329.86481
369.0 0.002710 298.36340 332.20966
366.0 0.002732 298.36670 336.97552
324.0 0.003086 298.37009 343.97443
336.0 0.002976 298.37363 351.62473
341.0 0.002933 298.37732 356.47568
350.0 0.002857 298.38101 356.26199
333.0 0.003003 298.38492 353.61343
339.0 0.002950 298.38895 350.73685
381.0 0.002625 298.39310 349.32855
368.0 0.002717 298.39740 350.20163
345.0 0.002899 298.40176 353.37973
342.0 0.002924 298.40631 359.04645
366.0 0.002732 298.41092 368.96741
383.0 0.002611 298.41568 386.31177
418.0 0.002392 298.42059 413.45593
502.0 0.001992 298.42563 449.23129
498.0 0.002008 298.43076 486.23767
506.0 0.001976 298.43600 505.38071
445.0 0.002247 298.44138 494.82513
428.0 0.002336 298.44693 466.31201
405.0 0.002469 298.45255 436.74344
387.0 0.002584 298.45837 414.95743
391.0 0.002558 298.46426 404.40976
372.0 0.002688 298.47028 404.18689
401.0 0.002494 298.47647 413.36609
483.0 0.002070 298.48273 430.60559
499.0 0.002004 298.48917 452.15283
528.0 0.001894 298.49570 467.24518
460.0 0.002174 298.50235 464.84714
445.0 0.002247 298.50919 449.44113
434.0 0.002304 298.51608 435.31995
451.0 0.002217 298.52313 430.54263
474.0 0.002110 298.53027 434.57132
438.0 0.002283 298.53763 440.71924
482.0 0.002075 298.54510 443.94119
467.0 0.002141 298.55261 445.86441
470.0 0.002128 298.56030 443.60004
387.0 0.002584 298.56808 430.82944
378.0 0.002646 298.57602 409.98300
376.0 0.002660 298.58411 389.12384
322.0 0.003106 298.59232 372.94717
352.0 0.002841 298.60065 363.38217
368.0 0.002717 298.60910 360.70996
378.0 0.002646 298.61771 364.52914
388.0 0.002577 298.62643 373.67596
406.0 0.002463 298.63522 385.72632
426.0 0.002347 298.64423 395.16922
417.0 0.002398 298.65329 395.75269
412.0 0.002427 298.66260 387.83475
401.0 0.002494 298.67188 378.74515
414.0 0.002415 298.68137 374.24646
420.0 0.002381 298.69104 375.25693
389.0 0.002571 298.70074 378.80679
396.0 0.002525 298.71060 381.13779
407.0 0.002457 298.72061 381.72046
390.0 0.002564 298.73077 381.03088
376.0 0.002660 298.74109 376.80649
363.0 0.002755 298.75146 369.36411
353.0 0.002833 298.76199 361.85657
340.0 0.002941 298.77264 355.15552
332.0 0.003012 298.78339 347.87070
317.0 0.003155 298.79437 340.37476
310.0 0.003226 298.80533 333.95874
313.0 0.003195 298.81656 329.44266
324.0 0.003086 298.82785 326.49506
363.0 0.002755 298.83926 324.35352
346.0 0.002890 298.85086 322.35110
360.0 0.002778 298.86249 320.85870
310.0 0.003226 298.87436 320.51099
333.0 0.003003 298.88635 321.81345
363.0 0.002755 298.89841 325.22156
345.0 0.002899 298.91058 330.78391
335.0 0.002985 298.92297 339.30746
326.0 0.003067 298.93546 349.83200
371.0 0.002695 298.94809 359.81354
401.0 0.002494 298.96082 364.29626
369.0 0.002710 298.97363 360.56030
345.0 0.002899 298.98663 352.37280
332.0 0.003012 298.99985 344.14667
342.0 0.002924 299.01306 336.87686
349.0 0.002865 299.02646 330.47488
320.0 0.003125 299.04001 325.21869
329.0 0.003040 299.05365 322.04681
324.0 0.003086 299.06741 320.81140
305.0 0.003279 299.08139 321.26456
333.0 0.003003 299.09537 323.00900
342.0 0.002924 299.10959 325.38879
342.0 0.002924 299.12390 327.38733
331.0 0.003021 299.13840 329.02927
319.0 0.003135 299.15292 330.86758
321.0 0.003115 299.16766 333.72098
360.0 0.002778 299.18246 339.61172
352.0 0.002841 299.19751 349.42996
370.0 0.002703 299.21255 363.07251
408.0 0.002451 299.22778 377.59567
427.0 0.002342 299.24319 386.43036
404.0 0.002475 299.25870 383.30472
375.0 0.002667 299.27429 370.42163
384.0 0.002604 299.29004 355.10577
339.0 0.002950 299.30603 342.36377
329.0 0.003040 299.32196 333.27676
311.0 0.003215 299.33820 327.88632
311.0 0.003215 299.35446 325.41409
328.0 0.003049 299.37088 324.96106
341.0 0.002933 299.38745 326.17911
344.0 0.002907 299.40408 328.81711
330.0 0.003030 299.42093 332.65125
344.0 0.002907 299.43793 338.09232
377.0 0.002653 299.45499 345.31461
393.0 0.002545 299.47220 354.82849
417.0 0.002398 299.48953 366.68903
435.0 0.002299 299.50702 378.64166
427.0 0.002342 299.52466 387.20160
411.0 0.002433 299.54245 391.98828
418.0 0.002392 299.56033 396.28918
409.0 0.002445 299.57834 401.64709
429.0 0.002331 299.59644 408.14905
463.0 0.002160 299.61465 418.13870
469.0 0.002132 299.63312 433.56937
452.0 0.002212 299.65164 451.98053
492.0 0.002033 299.67032 467.63889
490.0 0.002041 299.68912 480.60077
509.0 0.001965 299.70807 494.90961
504.0 0.001984 299.72708 511.28223
505.0 0.001980 299.74637 527.71063
524.0 0.001908 299.76556 541.37616
538.0 0.001859 299.78513 551.68793
567.0 0.001764 299.80466 554.03558
499.0 0.002004 299.82446 538.57373
490.0 0.002041 299.84436 507.38425
461.0 0.002169 299.86423 473.29681
435.0 0.002299 299.88443 443.62756
433.0 0.002309 299.90460 419.75476
399.0 0.002506 299.92505 402.53271
380.0 0.002632 299.94559 393.12439
369.0 0.002710 299.96625 392.04303
444.0 0.002252 299.98706 397.42157
381.0 0.002625 300.00790 406.36859
442.0 0.002262 300.02902 414.63623
387.0 0.002584 300.05020 420.05338
425.0 0.002353 300.07150 423.09894
417.0 0.002398 300.09299 426.22766
436.0 0.002294 300.11450 432.18726
417.0 0.002398 300.13623 441.13617
447.0 0.002237 300.15811 451.01260
453.0 0.002208 300.18005 459.52313
476.0 0.002101 300.20221 466.68442
502.0 0.001992 300.22443 471.23547
471.0 0.002123 300.24677 469.43338
476.0 0.002101 300.26932 463.74652
477.0 0.002096 300.29187 462.67331
472.0 0.002119 300.31467 470.64374
475.0 0.002105 300.33762 484.84106
483.0 0.002070 300.36063 493.65195
470.0 0.002128 300.38379 484.60059
444.0 0.002252 300.40707 461.14975
397.0 0.002519 300.43051 436.41144
377.0 0.002653 300.45404 417.37506
380.0 0.002632 300.47781 405.41391
403.0 0.002481 300.50159 401.14874
398.0 0.002513 300.52554 405.12122
403.0 0.002481 300.54959 416.90750
402.0 0.002488 300.57382 433.81293
462.0 0.002165 300.59824 452.26321
476.0 0.002101 300.62268 467.84424
495.0 0.002020 300.64734 476.76144
509.0 0.001965 300.67209 479.68106
517.0 0.001934 300.69690 478.74942
510.0 0.001961 300.72192 475.51416
487.0 0.002053 300.74710 469.43469
464.0 0.002155 300.77228 461.49417
465.0 0.002151 300.79776 457.33502
484.0 0.002066 300.82330 460.21576
473.0 0.002114 300.84894 465.18756
437.0 0.002288 300.87476 463.86862
429.0 0.002331 300.90067 455.09875
403.0 0.002481 300.92670 444.70587
414.0 0.002415 300.95294 434.94168
438.0 0.002283 300.97919 424.19186
416.0 0.002404 301.00571 414.66464
407.0 0.002457 301.03226 410.79065
423.0 0.002364 301.05893 415.15887
412.0 0.002427 301.08578 428.30460
448.0 0.002232 301.11279 449.37857
533.0 0.001876 301.13989 475.43622
539.0 0.001855 301.16708 499.97195
533.0 0.001876 301.19452 512.96649
500.0 0.002000 301.22192 505.94858
474.0 0.002110 301.24960 483.03400
445.0 0.002247 301.27740 454.73608
388.0 0.002577 301.30518 427.53635
360.0 0.002778 301.33319 405.35263
358.0 0.002793 301.36136 391.06458
362.0 0.002762 301.38968 384.23947
354.0 0.002825 301.41806 383.07593
395.0 0.002532 301.44659 386.72900
386.0 0.002591 301.47528 394.95160
417.0 0.002398 301.50406 408.28610
420.0 0.002381 301.53302 426.86478
517.0 0.001934 301.56204 452.13080
558.0 0.001792 301.59119 485.21368
605.0 0.001653 301.62054 520.73834
574.0 0.001742 301.64996 542.93219
524.0 0.001908 301.67960 538.02307
504.0 0.001984 301.70923 513.76837
449.0 0.002227 301.73904 487.52548
451.0 0.002217 301.76907 465.81577
453.0 0.002208 301.79913 446.27759
415.0 0.002410 301.82935 426.90265
398.0 0.002513 301.85968 409.03024
398.0 0.002513 301.89014 392.61957
396.0 0.002525 301.92078 377.28699
357.0 0.002801 301.95145 364.56912
334.0 0.002994 301.98230 355.34500
329.0 0.003040 302.01331 349.56772
343.0 0.002915 302.04443 347.26193
329.0 0.003040 302.07565 348.32138
354.0 0.002825 302.10703 353.06143
342.0 0.002924 302.13855 362.42896
412.0 0.002427 302.17026 377.48056
430.0 0.002326 302.20193 398.59521
433.0 0.002309 302.23380 424.98441
468.0 0.002137 302.26578 450.61270
499.0 0.002004 302.29803 466.76572
506.0 0.001976 302.33029 470.83344
435.0 0.002299 302.36264 466.18234
394.0 0.002538 302.39517 452.60541
377.0 0.002653 302.42776 431.72794
386.0 0.002591 302.46054 410.75134
400.0 0.002500 302.49344 394.82666
374.0 0.002674 302.52646 384.85913
367.0 0.002725 302.55969 379.85706
380.0 0.002632 302.59290 380.17963
408.0 0.002451 302.62637 386.11371
441.0 0.002268 302.65988 397.10327
454.0 0.002203 302.69351 410.33618
451.0 0.002217 302.72729 423.06522
462.0 0.002165 302.76120 434.68246
474.0 0.002110 302.79529 441.97226
458.0 0.002183 302.82947 439.04715
426.0 0.002347 302.86368 426.94327
408.0 0.002451 302.89813 414.16119
408.0 0.002451 302.93265 406.92078
408.0 0.002451 302.96732 407.49402
417.0 0.002398 303.00214 415.82425
431.0 0.002320 303.03705 429.33453
450.0 0.002222 303.07208 440.56720
435.0 0.002299 303.10721 441.45474
404.0 0.002475 303.14252 433.36026
382.0 0.002618 303.17798 425.19473
433.0 0.002309 303.21341 422.97958
387.0 0.002584 303.24918 427.11676
426.0 0.002347 303.28488 434.30304
440.0 0.002273 303.32086 438.36911
392.0 0.002551 303.35693 435.33499
396.0 0.002525 303.39307 427.75174
411.0 0.002433 303.42935 420.95715
426.0 0.002347 303.46579 418.28375
450.0 0.002222 303.50229 420.45972
412.0 0.002427 303.53891 424.73627
460.0 0.002174 303.57568 427.03485
386.0 0.002591 303.61261 425.52371
425.0 0.002353 303.64966 418.80685
384.0 0.002604 303.68677 406.76099
373.0 0.002681 303.72409 393.51309
384.0 0.002604 303.76144 383.34906
330.0 0.003030 303.79901 377.06683
344.0 0.002907 303.83655 372.64648
341.0 0.002933 303.87439 367.78787
342.0 0.002924 303.91226 362.67035
346.0 0.002890 303.95023 360.04294
362.0 0.002762 303.98840 360.36349
357.0 0.002801 304.02658 362.65125
352.0 0.002841 304.06503 364.53400
350.0 0.002857 304.10352 363.12711
333.0 0.003003 304.14203 357.17123
336.0 0.002976 304.18079 349.18549
321.0 0.003115 304.21964 342.42654
334.0 0.002994 304.25870 338.37332
326.0 0.003067 304.29776 337.38971
324.0 0.003086 304.33694 339.20242
326.0 0.003067 304.37637 342.51578
331.0 0.003021 304.41574 345.25336
335.0 0.002985 304.45541 344.86136
343.0 0.002915 304.49506 340.97656
322.0 0.003106 304.53485 335.69409
328.0 0.003049 304.57483 331.09686
332.0 0.003012 304.61481 327.76276
356.0 0.002809 304.65503 326.13849
364.0 0.002747 304.69528 326.28656
331.0 0.003021 304.73575 328.74493
350.0 0.002857 304.77628 333.60593
354.0 0.002825 304.81696 340.45169
388.0 0.002577 304.85770 348.81393
388.0 0.002577 304.89862 356.05704
377.0 0.002653 304.93961 358.57343
363.0 0.002755 304.98071 355.26382
351.0 0.002849 305.02200 348.90750
337.0 0.002967 305.06339 342.20328
330.0 0.003030 305.10486 335.91772
295.0 0.003390 305.14639 330.41248
332.0 0.003012 305.18808 326.26770
323.0 0.003096 305.22998 323.60995
330.0 0.003030 305.27194 322.59436
323.0 0.003096 305.31400 323.19992
333.0 0.003003 305.35611 325.31525
329.0 0.003040 305.39844 329.43695
373.0 0.002681 305.44089 335.36453
427.0 0.002342 305.48337 342.30035
381.0 0.002625 305.52606 348.24991
367.0 0.002725 305.56879 350.34637
348.0 0.002874 305.61176 348.08618
335.0 0.002985 305.65463 344.34869
317.0 0.003155 305.69785 341.53241
333.0 0.003003 305.74103 340.74722
362.0 0.002762 305.78436 340.77090
311.0 0.003215 305.82785 339.63184
312.0 0.003205 305.87143 336.49445
347.0 0.002882 305.91507 332.42661
325.0 0.003077 305.95886 328.74936
332.0 0.003012 306.00278 325.13263
312.0 0.003205 306.04681 322.15164
342.0 0.002924 306.09094 319.86227
344.0 0.002907 306.13519 318.44342
321.0 0.003115 306.17960 317.85519
309.0 0.003236 306.22400 318.07111
306.0 0.003268 306.26868 319.06924
331.0 0.003021 306.31332 321.04916
326.0 0.003067 306.35818 323.87122
337.0 0.002967 306.40314 327.14340
334.0 0.002994 306.44812 330.04385
348.0 0.002874 306.49332 331.02048
345.0 0.002899 306.53857 329.50439
328.0 0.003049 306.58395 326.81296
317.0 0.003155 306.62949 324.13727
314.0 0.003185 306.67502 322.27438
339.0 0.002950 306.72083 321.32327
340.0 0.002941 306.76657 321.30133
316.0 0.003165 306.81256 322.10965
313.0 0.003195 306.85861 323.88895
323.0 0.003096 306.90479 326.89575
339.0 0.002950 306.95108 331.61139
350.0 0.002857 306.99738 338.57703
355.0 0.002817 307.04391 348.20004
377.0 0.002653 307.09061 360.56943
385.0 0.002597 307.13718 374.63593
393.0 0.002545 307.18405 386.82132
400.0 0.002500 307.23105 393.73773
396.0 0.002525 307.27805 396.29538
421.0 0.002375 307.32520 398.40744
423.0 0.002364 307.37247 402.72662
416.0 0.002404 307.41983 409.82739
454.0 0.002203 307.46729 417.28113
421.0 0.002375 307.51486 419.63681
390.0 0.002564 307.56256 414.78589
415.0 0.002410 307.61029 407.25281
403.0 0.002481 307.65823 401.66153
385.0 0.002597 307.70627 397.83423
356.0 0.002809 307.75443 391.86942
344.0 0.002907 307.80267 381.57129
356.0 0.002809 307.85089 369.55981
349.0 0.002865 307.89938 359.25119
335.0 0.002985 307.94794 352.29318
343.0 0.002915 307.99664 349.19998
350.0 0.002857 308.04532 349.90509
367.0 0.002725 308.09418 354.01166
365.0 0.002740 308.14316 360.87802
390.0 0.002564 308.19229 368.92386
337.0 0.002967 308.24155 375.62689
397.0 0.002519 308.29077 380.04739
393.0 0.002545 308.34012 383.35498
400.0 0.002500 308.38968 386.53513
387.0 0.002584 308.43927 389.50870
363.0 0.002755 308.48898 391.56812
391.0 0.002558 308.53879 391.14713
345.0 0.002899 308.58875 387.60452
391.0 0.002558 308.63876 382.49576
382.0 0.002618 308.68884 379.23581
404.0 0.002475 308.73911 379.00790
377.0 0.002653 308.78946 380.88086
361.0 0.002770 308.83978 383.93118
438.0 0.002283 308.89035 389.64832
433.0 0.002309 308.94098 400.75058
410.0 0.002439 308.99179 418.52676
450.0 0.002222 309.04269 441.18008
507.0 0.001972 309.09354 461.99951
480.0 0.002083 309.14462 470.30475
470.0 0.002128 309.19577 460.39969
456.0 0.002193 309.24701 438.81812
417.0 0.002398 309.29840 415.82623
371.0 0.002695 309.34982 396.94470
390.0 0.002564 309.40137 383.26691
369.0 0.002710 309.45303 374.26559
369.0 0.002710 309.50482 369.11896
386.0 0.002591 309.55664 367.21738
377.0 0.002653 309.60858 368.32605
352.0 0.002841 309.66071 372.54276
361.0 0.002770 309.71280 379.44562
412.0 0.002427 309.76514 387.15219
433.0 0.002309 309.81747 393.70370
433.0 0.002309 309.86981 397.62360
408.0 0.002451 309.92245 399.05444
401.0 0.002494 309.97510 400.70166
420.0 0.002381 310.02786 405.04044
428.0 0.002336 310.08075 413.33987
450.0 0.002222 310.13361 426.24219
477.0 0.002096 310.18665 443.74091
493.0 0.002028 310.23981 462.78748
503.0 0.001988 310.29303 477.35388
493.0 0.002028 310.34641 484.10260
475.0 0.002105 310.39975 484.08359
482.0 0.002075 310.45337 479.71313
482.0 0.002075 310.50693 470.08783
430.0 0.002326 310.56070 452.67947
398.0 0.002513 310.61450 431.09177
387.0 0.002584 310.66840 412.03290
398.0 0.002513 310.72241 399.61450
366.0 0.002732 310.77649 395.01736
406.0 0.002463 310.83072 397.30545
420.0 0.002381 310.88504 403.85257
405.0 0.002469 310.93933 409.83734
410.0 0.002439 310.99390 410.36386
379.0 0.002639 311.04846 403.92319
411.0 0.002433 311.10315 393.79446
420.0 0.002381 311.15799 384.22742
371.0 0.002695 311.21283 377.04114
327.0 0.003058 311.26776 372.86731
378.0 0.002646 311.32275 371.69681
346.0 0.002890 311.37799 373.48291
391.0 0.002558 311.43314 377.75580
401.0 0.002494 311.48846 383.51877
411.0 0.002433 311.54391 389.54733
421.0 0.002375 311.59943 394.66187
402.0 0.002488 311.65503 398.40134
393.0 0.002545 311.71075 399.52856
381.0 0.002625 311.76651 398.07047
400.0 0.002500 311.82236 397.35873
393.0 0.002545 311.87836 401.66730
390.0 0.002564 311.93448 413.49619
469.0 0.002132 311.99060 432.95218
552.0 0.001812 312.04678 456.53494
487.0 0.002053 312.10318 475.55624
469.0 0.002132 312.15955 478.94333
425.0 0.002353 312.21619 463.76321
410.0 0.002439 312.27277 438.36581
365.0 0.002740 312.32938 412.07611
353.0 0.002833 312.38620 389.52710
345.0 0.002899 312.44305 372.41849
345.0 0.002899 312.50009 360.51797
327.0 0.003058 312.55707 352.75876
328.0 0.003049 312.61414 347.84482
337.0 0.002967 312.67145 344.47314
327.0 0.003058 312.72873 342.06934
326.0 0.003067 312.78622 340.41089
342.0 0.002924 312.84363 339.98019
338.0 0.002959 312.90115 340.75928
341.0 0.002933 312.95889 342.78287
372.0 0.002688 313.01663 346.49857
366.0 0.002732 313.07449 352.55167
365.0 0.002740 313.13242 361.57071
391.0 0.002558 313.19037 374.17712
428.0 0.002336 313.24857 390.33380
435.0 0.002299 313.30670 408.35236
422.0 0.002370 313.36502 423.83963
419.0 0.002387 313.42337 432.11588
426.0 0.002347 313.48169 433.98883
464.0 0.002155 313.54034 435.11658
486.0 0.002058 313.59888 439.01947
470.0 0.002128 313.65765 444.58109
458.0 0.002183 313.71646 447.06668
454.0 0.002203 313.77527 444.89621
447.0 0.002237 313.83417 442.04214
458.0 0.002183 313.89325 441.91815
439.0 0.002278 313.95236 442.70578
420.0 0.002381 314.01163 438.32050
381.0 0.002625 314.07086 425.20941
387.0 0.002584 314.13022 407.30502
377.0 0.002653 314.18973 390.38672
362.0 0.002762 314.24930 377.23758
357.0 0.002801 314.30884 368.38443
374.0 0.002674 314.36856 363.83603
399.0 0.002506 314.42831 363.06985
347.0 0.002882 314.48819 365.61307
370.0 0.002703 314.54816 370.64911
352.0 0.002841 314.60818 376.60391
371.0 0.002695 314.66824 381.69815
371.0 0.002695 314.72849 385.33139
379.0 0.002639 314.78873 388.13547
392.0 0.002551 314.84912 391.38885
389.0 0.002571 314.90952 395.96994
398.0 0.002513 314.96997 401.35159
432.0 0.002315 315.03064 404.94556
379.0 0.002639 315.09125 405.59091
415.0 0.002410 315.15204 405.43509
410.0 0.002439 315.21289 406.53656
404.0 0.002475 315.27377 408.06882
399.0 0.002506 315.33478 407.36514
402.0 0.002488 315.39584 402.62292
355.0 0.002817 315.45700 395.58188
363.0 0.002755 315.51822 388.55566
382.0 0.002618 315.57950 382.74655
395.0 0.002532 315.64090 378.07504
358.0 0.002793 315.70239 375.70575
376.0 0.002660 315.76392 376.40857
379.0 0.002639 315.82553 380.06775
389.0 0.002571 315.88718 384.97699
402.0 0.002488 315.94901 388.05139
407.0 0.002457 316.01077 387.15936
377.0 0.002653 316.07285 383.23785
369.0 0.002710 316.13480 379.23227
371.0 0.002695 316.19681 376.78137
376.0 0.002660 316.25900 376.89844
365.0 0.002740 316.32120 380.35760
411.0 0.002433 316.38351 387.69839
451.0 0.002217 316.44592 399.26968
475.0 0.002105 316.50836 414.84448
492.0 0.002033 316.57089 432.24710
482.0 0.002075 316.63345 446.62463
467.0 0.002141 316.69620 453.81891
467.0 0.002141 316.75897 454.31375
461.0 0.002169 316.82178 451.62955
437.0 0.002288 316.88470 447.23703
430.0 0.002326 316.94763 439.69681
401.0 0.002494 317.01074 429.23380
379.0 0.002639 317.07388 418.50568
388.0 0.002577 317.13702 409.11194
385.0 0.002597 317.20032 401.03732
396.0 0.002525 317.26364 394.47595
368.0 0.002717 317.32712 389.59973
396.0 0.002525 317.39059 386.17920
373.0 0.002681 317.45410 384.54071
405.0 0.002469 317.51776 386.16025
406.0 0.002463 317.58139 391.72589
393.0 0.002545 317.64526 401.05624
412.0 0.002427 317.70914 412.70044
419.0 0.002387 317.77298 424.81216
445.0 0.002247 317.83704 437.72647
492.0 0.002033 317.90106 454.72302
509.0 0.001965 317.96524 477.39523
571.0 0.001751 318.02942 502.71689
585.0 0.001709 318.09366 522.57166
578.0 0.001730 318.15805 528.92023
554.0 0.001805 318.22247 520.59595
481.0 0.002079 318.28699 501.82446
443.0 0.002257 318.35153 477.50620
450.0 0.002222 318.41605 451.85535
415.0 0.002410 318.48087 428.45181
391.0 0.002558 318.54559 408.97409
344.0 0.002907 318.61044 393.21652
347.0 0.002882 318.67535 380.74786
337.0 0.002967 318.74030 371.52081
324.0 0.003086 318.80533 365.41663
329.0 0.003040 318.87048 362.28583
351.0 0.002849 318.93564 361.85272
355.0 0.002817 319.00092 363.88342
360.0 0.002778 319.06619 368.18585
369.0 0.002710 319.13156 374.27548
390.0 0.002564 319.19705 381.24969
396.0 0.002525 319.26257 388.54852
408.0 0.002451 319.32819 397.28812
429.0 0.002331 319.39377 409.42139
429.0 0.002331 319.45953 426.43423
460.0 0.002174 319.52527 447.78595
506.0 0.001976 319.59125 470.13757
545.0 0.001835 319.65714 489.04147
536.0 0.001866 319.72302 499.70734
529.0 0.001890 319.78912 497.87152
484.0 0.002066 319.85526 482.06607
431.0 0.002320 319.92148 456.48523
406.0 0.002463 319.98773 428.67886
383.0 0.002611 320.05396 404.00674
367.0 0.002725 320.12042 384.56387
361.0 0.002770 320.18680 370.45065
376.0 0.002660 320.25336 360.72775
375.0 0.002667 320.31995 354.53992
363.0 0.002755 320.38654 350.83414
356.0 0.002809 320.45328 349.06781
358.0 0.002793 320.51996 348.53467
360.0 0.002778 320.58691 349.02554
363.0 0.002755 320.65381 350.26407
346.0 0.002890 320.72070 351.90384
335.0 0.002985 320.78775 353.79471
342.0 0.002924 320.85486 356.14252
347.0 0.002882 320.92200 359.65430
350.0 0.002857 320.98920 365.21426
382.0 0.002618 321.05640 373.84250
401.0 0.002494 321.12384 385.93848
430.0 0.002326 321.19119 400.66565
457.0 0.002188 321.25876 415.68015
456.0 0.002193 321.32626 427.71423
465.0 0.002151 321.39380 433.53845
459.0 0.002179 321.46146 431.52573
435.0 0.002299 321.52917 421.76224
385.0 0.002597 321.59698 406.99893
385.0 0.002597 321.66483 391.43518
352.0 0.002841 321.73267 378.11475
358.0 0.002793 321.80066 368.23532
333.0 0.003003 321.86868 361.80466
346.0 0.002890 321.93683 358.37720
378.0 0.002646 322.00494 357.63110
407.0 0.002457 322.07312 359.17361
337.0 0.002967 322.14145 363.11145
373.0 0.002681 322.20972 370.17249
437.0 0.002288 322.27811 380.59149
379.0 0.002639 322.34662 395.37589
466.0 0.002146 322.41504 415.50549
450.0 0.002222 322.48370 440.68866
503.0 0.001988 322.55228 467.52356
535.0 0.001869 322.62109 490.83047
499.0 0.002004 322.68976 504.36469
520.0 0.001923 322.75854 507.11038
526.0 0.001901 322.82745 499.90836
493.0 0.002028 322.89633 484.78790
470.0 0.002128 322.96533 465.90128
458.0 0.002183 323.03439 446.72644
412.0 0.002427 323.10352 427.81036
394.0 0.002538 323.17264 409.28827
395.0 0.002532 323.24188 392.76144
350.0 0.002857 323.31116 379.42215
330.0 0.003030 323.38052 369.62723
341.0 0.002933 323.44989 362.88385
345.0 0.002899 323.51938 358.66626
330.0 0.003030 323.58887 356.52527
334.0 0.002994 323.65845 356.19247
331.0 0.003021 323.72812 357.58765
333.0 0.003003 323.79770 360.99597
347.0 0.002882 323.86752 366.85822
352.0 0.002841 323.93729 375.43750
370.0 0.002703 324.00720 387.07898
416.0 0.002404 324.07715 401.50089
436.0 0.002294 324.14703 417.03006
422.0 0.002370 324.21716 430.96124
445.0 0.002247 324.28717 440.65417
468.0 0.002137 324.35733 445.50952
478.0 0.002092 324.42758 446.01666
430.0 0.002326 324.49777 441.28326
405.0 0.002469 324.56818 433.11752
406.0 0.002463 324.63852 424.36511
429.0 0.002331 324.70895 418.24197
414.0 0.002415 324.77951 416.55841
413.0 0.002421 324.84991 419.23788
442.0 0.002262 324.92053 425.01434
463.0 0.002160 324.99124 430.45181
454.0 0.002203 325.06195 430.71570
407.0 0.002457 325.13269 423.04770
395.0 0.002532 325.20346 409.89828
380.0 0.002632 325.27441 395.80606
395.0 0.002532 325.34534 383.81088
370.0 0.002703 325.41638 375.00180
382.0 0.002618 325.48743 369.49344
375.0 0.002667 325.55847 366.96713
358.0 0.002793 325.62970 366.95883
372.0 0.002688 325.70084 368.96490
369.0 0.002710 325.77213 372.46912
387.0 0.002584 325.84344 377.01614
376.0 0.002660 325.91479 382.12088
395.0 0.002532 325.98621 387.20926
408.0 0.002451 326.05771 391.79599
395.0 0.002532 326.12930 395.32437
408.0 0.002451 326.20090 397.63318
391.0 0.002558 326.27246 399.62909
400.0 0.002500 326.34424 403.46347
439.0 0.002278 326.41592 411.27863
430.0 0.002326 326.48782 424.44846
480.0 0.002083 326.55966 443.81674
504.0 0.001984 326.63150 469.41479
531.0 0.001883 326.70358 500.11673
586.0 0.001706 326.77560 534.14630
614.0 0.001629 326.84766 570.07086
665.0 0.001504 326.91986 605.96625
769.0 0.001300 326.99191 640.31897
850.0 0.001176 327.06421 670.98419
738.0 0.001355 327.13651 688.67590
706.0 0.001416 327.20895 679.87408
599.0 0.001669 327.28134 642.44812
500.0 0.002000 327.35370 590.17609
493.0 0.002028 327.42624 539.19678
487.0 0.002053 327.49881 497.59970
476.0 0.002101 327.57144 467.10660
415.0 0.002410 327.64417 446.31653
407.0 0.002457 327.71683 432.84387
429.0 0.002331 327.78964 424.84488
435.0 0.002299 327.86246 421.09750
465.0 0.002151 327.93533 420.18219
452.0 0.002212 328.00833 420.67554
442.0 0.002262 328.08121 421.50653
462.0 0.002165 328.15430 422.10468
441.0 0.002268 328.22733 422.59622
413.0 0.002421 328.30060 424.91388
428.0 0.002336 328.37381 431.11877
469.0 0.002132 328.44693 442.55658
482.0 0.002075 328.52029 459.37518
516.0 0.001938 328.59363 480.35172
548.0 0.001825 328.66711 503.83502
584.0 0.001712 328.74057 529.03583
618.0 0.001618 328.81400 554.38635
601.0 0.001664 328.88763 575.00226
608.0 0.001645 328.96124 586.56757
622.0 0.001608 329.03491 591.76654
644.0 0.001553 329.10861 597.25824
591.0 0.001692 329.18243 604.15375
591.0 0.001692 329.25632 606.40283
557.0 0.001795 329.33011 598.11298
580.0 0.001724 329.40405 579.40344
520.0 0.001923 329.47809 555.10913
474.0 0.002110 329.55203 529.62354
454.0 0.002203 329.62619 504.43475
450.0 0.002222 329.70029 480.71927
411.0 0.002433 329.77457 460.39078
470.0 0.002128 329.84879 444.22318
417.0 0.002398 329.92300 431.47559
414.0 0.002415 329.99741 420.16864
404.0 0.002475 330.07181 409.34143
383.0 0.002611 330.14630 399.07578
367.0 0.002725 330.22086 390.17389
331.0 0.003021 330.29538 383.32605
347.0 0.002882 330.37000 378.85220
357.0 0.002801 330.44458 376.91348
393.0 0.002545 330.51941 377.67401
387.0 0.002584 330.59421 381.41843
350.0 0.002857 330.66888 388.54544
415.0 0.002410 330.74390 399.37097
405.0 0.002469 330.81876 413.77307
424.0 0.002358 330.89374 430.56824
430.0 0.002326 330.96878 446.58044
479.0 0.002088 331.04385 457.20038
412.0 0.002427 331.11902 459.79877
437.0 0.002288 331.19415 455.61221
459.0 0.002179 331.26941 448.01971
434.0 0.002304 331.34476 439.64987
423.0 0.002364 331.42001 431.42578
442.0 0.002262 331.49551 423.79752
451.0 0.002217 331.57083 417.15781
425.0 0.002353 331.64645 410.47330
420.0 0.002381 331.72198 403.52130
400.0 0.002500 331.79758 396.43353
391.0 0.002558 331.87326 389.35599
377.0 0.002653 331.94897 383.27197
378.0 0.002646 332.02469 378.58084
409.0 0.002445 332.10056 375.37686
398.0 0.002513 332.17636 373.78979
390.0 0.002564 332.25235 374.24136
386.0 0.002591 332.32822 376.57123
372.0 0.002688 332.40436 380.86545
370.0 0.002703 332.48044 388.16180
402.0 0.002488 332.55643 399.59845
436.0 0.002294 332.63266 416.51245
467.0 0.002141 332.70886 440.10336
537.0 0.001862 332.78525 470.78763
590.0 0.001695 332.86157 507.30014
633.0 0.001580 332.93790 546.13995
678.0 0.001475 333.01440 581.00623
647.0 0.001546 333.09088 601.91205
607.0 0.001647 333.16745 599.29517
549.0 0.001821 333.24408 573.41980
484.0 0.002066 333.32062 535.13641
454.0 0.002203 333.39737 495.79285
426.0 0.002347 333.47412 461.17551
394.0 0.002538 333.55099 433.21136
362.0 0.002762 333.62793 411.81226
357.0 0.002801 333.70474 396.45798
388.0 0.002577 333.78174 385.89117
349.0 0.002865 333.85876 379.07907
371.0 0.002695 333.93588 374.61020
399.0 0.002506 334.01306 372.53156
359.0 0.002786 334.09012 371.71677
356.0 0.002809 334.16742 371.93771
370.0 0.002703 334.24469 373.26770
369.0 0.002710 334.32211 375.48853
380.0 0.002632 334.39951 379.75122
374.0 0.002674 334.47696 386.88528
405.0 0.002469 334.55441 397.14136
433.0 0.002309 334.63196 410.50360
462.0 0.002165 334.70966 427.00476
470.0 0.002128 334.78738 445.19882
525.0 0.001905 334.86502 462.22498
524.0 0.001908 334.94281 473.48853
493.0 0.002028 335.02057 473.83789
467.0 0.002141 335.09857 462.13107
422.0 0.002370 335.17645 443.02289
398.0 0.002513 335.25446 422.71588
359.0 0.002786 335.33258 404.97623
364.0 0.002747 335.41061 391.23026
363.0 0.002755 335.48883 381.46167
378.0 0.002646 335.56705 375.11804
386.0 0.002591 335.64526 371.43130
342.0 0.002924 335.72360 369.58774
379.0 0.002639 335.80194 368.97894
391.0 0.002558 335.88043 369.19757
365.0 0.002740 335.95892 370.32886
392.0 0.002551 336.03738 372.72330
372.0 0.002688 336.11609 376.72128
379.0 0.002639 336.19467 383.28018
393.0 0.002545 336.27341 393.10345
398.0 0.002513 336.35229 406.92212
429.0 0.002331 336.43094 425.06400
486.0 0.002058 336.50986 446.74719
503.0 0.001988 336.58881 469.18854
508.0 0.001969 336.66788 486.91199
481.0 0.002079 336.74689 493.64899
458.0 0.002183 336.82599 487.76776
443.0 0.002257 336.90515 473.05847
416.0 0.002404 336.98434 455.99500
432.0 0.002315 337.06369 441.90195
436.0 0.002294 337.14304 433.56018
440.0 0.002273 337.22232 431.57419
455.0 0.002198 337.30182 435.01382
454.0 0.002203 337.38129 441.49426
456.0 0.002193 337.46088 446.98349
444.0 0.002252 337.54050 446.73425
413.0 0.002421 337.62012 439.03745
405.0 0.002469 337.69989 426.30038
395.0 0.002532 337.77966 412.75330
372.0 0.002688 337.85959 400.96515
354.0 0.002825 337.93951 392.07455
382.0 0.002618 338.01935 386.37170
393.0 0.002545 338.09943 383.73178
396.0 0.002525 338.17950 384.13858
412.0 0.002427 338.25967 387.71048
411.0 0.002433 338.33984 394.02548
411.0 0.002433 338.42004 403.10443
438.0 0.002283 338.50043 414.55246
466.0 0.002146 338.58072 426.13782
446.0 0.002242 338.66122 434.89719
463.0 0.002160 338.74170 438.86340
423.0 0.002364 338.82214 438.60187
419.0 0.002387 338.90280 437.05856
425.0 0.002353 338.98349 437.34900
488.0 0.002049 339.06427 441.10648
474.0 0.002110 339.14499 447.69583
473.0 0.002114 339.22577 454.25259
436.0 0.002294 339.30682 457.33853
470.0 0.002128 339.38773 455.61960
468.0 0.002137 339.46884 449.82178
420.0 0.002381 339.54984 440.86258
430.0 0.002326 339.63092 430.41391
415.0 0.002410 339.71225 420.76544
414.0 0.002415 339.79346 414.02005
387.0 0.002584 339.87485 411.20273
412.0 0.002427 339.95624 412.81201
418.0 0.002392 340.03763 418.91495
448.0 0.002232 340.11917 429.19562
466.0 0.002146 340.20074 442.36432
497.0 0.002012 340.28241 455.89984
482.0 0.002075 340.36417 466.63232
461.0 0.002169 340.44580 473.45239
462.0 0.002165 340.52768 478.42981
508.0 0.001969 340.60956 484.95486
524.0 0.001908 340.69150 494.58273
570.0 0.001754 340.77356 506.01974
558.0 0.001792 340.85559 516.26324
552.0 0.001812 340.93781 521.11810
528.0 0.001894 341.01990 516.82648
489.0 0.002045 341.10220 503.68100
469.0 0.002132 341.18463 485.81720
447.0 0.002237 341.26685 466.98523
409.0 0.002445 341.34943 448.75134
383.0 0.002611 341.43188 432.30075
375.0 0.002667 341.51456 418.73080
367.0 0.002725 341.59723 408.59808
359.0 0.002786 341.67987 401.66696
357.0 0.002801 341.76273 397.52734
387.0 0.002584 341.84543 396.02658
398.0 0.002513 341.92847 397.07077
407.0 0.002457 342.01138 400.71063
428.0 0.002336 342.09442 406.70944
433.0 0.002309 342.17752 415.24197
433.0 0.002309 342.26065 425.50119
451.0 0.002217 342.34396 437.01620
472.0 0.002119 342.42725 448.87372
481.0 0.002079 342.51059 461.16351
507.0 0.001972 342.59409 475.33414
544.0 0.001838 342.67755 492.78879
578.0 0.001730 342.76120 513.42908
598.0 0.001672 342.84482 534.79553
619.0 0.001616 342.92844 552.92212
621.0 0.001610 343.01227 564.35596
610.0 0.001639 343.09610 567.40643
604.0 0.001656 343.18002 561.00891
559.0 0.001789 343.26401 545.69031
516.0 0.001938 343.34799 523.30621
491.0 0.002037 343.43210 497.16641
447.0 0.002237 343.51627 471.76297
405.0 0.002469 343.60059 450.65598
406.0 0.002463 343.68494 435.58221
437.0 0.002288 343.76926 426.87106
461.0 0.002169 343.85370 424.25073
456.0 0.002193 343.93817 427.24155
495.0 0.002020 344.02289 435.01764
489.0 0.002045 344.10751 445.84274
488.0 0.002049 344.19217 456.32355
453.0 0.002208 344.27704 461.93027
463.0 0.002160 344.36191 459.43234
440.0 0.002273 344.44690 450.34732
431.0 0.002320 344.53192 439.43015
401.0 0.002494 344.61691 430.53430
380.0 0.002632 344.70215 425.44629
457.0 0.002188 344.78738 424.51141
442.0 0.002262 344.87277 427.03592
419.0 0.002387 344.95807 431.50574
440.0 0.002273 345.04343 435.93402
466.0 0.002146 345.12903 439.16531
454.0 0.002203 345.21451 440.85632
494.0 0.002024 345.30029 440.56137
435.0 0.002299 345.38605 437.23590
401.0 0.002494 345.47177 430.29672
398.0 0.002513 345.55771 420.52054
386.0 0.002591 345.64362 409.92215
385.0 0.002597 345.72971 400.52295
407.0 0.002457 345.81580 393.49991
376.0 0.002660 345.90182 389.40033
382.0 0.002618 345.98822 388.01157
378.0 0.002646 346.07449 389.56192
416.0 0.002404 346.16092 393.49893
443.0 0.002257 346.24741 398.78519
452.0 0.002212 346.33386 403.87308
438.0 0.002283 346.42062 406.64758
417.0 0.002398 346.50720 405.31970
385.0 0.002597 346.59409 400.07486
363.0 0.002755 346.68091 392.90564
340.0 0.002941 346.76773 385.89487
333.0 0.003003 346.85486 380.16690
352.0 0.002841 346.94189 376.14297
362.0 0.002762 347.02905 373.80954
356.0 0.002809 347.11630 372.91278
357.0 0.002801 347.20355 373.14182
376.0 0.002660 347.29099 374.14676
379.0 0.002639 347.37842 375.80432
391.0 0.002558 347.46600 377.76376
386.0 0.002591 347.55368 379.37039
371.0 0.002695 347.64127 379.72733
372.0 0.002688 347.72906 378.67001
389.0 0.002571 347.81699 376.79651
379.0 0.002639 347.90491 374.96951
350.0 0.002857 347.99292 373.91266
390.0 0.002564 348.08093 373.98392
382.0 0.002618 348.16919 375.11249
341.0 0.002933 348.25739 377.07507
346.0 0.002890 348.34570 379.65323
335.0 0.002985 348.43408 382.28909
406.0 0.002463 348.52252 384.73431
383.0 0.002611 348.61118 387.07950
384.0 0.002604 348.69980 389.36435
407.0 0.002457 348.78851 391.21338
387.0 0.002584 348.87744 392.01364
379.0 0.002639 348.96616 391.60196
377.0 0.002653 349.05524 389.58817
362.0 0.002762 349.14420 386.21091
372.0 0.002688 349.23343 381.87238
368.0 0.002717 349.32266 377.46988
360.0 0.002778 349.41190 373.74454
374.0 0.002674 349.50128 371.10342
361.0 0.002770 349.59073 369.61212
356.0 0.002809 349.68033 369.05692
326.0 0.003067 349.76993 369.12851
365.0 0.002740 349.85962 369.28299
332.0 0.003012 349.94943 369.01871
359.0 0.002786 350.03928 368.39706
351.0 0.002849 350.12933 367.59625
357.0 0.002801 350.21933 366.99173
370.0 0.002703 350.30936 366.85559
348.0 0.002874 350.39963 367.30557
367.0 0.002725 350.48990 368.21988
361.0 0.002770 350.58041 369.75995
334.0 0.002994 350.67087 371.58951
360.0 0.002778 350.76135 373.69318
354.0 0.002825 350.85199 376.17639
371.0 0.002695 350.94266 379.24036
381.0 0.002625 351.03351 382.93576
396.0 0.002525 351.12454 387.06445
395.0 0.002532 351.21536 391.31100
392.0 0.002551 351.30646 395.40414
394.0 0.002538 351.39761 398.75562
405.0 0.002469 351.48886 400.39603
404.0 0.002475 351.58020 400.25894
404.0 0.002475 351.67154 399.05600
404.0 0.002475 351.76312 398.06305
386.0 0.002591 351.85468 398.01361
381.0 0.002625 351.94641 398.91757
399.0 0.002506 352.03815 400.56995
452.0 0.002212 352.12994 402.63361
442.0 0.002262 352.22195 404.76028
418.0 0.002392 352.31390 406.24261
402.0 0.002488 352.40610 406.41458
418.0 0.002392 352.49826 405.75122
394.0 0.002538 352.59039 405.38922
398.0 0.002513 352.68289 406.08453
437.0 0.002288 352.77533 407.67715
416.0 0.002404 352.86795 409.51508
412.0 0.002427 352.96054 410.35175
412.0 0.002427 353.05328 408.97516
388.0 0.002577 353.14609 405.33337
387.0 0.002584 353.23895 400.57297
380.0 0.002632 353.33203 395.90173
365.0 0.002740 353.42517 392.07190
373.0 0.002681 353.51828 389.14029
375.0 0.002667 353.61157 387.18781
400.0 0.002500 353.70486 386.26245
381.0 0.002625 353.79840 386.12173
399.0 0.002506 353.89200 386.53171
377.0 0.002653 353.98547 387.14798
364.0 0.002747 354.07932 388.08862
385.0 0.002597 354.17307 389.79315
394.0 0.002538 354.26703 392.51724
448.0 0.002232 354.36108 396.11618
426.0 0.002347 354.45505 400.11652
448.0 0.002232 354.54932 403.82166
403.0 0.002481 354.64349 406.24374
402.0 0.002488 354.73798 406.79163
381.0 0.002625 354.83249 405.75671
413.0 0.002421 354.92688 404.28265
403.0 0.002481 355.02161 403.58704
408.0 0.002451 355.11630 404.48904
428.0 0.002336 355.21118 407.16583
407.0 0.002457 355.30612 411.19580
415.0 0.002410 355.40103 415.56604
421.0 0.002375 355.49622 419.10764
444.0 0.002252 355.59143 420.66022
427.0 0.002342 355.68671 420.21106
396.0 0.002525 355.78210 419.04352
419.0 0.002387 355.87753 418.88278
415.0 0.002410 355.97321 421.27472
428.0 0.002336 356.06882 426.90204
475.0 0.002105 356.16464 436.07639
552.0 0.001812 356.26056 448.10834
607.0 0.001647 356.35635 460.75421
548.0 0.001825 356.45242 470.07660
536.0 0.001866 356.54861 471.82397
510.0 0.001961 356.64487 465.14166
440.0 0.002273 356.74115 453.35999
427.0 0.002342 356.83749 440.51846
449.0 0.002227 356.93417 428.93323
422.0 0.002370 357.03067 419.43784
390.0 0.002564 357.12750 411.72729
372.0 0.002688 357.22424 405.70328
393.0 0.002545 357.32111 401.37881
397.0 0.002519 357.41815 398.89102
389.0 0.002571 357.51514 398.30386
412.0 0.002427 357.61237 399.63617
429.0 0.002331 357.70969 402.90601
406.0 0.002463 357.80695 408.14026
449.0 0.002227 357.90454 415.10455
466.0 0.002146 358.00198 422.77521
457.0 0.002188 358.09979 429.45053
459.0 0.002179 358.19751 432.84503
448.0 0.002232 358.29526 431.98950
429.0 0.002331 358.39331 428.50766
390.0 0.002564 358.49124 425.08786
426.0 0.002347 358.58951 423.82254
431.0 0.002320 358.68781 425.73691
458.0 0.002183 358.78601 431.02850
459.0 0.002179 358.88440 438.97464
460.0 0.002174 358.98294 447.72562
479.0 0.002088 359.08160 454.42947
469.0 0.002132 359.18039 456.60577
433.0 0.002309 359.27908 453.94034
431.0 0.002320 359.37799 448.34338
437.0 0.002288 359.47702 442.26453
409.0 0.002445 359.57611 437.28369
435.0 0.002299 359.67535 433.62128
436.0 0.002294 359.77454 430.14142
456.0 0.002193 359.87399 425.65472
431.0 0.002320 359.97339 420.02472
393.0 0.002545 360.07309 414.13455
359.0 0.002786 360.17276 409.15796
420.0 0.002381 360.27240 405.86285
414.0 0.002415 360.37238 404.47665
374.0 0.002674 360.47223 405.10483
388.0 0.002577 360.57245 407.70203
393.0 0.002545 360.67252 411.89020
424.0 0.002358 360.77267 416.84695
428.0 0.002336 360.87314 421.62115
432.0 0.002315 360.97348 425.69788
443.0 0.002257 361.07410 428.94510
399.0 0.002506 361.17474 430.92087
424.0 0.002358 361.27536 430.81635
417.0 0.002398 361.37628 428.25464
380.0 0.002632 361.47711 423.98175
401.0 0.002494 361.57816 419.54510
428.0 0.002336 361.67929 416.00592
417.0 0.002398 361.78040 413.76828
411.0 0.002433 361.88174 412.40363
379.0 0.002639 361.98303 411.36130
373.0 0.002681 362.08463 410.48685
404.0 0.002475 362.18619 410.17535
416.0 0.002404 362.28784 411.07620
425.0 0.002353 362.38965 412.72726
410.0 0.002439 362.49146 414.99014
410.0 0.002439 362.59348 417.56967
429.0 0.002331 362.69556 420.97156
433.0 0.002309 362.79761 426.10565
459.0 0.002179 362.89987 433.70688
468.0 0.002137 363.00208 443.78769
484.0 0.002066 363.10468 455.24844
483.0 0.002070 363.20718 465.68439
456.0 0.002193 363.30966 472.03571
440.0 0.002273 363.41248 472.68982
451.0 0.002217 363.51529 468.90326
461.0 0.002169 363.61819 462.98309
436.0 0.002294 363.72122 457.15039
418.0 0.002392 363.82413 452.55585
419.0 0.002387 363.92743 449.01837
411.0 0.002433 364.03067 445.45108
397.0 0.002519 364.13403 440.78622
401.0 0.002494 364.23746 434.86154
412.0 0.002427 364.34094 428.95782
406.0 0.002463 364.44461 424.42828
394.0 0.002538 364.54825 422.01440
404.0 0.002475 364.65213 421.94760
439.0 0.002278 364.75607 424.60526
434.0 0.002304 364.85992 429.44623
462.0 0.002165 364.96405 435.64368
487.0 0.002053 365.06818 441.59946
477.0 0.002096 365.17252 445.36398
427.0 0.002342 365.27682 445.57227
457.0 0.002188 365.38113 443.37918
432.0 0.002315 365.48581 441.23981
421.0 0.002375 365.59033 441.31604
435.0 0.002299 365.69510 444.87201
488.0 0.002049 365.79990 452.26358
456.0 0.002193 365.90460 462.88416
498.0 0.002008 366.00970 475.05112
493.0 0.002028 366.11469 486.14627
515.0 0.001942 366.21988 493.49545
523.0 0.001912 366.32507 495.29370
461.0 0.002169 366.43027 490.79443
467.0 0.002141 366.53580 480.58395
445.0 0.002247 366.64117 467.29333
444.0 0.002252 366.74686 453.65262
401.0 0.002494 366.85245 441.44131
418.0 0.002392 366.95807 431.18326
425.0 0.002353 367.06400 422.90961
377.0 0.002653 367.16983 416.64014
383.0 0.002611 367.27588 412.53067
398.0 0.002513 367.38199 410.60004
417.0 0.002398 367.48801 410.66818
413.0 0.002421 367.59421 412.77945
427.0 0.002342 367.70059 416.74167
434.0 0.002304 367.80695 422.15555
453.0 0.002208 367.91348 428.23547
446.0 0.002242 368.01993 433.90125
423.0 0.002364 368.12659 438.05957
412.0 0.002427 368.23328 440.13159
405.0 0.002469 368.34009 440.14050
411.0 0.002433 368.44699 438.18762
400.0 0.002500 368.55380 434.83563
398.0 0.002513 368.66089 431.51224
391.0 0.002558 368.76794 429.45743
412.0 0.002427 368.87524 429.18893
429.0 0.002331 368.98239 430.56308
449.0 0.002227 369.08966 433.05905
437.0 0.002288 369.19714 435.45450
430.0 0.002326 369.30447 436.79877
432.0 0.002315 369.41217 436.77658
415.0 0.002410 369.51971 435.92209
395.0 0.002532 369.62732 435.45966
438.0 0.002283 369.73514 436.55908
491.0 0.002037 369.84293 439.62592
477.0 0.002096 369.95087 444.57352
465.0 0.002151 370.05887 450.55444
419.0 0.002387 370.16681 456.63901
454.0 0.002203 370.27496 462.88657
504.0 0.001984 370.38309 470.46100
524.0 0.001908 370.49142 480.62167
552.0 0.001812 370.59967 493.52917
596.0 0.001678 370.70795 507.43237
637.0 0.001570 370.81650 518.58386
554.0 0.001805 370.92493 522.58643
521.0 0.001919 371.03354 517.76483
518.0 0.001931 371.14218 506.81415
482.0 0.002075 371.25076 493.95950
481.0 0.002079 371.35956 481.91516
447.0 0.002237 371.46835 471.96539
438.0 0.002283 371.57727 464.65817
440.0 0.002273 371.68625 460.06339
462.0 0.002165 371.79514 458.08606
515.0 0.001942 371.90421 458.45401
498.0 0.002008 372.01337 460.34677
492.0 0.002033 372.12262 462.71518
487.0 0.002053 372.23181 464.14664
477.0 0.002096 372.34100 464.90652
483.0 0.002070 372.45038 466.17090
525.0 0.001905 372.55972 469.13538
501.0 0.001996 372.66919 473.84317
523.0 0.001912 372.77872 478.92300
515.0 0.001942 372.88815 482.64520
487.0 0.002053 372.99786 483.58789
491.0 0.002037 373.10739 481.44827
476.0 0.002101 373.21713 476.54065
452.0 0.002212 373.32693 470.62289
481.0 0.002079 373.43661 465.75555
450.0 0.002222 373.54645 463.34149
467.0 0.002141 373.65625 463.64075
478.0 0.002092 373.76624 465.38199
498.0 0.002008 373.87619 466.51941
450.0 0.002222 373.98611 464.84097
454.0 0.002203 374.09625 460.29327
462.0 0.002165 374.20618 454.39105
445.0 0.002247 374.31641 449.17267
465.0 0.002151 374.42661 445.84967
461.0 0.002169 374.53662 444.63397
464.0 0.002155 374.64694 444.96494
413.0 0.002421 374.75714 445.81351
431.0 0.002320 374.86752 446.14191
444.0 0.002252 374.97781 445.46249
423.0 0.002364 375.08810 443.87308
402.0 0.002488 375.19849 441.51526
414.0 0.002415 375.30890 438.63620
425.0 0.002353 375.41943 435.85846
421.0 0.002375 375.52994 433.91034
449.0 0.002227 375.64029 433.24258
457.0 0.002188 375.75095 433.73447
451.0 0.002217 375.86139 434.72864
444.0 0.002252 375.97205 435.34131
433.0 0.002309 376.08264 435.10251
427.0 0.002342 376.19308 434.09930
431.0 0.002320 376.30377 432.85843
451.0 0.002217 376.41437 431.91946
456.0 0.002193 376.52512 431.85562
451.0 0.002217 376.63589 432.89157
450.0 0.002222 376.74640 434.74219
449.0 0.002227 376.85709 437.62433
484.0 0.002066 376.96786 441.68152
456.0 0.002193 377.07855 447.17630
454.0 0.002203 377.18933 453.61301
479.0 0.002088 377.29996 460.08789
468.0 0.002137 377.41074 465.93716
500.0 0.002000 377.52148 471.03656
492.0 0.002033 377.63223 476.14526
514.0 0.001946 377.74301 481.72470
524.0 0.001908 377.85367 486.91309
486.0 0.002058 377.96442 489.47360
469.0 0.002132 378.07520 487.05875
437.0 0.002288 378.18594 479.26257
442.0 0.002262 378.29669 468.02319
427.0 0.002342 378.40729 456.09158
436.0 0.002294 378.51810 445.36383
421.0 0.002375 378.62872 436.81921
417.0 0.002398 378.73944 430.62244
397.0 0.002519 378.85016 426.46741
397.0 0.002519 378.96063 423.82272
420.0 0.002381 379.07141 422.17599
387.0 0.002584 379.18195 421.71631
378.0 0.002646 379.29269 422.38312
398.0 0.002513 379.40326 424.67535
437.0 0.002288 379.51370 428.33566
430.0 0.002326 379.62427 433.29929
434.0 0.002304 379.73471 439.00620
465.0 0.002151 379.84531 444.34735
461.0 0.002169 379.95572 448.81619
444.0 0.002252 380.06604 452.11240
457.0 0.002188 380.17654 455.05853
467.0 0.002141 380.28683 458.64191
470.0 0.002128 380.39722 463.33328
490.0 0.002041 380.50751 469.10196
491.0 0.002037 380.61755 475.56653
505.0 0.001980 380.72781 482.08264
523.0 0.001912 380.83789 487.85229
538.0 0.001859 380.94806 491.83167
524.0 0.001908 381.05811 493.44794
502.0 0.001992 381.16806 492.42963
479.0 0.002088 381.27798 489.04196
500.0 0.002000 381.38788 483.95178
508.0 0.001969 381.49780 478.69424
471.0 0.002123 381.60754 475.04343
469.0 0.002132 381.71716 474.23883
510.0 0.001961 381.82687 476.49591
528.0 0.001894 381.93640 481.19611
527.0 0.001898 382.04596 486.52670
508.0 0.001969 382.15549 490.63232
503.0 0.001988 382.26474 492.97186
518.0 0.001931 382.37415 494.27637
536.0 0.001866 382.48331 494.56586
519.0 0.001927 382.59259 493.36285
476.0 0.002101 382.70160 489.67426
447.0 0.002237 382.81052 483.14066
446.0 0.002242 382.91949 474.54318
433.0 0.002309 383.02829 465.21536
411.0 0.002433 383.13712 455.86804
409.0 0.002445 383.24573 447.32190
397.0 0.002519 383.35419 440.34088
421.0 0.002375 383.46271 435.36047
411.0 0.002433 383.57104 432.51971
414.0 . . .
loop_
_refln_index_h
_refln_index_k
_refln_index_l
_pd_refln_wavelength_id
_refln_observed_status
_refln_F_squared_meas
_refln_F_squared_calc
_refln_phase_calc
_refln_d_spacing
_gsas_i100_meas
0 2 0 1 o 42259.88 38323.97 0.00 6.67555 14.70
0 2 0 2 o 41782.20 38323.97 0.00 6.67555 7.22
1 1 1 1 o 19922.439 19332.064 0.00 6.04958 19.27
1 1 1 2 o 19471.586 19332.064 0.00 6.04958 9.35
2 0 0 1 o 780.762 992.948 180.00 4.81848 0.00
2 0 0 2 o 780.762 992.948 180.00 4.81848 0.00
0 0 2 1 o 35235.97 38887.25 0.00 4.77891 3.79
0 0 2 2 o 37336.02 38887.25 0.00 4.77891 2.05
1 2 1 1 o 5399.396 5581.682 0.00 4.75897 1.81
1 2 1 2 o 5215.100 5581.682 0.00 4.75897 0.84
2 1 0 1 o 162400.45 162373.56 180.00 4.53234 39.70
2 1 0 2 o 160427.72 162373.56 180.00 4.53234 19.47
1 0 2 1 o 227937.63 231754.53 0.00 4.28140 49.58
1 0 2 2 o 225765.09 231754.53 0.00 4.28140 24.39
2 1 1 1 o 124007.08 117322.87 0.00 4.09523 50.96
2 1 1 2 o 121388.49 117322.87 0.00 4.09523 24.74
1 1 2 1 o 122345.41 119208.25 0.00 4.07690 49.44
1 1 2 2 o 119254.52 119208.25 0.00 4.07690 23.89
0 3 1 1 o 439756.2 456680.4 180.00 4.03445 100.00
0 3 1 2 o 446724.5 456680.4 180.00 4.03445 50.67
2 2 0 1 o 89177.48 83607.76 180.00 3.90701 17.23
2 2 0 2 o 85674.80 83607.76 180.00 3.90701 8.18
0 2 2 1 o 52214.83 52820.61 0.00 3.88582 9.86
0 2 2 2 o 53967.00 52820.61 0.00 3.88582 5.10
1 3 1 1 o 83597.43 78032.13 180.00 3.72149 32.27
1 3 1 2 o 82385.06 78032.13 180.00 3.72149 15.79
2 2 1 1 o 188601.42 182888.02 180.00 3.61652 61.89
2 2 1 2 o 185774.44 182888.02 180.00 3.61652 30.26
1 2 2 1 o 456.121 471.912 0.00 3.60388 0.15
1 2 2 2 o 452.310 471.912 0.00 3.60388 0.08
2 0 2 1 o 153835.03 143174.27 180.00 3.39311 22.25
2 0 2 2 o 154289.55 143174.27 180.00 3.39311 11.11
0 4 0 1 o 146267.61 137299.78 180.00 3.33777 12.82
0 4 0 2 o 143385.64 137299.78 180.00 3.33777 6.24
2 1 2 1 o 13824.964 14389.273 180.00 3.28856 3.70
2 1 2 2 o 13555.117 14389.273 180.00 3.28856 1.80
2 3 0 1 o 40288.79 43760.36 180.00 3.26929 5.39
2 3 0 2 o 36783.40 43760.36 180.00 3.26929 2.40
0 1 3 1 o 147746.06 150772.66 180.00 3.09893 16.51
2 3 1 1 o 42274.82 42898.63 0.00 3.09333 10.29
0 1 3 2 o 149625.33 150772.66 180.00 3.09893 8.34
2 3 1 2 o 44122.63 42898.63 0.00 3.09333 5.38
1 3 2 1 o 27436.285 26636.674 0.00 3.08541 6.67
1 3 2 2 o 28178.193 26636.674 0.00 3.08541 3.42
2 2 2 1 o 59836.05 58555.69 180.00 3.02479 13.09
2 2 2 2 o 58007.83 58555.69 180.00 3.02479 6.28
1 4 1 1 o 17084.748 17928.506 180.00 2.99510 4.28
1 4 1 2 o 18176.842 17928.506 180.00 2.99510 2.29
3 1 1 1 o 65790.91 64126.71 0.00 2.96871 13.87
3 1 1 2 o 63479.29 64126.71 0.00 2.96871 6.63
1 1 3 1 o 445.617 906.562 0.00 2.95015 0.05
1 1 3 2 o 252.192 906.562 0.00 2.95015 0.00
3 2 1 1 o 33034.176 31890.631 180.00 2.77035 6.21
3 2 1 2 o 32015.473 31890.631 180.00 2.77035 2.98
1 2 3 1 o 119608.12 126271.52 0.00 2.75525 21.68
1 2 3 2 o 119524.96 126271.52 0.00 2.75525 10.77
2 4 0 1 o 100869.98 101963.01 180.00 2.74378 10.06
2 4 0 2 o 99444.05 101963.01 180.00 2.74378 4.92
0 4 2 1 o 29337.191 30116.156 0.00 2.73642 3.04
0 4 2 2 o 28042.043 30116.156 0.00 2.73642 1.44
2 3 2 1 o 2885.639 4091.152 180.00 2.69830 0.53
2 3 2 2 o 3066.641 4091.152 180.00 2.69830 0.28
3 0 2 1 o 90388.02 85519.10 0.00 2.66600 7.17
3 0 2 2 o 86019.52 85519.10 0.00 2.66600 3.36
2 4 1 1 o 24061.789 23848.340 0.00 2.63727 4.22
1 4 2 1 o 31037.604 30636.756 180.00 2.63235 5.41
2 4 1 2 o 24244.521 23848.340 0.00 2.63727 2.12
1 4 2 2 o 32242.416 30636.756 180.00 2.63235 2.82
3 1 2 1 o 28992.816 28868.072 180.00 2.61439 4.34
3 1 2 2 o 28547.975 28868.072 180.00 2.61439 2.12
2 1 3 1 o 28401.498 28901.002 0.00 2.60643 4.26
2 1 3 2 o 28246.832 28901.002 0.00 2.60643 2.10
0 3 3 1 o -0.168 0.009 0.00 2.59055 0.00
0 3 3 2 o 0.723 0.009 0.00 2.59055 0.00
0 5 1 1 o 61986.19 61417.53 180.00 2.57174 5.35
0 5 1 2 o 59508.22 61417.53 180.00 2.57174 2.53
3 3 1 1 o 28058.186 25720.258 180.00 2.51303 4.20
3 3 1 2 o 26339.199 25720.258 180.00 2.51303 1.94
1 3 3 1 o 123959.09 122940.07 180.00 2.50174 18.20
1 3 3 2 o 121147.55 122940.07 180.00 2.50174 8.81
1 5 1 1 o 5741.899 5868.021 180.00 2.48479 0.95
1 5 1 2 o 5630.850 5868.021 180.00 2.48479 0.46
3 2 2 1 o 15972.847 16729.154 180.00 2.47586 2.07
3 2 2 2 o 15877.079 16729.154 180.00 2.47586 1.02
2 2 3 1 o 23919.465 25280.807 0.00 2.46909 3.10
2 2 3 2 o 24739.594 25280.807 0.00 2.46909 1.61
4 0 0 1 o 23523.779 20789.762 180.00 2.40924 0.70
4 0 0 2 o 21940.297 20789.762 180.00 2.40924 0.32
0 0 4 1 o 51476.71 50369.94 180.00 2.38946 1.56
0 0 4 2 o 51919.34 50369.94 180.00 2.38946 0.78
2 4 2 1 o 29345.090 29587.910 180.00 2.37948 3.71
2 4 2 2 o 29903.453 29587.910 180.00 2.37948 1.89
4 1 0 1 o 14564.630 13513.140 180.00 2.37095 0.92
4 1 0 2 o 15703.612 13513.140 180.00 2.37095 0.50
2 5 0 1 o 163564.95 146243.13 0.00 2.33557 11.42
2 5 0 2 o 155549.64 146243.13 0.00 2.33557 5.35
1 0 4 1 o 36161.42 31425.168 0.00 2.31923 2.01
1 0 4 2 o 37751.17 31425.168 0.00 2.31923 1.06
4 1 1 1 o 167845.50 159162.36 180.00 2.30120 19.46
4 1 1 2 o 164298.55 159162.36 180.00 2.30120 9.43
3 3 2 1 o 31179.633 27800.494 180.00 2.28703 4.11
1 1 4 1 o 3388.551 3168.260 0.00 2.28501 0.33
2 3 3 1 o 31113.320 28360.301 0.00 2.28170 3.59
3 3 2 2 o 30970.104 27800.494 180.00 2.28703 2.03
1 1 4 2 o 3395.244 3168.260 0.00 2.28501 0.17
2 3 3 2 o 32273.357 28360.301 0.00 2.28170 1.87
2 5 1 1 o 37706.66 37111.21 0.00 2.26882 4.87
4 2 0 1 o 68760.09 69880.45 0.00 2.26617 3.76
1 5 2 1 o 56148.41 57239.73 180.00 2.26569 6.80
2 5 1 2 o 35585.05 37111.21 0.00 2.26882 2.26
4 2 0 2 o 67448.93 69880.45 0.00 2.26617 1.83
1 5 2 2 o 55745.80 57239.73 180.00 2.26569 3.35
0 2 4 1 o 65625.67 60757.95 0.00 2.24968 3.71
3 4 1 1 o 5238.090 4843.772 0.00 2.24952 0.64
0 2 4 2 o 63718.65 60757.95 0.00 2.24968 1.78
3 4 1 2 o 5076.483 4843.772 0.00 2.24952 0.31
1 4 3 1 o 19752.328 19130.260 180.00 2.24141 2.38
1 4 3 2 o 20526.729 19130.260 180.00 2.24141 1.24
3 1 3 1 o 59974.84 57422.72 0.00 2.23028 6.12
0 6 0 1 o 218116.73 192975.95 0.00 2.22518 7.24
3 1 3 2 o 64609.48 57422.72 0.00 2.23028 3.34
0 6 0 2 o 223311.11 192975.95 0.00 2.22518 3.70
4 2 1 1 o 16337.779 16480.137 180.00 2.20504 1.84
4 2 1 2 o 15971.576 16480.137 180.00 2.20504 0.89
1 2 4 1 o 9881.634 10617.003 0.00 2.19078 1.00
1 2 4 2 o 9232.206 10617.003 0.00 2.19078 0.46
4 0 2 1 o 320.838 85.863 180.00 2.15132 0.04
4 0 2 2 o -2.662 85.863 180.00 2.15132 0.01
3 2 3 1 o 4201.109 3828.072 180.00 2.14241 0.26
2 0 4 1 o 11331.729 10409.752 180.00 2.14070 0.43
3 2 3 2 o 3772.154 3828.072 180.00 2.14241 0.10
2 0 4 2 o 9925.352 10409.752 180.00 2.14070 0.17
4 1 2 1 o 5074.417 5241.066 180.00 2.12392 0.58
4 3 0 1 o 1559.536 1443.110 180.00 2.11870 0.07
4 1 2 2 o 5816.509 5241.066 180.00 2.12392 0.33
1 6 1 1 o 134.436 133.582 180.00 2.11442 0.01
2 1 4 1 o 111716.13 110167.53 0.00 2.11370 11.02
4 3 0 2 o 1459.188 1443.110 180.00 2.11870 0.03
1 6 1 2 o 132.520 133.582 180.00 2.11442 0.00
2 1 4 2 o 109346.66 110167.53 0.00 2.11370 5.34
2 5 2 1 o 23834.680 19772.609 0.00 2.09838 2.84
2 5 2 2 o 22755.139 19772.609 0.00 2.09838 1.34
3 4 2 1 o 107517.30 108283.02 180.00 2.08308 10.43
2 4 3 1 o 7256.255 7649.978 180.00 2.07905 0.72
3 4 2 2 o 104016.05 108283.02 180.00 2.08308 4.98
2 4 3 2 o 6761.226 7649.978 180.00 2.07905 0.33
4 3 1 1 o 6768.255 6427.029 0.00 2.06849 0.66
4 3 1 2 o 6194.768 6427.029 0.00 2.06849 0.30
1 3 4 1 o 4447.175 4201.354 0.00 2.05671 0.44
1 3 4 2 o 4491.393 4201.354 0.00 2.05671 0.22
4 2 2 1 o 54207.86 52381.66 0.00 2.04761 5.02
0 5 3 1 o 39826.85 39502.24 180.00 2.04649 2.14
4 2 2 2 o 52243.53 52381.66 0.00 2.04761 2.39
0 5 3 2 o 39859.09 39502.24 180.00 2.04649 1.06
2 2 4 1 o 20604.273 19658.188 180.00 2.03845 1.86
2 2 4 2 o 20140.996 19658.188 180.00 2.03845 0.90
2 6 0 1 o 44847.29 40887.77 180.00 2.02017 2.45
0 6 2 1 o 70221.94 66621.76 0.00 2.01723 3.70
3 3 3 1 o 16655.055 16014.247 180.00 2.01653 1.38
2 6 0 2 o 42317.84 40887.77 180.00 2.02017 1.14
0 6 2 2 o 66574.72 66621.76 0.00 2.01723 1.73
3 3 3 2 o 16084.275 16014.247 180.00 2.01653 0.65
3 5 1 1 o 598.753 523.984 180.00 2.00762 0.07
3 5 1 2 o 491.698 523.984 180.00 2.00762 0.03
1 5 3 1 o 19589.229 20692.293 180.00 2.00185 1.82
1 5 3 2 o 19188.387 20692.293 180.00 2.00185 0.88
2 6 1 1 o 74937.36 72330.56 0.00 1.97651 7.54
1 6 2 1 o 71547.80 69590.43 0.00 1.97444 7.15
2 6 1 2 o 72467.91 72330.56 0.00 1.97651 3.61
1 6 2 2 o 69759.80 69590.43 0.00 1.97444 3.45
4 4 0 1 o 277929.69 290162.66 0.00 1.95350 11.77
4 4 0 2 o 272445.25 290162.66 0.00 1.95350 5.71
0 4 4 1 o 169123.73 177042.17 0.00 1.94291 6.83
0 4 4 2 o 166285.36 177042.17 0.00 1.94291 3.32
4 3 2 1 o 5553.838 5886.976 180.00 1.93688 0.56
4 3 2 2 o 5979.775 5886.976 180.00 1.93688 0.30
2 3 4 1 o 41409.66 40968.02 0.00 1.92912 3.57
2 3 4 2 o 39400.12 40968.02 0.00 1.92912 1.68
3 0 4 1 o 1195.410 1168.256 180.00 1.91722 0.06
4 4 1 1 o 2224.496 2423.022 0.00 1.91394 0.19
3 0 4 2 o 1086.458 1168.256 180.00 1.91722 0.03
4 4 1 2 o 1248.117 2423.022 0.00 1.91394 0.04
1 4 4 1 o 3712.694 5193.253 0.00 1.90459 0.32
4 1 3 1 o 8023.028 8037.123 180.00 1.90205 0.65
1 4 4 2 o 4612.410 5193.253 0.00 1.90459 0.20
3 1 4 1 o 13961.569 14726.242 180.00 1.89775 1.16
4 1 3 2 o 7770.076 8037.123 180.00 1.90205 0.31
3 1 4 2 o 14211.563 14726.242 180.00 1.89775 0.59
0 1 5 1 o 100527.70 105032.66 180.00 1.89227 3.66
0 1 5 2 o 101136.03 105032.66 180.00 1.89227 1.83
3 5 2 1 o 33575.074 34315.613 0.00 1.88664 2.71
2 5 3 1 o 24344.619 23739.217 0.00 1.88364 1.96
3 5 2 2 o 33921.848 34315.613 0.00 1.88664 1.36
2 5 3 2 o 23164.221 23739.217 0.00 1.88364 0.92
3 4 3 1 o 18504.174 17288.418 0.00 1.87255 1.58
5 1 1 1 o 141.576 139.150 180.00 1.87072 0.00
0 7 1 1 o 38883.11 31233.357 0.00 1.87042 1.94
3 4 3 2 o 19344.182 17288.418 0.00 1.87255 0.83
5 1 1 2 o 140.793 139.150 180.00 1.87072 0.00
0 7 1 2 o 36103.97 31233.357 0.00 1.87042 0.89
2 6 2 1 o 16325.854 18097.561 180.00 1.86075 1.23
1 1 5 1 o 31793.025 34305.301 180.00 1.85681 2.22
2 6 2 2 o 16632.768 18097.561 180.00 1.86075 0.63
1 1 5 2 o 31306.902 34305.301 180.00 1.85681 1.08
4 2 3 1 o 8202.085 8114.515 0.00 1.84666 0.65
3 2 4 1 o 34071.145 33767.809 180.00 1.84273 2.52
4 2 3 2 o 8155.091 8114.515 0.00 1.84666 0.32
3 2 4 2 o 32802.020 33767.809 180.00 1.84273 1.20
1 7 1 1 o 24116.582 26120.846 0.00 1.83616 2.15
1 7 1 2 o 23104.602 26120.846 0.00 1.83616 1.02
5 2 1 1 o 78023.56 80899.10 180.00 1.81795 5.74
5 2 1 2 o 76566.42 80899.10 180.00 1.81795 2.79
4 4 2 1 o 101440.48 101636.23 0.00 1.80826 7.74
1 2 5 1 o 31746.389 32433.869 180.00 1.80518 2.52
4 4 2 2 o 100205.82 101636.23 0.00 1.80826 3.80
2 4 4 1 o 39489.61 40705.76 180.00 1.80194 3.20
1 2 5 2 o 31331.082 32433.869 180.00 1.80518 1.24
2 4 4 2 o 41675.04 40705.76 180.00 1.80194 1.69
3 6 1 1 o 36121.51 34100.793 0.00 1.79658 3.14
1 6 3 1 o 77161.13 73042.75 180.00 1.79245 6.39
3 6 1 2 o 36081.71 34100.793 0.00 1.79658 1.56
4 5 0 1 o 9515.674 9923.661 0.00 1.78876 0.33
1 6 3 2 o 69717.84 73042.75 180.00 1.79245 2.83
5 0 2 1 o 4819.171 5041.615 180.00 1.78749 0.15
4 5 0 2 o 7027.309 9923.661 0.00 1.78876 0.11
5 0 2 2 o 3158.705 5041.615 180.00 1.78749 0.04
2 7 0 1 o 2867.860 2533.473 180.00 1.77342 0.14
5 1 2 1 o 70177.69 64409.84 180.00 1.77168 4.60
2 7 0 2 o 2729.672 2533.473 180.00 1.77342 0.06
5 1 2 2 o 69818.25 64409.84 180.00 1.77168 2.27
4 3 3 1 o 94216.39 91467.46 180.00 1.76421 6.24
2 1 5 1 o 6627.457 6398.900 0.00 1.76132 0.42
3 3 4 1 o 1696.103 1642.360 180.00 1.76078 0.12
4 3 3 2 o 94179.77 91467.46 180.00 1.76421 3.10
4 5 1 1 o 19968.662 19156.721 180.00 1.75823 1.42
2 1 5 2 o 6826.143 6398.900 0.00 1.76132 0.22
3 3 4 2 o 1776.878 1642.360 180.00 1.76078 0.06
0 3 5 1 o 59371.40 54923.84 0.00 1.75640 2.02
4 5 1 2 o 19769.035 19156.721 180.00 1.75823 0.70
0 3 5 2 o 55960.55 54923.84 0.00 1.75640 0.94
1 5 4 1 o 18364.512 18474.926 180.00 1.75098 1.31
1 5 4 2 o 17543.273 18474.926 180.00 1.75098 0.62
2 7 1 1 o 43533.55 46458.59 0.00 1.74366 3.17
1 7 2 1 o 18.975 21.020 0.00 1.74224 0.00
2 7 1 2 o 41010.65 46458.59 0.00 1.74366 1.46
5 3 1 1 o 802.659 874.362 0.00 1.73912 0.04
1 7 2 2 o 19.093 21.020 0.00 1.74224 0.00
5 3 1 2 o 572.899 874.362 0.00 1.73912 0.01
1 3 5 1 o 5008.662 5452.097 180.00 1.72793 0.30
5 2 2 1 o 10333.845 11095.517 0.00 1.72666 0.64
3 5 3 1 o 7453.384 8107.651 0.00 1.72599 0.57
1 3 5 2 o 5250.438 5452.097 180.00 1.72793 0.16
5 2 2 2 o 10168.830 11095.517 0.00 1.72666 0.31
3 5 3 2 o 7424.628 8107.651 0.00 1.72599 0.28
2 2 5 1 o 127109.63 129920.09 0.00 1.71706 7.83
2 2 5 2 o 124302.94 129920.09 0.00 1.71706 3.79
3 6 2 1 o 13114.887 14901.526 0.00 1.70832 0.84
2 6 3 1 o 12323.412 12317.753 180.00 1.70610 0.81
3 6 2 2 o 15139.700 14901.526 0.00 1.70832 0.50
2 6 3 2 o 13197.212 12317.753 180.00 1.70610 0.44
4 0 4 1 o 306093.50 297213.19 0.00 1.69655 9.43
4 0 4 2 o 296043.34 297213.19 0.00 1.69655 4.51
4 1 4 1 o 19110.354 16587.252 0.00 1.68302 1.25
4 1 4 2 o 17030.955 16587.252 0.00 1.68302 0.55
4 5 2 1 o 3915.407 4061.414 0.00 1.67525 0.29
4 5 2 2 o 4258.401 4061.414 0.00 1.67525 0.16
2 5 4 1 o 105629.97 104469.16 180.00 1.67022 6.56
0 8 0 1 o 263844.16 263059.38 0.00 1.66889 4.94
2 5 4 2 o 102695.59 104469.16 180.00 1.67022 3.15
4 4 3 1 o 123.723 124.928 180.00 1.66537 0.01
0 8 0 2 o 260328.27 263059.38 0.00 1.66889 2.42
2 7 2 1 o 721.199 759.566 0.00 1.66263 0.06
3 4 4 1 o 54766.73 57200.62 180.00 1.66248 3.25
4 4 3 2 o 118.269 124.928 180.00 1.66537 0.00
5 3 2 1 o 20090.832 20238.361 180.00 1.65870 1.17
2 7 2 2 o 751.086 759.566 0.00 1.66263 0.03
3 4 4 2 o 56654.52 57200.62 180.00 1.66248 1.68
5 3 2 2 o 20615.416 20238.361 180.00 1.65870 0.60
2 3 5 1 o 29508.848 32348.445 0.00 1.65018 1.69
2 3 5 2 o 30104.834 32348.445 0.00 1.65018 0.86
4 2 4 1 o 8157.076 7102.659 0.00 1.64428 0.49
5 4 1 1 o 8246.158 7225.583 0.00 1.64422 0.48
4 2 4 2 o 7935.292 7102.659 0.00 1.64428 0.24
5 4 1 2 o 8045.077 7225.583 0.00 1.64422 0.23
5 1 3 1 o 56446.00 54349.14 180.00 1.63666 3.32
0 7 3 1 o 125246.16 120832.53 180.00 1.63646 4.09
1 4 5 1 o 310.381 313.468 0.00 1.63475 0.01
4 6 0 1 o 1526.079 1554.169 180.00 1.63464 0.05
5 1 3 2 o 53741.59 54349.14 180.00 1.63666 1.56
0 7 3 2 o 121350.23 120832.53 180.00 1.63646 1.96
1 4 5 2 o 333.270 313.468 0.00 1.63475 0.01
4 6 0 2 o 1680.834 1554.169 180.00 1.63464 0.03
3 1 5 1 o 13631.484 12560.123 0.00 1.63042 0.79
0 6 4 1 o 7884.935 7279.967 180.00 1.62842 0.25
3 1 5 2 o 12757.280 12560.123 0.00 1.63042 0.37
0 6 4 2 o 6794.892 7279.967 180.00 1.62842 0.10
1 8 1 1 o 30913.268 29626.537 0.00 1.62060 2.15
1 8 1 2 o 30292.693 29626.537 0.00 1.62060 1.04
3 7 1 1 o 58083.25 56771.05 0.00 1.61638 3.68
1 7 3 1 o 10805.809 10987.994 0.00 1.61337 0.64
3 7 1 2 o 54634.82 56771.05 0.00 1.61638 1.70
4 6 1 1 o 4001.318 4337.853 0.00 1.61125 0.23
1 7 3 2 o 10238.133 10987.994 0.00 1.61337 0.30
4 6 1 2 o 4373.733 4337.853 0.00 1.61125 0.13
6 0 0 1 o 77587.70 76219.91 180.00 1.60616 0.97
1 6 4 1 o 31560.104 31429.074 0.00 1.60566 1.84
6 0 0 2 o 74428.31 76219.91 180.00 1.60616 0.46
1 6 4 2 o 30376.438 31429.074 0.00 1.60566 0.87
5 2 3 1 o 51174.68 53133.72 180.00 1.60097 2.50
5 2 3 2 o 48012.39 53133.72 180.00 1.60097 1.14
3 2 5 1 o 868.079 978.445 180.00 1.59513 0.09
6 1 0 1 o 96367.06 102207.63 0.00 1.59466 2.61
0 0 6 1 o 32112.363 33354.688 180.00 1.59297 0.45
3 2 5 2 o 852.654 978.445 180.00 1.59513 0.04
6 1 0 2 o 97158.81 102207.63 0.00 1.59466 1.31
0 0 6 2 o 33917.938 33354.688 180.00 1.59297 0.24
3 6 3 1 o 2775.251 2742.654 0.00 1.58632 0.10
4 3 4 1 o 7806.996 6849.872 0.00 1.58527 0.47
3 6 3 2 o 2772.799 2742.654 0.00 1.58632 0.05
4 3 4 2 o 6953.191 6849.872 0.00 1.58527 0.21
2 8 0 1 o 1963.673 2034.058 180.00 1.57698 0.03
5 4 2 1 o 37716.20 39553.73 0.00 1.57576 2.00
0 8 2 1 o 16924.797 17501.340 0.00 1.57558 0.43
2 8 0 2 o 2050.213 2034.058 180.00 1.57698 0.02
6 1 1 1 o 3462.725 3436.239 0.00 1.57292 0.15
5 4 2 2 o 37970.11 39553.73 0.00 1.57576 1.00
0 8 2 2 o 16923.328 17501.340 0.00 1.57558 0.21
1 0 6 1 o 3859.153 4031.840 180.00 1.57164 0.11
6 1 1 2 o 3282.865 3436.239 0.00 1.57292 0.07
2 4 5 1 o 24649.086 26284.871 180.00 1.56845 1.29
1 0 6 2 o 3674.316 4031.840 180.00 1.57164 0.05
2 4 5 2 o 24034.408 26284.871 180.00 1.56845 0.62
6 2 0 1 o 24249.166 22787.951 180.00 1.56160 0.62
1 1 6 1 o 26667.924 25626.320 180.00 1.56087 1.31
4 5 3 1 o 34837.016 33857.473 180.00 1.55974 1.86
6 2 0 2 o 24040.021 22787.951 180.00 1.56160 0.31
3 5 4 1 o 3529.358 3314.147 0.00 1.55736 0.18
1 1 6 2 o 27662.469 25626.320 180.00 1.56087 0.68
2 8 1 1 o 48971.58 44641.65 180.00 1.55594 2.93
4 5 3 2 o 37173.73 33857.473 180.00 1.55974 1.00
1 8 2 1 o 33905.516 31411.932 0.00 1.55493 1.99
0 5 5 1 o 1334.900 1261.390 180.00 1.55433 0.03
3 5 4 2 o 3427.299 3314.147 0.00 1.55736 0.09
2 8 1 2 o 47256.68 44641.65 180.00 1.55594 1.40
3 7 2 1 o 45.897 44.679 0.00 1.55120 0.00
1 8 2 2 o 31734.602 31411.932 0.00 1.55493 0.91
0 5 5 2 o 1208.317 1261.390 180.00 1.55433 0.01
2 7 3 1 o 20531.504 23072.240 0.00 1.54954 1.16
0 2 6 1 o 11956.365 13339.902 0.00 1.54947 0.27
3 7 2 2 o 38.993 44.679 0.00 1.55120 0.00
4 6 2 1 o 19142.334 20688.939 0.00 1.54666 1.05
5 3 3 1 o 4185.020 4624.539 0.00 1.54635 0.25
2 7 3 2 o 20334.287 23072.240 0.00 1.54954 0.57
0 2 6 2 o 11823.179 13339.902 0.00 1.54947 0.13
4 6 2 2 o 19733.818 20688.939 0.00 1.54666 0.54
2 6 4 1 o 30293.225 31582.012 180.00 1.54271 1.64
5 3 3 2 o 4424.927 4624.539 0.00 1.54635 0.13
5 5 1 1 o 2571.866 2683.869 180.00 1.54232 0.16
6 2 1 1 o 57003.45 59301.80 0.00 1.54116 2.75
3 3 5 1 o 27842.172 28935.715 0.00 1.54108 1.28
2 6 4 2 o 29096.600 31582.012 180.00 1.54271 0.78
5 5 1 2 o 2454.524 2683.869 180.00 1.54232 0.08
6 2 1 2 o 56743.01 59301.80 0.00 1.54116 1.36
3 3 5 2 o 27825.902 28935.715 0.00 1.54108 0.63
1 5 5 1 o 23113.328 23802.973 180.00 1.53450 1.23
1 5 5 2 o 23991.539 23802.973 180.00 1.53450 0.64
1 2 6 1 o 36371.24 35356.26 0.00 1.52982 1.73
1 2 6 2 o 35994.67 35356.26 0.00 1.52982 0.85
6 0 2 1 o 50473.90 53136.12 180.00 1.52247 1.22
6 0 2 2 o 48522.26 53136.12 180.00 1.52247 0.58
6 1 2 1 o 12.500 12.816 0.00 1.51267 0.00
2 0 6 1 o 27191.184 28328.076 180.00 1.51246 0.69
4 4 4 1 o 37250.35 38808.99 180.00 1.51240 1.93
6 3 0 1 o 37034.56 38757.55 0.00 1.51078 0.95
6 1 2 2 o 12.280 12.816 0.00 1.51267 0.00
2 0 6 2 o 27023.621 28328.076 180.00 1.51246 0.34
4 4 4 2 o 37230.88 38808.99 180.00 1.51240 0.96
6 3 0 2 o 38430.34 38757.55 0.00 1.51078 0.49
2 1 6 1 o 19590.314 19687.623 0.00 1.50285 0.86
5 0 4 1 o 2209.402 2301.161 0.00 1.50018 0.05
2 1 6 2 o 19236.135 19687.623 0.00 1.50285 0.42
2 8 2 1 o 45847.44 50552.04 180.00 1.49755 2.65
5 0 4 2 o 2083.030 2301.161 0.00 1.50018 0.02
4 7 0 1 o 2435.102 2486.085 180.00 1.49541 0.08
2 8 2 2 o 49353.60 50552.04 180.00 1.49755 1.43
6 3 1 1 o 73692.58 76254.51 0.00 1.49225 3.36
4 7 0 2 o 2397.223 2486.085 180.00 1.49541 0.04
5 1 4 1 o 8125.608 8063.494 180.00 1.49080 0.36
6 3 1 2 o 72283.17 76254.51 0.00 1.49225 1.63
4 1 5 1 o 5822.267 6033.039 0.00 1.48814 0.25
5 1 4 2 o 8139.403 8063.494 180.00 1.49080 0.18
5 5 2 1 o 92822.54 96280.29 0.00 1.48539 4.39
4 1 5 2 o 6097.058 6033.039 0.00 1.48814 0.13
6 2 2 1 o 17325.816 17070.590 180.00 1.48436 0.75
1 3 6 1 o 10059.065 10527.237 180.00 1.48195 0.46
5 5 2 2 o 92129.26 96280.29 0.00 1.48539 2.16
6 2 2 2 o 16867.586 17070.590 180.00 1.48436 0.36
2 5 5 1 o 20552.236 20334.748 0.00 1.47927 1.01
5 4 3 1 o 16549.041 16348.993 0.00 1.47849 0.77
1 3 6 2 o 10667.824 10527.237 180.00 1.48195 0.25
4 7 1 1 o 196288.70 190546.20 180.00 1.47744 9.93
2 5 5 2 o 20171.928 20334.748 0.00 1.47927 0.49
2 2 6 1 o 5375.375 5346.355 180.00 1.47508 0.24
5 4 3 2 o 16489.770 16348.993 0.00 1.47849 0.38
3 4 5 1 o 750.693 719.305 180.00 1.47388 0.04
4 7 1 2 o 199257.91 190546.20 180.00 1.47744 5.03
1 7 4 1 o 115.192 105.459 0.00 1.47313 0.01
2 2 6 2 o 6056.194 5346.355 180.00 1.47508 0.14
3 4 5 2 o 910.591 719.305 180.00 1.47388 0.02
1 7 4 2 o 154.020 105.459 0.00 1.47313 0.00
0 9 1 1 o 57621.19 51978.08 180.00 1.46590 1.56
5 2 4 1 o 16857.258 13788.748 0.00 1.46368 0.76
3 8 1 1 o 7484.622 6242.570 180.00 1.46349 0.38
0 9 1 2 o 56107.39 51978.08 180.00 1.46590 0.75
1 8 3 1 o 29465.561 28099.471 0.00 1.46125 1.46
4 2 5 1 o 7326.064 6987.119 0.00 1.46116 0.31
5 2 4 2 o 14734.411 13788.748 0.00 1.46368 0.32
3 8 1 2 o 6675.095 6242.570 180.00 1.46349 0.16
3 7 3 1 o 89025.70 90834.71 0.00 1.45815 4.14
1 8 3 2 o 27299.432 28099.471 0.00 1.46125 0.66
4 2 5 2 o 6784.022 6987.119 0.00 1.46116 0.14
3 7 3 2 o 88348.38 90834.71 0.00 1.45815 2.04
4 6 3 1 o 509.386 518.546 180.00 1.45438 0.02
1 9 1 1 o 4206.045 3076.449 180.00 1.44923 0.22
3 6 4 1 o 1655.296 1354.121 180.00 1.45246 0.08
3 6 4 2 o 1968.015 1354.121 180.00 1.45246 0.05
6 4 0 1 o 6510.611 3710.438 180.00 1.44731 0.17
4 6 3 2 o 671.603 518.546 180.00 1.45438 0.02
1 9 1 2 o 5873.644 3076.449 180.00 1.44923 0.16
6 4 0 2 o 7153.063 3710.438 180.00 1.44731 0.09
6 3 2 1 o 648.838 607.353 180.00 1.44051 0.05
5 6 1 1 o 38056.54 35817.48 0.00 1.44023 1.86
0 4 6 1 o 128854.21 126577.41 0.00 1.43764 3.00
6 3 2 2 o 669.702 607.353 180.00 1.44051 0.02
5 6 1 2 o 38557.51 35817.48 0.00 1.44023 0.94
0 4 6 2 o 134008.50 126577.41 0.00 1.43764 1.56
1 6 5 1 o 15925.201 14226.925 0.00 1.43385 0.85
2 3 6 1 o 2655.812 2460.483 0.00 1.43202 0.10
4 5 4 1 o 17781.732 16075.712 180.00 1.43197 0.85
6 4 1 1 o 16046.640 13786.220 180.00 1.43099 0.72
1 6 5 2 o 17494.246 14226.925 0.00 1.43385 0.46
2 3 6 2 o 2590.819 2460.483 0.00 1.43202 0.05
4 5 4 2 o 17085.957 16075.712 180.00 1.43197 0.41
6 4 1 2 o 13932.778 13786.220 180.00 1.43099 0.30
4 7 2 1 o 4049.686 3908.182 0.00 1.42717 0.24
3 0 6 1 o 141953.64 137652.70 180.00 1.42713 2.92
6 1 3 1 o 40964.20 37235.13 0.00 1.42601 1.73
2 7 4 1 o 150.274 158.756 180.00 1.42406 0.01
4 7 2 2 o 3748.831 3908.182 0.00 1.42717 0.11
3 0 6 2 o 133497.80 137652.70 180.00 1.42713 1.35
6 1 3 2 o 36230.22 37235.13 0.00 1.42601 0.74
1 4 6 1 o 96566.34 98582.35 0.00 1.42190 4.08
5 3 4 1 o 236.900 236.774 180.00 1.42159 0.01
2 7 4 2 o 161.588 158.756 180.00 1.42406 0.01
4 3 5 1 o 143166.63 143365.72 180.00 1.41928 5.90
3 1 6 1 o 15987.051 15707.416 0.00 1.41905 0.67
1 4 6 2 o 103933.75 98582.35 0.00 1.42190 2.22
5 3 4 2 o 247.056 236.774 180.00 1.42159 0.00
2 9 0 1 o 107904.10 98901.02 180.00 1.41779 2.69
4 3 5 2 o 151983.92 143365.72 180.00 1.41928 3.15
3 1 6 2 o 17150.305 15707.416 0.00 1.41905 0.36
3 8 2 1 o 8891.499 7817.854 0.00 1.41458 0.41
2 9 0 2 o 113775.10 98901.02 180.00 1.41779 1.43
2 8 3 1 o 19155.012 15892.020 0.00 1.41332 0.94
3 8 2 2 o 9956.244 7817.854 0.00 1.41458 0.24
2 8 3 2 o 21400.904 15892.020 0.00 1.41332 0.53
5 5 3 1 o 32.979 32.381 180.00 1.40309 0.00
2 9 1 1 o 28700.969 26452.107 0.00 1.40244 1.42
6 2 3 1 o 18126.496 16589.768 180.00 1.40221 0.73
1 9 2 1 o 57648.41 50161.57 0.00 1.40170 2.81
5 5 3 2 o 32.555 32.381 180.00 1.40309 0.00
3 5 5 1 o 11813.097 11444.343 0.00 1.39915 0.45
2 9 1 2 o 27887.875 26452.107 0.00 1.40244 0.68
6 2 3 2 o 18104.475 16589.768 180.00 1.40221 0.36
1 9 2 2 o 60239.45 50161.57 0.00 1.40170 1.47
3 5 5 2 o 14888.070 11444.343 0.00 1.39915 0.30
3 2 6 1 o 10638.110 7876.501 180.00 1.39560 0.44
5 6 2 1 o 255.999 167.011 180.00 1.39355 0.01
3 2 6 2 o 12283.208 7876.501 180.00 1.39560 0.26
5 6 2 2 o 204.500 167.011 180.00 1.39355 0.00
2 6 5 1 o 62166.60 62949.12 180.00 1.38849 2.63
6 4 2 1 o 9857.410 9110.798 180.00 1.38518 0.37
2 6 5 2 o 69734.27 62949.12 180.00 1.38849 1.50
6 4 2 2 o 14726.583 9110.798 180.00 1.38518 0.30
2 4 6 1 o 1818.635 1565.223 0.00 1.37763 0.12
6 5 0 1 o 120544.19 111626.32 180.00 1.37635 2.55
2 4 6 2 o 1688.666 1565.223 0.00 1.37763 0.06
6 5 0 2 o 115350.30 111626.32 180.00 1.37635 1.20
4 8 0 1 o 2391.043 1487.442 0.00 1.37189 0.07
4 8 0 2 o 2559.237 1487.442 0.00 1.37189 0.04
5 4 4 1 o 23874.422 16307.116 0.00 1.36833 0.97
0 8 4 1 o 756.160 344.138 0.00 1.36821 0.03
4 4 5 1 o 2599.525 2126.316 180.00 1.36627 0.11
6 3 3 1 o 10757.172 8858.576 0.00 1.36508 0.44
5 4 4 2 o 19660.506 16307.116 0.00 1.36833 0.38
0 8 4 2 o 531.083 344.138 0.00 1.36821 0.01
4 4 5 2 o 2193.081 2126.316 180.00 1.36627 0.04
6 5 1 1 o 40756.09 39869.65 0.00 1.36230 1.65
6 3 3 2 o 9813.674 8858.576 0.00 1.36508 0.20
2 9 2 1 o 6127.486 6456.265 180.00 1.35923 0.29
3 3 6 1 o 3624.583 3801.192 0.00 1.35897 0.14
6 5 1 2 o 38045.16 39869.65 0.00 1.36230 0.75
0 1 7 1 o 1203.230 1174.921 180.00 1.35832 0.02
4 8 1 1 o 6585.675 6136.943 180.00 1.35797 0.30
2 9 2 2 o 6670.830 6456.265 180.00 1.35923 0.16
3 3 6 2 o 3860.658 3801.192 0.00 1.35897 0.07
7 1 1 1 o 864.372 858.370 180.00 1.35560 0.02
0 1 7 2 o 1168.381 1174.921 180.00 1.35832 0.01
4 8 1 2 o 6157.661 6136.943 180.00 1.35797 0.14
1 8 4 1 o 19694.389 19623.613 0.00 1.35462 0.81
1 5 6 1 o 37953.22 37373.81 0.00 1.35445 1.48
4 7 3 1 o 101.587 98.167 0.00 1.35371 0.01
7 1 1 2 o 866.379 858.370 180.00 1.35560 0.01
3 7 4 1 o 188.643 185.626 0.00 1.35216 0.01
1 8 4 2 o 19329.748 19623.613 0.00 1.35462 0.40
1 5 6 2 o 36878.60 37373.81 0.00 1.35445 0.71
4 7 3 2 o 96.828 98.167 0.00 1.35371 0.00
5 1 5 1 o 8304.403 8385.806 180.00 1.35028 0.29
0 7 5 1 o 172084.80 173484.41 180.00 1.35017 3.51
4 6 4 1 o 69006.63 68408.59 0.00 1.34915 2.63
3 7 4 2 o 189.487 185.626 0.00 1.35216 0.01
5 1 5 2 o 8022.083 8385.806 180.00 1.35028 0.14
0 7 5 2 o 166496.00 173484.41 180.00 1.35017 1.68
4 6 4 2 o 67100.79 68408.59 0.00 1.34915 1.26
1 1 7 1 o 69951.30 70048.12 180.00 1.34502 2.52
0 9 3 1 o 9586.820 9553.092 180.00 1.34482 0.21
3 8 3 1 o 21796.896 22205.557 180.00 1.34295 0.95
5 7 1 1 o 6397.313 6434.521 180.00 1.34228 0.23
1 1 7 2 o 72636.44 70048.12 180.00 1.34502 1.31
0 9 3 2 o 10209.629 9553.092 180.00 1.34482 0.11
3 8 3 2 o 23766.771 22205.557 180.00 1.34295 0.52
5 7 1 2 o 6935.177 6434.521 180.00 1.34228 0.13
1 7 5 1 o 36790.78 38797.68 180.00 1.33711 1.48
7 2 1 1 o 1523.714 1194.297 0.00 1.33511 0.05
0 10 0 1 o 17727.730 13592.074 180.00 1.33511 0.20
1 7 5 2 o 41271.43 38797.68 180.00 1.33711 0.84
3 9 1 1 o 590.248 539.055 0.00 1.33361 0.04
6 0 4 1 o 456.525 407.556 0.00 1.33300 0.01
1 9 3 1 o 19106.602 17167.514 180.00 1.33191 0.83
7 2 1 2 o 1308.262 1194.297 0.00 1.33511 0.02
0 10 0 2 o 15021.752 13592.074 180.00 1.33511 0.08
3 9 1 2 o 626.251 539.055 0.00 1.33361 0.02
5 2 5 1 o 3033.637 2798.045 0.00 1.33003 0.10
6 0 4 2 o 454.161 407.556 0.00 1.33300 0.01
4 0 6 1 o 54227.10 51121.06 0.00 1.32878 0.94
1 9 3 2 o 18423.184 17167.514 180.00 1.33191 0.40
5 2 5 2 o 2799.958 2798.045 0.00 1.33003 0.04
6 1 4 1 o 28457.869 28105.928 180.00 1.32641 0.95
4 0 6 2 o 50683.53 51121.06 0.00 1.32878 0.43
1 2 7 1 o 23067.049 22913.646 180.00 1.32500 0.70
5 6 3 1 o 19905.645 19679.801 0.00 1.32491 0.68
6 1 4 2 o 27538.820 28105.928 180.00 1.32641 0.45
7 0 2 1 o 105594.88 105416.82 180.00 1.32291 1.82
6 5 2 1 o 183.725 182.010 180.00 1.32259 0.00
4 1 6 1 o 128.010 126.479 0.00 1.32225 0.00
1 2 7 2 o 23321.912 22913.646 180.00 1.32500 0.36
5 6 3 2 o 20030.840 19679.801 0.00 1.32491 0.34
3 6 5 1 o 105.826 100.224 0.00 1.32159 0.01
7 0 2 2 o 97209.62 105416.82 180.00 1.32291 0.82
6 5 2 2 o 178.715 182.010 180.00 1.32259 0.00
4 1 6 2 o 123.782 126.479 0.00 1.32225 0.00
4 8 2 1 o 2191.907 2299.166 0.00 1.31863 0.06
3 6 5 2 o 81.917 100.224 0.00 1.32159 0.01
6 4 3 1 o 5727.771 5738.095 0.00 1.31771 0.22
7 1 2 1 o 8496.283 8685.400 0.00 1.31646 0.32
2 8 4 1 o 7317.425 7429.912 180.00 1.31618 0.23
2 5 6 1 o 32260.148 32841.230 180.00 1.31602 1.18
4 8 2 2 o 2252.538 2299.166 0.00 1.31863 0.03
6 4 3 2 o 5673.177 5738.095 0.00 1.31771 0.11
7 1 2 2 o 8218.821 8685.400 0.00 1.31646 0.15
2 8 4 2 o 7075.241 7429.912 180.00 1.31618 0.11
2 5 6 2 o 30931.994 32841.230 180.00 1.31602 0.56
3 4 6 1 o 4061.344 4271.233 0.00 1.31222 0.15
1 10 1 1 o 370.020 487.624 0.00 1.31000 0.01
3 4 6 2 o 1832.836 4271.233 0.00 1.31222 0.03
5 5 4 1 o 5603.577 6680.256 0.00 1.30790 0.17
2 1 7 1 o 1495.388 1711.877 0.00 1.30737 0.05
6 2 4 1 o 17931.672 20386.254 180.00 1.30719 0.60
1 10 1 2 o 457.908 487.624 0.00 1.31000 0.00
4 5 5 1 o 15404.837 17622.895 180.00 1.30610 0.51
0 3 7 1 o 3737.177 4897.236 180.00 1.30535 0.06
5 5 4 2 o 5138.673 6680.256 0.00 1.30790 0.08
5 7 2 1 o 875.731 1256.889 180.00 1.30425 0.04
2 1 7 2 o 1299.237 1711.877 0.00 1.30737 0.02
6 2 4 2 o 15384.325 20386.254 180.00 1.30719 0.24
4 2 6 1 o 309.921 369.327 0.00 1.30321 0.01
7 3 1 1 o 18920.326 22243.217 0.00 1.30294 0.56
4 5 5 2 o 14932.391 17622.895 180.00 1.30610 0.24
6 6 0 1 o 67716.13 76996.65 180.00 1.30234 1.25
0 3 7 2 o 4330.847 4897.236 180.00 1.30535 0.04
5 7 2 2 o 967.899 1256.889 180.00 1.30425 0.02
2 7 5 1 o 1710.198 2106.535 0.00 1.30010 0.06
4 2 6 2 o 311.320 369.327 0.00 1.30321 0.00
7 3 1 2 o 18693.354 22243.217 0.00 1.30294 0.27
6 6 0 2 o 65139.47 76996.65 180.00 1.30234 0.59
5 3 5 1 o 25892.037 30912.600 180.00 1.29821 0.90
7 2 2 1 o 143.557 163.328 0.00 1.29767 0.00
2 7 5 2 o 1932.664 2106.535 0.00 1.30010 0.03
3 9 2 1 o 10942.222 12056.746 180.00 1.29629 0.38
2 9 3 1 o 11068.757 13994.362 0.00 1.29532 0.39
0 6 6 1 o 61.246 64.836 180.00 1.29527 0.00
5 3 5 2 o 23969.955 30912.600 180.00 1.29821 0.41
7 2 2 2 o 131.574 163.328 0.00 1.29767 0.00
1 3 7 1 o 1359.382 1658.026 0.00 1.29354 0.05
3 9 2 2 o 10297.161 12056.746 180.00 1.29629 0.17
2 9 3 2 o 10110.867 13994.362 0.00 1.29532 0.17
0 6 6 2 o 60.043 64.836 180.00 1.29527 0.00
6 6 1 1 o 23671.066 28508.295 180.00 1.29041 0.82
1 3 7 2 o 1370.963 1658.026 0.00 1.29354 0.02
2 2 7 1 o 282.998 414.218 0.00 1.28896 0.02
6 6 1 2 o 20994.135 28508.295 180.00 1.29041 0.35
2 10 0 1 o 21425.775 28264.471 180.00 1.28663 0.38
0 10 2 1 o 3468.968 5337.797 0.00 1.28587 0.06
2 2 7 2 o 158.437 414.218 0.00 1.28896 0.01
1 6 6 1 o 781.526 1385.878 0.00 1.28373 0.03
2 10 0 2 o 18329.123 28264.471 180.00 1.28663 0.15
0 10 2 2 o 3232.417 5337.797 0.00 1.28587 0.02
1 6 6 2 o 1072.367 1385.878 0.00 1.28373 0.02
6 3 4 1 o 3678.297 4350.617 180.00 1.27695 0.09
2 10 1 1 o 10955.150 11317.900 180.00 1.27513 0.45
1 10 2 1 o 18833.508 18988.861 180.00 1.27457 0.77
6 3 4 2 o 4260.917 4350.617 180.00 1.27695 0.06
4 3 6 1 o 0.058 3.664 180.00 1.27324 0.00
2 10 1 2 o 10858.407 11317.900 180.00 1.27513 0.22
1 10 2 2 o 17315.863 18988.861 180.00 1.27457 0.34
4 3 6 2 o -19.217 3.664 180.00 1.27324 0.00
7 3 2 1 o 861.467 1880.852 0.00 1.26807 0.02
4 7 4 1 o 170.393 898.169 180.00 1.26763 0.01
7 3 2 2 o 1249.332 1880.852 0.00 1.26807 0.02
4 7 4 2 o 659.111 898.169 180.00 1.26763 0.02
6 5 3 1 o 10838.544 12174.139 0.00 1.26349 0.35
4 9 0 1 o 7280.215 8093.036 180.00 1.26320 0.13
7 4 1 1 o 2806.491 2531.729 180.00 1.26156 0.11
6 5 3 2 o 12112.251 12174.139 0.00 1.26349 0.20
4 9 0 2 o 7676.705 8093.036 180.00 1.26320 0.07
4 8 3 1 o 1972.037 2104.184 0.00 1.26004 0.08
2 3 7 1 o 2765.466 2984.623 0.00 1.25993 0.09
3 8 4 1 o 2072.786 2412.748 180.00 1.25879 0.08
3 5 6 1 o 9616.653 11000.689 180.00 1.25864 0.29
7 4 1 2 o 2156.001 2531.729 180.00 1.26156 0.04
7 1 3 1 o 10535.040 12215.090 180.00 1.25814 0.36
5 4 5 1 o 1832.966 1961.019 180.00 1.25727 0.06
4 8 3 2 o 1999.728 2104.184 0.00 1.26004 0.04
2 3 7 2 o 2836.137 2984.623 0.00 1.25993 0.05
6 6 2 1 o 18744.209 19893.273 180.00 1.25651 0.61
3 8 4 2 o 2117.561 2412.748 180.00 1.25879 0.04
3 5 6 2 o 9705.827 11000.689 180.00 1.25864 0.15
7 1 3 2 o 10784.457 12215.090 180.00 1.25814 0.18
5 4 5 2 o 1888.706 1961.019 180.00 1.25727 0.03
6 6 2 2 o 18235.740 19893.273 180.00 1.25651 0.29
1 4 7 1 o 11646.599 13168.657 0.00 1.25302 0.38
4 9 1 1 o 6320.581 7654.059 180.00 1.25231 0.22
3 1 7 1 o 635.824 782.469 180.00 1.25107 0.02
2 6 6 1 o 6607.387 7718.690 180.00 1.25087 0.21
5 8 1 1 o 16178.273 18802.049 180.00 1.25080 0.55
1 4 7 2 o 11378.586 13168.657 0.00 1.25302 0.19
1 9 4 1 o 2309.117 2651.850 0.00 1.24968 0.07
4 9 1 2 o 6468.036 7654.059 180.00 1.25231 0.11
3 1 7 2 o 713.271 782.469 180.00 1.25107 0.01
2 6 6 2 o 7107.195 7718.690 180.00 1.25087 0.12
5 8 1 2 o 17297.186 18802.049 180.00 1.25080 0.30
5 7 3 1 o 37075.12 40305.50 180.00 1.24747 1.30
1 8 5 1 o 759.940 791.848 180.00 1.24662 0.02
1 9 4 2 o 2540.660 2651.850 0.00 1.24968 0.04
3 7 5 1 o 2691.325 3087.924 0.00 1.24469 0.09
5 7 3 2 o 35215.63 40305.50 180.00 1.24747 0.61
5 6 4 1 o 1822.194 2000.763 0.00 1.24389 0.05
1 8 5 2 o 726.415 791.848 180.00 1.24662 0.01
2 10 2 1 o 22474.879 26541.105 180.00 1.24239 0.85
4 6 5 1 o 3705.944 4349.540 180.00 1.24235 0.12
7 2 3 1 o 5097.598 5689.719 0.00 1.24171 0.16
3 7 5 2 o 2786.291 3087.924 0.00 1.24469 0.05
5 6 4 2 o 1878.826 2000.763 0.00 1.24389 0.03
3 9 3 1 o 231.991 278.748 180.00 1.24050 0.01
2 10 2 2 o 22667.143 26541.105 180.00 1.24239 0.43
4 6 5 2 o 3775.617 4349.540 180.00 1.24235 0.06
7 2 3 2 o 5920.004 5689.719 0.00 1.24171 0.10
6 4 4 1 o 57035.25 50384.60 180.00 1.23793 1.90
3 9 3 2 o 332.249 278.748 180.00 1.24050 0.01
3 2 7 1 o 39666.51 37564.52 0.00 1.23491 1.33
6 4 4 2 o 53026.13 50384.60 180.00 1.23793 0.87
4 4 6 1 o 1312.232 1277.297 180.00 1.23455 0.03
3 2 7 2 o 34548.980 37564.52 0.00 1.23491 0.57
4 4 6 2 o 1198.919 1277.297 180.00 1.23455 0.01
7 4 2 1 o 33310.223 35390.39 0.00 1.22983 1.03
6 7 0 1 o 1526.224 1557.818 180.00 1.22857 0.04
5 0 6 1 o 48444.66 50803.07 0.00 1.22788 0.73
7 4 2 2 o 31845.777 35390.39 0.00 1.22983 0.48
6 7 0 2 o 1348.213 1557.818 180.00 1.22857 0.02
5 0 6 2 o 48541.07 50803.07 0.00 1.22788 0.37
6 1 5 1 o 28096.002 28322.971 0.00 1.22452 0.86
3 10 1 1 o 6357.988 6356.195 180.00 1.22274 0.27
5 1 6 1 o 31649.717 31634.018 0.00 1.22272 0.98
2 4 7 1 o 342.238 341.302 0.00 1.22241 0.01
6 1 5 2 o 28928.248 28322.971 0.00 1.22452 0.44
1 10 3 1 o 14212.318 13791.916 0.00 1.22143 0.58
4 9 2 1 o 509.447 488.064 180.00 1.22126 0.02
5 8 2 1 o 47.005 43.939 180.00 1.21986 0.00
3 10 1 2 o 7009.435 6356.195 180.00 1.22274 0.15
5 1 6 2 o 34385.426 31634.018 0.00 1.22272 0.54
2 4 7 2 o 363.956 341.302 0.00 1.22241 0.01
2 9 4 1 o 61813.72 58941.29 0.00 1.21930 2.17
6 7 1 1 o 1863.440 1850.512 0.00 1.21854 0.06
1 10 3 2 o 13813.606 13791.916 0.00 1.22143 0.28
4 9 2 2 o 483.437 488.064 180.00 1.22126 0.01
5 8 2 2 o 44.192 43.939 180.00 1.21986 0.00
2 8 5 1 o 41691.04 41914.21 0.00 1.21646 1.38
2 9 4 2 o 58247.84 58941.29 0.00 1.21930 1.00
7 3 3 1 o 91372.54 94828.73 0.00 1.21570 2.82
0 5 7 1 o 2265.633 2352.078 180.00 1.21569 0.04
6 7 1 2 o 1767.502 1850.512 0.00 1.21854 0.03
7 5 1 1 o 142.112 142.435 0.00 1.21374 0.00
2 8 5 2 o 41373.96 41914.21 0.00 1.21646 0.68
1 7 6 1 o 77.916 78.181 180.00 1.21291 0.00
7 3 3 2 o 95073.38 94828.73 0.00 1.21570 1.47
0 5 7 2 o 2358.361 2352.078 180.00 1.21569 0.02
7 5 1 2 o 142.795 142.435 0.00 1.21374 0.00
1 7 6 2 o 78.623 78.181 180.00 1.21291 0.00
5 5 5 1 o 19956.539 19860.123 180.00 1.20992 0.66
6 2 5 1 o 52704.26 54429.82 180.00 1.20936 1.56
3 3 7 1 o 132284.41 137193.88 0.00 1.20932 4.03
5 2 6 1 o 11776.383 11897.354 0.00 1.20762 0.36
5 5 5 2 o 19470.992 19860.123 180.00 1.20992 0.32
6 2 5 2 o 52967.28 54429.82 180.00 1.20936 0.78
3 3 7 2 o 133249.72 137193.88 0.00 1.20932 2.03
1 5 7 1 o 6575.952 6809.964 180.00 1.20613 0.19
6 6 3 1 o 8857.251 9338.004 0.00 1.20551 0.28
5 2 6 2 o 11656.845 11897.354 0.00 1.20762 0.18
8 0 0 1 o 123682.63 126103.49 0.00 1.20462 0.90
0 11 1 1 o 114461.12 119060.25 180.00 1.20407 2.10
1 5 7 2 o 6509.808 6809.964 180.00 1.20613 0.09
6 6 3 2 o 9385.920 9338.004 0.00 1.20551 0.15
8 0 0 2 o 127894.74 126103.49 0.00 1.20462 0.47
3 6 6 1 o 53727.17 53362.92 180.00 1.20129 1.65
0 11 1 2 o 119187.64 119060.25 180.00 1.20407 1.10
8 1 0 1 o 24519.391 23735.418 0.00 1.19975 0.39
3 6 6 2 o 57592.13 53362.92 180.00 1.20129 0.90
8 1 0 2 o 28373.416 23735.418 0.00 1.19975 0.23
1 11 1 1 o 16339.415 15470.152 180.00 1.19478 0.60
0 0 8 1 o 54574.05 51672.64 0.00 1.19473 0.42
3 10 2 1 o 61082.73 59357.48 180.00 1.19378 2.09
2 10 3 1 o 3914.410 3911.437 0.00 1.19302 0.14
7 0 4 1 o 39322.94 39518.40 180.00 1.19288 0.57
6 5 4 1 o 37141.28 37525.52 0.00 1.19265 1.07
1 11 1 2 o 15186.541 15470.152 180.00 1.19478 0.27
0 0 8 2 o 50585.49 51672.64 0.00 1.19473 0.19
3 10 2 2 o 60330.91 59357.48 180.00 1.19378 1.03
8 1 1 1 o 973.337 960.788 180.00 1.19040 0.03
2 10 3 2 o 3899.682 3911.437 0.00 1.19302 0.07
7 0 4 2 o 38964.08 39518.40 180.00 1.19288 0.28
6 7 2 1 o 2053.187 2111.336 0.00 1.18988 0.09
4 8 4 1 o 70658.22 73233.61 0.00 1.18974 2.33
6 5 4 2 o 36210.36 37525.52 0.00 1.19265 0.51
4 5 6 1 o 670.291 694.444 180.00 1.18962 0.02
7 1 4 1 o 225.138 220.666 0.00 1.18815 0.01
8 1 1 2 o 1027.637 960.788 180.00 1.19040 0.02
6 7 2 2 o 2193.318 2111.336 0.00 1.18988 0.05
4 8 4 2 o 75452.09 73233.61 0.00 1.18974 1.26
4 5 6 2 o 712.617 694.444 180.00 1.18962 0.01
1 0 8 1 o 789.798 643.301 0.00 1.18565 0.01
8 2 0 1 o 5018.734 4185.145 0.00 1.18547 0.07
7 5 2 1 o 6102.053 4977.503 180.00 1.18540 0.19
6 3 5 1 o 958.661 762.037 180.00 1.18529 0.03
7 1 4 2 o 266.600 220.666 0.00 1.18815 0.00
2 7 6 1 o 645.943 496.320 0.00 1.18508 0.03
5 3 6 1 o 8890.699 7007.983 0.00 1.18365 0.27
4 1 7 1 o 2135.577 1621.792 180.00 1.18322 0.06
1 0 8 2 o 998.679 643.301 0.00 1.18565 0.01
8 2 0 2 o 5936.190 4185.145 0.00 1.18547 0.04
7 5 2 2 o 7224.653 4977.503 180.00 1.18540 0.12
6 3 5 2 o 1127.345 762.037 180.00 1.18529 0.02
2 7 6 2 o 753.902 496.320 0.00 1.18508 0.01
7 4 3 1 o 1760.081 1292.735 180.00 1.18189 0.06
1 1 8 1 o 16147.817 14279.807 180.00 1.18100 0.48
5 3 6 2 o 8110.378 7007.983 0.00 1.18365 0.12
4 1 7 2 o 1981.008 1621.792 180.00 1.18322 0.03
5 7 4 1 o 24.070 14.139 0.00 1.17914 0.00
7 4 3 2 o 1825.202 1292.735 180.00 1.18189 0.03
2 5 7 1 o 2183.006 1669.044 0.00 1.17875 0.07
1 1 8 2 o 16439.428 14279.807 180.00 1.18100 0.24
4 7 5 1 o 30618.273 27388.371 0.00 1.17782 0.97
2 11 0 1 o 20665.664 19081.883 0.00 1.17697 0.38
8 2 1 1 o 13231.090 12657.367 0.00 1.17646 0.38
5 7 4 2 o 14.867 14.139 0.00 1.17914 0.00
0 2 8 1 o 180.518 177.116 180.00 1.17604 0.00
3 4 7 1 o 4510.993 4407.793 180.00 1.17602 0.13
2 5 7 2 o 1708.041 1669.044 0.00 1.17875 0.02
4 7 5 2 o 29486.229 27388.371 0.00 1.17782 0.46
7 2 4 1 o 4835.374 4456.352 180.00 1.17428 0.14
4 9 3 1 o 21893.279 20223.830 180.00 1.17427 0.71
2 11 0 2 o 20408.861 19081.883 0.00 1.17697 0.18
8 2 1 2 o 13069.587 12657.367 0.00 1.17646 0.19
3 9 4 1 o 3906.599 3787.955 180.00 1.17325 0.13
0 2 8 2 o 181.618 177.116 180.00 1.17604 0.00
3 4 7 2 o 4548.626 4407.793 180.00 1.17602 0.07
5 8 3 1 o 31602.396 30567.689 180.00 1.17302 1.00
0 9 5 1 o 235.127 225.954 180.00 1.17195 0.00
7 2 4 2 o 4546.472 4456.352 180.00 1.17428 0.07
4 9 3 2 o 20619.615 20223.830 180.00 1.17427 0.33
3 8 5 1 o 1255.601 1196.972 0.00 1.17072 0.04
3 9 4 2 o 3996.834 3787.955 180.00 1.17325 0.07
5 8 3 2 o 32715.213 30567.689 180.00 1.17302 0.52
4 2 7 1 o 148.974 130.823 180.00 1.16952 0.00
0 9 5 2 o 254.328 225.954 180.00 1.17195 0.00
2 11 1 1 o 11159.435 10399.383 0.00 1.16815 0.39
8 0 2 1 o 27818.063 26021.570 0.00 1.16808 0.39
3 8 5 2 o 1263.231 1196.972 0.00 1.17072 0.02
4 10 0 1 o 135851.19 129728.46 0.00 1.16779 2.26
1 11 2 1 o 9205.663 8843.386 180.00 1.16772 0.32
1 2 8 1 o 25716.395 25306.621 0.00 1.16738 0.72
5 9 1 1 o 822.613 804.777 0.00 1.16678 0.04
4 2 7 2 o 133.586 130.823 180.00 1.16952 0.00
0 10 4 1 o 121441.80 117492.38 0.00 1.16551 2.05
2 11 1 2 o 10658.165 10399.383 0.00 1.16815 0.18
8 0 2 2 o 26632.586 26021.570 0.00 1.16808 0.18
4 10 0 2 o 132712.23 129728.46 0.00 1.16779 1.09
1 11 2 2 o 9054.209 8843.386 180.00 1.16772 0.15
1 2 8 2 o 26188.209 25306.621 0.00 1.16738 0.37
5 9 1 2 o 877.545 804.777 0.00 1.16678 0.02
8 1 2 1 o 1.509 0.040 180.00 1.16364 0.00
1 9 5 1 o 5973.897 5753.577 180.00 1.16338 0.18
8 3 0 1 o 12587.797 11951.003 0.00 1.16278 0.20
0 10 4 2 o 122948.94 117492.38 0.00 1.16551 1.04
7 6 1 1 o 896.063 858.475 180.00 1.16207 0.02
8 1 2 2 o 9.048 0.040 180.00 1.16364 0.00
1 9 5 2 o 7727.873 5753.577 180.00 1.16338 0.12
8 3 0 2 o 18075.572 11951.003 0.00 1.16278 0.15
2 0 8 1 o 2314.508 1397.667 0.00 1.15961 0.04
7 6 1 2 o 1258.463 858.475 180.00 1.16207 0.02
4 10 1 1 o 1625.222 1060.909 180.00 1.15917 0.06
5 6 5 1 o 1103.650 826.324 180.00 1.15871 0.03
6 8 0 1 o 39964.63 33808.766 180.00 1.15727 0.62
1 10 4 1 o 608.140 524.625 0.00 1.15708 0.02
2 0 8 2 o 1611.538 1397.667 0.00 1.15961 0.01
4 10 1 2 o 1147.165 1060.909 180.00 1.15917 0.02
5 6 5 2 o 851.158 826.324 180.00 1.15871 0.01
1 6 7 1 o 12762.927 12651.549 0.00 1.15538 0.33
2 1 8 1 o 14903.253 14828.707 180.00 1.15527 0.39
6 8 0 2 o 35916.06 33808.766 180.00 1.15727 0.27
8 3 1 1 o 81981.78 77336.68 180.00 1.15427 2.31
1 10 4 2 o 555.383 524.625 0.00 1.15708 0.01
6 4 5 1 o 10093.005 9853.290 0.00 1.15388 0.28
1 6 7 2 o 13305.598 12651.549 0.00 1.15538 0.17
2 1 8 2 o 15780.841 14828.707 180.00 1.15527 0.21
5 4 6 1 o 1964.064 1830.584 0.00 1.15237 0.06
0 8 6 1 o 6365.795 5823.050 180.00 1.15230 0.12
7 3 4 1 o 1041.865 948.395 0.00 1.15221 0.03
8 3 1 2 o 87207.23 77336.68 180.00 1.15427 1.24
6 4 5 2 o 11130.726 9853.290 0.00 1.15388 0.16
8 2 2 1 o 16099.313 14331.521 0.00 1.15060 0.46
3 10 3 1 o 381.768 351.787 180.00 1.14978 0.01
5 4 6 2 o 2184.921 1830.584 0.00 1.15237 0.03
0 8 6 2 o 7197.904 5823.050 180.00 1.15230 0.07
7 3 4 2 o 1167.831 948.395 0.00 1.15221 0.02
6 8 1 1 o 26224.043 22091.391 0.00 1.14888 0.82
8 2 2 2 o 16561.152 14331.521 0.00 1.15060 0.24
4 3 7 1 o 1445.948 1242.278 180.00 1.14771 0.04
3 10 3 2 o 377.355 351.787 180.00 1.14978 0.00
6 7 3 1 o 27819.674 25826.764 0.00 1.14629 0.83
6 8 1 2 o 23286.689 22091.391 0.00 1.14888 0.36
1 3 8 1 o 4386.232 4174.090 180.00 1.14569 0.12
4 3 7 2 o 1296.562 1242.278 180.00 1.14771 0.02
1 8 6 1 o 1400.374 1202.130 0.00 1.14415 0.04
6 6 4 1 o 718.172 611.320 180.00 1.14352 0.02
6 7 3 2 o 30572.047 25826.764 0.00 1.14629 0.46
4 6 6 1 o 24486.805 24110.059 0.00 1.14085 0.71
6 6 4 2 o 612.490 611.320 180.00 1.14352 0.01
1 3 8 2 o 4824.710 4174.090 180.00 1.14569 0.07
2 11 2 1 o 106.305 98.334 0.00 1.14282 0.00
3 7 6 1 o 16.157 12.999 180.00 1.14267 0.00
2 2 8 1 o 317.773 285.057 180.00 1.14251 0.01
7 5 3 1 o 21675.588 19264.928 0.00 1.14229 0.67
2 11 2 2 o 97.361 98.334 0.00 1.14282 0.00
3 7 6 2 o 12.966 12.999 180.00 1.14267 0.00
2 2 8 2 o 288.316 285.057 180.00 1.14251 0.00
7 5 3 2 o 19596.832 19264.928 0.00 1.14229 0.30
5 9 2 1 o 50469.84 47708.21 180.00 1.14154 1.56
1 8 6 2 o 1261.634 1202.130 0.00 1.14415 0.02
2 9 5 1 o 8315.971 8379.030 0.00 1.13876 0.25
5 9 2 2 o 47352.25 47708.21 180.00 1.14154 0.72
4 6 6 2 o 24376.922 24110.059 0.00 1.14085 0.35
7 6 2 1 o 36175.27 36454.90 180.00 1.13713 1.01
3 5 7 1 o 35297.73 36164.57 0.00 1.13699 1.02
2 9 5 2 o 8031.602 8379.030 0.00 1.13876 0.12
4 10 2 1 o 22587.697 23294.609 0.00 1.13441 0.68
7 6 2 2 o 35270.46 36454.90 180.00 1.13713 0.49
0 11 3 1 o 7.949 8.695 0.00 1.13422 0.00
3 5 7 2 o 34790.996 36164.57 0.00 1.13699 0.50
8 4 0 1 o 2758.463 3118.596 180.00 1.13308 0.04
2 10 4 1 o 2226.314 2375.600 180.00 1.13284 0.06
4 10 2 2 o 24666.188 23294.609 0.00 1.13441 0.38
0 11 3 2 o 9.131 8.695 0.00 1.13422 0.00
2 6 7 1 o 1.615 1.711 180.00 1.13125 0.00
6 0 6 1 o 312.230 309.579 180.00 1.13103 0.01
8 4 0 2 o 4184.290 3118.596 180.00 1.13308 0.03
2 10 4 2 o 3075.336 2375.600 180.00 1.13284 0.05
8 3 2 1 o 558.678 386.328 180.00 1.12981 0.02
2 6 7 2 o 4.485 1.711 180.00 1.13125 0.00
6 0 6 2 o 395.072 309.579 180.00 1.13103 0.00
3 11 1 1 o 12558.814 10185.763 180.00 1.12747 0.43
8 3 2 2 o 508.350 386.328 180.00 1.12981 0.01
6 1 6 1 o 20233.277 16928.633 180.00 1.12700 0.59
1 11 3 1 o 33182.852 31541.297 180.00 1.12644 1.05
8 4 1 1 o 2186.927 2140.747 180.00 1.12521 0.06
0 4 8 1 o 34272.898 34442.813 180.00 1.12484 0.51
6 8 2 1 o 24939.033 25231.715 180.00 1.12476 0.77
3 11 1 2 o 10029.539 10185.763 180.00 1.12747 0.16
6 1 6 2 o 16701.527 16928.633 180.00 1.12700 0.24
1 11 3 2 o 31207.857 31541.297 180.00 1.12644 0.48
7 4 4 1 o 14.068 13.432 180.00 1.12330 0.00
8 1 3 1 o 24045.732 23090.258 180.00 1.12278 0.63
8 4 1 2 o 2176.433 2140.747 180.00 1.12521 0.03
2 3 8 1 o 3899.712 3908.872 180.00 1.12215 0.10
0 4 8 2 o 34216.922 34442.813 180.00 1.12484 0.25
6 8 2 2 o 24997.641 25231.715 180.00 1.12476 0.38
2 8 6 1 o 12627.479 12748.739 180.00 1.12070 0.41
7 4 4 2 o 13.384 13.432 180.00 1.12330 0.00
8 1 3 2 o 23096.877 23090.258 180.00 1.12278 0.30
3 0 8 1 o 72677.41 73900.45 180.00 1.11979 0.94
2 3 8 2 o 3736.584 3908.872 180.00 1.12215 0.05
4 4 7 1 o 11.383 12.308 180.00 1.11913 0.00
2 8 6 2 o 12673.355 12748.739 180.00 1.12070 0.21
1 4 8 1 o 46050.07 46717.76 0.00 1.11726 1.21
3 0 8 2 o 72153.19 73900.45 180.00 1.11979 0.47
6 5 5 1 o 2041.376 2090.563 0.00 1.11695 0.05
4 9 4 1 o 7387.690 7575.809 0.00 1.11675 0.24
4 4 7 2 o 12.101 12.308 180.00 1.11913 0.00
3 1 8 1 o 6516.066 6619.191 0.00 1.11587 0.17
5 8 4 1 o 2629.465 2662.590 0.00 1.11568 0.07
5 5 6 1 o 32897.219 33272.219 180.00 1.11558 0.89
6 2 6 1 o 7957.966 7991.662 180.00 1.11514 0.22
4 8 5 1 o 2793.090 2858.372 0.00 1.11456 0.08
1 4 8 2 o 45506.34 46717.76 0.00 1.11726 0.59
6 5 5 2 o 2027.882 2090.563 0.00 1.11695 0.03
4 9 4 2 o 7410.653 7575.809 0.00 1.11675 0.12
7 1 5 1 o 31188.547 30589.598 0.00 1.11325 0.88
3 1 8 2 o 6655.454 6619.191 0.00 1.11587 0.09
5 8 4 2 o 2611.093 2662.590 0.00 1.11568 0.04
5 5 6 2 o 32181.396 33272.219 180.00 1.11558 0.43
0 12 0 1 o 2278.357 2387.414 0.00 1.11259 0.01
6 2 6 2 o 7336.675 7991.662 180.00 1.11514 0.10
4 8 5 2 o 2704.894 2858.372 0.00 1.11456 0.04
8 2 3 1 o 3253.484 3008.074 180.00 1.11105 0.08
7 1 5 2 o 37121.36 30589.598 0.00 1.11325 0.54
5 1 7 1 o 7682.873 6244.867 180.00 1.11030 0.23
0 7 7 1 o 427.570 359.127 180.00 1.11024 0.01
0 12 0 2 o 2824.629 2387.414 0.00 1.11259 0.01
7 7 1 1 o 12237.900 9670.465 180.00 1.10875 0.33
8 2 3 2 o 3874.501 3008.074 180.00 1.11105 0.05
5 1 7 2 o 9583.472 6244.867 180.00 1.11030 0.14
0 7 7 2 o 522.467 359.127 180.00 1.11024 0.00
7 7 1 2 o 12887.616 9670.465 180.00 1.10875 0.18
5 7 5 1 o 2578.107 2049.936 180.00 1.10583 0.07
3 11 2 1 o 4400.127 3884.933 0.00 1.10465 0.14
3 2 8 1 o 6805.248 6199.189 180.00 1.10436 0.18
2 11 3 1 o 15424.957 14741.979 0.00 1.10404 0.48
5 7 5 2 o 2062.268 2049.936 180.00 1.10583 0.02
1 7 7 1 o 74552.49 75432.82 180.00 1.10294 2.06
5 9 3 1 o 6892.986 7055.003 180.00 1.10289 0.24
8 4 2 1 o 5849.371 6307.215 0.00 1.10252 0.15
3 11 2 2 o 3545.153 3884.933 0.00 1.10465 0.05
7 2 5 1 o 735.263 817.723 180.00 1.10182 0.02
3 2 8 2 o 5668.594 6199.189 180.00 1.10436 0.07
2 11 3 2 o 13563.168 14741.979 0.00 1.10404 0.20
3 9 5 1 o 13817.104 14823.962 0.00 1.10097 0.41
1 7 7 2 o 69769.57 75432.82 180.00 1.10294 0.94
5 9 3 2 o 6423.628 7055.003 180.00 1.10289 0.11
8 4 2 2 o 5851.532 6307.215 0.00 1.10252 0.08
7 2 5 2 o 794.796 817.723 180.00 1.10182 0.01
5 2 7 1 o 55550.65 57633.05 0.00 1.09896 1.47
7 6 3 1 o 3534.999 3693.500 180.00 1.09890 0.10
3 9 5 2 o 14184.100 14823.962 0.00 1.10097 0.21
8 5 0 1 o 26310.094 27264.049 180.00 1.09805 0.37
1 12 1 1 o 16773.666 17336.338 180.00 1.09793 0.55
4 10 3 1 o 238.856 236.340 0.00 1.09645 0.01
5 2 7 2 o 58881.17 57633.05 0.00 1.09896 0.79
7 6 3 2 o 3779.883 3693.500 180.00 1.09890 0.06
6 3 6 1 o 7725.425 7542.470 180.00 1.09619 0.23
3 10 4 1 o 23354.107 24005.119 180.00 1.09563 0.68
2 4 8 1 o 8220.737 8669.999 180.00 1.09539 0.26
8 5 0 2 o 25986.453 27264.049 180.00 1.09805 0.18
1 12 1 2 o 16532.107 17336.338 180.00 1.09793 0.27
3 6 7 1 o 18282.219 17620.793 180.00 1.09418 0.54
4 10 3 2 o 237.694 236.340 0.00 1.09645 0.00
6 3 6 2 o 7291.465 7542.470 180.00 1.09619 0.11
3 10 4 2 o 22563.693 24005.119 180.00 1.09563 0.33
2 4 8 2 o 8324.010 8669.999 180.00 1.09539 0.13
6 7 4 1 o 2018.764 2076.450 180.00 1.09260 0.07
8 3 3 1 o 235.699 230.515 180.00 1.09230 0.01
3 6 7 2 o 18644.691 17620.793 180.00 1.09418 0.28
8 5 1 1 o 23664.975 22430.680 180.00 1.09088 0.63
5 10 1 1 o 5287.175 5057.404 180.00 1.09035 0.17
4 7 6 1 o 166.725 157.268 0.00 1.09028 0.01
6 7 4 2 o 2104.590 2076.450 180.00 1.09260 0.04
6 9 0 1 o 48277.67 48938.18 0.00 1.08976 0.70
8 3 3 2 o 222.586 230.515 180.00 1.09230 0.00
7 5 4 1 o 566.743 605.299 180.00 1.08914 0.01
8 5 1 2 o 23588.324 22430.680 180.00 1.09088 0.31
6 8 3 1 o 7175.549 7121.488 180.00 1.08773 0.20
5 10 1 2 o 5062.685 5057.404 180.00 1.09035 0.08
4 7 6 2 o 155.944 157.268 0.00 1.09028 0.00
1 10 5 1 o 6087.755 6141.538 180.00 1.08757 0.23
6 9 0 2 o 48301.85 48938.18 0.00 1.08976 0.35
7 7 2 1 o 129.118 131.393 180.00 1.08703 0.00
7 5 4 2 o 618.221 605.299 180.00 1.08914 0.01
3 3 8 1 o 1811.152 1618.194 0.00 1.08594 0.05
4 5 7 1 o 1796.629 1638.137 180.00 1.08534 0.05
6 8 3 2 o 7738.481 7121.488 180.00 1.08773 0.11
1 10 5 2 o 6680.489 6141.538 180.00 1.08757 0.12
3 8 6 1 o 41655.18 40879.11 180.00 1.08463 1.16
7 7 2 2 o 124.180 131.393 180.00 1.08703 0.00
2 12 0 1 o 26918.281 29902.867 180.00 1.08407 0.45
4 11 0 1 o 2615.767 2991.977 0.00 1.08395 0.04
1 5 8 1 o 15751.792 18456.057 0.00 1.08363 0.40
0 12 2 1 o 16423.910 19559.211 0.00 1.08361 0.27
7 3 5 1 o 20.489 20.684 0.00 1.08352 0.00
3 3 8 2 o 1373.933 1618.194 0.00 1.08594 0.02
6 9 1 1 o 15622.548 17610.881 0.00 1.08275 0.42
4 5 7 2 o 1452.878 1638.137 180.00 1.08534 0.02
3 8 6 2 o 38881.42 40879.11 180.00 1.08463 0.53
2 7 7 1 o 1168.777 1220.954 0.00 1.08189 0.03
2 12 0 2 o 29779.396 29902.867 180.00 1.08407 0.25
4 11 0 2 o 3013.531 2991.977 0.00 1.08395 0.03
1 5 8 2 o 18737.133 18456.057 0.00 1.08363 0.25
0 12 2 2 o 19872.313 19559.211 0.00 1.08361 0.17
7 3 5 2 o 20.698 20.684 0.00 1.08352 0.00
5 3 7 1 o 28642.893 28438.838 180.00 1.08080 0.69
6 9 1 2 o 16531.158 17610.881 0.00 1.08275 0.23
2 7 7 2 o 1277.796 1220.954 0.00 1.08189 0.02
1 9 6 1 o 17115.916 16943.879 180.00 1.07879 0.47
5 3 7 2 o 30012.789 28438.838 180.00 1.08080 0.37
2 12 1 1 o 32698.432 27976.957 0.00 1.07716 1.03
4 11 1 1 o 2218.204 1922.157 0.00 1.07705 0.07
1 12 2 1 o 626.437 562.282 0.00 1.07683 0.02
6 6 5 1 o 24093.744 24056.248 0.00 1.07629 0.63
1 9 6 2 o 16438.547 16943.879 180.00 1.07879 0.22
8 0 4 1 o 6383.553 6815.361 180.00 1.07566 0.08
1 11 4 1 o 1738.399 1820.550 180.00 1.07537 0.05
5 6 6 1 o 20309.785 20432.664 0.00 1.07506 0.52
2 12 1 2 o 27900.121 27976.957 0.00 1.07716 0.42
4 11 1 2 o 1879.387 1922.157 0.00 1.07705 0.03
1 12 2 2 o 529.258 562.282 0.00 1.07683 0.01
6 6 5 2 o 22208.496 24056.248 0.00 1.07629 0.28
8 0 4 2 o 6248.107 6815.361 180.00 1.07566 0.04
1 11 4 2 o 1668.621 1820.550 180.00 1.07537 0.03
5 6 6 2 o 18617.344 20432.664 0.00 1.07506 0.23
8 1 4 1 o 2925.772 3171.317 180.00 1.07218 0.05
6 4 6 1 o 6625.562 7650.593 180.00 1.07121 0.15
4 0 8 1 o 10770.234 11007.445 180.00 1.07035 0.12
8 5 2 1 o 15.091 15.088 180.00 1.07017 0.00
5 10 2 1 o 16220.281 16189.046 0.00 1.06967 0.47
8 1 4 2 o 3148.239 3171.317 180.00 1.07218 0.03
3 11 3 1 o 6019.809 6097.952 180.00 1.06951 0.16
6 4 6 2 o 6280.506 7650.593 180.00 1.07121 0.07
4 0 8 2 o 9853.146 11007.445 180.00 1.07035 0.05
8 4 3 1 o 246.957 260.654 0.00 1.06758 0.01
8 5 2 2 o 15.008 15.088 180.00 1.07017 0.00
2 10 5 1 o 7264.174 7510.829 0.00 1.06737 0.20
5 10 2 2 o 15452.226 16189.046 0.00 1.06967 0.22
4 1 8 1 o 9.587 9.891 180.00 1.06693 0.00
3 11 3 2 o 5826.152 6097.952 180.00 1.06951 0.08
8 4 3 2 o 273.863 260.654 0.00 1.06758 0.00
2 10 5 2 o 7970.946 7510.829 0.00 1.06737 0.11
4 1 8 2 o 10.893 9.891 180.00 1.06693 0.00
2 5 8 1 o 19716.746 17678.389 0.00 1.06364 0.50
6 9 2 1 o 807.640 763.648 0.00 1.06249 0.02
8 2 4 1 o 17797.092 16177.219 0.00 1.06196 0.45
3 4 8 1 o 256.712 246.830 0.00 1.06164 0.01
2 5 8 2 o 16523.797 17678.389 0.00 1.06364 0.20
9 1 1 1 o 240.426 330.116 0.00 1.06075 0.01
6 9 2 2 o 729.281 763.648 0.00 1.06249 0.01
7 4 5 1 o 258.215 267.170 0.00 1.05938 0.01
8 6 0 1 o 47461.54 48988.93 0.00 1.05935 0.60
8 2 4 2 o 15657.418 16177.219 0.00 1.06196 0.19
2 9 6 1 o 15314.483 16429.934 0.00 1.05907 0.41
3 4 8 2 o 228.505 246.830 0.00 1.06164 0.00
0 1 9 1 o 13925.729 15491.728 0.00 1.05864 0.16
9 1 1 2 o 266.411 330.116 0.00 1.06075 0.01
2 12 2 1 o 5066.453 5358.780 180.00 1.05721 0.12
4 11 2 1 o 495.788 549.942 180.00 1.05710 0.02
4 2 8 1 o 3062.738 3276.377 0.00 1.05685 0.08
5 4 7 1 o 7615.848 8115.488 180.00 1.05683 0.18
7 4 5 2 o 248.026 267.170 0.00 1.05938 0.00
8 6 0 2 o 46055.72 48988.93 0.00 1.05935 0.29
2 9 6 2 o 15431.481 16429.934 0.00 1.05907 0.21
0 1 9 2 o 14626.194 15491.728 0.00 1.05864 0.08
2 11 4 1 o 6931.035 7276.960 180.00 1.05583 0.19
7 8 1 1 o 1196.340 1239.208 0.00 1.05550 0.03
5 9 4 1 o 6240.464 5996.988 180.00 1.05483 0.17
2 12 2 2 o 5400.587 5358.780 180.00 1.05721 0.07
4 11 2 2 o 543.300 549.942 180.00 1.05710 0.01
4 2 8 2 o 3168.978 3276.377 0.00 1.05685 0.04
5 4 7 2 o 7857.769 8115.488 180.00 1.05683 0.10
4 9 5 1 o 14459.105 14990.188 180.00 1.05388 0.39
7 7 3 1 o 22889.275 24040.627 180.00 1.05349 0.62
2 11 4 2 o 6928.814 7276.960 180.00 1.05583 0.09
5 8 5 1 o 4144.033 4364.593 0.00 1.05298 0.12
8 6 1 1 o 5577.077 5816.997 180.00 1.05290 0.14
7 8 1 2 o 1185.776 1239.208 0.00 1.05550 0.02
0 6 8 1 o 10558.503 10758.038 0.00 1.05260 0.13
1 1 9 1 o 15786.050 16075.067 180.00 1.05231 0.38
5 9 4 2 o 5862.409 5996.988 180.00 1.05483 0.08
7 6 4 1 o 15044.322 15992.002 180.00 1.05134 0.38
4 9 5 2 o 14130.382 14990.188 180.00 1.05388 0.19
7 7 3 2 o 22887.482 24040.627 180.00 1.05349 0.31
9 2 1 1 o 19255.164 20228.529 0.00 1.05085 0.47
1 8 7 1 o 21393.238 23210.027 180.00 1.05048 0.58
5 8 5 2 o 3972.562 4364.593 0.00 1.05298 0.06
8 6 1 2 o 5333.998 5816.997 180.00 1.05290 0.07
0 6 8 2 o 10193.966 10758.038 0.00 1.05260 0.06
1 1 9 2 o 16170.665 16075.067 180.00 1.05231 0.20
3 7 7 1 o 9912.149 9370.059 180.00 1.04933 0.27
4 10 4 1 o 6681.609 6341.644 180.00 1.04919 0.18
7 6 4 2 o 16774.359 15992.002 180.00 1.05134 0.22
9 2 1 2 o 21599.100 20228.529 0.00 1.05085 0.27
4 6 7 1 o 4.614 4.105 180.00 1.04792 0.00
1 8 7 2 o 24693.533 23210.027 180.00 1.05048 0.34
3 7 7 2 o 10138.990 9370.059 180.00 1.04933 0.14
4 10 4 2 o 6874.597 6341.644 180.00 1.04919 0.09
1 6 8 1 o 2092.994 1901.545 0.00 1.04638 0.06
8 3 4 1 o 64.336 64.185 180.00 1.04555 0.00
4 6 7 2 o 5.484 4.105 180.00 1.04792 0.00
3 12 1 1 o 2636.612 2409.785 0.00 1.04502 0.07
9 0 2 1 o 5207.307 4701.577 0.00 1.04487 0.07
1 12 3 1 o 16834.854 15908.057 180.00 1.04420 0.47
1 6 8 2 o 1783.773 1901.545 0.00 1.04638 0.02
8 3 4 2 o 64.100 64.185 180.00 1.04555 0.00
1 2 9 1 o 4193.079 4446.380 180.00 1.04264 0.13
3 12 1 2 o 2344.313 2409.785 0.00 1.04502 0.03
9 0 2 2 o 4631.478 4701.577 0.00 1.04487 0.03
9 1 2 1 o 26992.154 26591.742 0.00 1.04168 0.65
1 12 3 2 o 15994.841 15908.057 180.00 1.04420 0.22
7 0 6 1 o 5473.626 5462.098 0.00 1.04161 0.07
6 8 4 1 o 61.064 61.281 180.00 1.04154 0.00
6 5 6 1 o 15599.522 16276.558 0.00 1.04146 0.40
4 3 8 1 o 192.513 375.489 0.00 1.04067 0.01
1 2 9 2 o 3542.162 4446.380 180.00 1.04264 0.05
4 8 6 1 o 10847.535 10944.922 0.00 1.03952 0.26
9 1 2 2 o 26484.469 26591.742 0.00 1.04168 0.32
7 0 6 2 o 5447.778 5462.098 0.00 1.04161 0.03
6 8 4 2 o 61.264 61.281 180.00 1.04154 0.00
6 5 6 2 o 16263.684 16276.558 0.00 1.04146 0.21
7 1 6 1 o 1240.316 1230.267 180.00 1.03846 0.03
8 5 3 1 o 6194.558 5956.487 180.00 1.03813 0.16
4 3 8 2 o 402.312 375.489 0.00 1.04067 0.01
5 10 3 1 o 1568.551 1565.880 180.00 1.03767 0.03
6 1 7 1 o 1481.354 1499.693 0.00 1.03716 0.04
4 8 6 2 o 10687.617 10944.922 0.00 1.03952 0.13
7 8 2 1 o 23620.143 25314.682 180.00 1.03670 0.60
3 10 5 1 o 381.325 470.715 180.00 1.03607 0.02
7 1 6 2 o 1124.498 1230.267 180.00 1.03846 0.01
8 5 3 2 o 5715.817 5956.487 180.00 1.03813 0.07
5 10 3 2 o 1576.477 1565.880 180.00 1.03767 0.02
9 3 1 1 o 3962.504 3869.881 180.00 1.03494 0.11
6 1 7 2 o 1520.263 1499.693 0.00 1.03716 0.02
8 6 2 1 o 18507.838 18785.070 0.00 1.03424 0.48
7 8 2 2 o 24767.838 25314.682 180.00 1.03670 0.32
2 1 9 1 o 84.677 86.566 0.00 1.03398 0.00
3 10 5 2 o 460.414 470.715 180.00 1.03607 0.01
6 7 5 1 o 22590.156 22887.688 0.00 1.03352 0.57
0 3 9 1 o 33268.453 34393.891 180.00 1.03298 0.40
3 5 8 1 o 6978.012 7231.005 180.00 1.03266 0.17
5 7 6 1 o 5.117 5.443 180.00 1.03243 0.00
9 3 1 2 o 3758.913 3869.881 180.00 1.03494 0.05
9 2 2 1 o 1114.252 1143.495 0.00 1.03230 0.03
2 8 7 1 o 251.206 258.966 180.00 1.03225 0.01
8 6 2 2 o 18202.205 18785.070 0.00 1.03424 0.23
2 1 9 2 o 85.248 86.566 0.00 1.03398 0.00
6 9 3 1 o 5853.873 5812.599 0.00 1.03111 0.15
6 7 5 2 o 23338.143 22887.688 0.00 1.03352 0.30
7 5 5 1 o 853.108 841.226 0.00 1.03058 0.01
0 3 9 2 o 34740.133 34393.891 180.00 1.03298 0.21
3 5 8 2 o 7070.879 7231.005 180.00 1.03266 0.09
5 7 6 2 o 5.237 5.443 180.00 1.03243 0.00
9 2 2 2 o 1151.943 1143.495 0.00 1.03230 0.01
2 8 7 2 o 264.924 258.966 180.00 1.03225 0.00
7 2 6 1 o 21214.705 18851.010 180.00 1.02916 0.53
6 9 3 2 o 6238.320 5812.599 0.00 1.03111 0.08
3 9 6 1 o 9010.178 8411.842 0.00 1.02847 0.25
2 6 8 1 o 77.244 70.428 180.00 1.02835 0.00
5 5 7 1 o 7579.308 7107.356 180.00 1.02824 0.17
7 5 5 2 o 887.646 841.226 0.00 1.03058 0.01
6 2 7 1 o 267.640 234.989 0.00 1.02789 0.01
1 3 9 1 o 11225.902 10230.565 180.00 1.02709 0.29
3 12 2 1 o 4432.609 4191.803 180.00 1.02677 0.13
6 10 0 1 o 148.794 143.129 180.00 1.02671 0.00
7 2 6 2 o 19783.764 18851.010 180.00 1.02916 0.24
2 12 3 1 o 7583.990 7530.699 180.00 1.02628 0.21
4 11 3 1 o 28890.514 29196.957 180.00 1.02619 0.80
3 9 6 2 o 8009.166 8411.842 0.00 1.02847 0.11
2 6 8 2 o 65.192 70.428 180.00 1.02835 0.00
5 5 7 2 o 6795.141 7107.356 180.00 1.02824 0.07
3 11 4 1 o 554.006 569.193 0.00 1.02551 0.02
6 2 7 2 o 234.895 234.989 0.00 1.02789 0.00
2 2 9 1 o 41191.81 39997.83 180.00 1.02480 0.99
0 11 5 1 o 14645.456 14469.370 0.00 1.02464 0.21
1 3 9 2 o 10287.223 10230.565 180.00 1.02709 0.13
3 12 2 2 o 4212.838 4191.803 180.00 1.02677 0.06
6 10 0 2 o 143.901 143.129 180.00 1.02671 0.00
8 4 4 1 o 50419.12 50402.55 0.00 1.02381 1.23
2 12 3 2 o 7493.818 7530.699 180.00 1.02628 0.10
4 11 3 2 o 28669.732 29196.957 180.00 1.02619 0.40
0 10 6 1 o 17393.410 18807.547 0.00 1.02324 0.21
3 11 4 2 o 516.315 569.193 0.00 1.02551 0.01
2 2 9 2 o 37013.89 39997.83 180.00 1.02480 0.43
0 11 5 2 o 13340.387 14469.370 0.00 1.02464 0.09
8 4 4 2 o 49044.16 50402.55 0.00 1.02381 0.59
5 11 1 1 o 205.038 210.489 0.00 1.02118 0.00
0 13 1 1 o 7.684 7.952 0.00 1.02113 0.00
6 10 1 1 o 3157.098 3477.814 0.00 1.02084 0.08
0 10 6 2 o 16894.572 18807.547 0.00 1.02324 0.10
4 4 8 1 o 8924.772 9440.959 0.00 1.01923 0.18
1 11 5 1 o 1793.989 1862.768 180.00 1.01890 0.05
5 11 1 2 o 210.513 210.489 0.00 1.02118 0.00
0 13 1 2 o 7.972 7.952 0.00 1.02113 0.00
8 7 0 1 o 1895.331 1891.364 180.00 1.01849 0.03
6 10 1 2 o 3447.693 3477.814 0.00 1.02084 0.05
1 10 6 1 o 38737.56 39945.02 0.00 1.01752 1.04
9 3 2 1 o 4483.594 4810.695 0.00 1.01721 0.10
4 4 8 2 o 9247.479 9440.959 0.00 1.01923 0.10
1 11 5 2 o 1960.463 1862.768 180.00 1.01890 0.03
8 1 5 1 o 33866.563 31702.455 180.00 1.01618 0.83
8 7 0 2 o 2056.625 1891.364 180.00 1.01849 0.02
5 0 8 1 o 31991.381 30154.939 0.00 1.01546 0.39
1 13 1 1 o 1236.927 1171.872 0.00 1.01544 0.03
1 10 6 2 o 39520.08 39945.02 0.00 1.01752 0.53
9 3 2 2 o 4518.420 4810.695 0.00 1.01721 0.05
7 3 6 1 o 788.301 756.230 180.00 1.01421 0.02
9 4 1 1 o 3689.693 3261.133 180.00 1.01384 0.09
8 1 5 2 o 36771.82 31702.455 180.00 1.01618 0.46
6 3 7 1 o 1115.040 966.284 0.00 1.01299 0.03
5 0 8 2 o 35032.258 30154.939 0.00 1.01546 0.22
1 13 1 2 o 1343.299 1171.872 0.00 1.01544 0.02
8 7 1 1 o 810.552 732.030 0.00 1.01276 0.02
5 1 8 1 o 11360.357 10822.082 0.00 1.01254 0.27
9 1 3 1 o 4519.209 4939.366 180.00 1.01206 0.12
7 3 6 2 o 737.676 756.230 180.00 1.01421 0.01
7 7 4 1 o 19.744 15.001 0.00 1.01136 0.00
9 4 1 2 o 4110.642 3261.133 180.00 1.01384 0.05
6 3 7 2 o 1171.043 966.284 0.00 1.01299 0.01
8 7 1 2 o 834.988 732.030 0.00 1.01276 0.01
4 12 0 1 o 14569.256 13081.791 0.00 1.01009 0.20
5 1 8 2 o 12084.181 10822.082 0.00 1.01254 0.15
2 3 9 1 o 1304.988 1166.259 180.00 1.01003 0.03
9 1 3 2 o 5455.243 4939.366 180.00 1.01206 0.08
7 7 4 2 o 16.876 15.001 0.00 1.01136 0.00
0 12 4 1 o 4821.673 4412.118 0.00 1.00861 0.06
4 7 7 1 o 1669.110 1541.238 180.00 1.00832 0.04
6 6 6 1 o 172.958 161.157 180.00 1.00826 0.00
4 12 0 2 o 14864.021 13081.791 0.00 1.01009 0.10
2 3 9 2 o 1342.533 1166.259 180.00 1.01003 0.02
7 8 3 1 o 2532.239 2194.497 0.00 1.00750 0.07
8 2 5 1 o 16013.525 13937.363 180.00 1.00747 0.40
3 1 9 1 o 13465.143 10375.054 0.00 1.00545 0.35
1 7 8 1 o 3.340 3.053 0.00 1.00695 0.00
8 6 3 1 o 1528.038 1254.716 0.00 1.00524 0.04
7 8 3 2 o 2608.207 2194.497 0.00 1.00750 0.04
8 2 5 2 o 16443.395 13937.363 180.00 1.00747 0.21
1 4 9 1 o 11.912 11.488 0.00 1.00646 0.00
0 9 7 1 o 1419.604 1263.218 180.00 1.00463 0.02
4 12 1 1 o 3127.143 2828.857 0.00 1.00449 0.09
0 12 4 2 o 5110.155 4412.118 0.00 1.00861 0.03
1 7 8 2 o 3.791 3.053 0.00 1.00695 0.00
2 13 0 1 o 27199.773 24855.912 0.00 1.00445 0.41
4 7 7 2 o 1963.865 1541.238 180.00 1.00832 0.03
5 11 2 1 o 9343.401 8965.324 0.00 1.00413 0.26
6 6 6 2 o 204.065 161.157 180.00 1.00826 0.00
1 4 9 2 o 11.575 11.488 0.00 1.00646 0.00
5 2 8 1 o 8148.497 8049.865 0.00 1.00391 0.20
3 8 7 1 o 6992.275 6952.318 0.00 1.00385 0.17
6 10 2 1 o 6566.788 6553.670 180.00 1.00381 0.18
7 9 1 1 o 8471.914 8614.883 0.00 1.00353 0.26
9 2 3 1 o 31724.402 32280.041 0.00 1.00345 0.75
1 12 4 1 o 3106.637 3165.206 0.00 1.00313 0.09
3 1 9 2 o 10209.470 10375.054 0.00 1.00545 0.13
8 6 3 2 o 1239.342 1254.716 0.00 1.00524 0.01
2 11 5 1 o 7492.898 7533.846 0.00 1.00223 0.20
0 9 7 2 o 1252.910 1263.218 180.00 1.00463 0.01
4 12 1 2 o 2786.126 2828.857 0.00 1.00449 0.04
2 13 0 2 o 24447.389 24855.912 0.00 1.00445 0.18
5 11 2 2 o 8786.489 8965.324 0.00 1.00413 0.12
5 2 8 2 o 7948.163 8049.865 0.00 1.00391 0.09
3 8 7 2 o 6893.003 6952.318 0.00 1.00385 0.09
5 9 5 1 o 3208.745 3228.902 180.00 1.00137 0.07
6 10 2 2 o 6515.959 6553.670 180.00 1.00381 0.09
7 9 1 2 o 8733.697 8614.883 0.00 1.00353 0.13
9 2 3 2 o 32713.123 32280.041 0.00 1.00345 0.39
2 10 6 1 o 1921.645 1893.974 180.00 1.00092 0.06
1 12 4 2 o 3165.988 3165.206 0.00 1.00313 0.04
3 6 8 1 o 34552.684 36293.87 180.00 1.00027 0.85
2 11 5 2 o 6882.103 7533.846 0.00 1.00223 0.09
1 9 7 1 o 5341.915 5524.531 180.00 0.99922 0.15
2 13 1 1 o 14171.394 13971.586 0.00 0.99894 0.42
5 9 5 2 o 3283.436 3228.902 180.00 1.00137 0.04
1 13 2 1 o 11147.039 10652.480 180.00 0.99868 0.32
2 10 6 2 o 2003.036 1893.974 180.00 1.00092 0.03
7 6 5 1 o 630.445 595.429 0.00 0.99838 0.02
3 12 3 1 o 14031.938 13356.031 0.00 0.99837 0.42
3 6 8 2 o 35700.62 36293.87 180.00 1.00027 0.44
8 5 4 1 o 6640.694 6796.492 0.00 0.99774 0.14
5 10 4 1 o 10983.771 11395.185 0.00 0.99734 0.30
9 4 2 1 o 204.005 207.957 0.00 0.99715 0.00
3 2 9 1 o 391.637 397.304 180.00 0.99700 0.02
1 9 7 2 o 5574.088 5524.531 180.00 0.99922 0.08
4 10 5 1 o 323.544 317.539 0.00 0.99654 0.01
2 13 1 2 o 14262.489 13971.586 0.00 0.99894 0.21
5 6 7 1 o 27599.100 27683.133 180.00 0.99625 0.72
1 13 2 2 o 10561.879 10652.480 180.00 0.99868 0.15
8 7 2 1 o 1001.273 1045.119 0.00 0.99612 0.04
7 6 5 2 o 541.990 595.429 0.00 0.99838 0.01
3 12 3 2 o 12250.720 13356.031 0.00 0.99837 0.18
8 5 4 2 o 6305.502 6796.492 0.00 0.99774 0.07
5 10 4 2 o 11721.711 11395.185 0.00 0.99734 0.16
9 4 2 2 o 221.828 207.957 0.00 0.99715 0.00
3 2 9 2 o 451.403 397.304 180.00 0.99700 0.01
7 4 6 1 o 55636.48 53151.74 180.00 0.99432 1.35
4 10 5 2 o 317.914 317.539 0.00 0.99654 0.00
5 6 7 2 o 26933.088 27683.133 180.00 0.99625 0.35
8 7 2 2 o 1001.725 1045.119 0.00 0.99612 0.02
4 5 8 1 o 806.601 829.731 0.00 0.99350 0.02
8 3 5 1 o 6187.930 6416.702 0.00 0.99342 0.14
6 4 7 1 o 113.201 122.322 180.00 0.99318 0.00
7 4 6 2 o 54195.18 53151.74 180.00 0.99432 0.65
6 9 4 1 o 20528.592 21661.779 180.00 0.99151 0.50
4 5 8 2 o 803.865 829.731 0.00 0.99350 0.01
8 3 5 2 o 6294.517 6416.702 0.00 0.99342 0.07
2 7 8 1 o 188.373 185.256 180.00 0.99085 0.01
6 4 7 2 o 129.008 122.322 180.00 0.99318 0.00
2 4 9 1 o 10759.444 9644.507 0.00 0.99039 0.27
5 3 8 1 o 2792.306 2591.054 0.00 0.99002 0.07
6 8 5 1 o 22705.717 21113.918 180.00 0.98998 0.59
4 9 6 1 o 140.497 137.893 0.00 0.98977 0.00
9 3 3 1 o 2509.858 2479.341 180.00 0.98957 0.05
6 9 4 2 o 20930.852 21661.779 180.00 0.99151 0.26
5 8 6 1 o 14345.158 14953.264 0.00 0.98903 0.35
9 5 1 1 o 2728.083 3047.927 180.00 0.98851 0.08
2 7 8 2 o 164.806 185.256 180.00 0.99085 0.00
4 12 2 1 o 14835.690 16294.178 0.00 0.98825 0.44
2 4 9 2 o 9034.189 9644.507 0.00 0.99039 0.11
5 3 8 2 o 2495.938 2591.054 0.00 0.99002 0.03
6 8 5 2 o 20255.371 21113.918 180.00 0.98998 0.26
7 9 2 1 o 2165.391 2316.242 0.00 0.98734 0.05
4 9 6 2 o 133.532 137.893 0.00 0.98977 0.00
2 12 4 1 o 9327.492 10336.830 180.00 0.98722 0.29
9 3 3 2 o 2265.103 2479.341 180.00 0.98957 0.02
4 11 4 1 o -1.928 3.374 0.00 0.98713 0.00
0 5 9 1 o 1032.304 1237.029 180.00 0.98680 0.01
5 8 6 2 o 12166.254 14953.264 0.00 0.98903 0.14
9 5 1 2 o 2453.551 3047.927 180.00 0.98851 0.04
4 12 2 2 o 13288.546 16294.178 0.00 0.98825 0.19
7 9 2 2 o 2019.059 2316.242 0.00 0.98734 0.02
2 12 4 2 o 9305.978 10336.830 180.00 0.98722 0.14
4 11 4 2 o 0.729 3.374 0.00 0.98713 0.00
0 5 9 2 o 1423.447 1237.029 180.00 0.98680 0.01
2 9 7 1 o 1416.548 1120.216 0.00 0.98348 0.04
3 3 9 1 o 13852.301 11521.399 0.00 0.98338 0.33
2 13 2 1 o 1900.701 1855.401 0.00 0.98297 0.06
1 5 9 1 o 12445.503 9634.282 180.00 0.98167 0.32
2 9 7 2 o 1108.386 1120.216 0.00 0.98348 0.01
3 3 9 2 o 11385.977 11521.399 0.00 0.98338 0.13
2 13 2 2 o 2104.887 1855.401 0.00 0.98297 0.03
1 5 9 2 o 11487.061 9634.282 180.00 0.98167 0.15
5 11 3 1 o 500.909 449.171 0.00 0.97752 0.02
0 13 3 1 o 26070.473 23792.375 180.00 0.97748 0.39
6 10 3 1 o 756.892 702.225 180.00 0.97722 0.02
9 0 4 1 o 7633.141 7049.773 0.00 0.97715 0.10
8 8 0 1 o 41652.45 40480.90 0.00 0.97675 0.54
3 11 5 1 o 11743.194 13020.244 0.00 0.97618 0.30
5 11 3 2 o 452.711 449.171 0.00 0.97752 0.01
0 13 3 2 o 23952.887 23792.375 180.00 0.97748 0.18
3 10 6 1 o 1382.133 1373.740 0.00 0.97498 0.04
6 10 3 2 o 704.118 702.225 180.00 0.97722 0.01
9 0 4 2 o 7035.868 7049.773 0.00 0.97715 0.04
8 4 5 1 o 2386.178 2395.995 0.00 0.97471 0.06
9 1 4 1 o 3102.292 3167.295 0.00 0.97454 0.07
8 8 0 2 o 39357.88 40480.90 0.00 0.97675 0.25
3 11 5 2 o 13660.020 13020.244 0.00 0.97618 0.19
3 13 1 1 o 4241.672 4003.595 0.00 0.97315 0.11
9 5 2 1 o 37299.79 35188.63 180.00 0.97302 0.92
6 7 6 1 o 827.813 778.628 0.00 0.97284 0.03
3 10 6 2 o 1403.106 1373.740 0.00 0.97498 0.02
1 13 3 1 o 1221.470 1194.533 0.00 0.97249 0.04
8 4 5 2 o 2461.474 2395.995 0.00 0.97471 0.03
9 1 4 2 o 3280.859 3167.295 0.00 0.97454 0.04
8 8 1 1 o 5424.545 5012.934 0.00 0.97169 0.14
5 4 8 1 o 2274.917 2061.966 0.00 0.97150 0.06
0 8 8 1 o 14891.803 13356.952 0.00 0.97146 0.21
9 4 3 1 o 5649.317 5157.215 180.00 0.97108 0.14
3 13 1 2 o 4287.251 4003.595 0.00 0.97315 0.05
9 5 2 2 o 37564.32 35188.63 180.00 0.97302 0.46
7 8 4 1 o 11786.750 11345.825 180.00 0.97046 0.30
6 7 6 2 o 821.921 778.628 0.00 0.97284 0.02
7 5 6 1 o 1604.560 1562.037 0.00 0.97040 0.04
8 7 3 1 o 23216.158 23694.588 180.00 0.97012 0.57
1 13 3 2 o 1161.469 1194.533 0.00 0.97249 0.02
6 5 7 1 o 567.036 575.818 0.00 0.96933 0.01
8 8 1 2 o 4937.208 5012.934 0.00 0.97169 0.06
4 1 9 1 o 12839.550 12983.280 180.00 0.96920 0.31
5 4 8 2 o 2044.356 2061.966 0.00 0.97150 0.02
0 8 8 2 o 13243.847 13356.952 0.00 0.97146 0.09
9 4 3 2 o 5022.649 5157.215 180.00 0.97108 0.06
8 6 4 1 o 342.447 349.825 180.00 0.96844 0.01
6 11 0 1 o 3973.051 3996.072 180.00 0.96834 0.05
7 8 4 2 o 11714.642 11345.825 180.00 0.97046 0.15
7 5 6 2 o 1615.193 1562.037 0.00 0.97040 0.02
4 8 7 1 o 1.048 1.036 180.00 0.96777 0.00
8 7 3 2 o 23965.092 23694.588 180.00 0.97012 0.30
6 5 7 2 o 561.237 575.818 0.00 0.96933 0.01
7 1 7 1 o 33683.566 35007.371 0.00 0.96691 0.75
9 2 4 1 o 3824.084 4090.075 0.00 0.96684 0.09
4 1 9 2 o 11995.536 12983.280 180.00 0.96920 0.14
2 5 9 1 o 46.240 50.910 180.00 0.96674 0.00
1 8 8 1 o 1551.168 1870.224 0.00 0.96656 0.04
8 6 4 2 o 274.185 349.825 180.00 0.96844 0.00
6 11 0 2 o 3262.466 3996.072 180.00 0.96834 0.02
3 7 8 1 o 24.700 29.111 0.00 0.96566 0.00
4 8 7 2 o 1.036 1.036 180.00 0.96777 0.00
3 4 9 1 o 160.491 149.066 180.00 0.96523 0.00
4 6 8 1 o 4935.711 4558.579 180.00 0.96456 0.13
7 1 7 2 o 37645.54 35007.371 0.00 0.96691 0.44
9 2 4 2 o 4396.547 4090.075 0.00 0.96684 0.05
2 5 9 2 o 54.096 50.910 180.00 0.96674 0.00
1 8 8 2 o 2006.775 1870.224 0.00 0.96656 0.03
7 7 5 1 o 21569.070 20381.758 0.00 0.96396 0.57
10 0 0 1 o 567.242 561.627 0.00 0.96370 0.00
6 11 1 1 o 21645.584 22694.387 0.00 0.96341 0.58
3 7 8 2 o 26.813 29.111 0.00 0.96566 0.00
4 12 3 1 o 620.973 646.176 180.00 0.96285 0.02
3 4 9 2 o 142.226 149.066 180.00 0.96523 0.00
3 12 4 1 o 4414.190 4705.048 180.00 0.96229 0.12
4 6 8 2 o 4250.878 4558.579 180.00 0.96456 0.05
5 7 7 1 o 556.591 600.364 180.00 0.96204 0.02
7 9 3 1 o 3915.827 4113.968 0.00 0.96201 0.08
4 2 9 1 o 2762.225 2842.140 180.00 0.96163 0.07
7 7 5 2 o 19805.705 20381.758 0.00 0.96396 0.26
10 0 0 2 o 546.972 561.627 0.00 0.96370 0.00
10 1 0 1 o 7261.328 7536.479 180.00 0.96120 0.08
6 11 1 2 o 21432.422 22694.387 0.00 0.96341 0.28
8 0 6 1 o 2375.520 2553.869 180.00 0.96082 0.03
1 11 6 1 o 3630.130 3837.555 0.00 0.96062 0.10
4 12 3 2 o 623.797 646.176 180.00 0.96285 0.01
9 6 1 1 o 9602.310 9414.653 180.00 0.95999 0.24
3 12 4 2 o 4805.237 4705.048 180.00 0.96229 0.07
5 7 7 2 o 618.112 600.364 180.00 0.96204 0.01
7 9 3 2 o 4205.154 4113.968 0.00 0.96201 0.05
7 2 7 1 o 1234.139 1164.938 180.00 0.95939 0.03
4 2 9 2 o 3150.594 2842.140 180.00 0.96163 0.04
3 9 7 1 o 15786.006 14096.165 0.00 0.95883 0.40
10 1 0 2 o 8379.367 7536.479 180.00 0.96120 0.05
5 12 1 1 o 10171.323 9340.704 0.00 0.95871 0.28
6 0 8 1 o 2737.274 2600.704 180.00 0.95861 0.03
8 0 6 2 o 2589.907 2553.869 180.00 0.96082 0.02
3 13 2 1 o 5460.303 5550.954 0.00 0.95836 0.16
8 1 6 1 o 7443.095 7614.433 180.00 0.95835 0.21
1 11 6 2 o 3677.867 3837.555 0.00 0.96062 0.05
2 13 3 1 o 5040.466 5408.977 0.00 0.95796 0.14
9 6 1 2 o 9109.339 9414.653 180.00 0.95999 0.11
7 2 7 2 o 1196.427 1164.938 180.00 0.95939 0.01
8 8 2 1 o 11649.401 11229.139 0.00 0.95697 0.30
1 12 5 1 o 294.012 284.945 0.00 0.95683 0.00
3 9 7 2 o 15032.226 14096.165 0.00 0.95883 0.19
10 1 1 1 o 29439.789 27869.453 0.00 0.95637 0.72
5 12 1 2 o 9802.155 9340.704 0.00 0.95871 0.13
6 0 8 2 o 2658.469 2600.704 180.00 0.95861 0.01
6 1 8 1 o 13909.571 14017.456 0.00 0.95615 0.36
3 13 2 2 o 5215.869 5550.954 0.00 0.95836 0.07
8 1 6 2 o 7042.832 7614.433 180.00 0.95835 0.10
0 0 10 1 o 9465.004 10782.937 0.00 0.95578 0.04
2 13 3 2 o 4269.819 5408.977 0.00 0.95796 0.06
8 8 2 2 o 10936.079 11229.139 0.00 0.95697 0.14
1 12 5 2 o 286.960 284.945 0.00 0.95683 0.00
9 3 4 1 o 1220.674 1190.843 0.00 0.95441 0.03
10 1 1 2 o 29707.143 27869.453 0.00 0.95637 0.37
10 2 0 1 o 21535.625 20425.240 180.00 0.95381 0.27
6 1 8 2 o 14788.526 14017.456 0.00 0.95615 0.19
1 6 9 1 o 2024.724 1928.926 0.00 0.95372 0.06
7 10 1 1 o 58.668 57.538 0.00 0.95365 0.00
0 14 0 1 o 75506.37 73621.29 0.00 0.95365 0.55
0 0 10 2 o 10746.756 10782.937 0.00 0.95578 0.03
2 8 8 1 o 670.716 651.846 0.00 0.95229 0.03
8 5 5 1 o 887.932 910.686 180.00 0.95215 0.02
9 3 4 2 o 1148.383 1190.843 0.00 0.95441 0.01
5 10 5 1 o 0.134 0.007 0.00 0.95179 0.00
10 2 0 2 o 22330.582 20425.240 180.00 0.95381 0.14
1 6 9 2 o 2156.081 1928.926 0.00 0.95372 0.03
7 10 1 2 o 61.209 57.538 0.00 0.95365 0.00
0 14 0 2 o 79803.84 73621.29 0.00 0.95365 0.30
1 0 10 1 o 28011.840 26763.533 0.00 0.95112 0.34
8 2 6 1 o 3712.986 3648.669 0.00 0.95102 0.09
2 8 8 2 o 766.845 651.846 0.00 0.95229 0.01
1 10 7 1 o 250.236 242.954 180.00 0.94995 0.00
8 5 5 2 o 1019.577 910.686 180.00 0.95215 0.01
5 10 5 2 o 1.134 0.007 0.00 0.95179 0.00
4 3 9 1 o 31276.852 29172.104 0.00 0.94939 0.77
5 5 8 1 o 14526.225 14161.926 180.00 0.94915 0.35
10 2 1 1 o 9963.346 9812.521 180.00 0.94909 0.24
6 11 2 1 o 2051.759 2031.837 180.00 0.94906 0.07
6 2 8 1 o 78.740 83.223 0.00 0.94888 0.00
1 0 10 2 o 24841.330 26763.533 0.00 0.95112 0.15
9 5 3 1 o 502.885 525.997 180.00 0.94875 0.01
1 1 10 1 o 3197.026 3534.855 0.00 0.94871 0.08
8 2 6 2 o 3278.638 3648.669 0.00 0.95102 0.04
1 10 7 2 o 226.535 242.954 180.00 0.94995 0.00
7 3 7 1 o 2508.435 2728.840 180.00 0.94724 0.05
4 3 9 2 o 27921.869 29172.104 0.00 0.94939 0.34
5 5 8 2 o 13917.419 14161.926 180.00 0.94915 0.17
10 2 1 2 o 9643.204 9812.521 180.00 0.94909 0.11
6 9 5 1 o 1796.286 1830.428 0.00 0.94672 0.05
6 11 2 2 o 1984.811 2031.837 180.00 0.94906 0.03
2 11 6 1 o 4692.688 4797.847 180.00 0.94662 0.14
6 2 8 2 o 80.981 83.223 0.00 0.94888 0.00
9 5 3 2 o 522.264 525.997 180.00 0.94875 0.00
1 1 10 2 o 3501.074 3534.855 0.00 0.94871 0.04
0 2 10 1 o 3892.853 3839.730 180.00 0.94613 0.05
5 9 6 1 o 20391.055 20048.938 0.00 0.94589 0.54
9 6 2 1 o 1595.856 1579.526 0.00 0.94579 0.04
7 3 7 2 o 2800.288 2728.840 180.00 0.94724 0.03
4 13 0 1 o 809.987 784.129 0.00 0.94475 0.01
10 0 2 1 o 2830.753 2722.185 180.00 0.94468 0.03
5 12 2 1 o 2219.854 2114.486 0.00 0.94456 0.06
6 9 5 2 o 1936.847 1830.428 0.00 0.94672 0.03
1 14 1 1 o 2151.853 1996.597 0.00 0.94437 0.09
2 11 6 2 o 5116.984 4797.847 180.00 0.94662 0.08
0 2 10 2 o 4277.388 3839.730 180.00 0.94613 0.03
5 11 4 1 o 1497.040 1322.830 0.00 0.94358 0.04
5 9 6 2 o 22687.809 20048.938 0.00 0.94589 0.31
9 6 2 2 o 1778.705 1579.526 0.00 0.94579 0.02
7 6 6 1 o 281.945 246.866 0.00 0.94337 0.01
6 10 4 1 o 20678.820 18291.254 180.00 0.94332 0.56
3 5 9 1 o 6991.285 6246.744 0.00 0.94330 0.16
2 12 5 1 o 33876.449 31466.947 180.00 0.94298 0.97
4 11 5 1 o 51088.51 48430.88 180.00 0.94291 1.43
4 13 0 2 o 779.483 784.129 0.00 0.94475 0.00
6 6 7 1 o 144.919 145.683 180.00 0.94240 0.00
10 0 2 2 o 2722.220 2722.185 180.00 0.94468 0.02
10 1 2 1 o 2181.121 2169.814 180.00 0.94232 0.06
5 12 2 2 o 2155.552 2114.486 0.00 0.94456 0.03
1 14 1 2 o 2181.198 1996.597 0.00 0.94437 0.04
10 3 0 1 o 862.215 807.204 180.00 0.94187 0.01
4 10 6 1 o 4760.405 4240.083 180.00 0.94182 0.14
1 2 10 1 o 7253.536 6485.545 0.00 0.94161 0.18
5 11 4 2 o 1462.433 1322.830 0.00 0.94358 0.02
7 6 6 2 o 275.607 246.866 0.00 0.94337 0.00
6 10 4 2 o 20278.529 18291.254 180.00 0.94332 0.27
3 5 9 2 o 6870.905 6246.744 0.00 0.94330 0.08
2 12 5 2 o 34156.078 31466.947 180.00 0.94298 0.49
4 11 5 2 o 52024.93 48430.88 180.00 0.94291 0.73
4 13 1 1 o 31122.691 31555.645 180.00 0.94017 0.88
6 6 7 2 o 140.077 145.683 180.00 0.94240 0.00
2 6 9 1 o 19247.387 20226.082 0.00 0.94001 0.48
10 1 2 2 o 2040.639 2169.814 180.00 0.94232 0.03
7 10 2 1 o 14051.881 15481.587 0.00 0.93972 0.36
10 3 0 2 o 754.293 807.204 180.00 0.94187 0.00
4 10 6 2 o 3761.207 4240.083 180.00 0.94182 0.05
1 2 10 2 o 5739.252 6485.545 0.00 0.94161 0.07
8 3 6 1 o 3352.457 3978.173 180.00 0.93919 0.10
1 13 4 1 o 1500.221 1769.090 180.00 0.93906 0.04
4 13 1 2 o 30097.176 31555.645 180.00 0.94017 0.42
9 4 4 1 o 1953.193 2031.122 0.00 0.93779 0.04
2 6 9 2 o 19592.217 20226.082 0.00 0.94001 0.24
2 0 10 1 o 262.055 262.354 0.00 0.93752 0.00
7 10 2 2 o 15770.929 15481.587 0.00 0.93972 0.21
10 3 1 1 o 21.403 20.209 180.00 0.93733 0.00
6 3 8 1 o 6453.842 5955.626 0.00 0.93712 0.18
8 7 4 1 o 1230.744 1097.514 180.00 0.93693 0.04
8 3 6 2 o 4417.294 3978.173 180.00 0.93919 0.07
1 13 4 2 o 1943.231 1769.090 180.00 0.93906 0.03
2 10 7 1 o 26.553 23.352 180.00 0.93640 0.00
6 8 6 1 o 785.126 684.535 180.00 0.93628 0.02
2 14 0 1 o 9291.087 8126.434 180.00 0.93550 0.16
9 4 4 2 o 2274.253 2031.122 0.00 0.93779 0.03
10 2 2 1 o 8323.323 7560.039 180.00 0.93536 0.20
2 1 10 1 o 18899.951 17945.078 180.00 0.93521 0.48
0 14 2 1 o 22688.133 21541.918 0.00 0.93521 0.36
2 0 10 2 o 268.049 262.354 0.00 0.93752 0.00
3 13 3 1 o 26578.193 26025.223 0.00 0.93514 0.81
8 9 0 1 o 13701.977 13456.276 0.00 0.93513 0.19
10 3 1 2 o 19.098 20.209 180.00 0.93733 0.00
6 3 8 2 o 5169.869 5955.626 0.00 0.93712 0.07
8 7 4 2 o 858.288 1097.514 180.00 0.93693 0.02
2 10 7 2 o 21.197 23.352 180.00 0.93640 0.00
6 8 6 2 o 623.661 684.535 180.00 0.93628 0.01
8 8 3 1 o 957.207 1017.294 180.00 0.93385 0.02
4 7 8 1 o 657.766 627.465 180.00 0.93341 0.02
2 14 0 2 o 8809.565 8126.434 180.00 0.93550 0.07
10 2 2 2 o 8117.545 7560.039 180.00 0.93536 0.10
4 4 9 1 o 448.021 419.972 0.00 0.93302 0.01
2 1 10 2 o 18782.895 17945.078 180.00 0.93521 0.24
0 14 2 2 o 22552.197 21541.918 0.00 0.93521 0.18
3 13 3 2 o 26607.467 26025.223 0.00 0.93514 0.41
8 9 0 2 o 13725.577 13456.276 0.00 0.93513 0.10
9 1 5 1 o 1612.540 1603.410 180.00 0.93192 0.03
8 8 3 2 o 1051.483 1017.294 180.00 0.93385 0.01
4 7 8 2 o 652.801 627.465 180.00 0.93341 0.01
2 14 1 1 o 72.027 70.197 180.00 0.93105 0.00
7 4 7 1 o 424.490 415.389 0.00 0.93098 0.01
1 14 2 1 o 24360.813 24306.840 0.00 0.93084 0.74
4 4 9 2 o 413.676 419.972 0.00 0.93302 0.00
8 9 1 1 o 13895.939 14192.236 180.00 0.93069 0.36
4 12 4 1 o 436.788 443.761 0.00 0.93037 0.01
1 3 10 1 o 1467.982 1486.871 0.00 0.93011 0.04
3 8 8 1 o 23243.127 24241.145 180.00 0.92987 0.59
9 1 5 2 o 1516.420 1603.410 180.00 0.93192 0.01
7 9 4 1 o 290.796 315.133 0.00 0.92961 0.01
9 7 1 1 o 223.263 228.842 0.00 0.92927 0.01
2 14 1 2 o 77.534 70.197 180.00 0.93105 0.00
7 4 7 2 o 459.245 415.389 0.00 0.93098 0.01
1 14 2 2 o 26584.990 24306.840 0.00 0.93084 0.41
2 2 10 1 o 66.538 63.077 0.00 0.92841 0.00
8 9 1 2 o 15206.497 14192.236 180.00 0.93069 0.20
7 8 5 1 o 58.082 54.986 180.00 0.92835 0.00
4 13 2 1 o 330.868 312.216 0.00 0.92681 0.01
4 12 4 2 o 459.506 443.761 0.00 0.93037 0.00
5 8 7 1 o 15362.631 14556.190 0.00 0.92663 0.39
8 6 5 1 o 6430.002 6075.742 0.00 0.92658 0.17
5 1 9 1 o 3495.514 3364.553 180.00 0.92788 0.07
0 7 9 1 o 32683.912 31340.625 0.00 0.92785 0.42
6 11 3 1 o 2829.563 2673.071 0.00 0.92649 0.08
1 3 10 2 o 1552.753 1486.871 0.00 0.93011 0.02
3 8 8 2 o 24600.615 24241.145 180.00 0.92987 0.32
1 9 8 1 o 9810.787 9310.853 180.00 0.92618 0.26
2 2 10 2 o 65.378 63.077 0.00 0.92841 0.00
7 8 5 2 o 56.827 54.986 180.00 0.92835 0.00
7 9 4 2 o 314.696 315.133 0.00 0.92961 0.00
2 13 4 1 o 16748.762 16501.178 180.00 0.92596 0.50
4 9 7 1 o 758.052 758.479 180.00 0.92725 0.02
10 4 0 1 o 36866.96 37283.79 180.00 0.92588 0.45
9 7 1 2 o 238.125 228.842 0.00 0.92927 0.00
5 1 9 2 o 3031.848 3364.553 180.00 0.92788 0.03
0 7 9 2 o 27233.922 31340.625 0.00 0.92785 0.16
9 2 5 1 o 1227.269 1493.779 180.00 0.92518 0.03
4 9 7 2 o 668.952 758.479 180.00 0.92725 0.01
3 11 6 1 o 1638.241 1560.202 180.00 0.92458 0.05
4 13 2 2 o 335.466 312.216 0.00 0.92681 0.01
5 8 7 2 o 15933.991 14556.190 0.00 0.92663 0.21
8 6 5 2 o 6736.301 6075.742 0.00 0.92658 0.09
6 11 3 2 o 3001.765 2673.071 0.00 0.92649 0.04
10 3 2 1 o 2065.382 1759.293 180.00 0.92409 0.07
1 9 8 2 o 10599.261 9310.853 180.00 0.92618 0.14
5 6 8 1 o 19112.602 16838.654 0.00 0.92381 0.51
2 13 4 2 o 18433.371 16501.178 180.00 0.92596 0.28
10 4 0 2 o 40905.59 37283.79 180.00 0.92588 0.26
1 7 9 1 o 10163.367 9319.207 180.00 0.92358 0.26
9 6 3 1 o 14664.284 13781.460 180.00 0.92345 0.37
8 4 6 1 o 15924.588 15334.674 0.00 0.92333 0.40
9 2 5 2 o 1565.239 1493.779 180.00 0.92518 0.02
5 12 3 1 o 25446.139 24105.453 0.00 0.92231 0.75
3 11 6 2 o 1641.198 1560.202 180.00 0.92458 0.02
10 3 2 2 o 1745.232 1759.293 180.00 0.92409 0.03
10 4 1 1 o 2428.331 2381.412 0.00 0.92156 0.06
5 6 8 2 o 17194.467 16838.654 0.00 0.92381 0.22
6 4 8 1 o 197.361 195.218 0.00 0.92136 0.00
1 7 9 2 o 9448.442 9319.207 180.00 0.92358 0.12
5 2 9 1 o 2.137 2.036 180.00 0.92123 0.00
3 12 5 1 o 981.466 988.601 180.00 0.92119 0.03
9 6 3 2 o 13657.929 13781.460 180.00 0.92345 0.17
8 4 6 2 o 14780.661 15334.674 0.00 0.92333 0.18
10 1 3 1 o 1805.638 1736.997 0.00 0.92023 0.04
5 12 3 2 o 22957.232 24105.453 0.00 0.92231 0.33
10 4 1 2 o 1837.512 2381.412 0.00 0.92156 0.02
6 4 8 2 o 181.639 195.218 0.00 0.92136 0.00
5 2 9 2 o -1.795 2.036 180.00 0.92123 0.00
3 12 5 2 o 888.194 988.601 180.00 0.92119 0.01
0 4 10 1 o 12035.385 13022.781 180.00 0.91885 0.12
3 6 9 1 o 223.930 322.024 0.00 0.91842 0.01
2 14 2 1 o 2559.095 3255.937 180.00 0.91808 0.06
10 1 3 2 o 1342.853 1736.997 0.00 0.92023 0.01
7 10 3 1 o 744.497 972.274 0.00 0.91780 0.02
8 9 2 1 o 49.478 53.862 0.00 0.91773 0.00
9 5 4 1 o 4288.872 5369.123 180.00 0.91763 0.10
2 3 10 1 o 3907.336 5346.247 180.00 0.91738 0.09
0 4 10 2 o 7132.823 13022.781 180.00 0.91885 0.02
9 7 2 1 o 5.429 8.586 0.00 0.91637 0.00
3 6 9 2 o 75.226 322.024 0.00 0.91842 0.00
3 0 10 1 o 61.297 109.037 180.00 0.91609 0.00
2 14 2 2 o 2191.947 3255.937 180.00 0.91808 0.02
7 10 3 2 o 701.484 972.274 0.00 0.91780 0.01
8 9 2 2 o 49.502 53.862 0.00 0.91773 0.00
9 5 4 2 o 4590.947 5369.123 180.00 0.91763 0.06
2 3 10 2 o 5009.258 5346.247 180.00 0.91738 0.06
3 10 7 1 o 5032.360 5308.929 0.00 0.91505 0.16
1 4 10 1 o 848.104 837.690 0.00 0.91470 0.02
6 12 0 1 o 6034.230 5805.336 180.00 0.91459 0.09
9 3 5 1 o 8946.483 8265.719 180.00 0.91427 0.25
7 7 6 1 o 59.632 55.240 180.00 0.91417 0.00
9 7 2 2 o 8.925 8.586 0.00 0.91637 0.00
3 1 10 1 o 1648.574 1606.530 180.00 0.91394 0.04
3 0 10 2 o 109.933 109.037 180.00 0.91609 0.00
10 2 3 1 o 3338.806 3386.925 0.00 0.91374 0.08
2 9 8 1 o 8870.316 9320.597 180.00 0.91361 0.22
6 7 7 1 o 733.819 838.480 0.00 0.91328 0.02
4 5 9 1 o 1169.449 1315.696 0.00 0.91317 0.03
3 10 7 2 o 5139.042 5308.929 0.00 0.91505 0.08
1 4 10 2 o 908.064 837.690 0.00 0.91470 0.01
6 12 0 2 o 6502.801 5805.336 180.00 0.91459 0.05
0 12 6 1 o 10236.399 9095.073 0.00 0.91214 0.17
9 3 5 2 o 9042.906 8265.719 180.00 0.91427 0.13
7 7 6 2 o 60.242 55.240 180.00 0.91417 0.00
3 1 10 2 o 1709.242 1606.530 180.00 0.91394 0.02
10 2 3 2 o 3616.984 3386.925 0.00 0.91374 0.05
2 9 8 2 o 9957.413 9320.597 180.00 0.91361 0.13
7 5 7 1 o 7066.021 6473.916 0.00 0.91126 0.21
2 7 9 1 o 553.348 504.228 0.00 0.91111 0.01
6 7 7 2 o 942.544 838.480 0.00 0.91328 0.01
4 5 9 2 o 1525.417 1315.696 0.00 0.91317 0.02
5 3 9 1 o 17940.496 14179.260 180.00 0.91046 0.50
6 12 1 1 o 19276.199 15541.372 180.00 0.91044 0.59
3 14 1 1 o 1080.062 993.239 0.00 0.91006 0.05
0 12 6 2 o 9217.964 9095.073 0.00 0.91214 0.08
1 14 3 1 o 593.332 532.429 180.00 0.90952 0.03
7 5 7 2 o 7505.508 6473.916 0.00 0.91126 0.11
10 4 2 1 o 15401.742 13572.001 180.00 0.90897 0.42
2 7 9 2 o 556.515 504.228 0.00 0.91111 0.01
5 3 9 2 o 14774.137 14179.260 180.00 0.91046 0.20
6 12 1 2 o 16083.362 15541.372 180.00 0.91044 0.24
1 12 6 1 o 8180.865 8084.442 0.00 0.90808 0.23
3 14 1 2 o 959.405 993.239 0.00 0.91006 0.02
3 2 10 1 o 11011.555 11452.183 180.00 0.90759 0.28
1 14 3 2 o 454.821 532.429 180.00 0.90952 0.01
0 11 7 1 o 906.467 1006.714 180.00 0.90714 0.01
10 4 2 2 o 12348.136 13572.001 180.00 0.90897 0.16
10 5 0 1 o 9820.595 10774.292 0.00 0.90647 0.11
7 11 1 1 o 8264.318 9244.720 0.00 0.90633 0.21
1 12 6 2 o 7133.767 8084.442 0.00 0.90808 0.10
4 13 3 1 o 963.425 1100.218 180.00 0.90577 0.03
3 2 10 2 o 11184.148 11452.183 180.00 0.90759 0.14
3 13 4 1 o 400.267 404.615 0.00 0.90530 0.01
0 11 7 2 o 1016.675 1006.714 180.00 0.90714 0.01
5 11 5 1 o 8961.864 9270.813 180.00 0.90474 0.26
0 13 5 1 o 24004.414 25036.576 180.00 0.90470 0.34
6 10 5 1 o 4022.189 4503.914 180.00 0.90450 0.11
10 5 0 2 o 9124.552 10774.292 0.00 0.90647 0.05
8 8 4 1 o 66.995 79.106 180.00 0.90413 0.00
7 11 1 2 o 7666.782 9244.720 0.00 0.90633 0.09
8 5 6 1 o 5021.335 6290.382 0.00 0.90408 0.14
5 10 6 1 o 520.654 595.794 0.00 0.90378 0.01
4 13 3 2 o 1062.302 1100.218 180.00 0.90577 0.02
10 3 3 1 o 17588.125 17062.416 0.00 0.90322 0.46
1 11 7 1 o 346.686 337.450 0.00 0.90315 0.01
3 13 4 2 o 411.630 404.615 0.00 0.90530 0.01
2 4 10 1 o 979.032 974.198 0.00 0.90259 0.04
5 11 5 2 o 9239.829 9270.813 180.00 0.90474 0.14
0 13 5 2 o 24857.543 25036.576 180.00 0.90470 0.18
10 5 1 1 o 3607.805 3666.082 0.00 0.90242 0.09
7 0 8 1 o 1968.338 2043.373 0.00 0.90233 0.03
5 13 1 1 o 4588.099 4796.114 180.00 0.90232 0.16
6 10 5 2 o 4282.381 4503.914 180.00 0.90450 0.06
6 5 8 1 o 12500.064 13332.169 180.00 0.90223 0.33
8 8 4 2 o 70.158 79.106 180.00 0.90413 0.00
8 5 6 2 o 5317.105 6290.382 0.00 0.90408 0.07
5 10 6 2 o 524.755 595.794 0.00 0.90378 0.01
8 1 7 1 o 599.095 633.650 180.00 0.90126 0.02
10 3 3 2 o 15636.005 17062.416 0.00 0.90322 0.20
4 8 8 1 o 743.535 791.769 180.00 0.90097 0.01
1 11 7 2 o 300.793 337.450 0.00 0.90315 0.00
1 13 5 1 o 7322.078 8723.574 180.00 0.90074 0.21
2 4 10 2 o 786.874 974.198 0.00 0.90259 0.02
7 1 8 1 o 536.708 598.798 180.00 0.90028 0.01
10 5 1 2 o 3361.612 3666.082 0.00 0.90242 0.04
7 0 8 2 o 1896.397 2043.373 0.00 0.90233 0.01
5 13 1 2 o 4433.936 4796.114 180.00 0.90232 0.08
6 5 8 2 o 12627.392 13332.169 180.00 0.90223 0.17
9 4 5 1 o 493.362 470.863 0.00 0.89962 0.01
6 9 6 1 o 11615.145 10638.928 180.00 0.89943 0.34
8 1 7 2 o 738.754 633.650 180.00 0.90126 0.01
8 7 5 1 o 43923.08 38525.61 180.00 0.89887 1.22
4 8 8 2 o 849.229 791.769 180.00 0.90097 0.01
1 13 5 2 o 9250.974 8723.574 180.00 0.90074 0.14
6 12 2 1 o 4221.021 3962.019 180.00 0.89829 0.11
7 1 8 2 o 673.742 598.798 180.00 0.90028 0.01
3 14 2 1 o 13719.942 11973.243 0.00 0.89793 0.44
2 14 3 1 o 32.055 27.870 0.00 0.89761 0.00
6 11 4 1 o 12232.333 10690.021 0.00 0.89745 0.40
9 4 5 2 o 527.943 470.863 0.00 0.89962 0.01
8 9 3 1 o 4052.792 3709.938 180.00 0.89728 0.12
3 3 10 1 o 222.083 205.936 180.00 0.89728 0.01
9 8 1 1 o 5886.217 5459.993 0.00 0.89724 0.15
6 9 6 2 o 11515.765 10638.928 180.00 0.89943 0.17
8 7 5 2 o 39941.76 38525.61 180.00 0.89887 0.54
5 7 8 1 o 20.562 20.149 0.00 0.89634 0.00
2 12 6 1 o 76.668 76.652 180.00 0.89622 0.00
4 11 6 1 o 1193.981 1210.599 180.00 0.89616 0.04
6 12 2 2 o 3861.745 3962.019 180.00 0.89829 0.05
9 7 3 1 o 1359.222 1430.524 180.00 0.89601 0.04
5 4 9 1 o 77.514 81.258 180.00 0.89599 0.00
1 5 10 1 o 5353.342 5649.783 180.00 0.89598 0.14
3 14 2 2 o 11217.202 11973.243 0.00 0.89793 0.17
2 14 3 2 o 28.393 27.870 0.00 0.89761 0.00
6 11 4 2 o 11340.241 10690.021 0.00 0.89745 0.19
8 2 7 1 o 69.148 64.335 0.00 0.89516 0.00
8 9 3 2 o 4004.530 3709.938 180.00 0.89728 0.06
3 3 10 2 o 219.887 205.936 180.00 0.89728 0.00
9 8 1 2 o 5891.503 5459.993 0.00 0.89724 0.08
9 6 4 1 o 4944.301 4358.657 0.00 0.89468 0.14
8 10 0 1 o 2372.293 2122.251 180.00 0.89438 0.03
7 11 2 1 o 1108.501 984.836 180.00 0.89435 0.04
7 2 8 1 o 13530.305 12393.625 180.00 0.89420 0.36
5 7 8 2 o 21.950 20.149 0.00 0.89634 0.00
2 12 6 2 o 77.095 76.652 180.00 0.89622 0.00
4 11 6 2 o 1271.577 1210.599 180.00 0.89616 0.02
9 7 3 2 o 1409.033 1430.524 180.00 0.89601 0.02
5 4 9 2 o 79.717 81.258 180.00 0.89599 0.00
1 5 10 2 o 5489.776 5649.783 180.00 0.89598 0.07
3 9 8 1 o 4071.151 4229.861 0.00 0.89375 0.11
10 0 4 1 o 30634.746 31857.549 180.00 0.89375 0.40
5 12 4 1 o 3739.605 4058.797 0.00 0.89365 0.11
4 12 5 1 o 2226.860 2869.500 180.00 0.89307 0.06
8 2 7 2 o 48.704 64.335 0.00 0.89516 0.00
9 6 4 2 o 4186.563 4358.657 0.00 0.89468 0.06
7 9 5 1 o 7525.369 7619.760 0.00 0.89240 0.24
8 10 0 2 o 2215.123 2122.251 180.00 0.89438 0.02
7 11 2 2 o 1039.231 984.836 180.00 0.89435 0.02
1 8 9 1 o 34.845 33.991 180.00 0.89211 0.00
7 2 8 2 o 13371.797 12393.625 180.00 0.89420 0.18
10 1 4 1 o 13766.875 12337.969 0.00 0.89175 0.39
3 9 8 2 o 4667.923 4229.861 0.00 0.89375 0.07
10 0 4 2 o 35225.84 31857.549 180.00 0.89375 0.24
2 11 7 1 o 778.227 706.391 0.00 0.89148 0.02
5 12 4 2 o 4468.997 4058.797 0.00 0.89365 0.07
3 7 9 1 o 6021.861 5453.587 0.00 0.89141 0.18
4 12 5 2 o 3150.313 2869.500 180.00 0.89307 0.05
5 9 7 1 o 16195.308 14699.816 180.00 0.89087 0.50
10 5 2 1 o 1792.057 1778.767 0.00 0.89059 0.06
4 6 9 1 o 1546.427 1570.184 0.00 0.89054 0.04
5 13 2 1 o 11969.251 12504.565 0.00 0.89049 0.36
8 10 1 1 o 898.520 940.452 0.00 0.89049 0.03
0 10 8 1 o 5518.762 6371.232 180.00 0.89031 0.07
7 9 5 2 o 5905.988 7619.760 0.00 0.89240 0.09
1 8 9 2 o 30.116 33.991 180.00 0.89211 0.00
