#------------------------------------------------------------------------------
#$Date: 2016-03-21 01:21:50 +0200 (Mon, 21 Mar 2016) $
#$Revision: 178377 $
#$URL: svn://www.crystallography.net/cod/cif/4/00/10/4001054.cif $
#------------------------------------------------------------------------------
#
# This file is available in the Crystallography Open Database (COD),
# http://www.crystallography.net/
#
# All data on this site have been placed in the public domain by the
# contributors.
#
data_4001054
loop_
_publ_author_name
'Ling, Chris D.'
'Avdeev, Maxim'
'Kutteh, Ramzi'
'Kharton, Vladislav V.'
'Yaremchenko, Aleksey A.'
'Fialkova, Svitlana'
'Sharma, Neeraj'
'Macquart, Ren\'e B'
'Hoelzel, Markus'
'Gutmann, Matthias'
_publ_section_title
;
 Structures, Phase Transitions, Hydration, and Ionic Conductivity of
 Ba4Nb2O9
;
_journal_issue                   16
_journal_name_full               'Chemistry of Materials'
_journal_page_first              3853
_journal_paper_doi               10.1021/cm901644e
_journal_volume                  21
_journal_year                    2009
_chemical_formula_sum            'Ba6 H Nb3 O14'
_chemical_formula_weight         1327.69
_chemical_name_systematic        ' ?'
_space_group_IT_number           31
_symmetry_cell_setting           orthorhombic
_symmetry_space_group_name_Hall  'P 2ac -2'
_symmetry_space_group_name_H-M   'P m n 21'
_audit_creation_date             2009-05-18T21:17
_audit_creation_method           'from EXP file using GSAS2CIF'
_audit_update_record
' 2009-05-18T21:17  Initial CIF as created by GSAS2CIF'
_cell_angle_alpha                90.0
_cell_angle_beta                 90.0
_cell_angle_gamma                90.0
_cell_formula_units_Z            2
_cell_length_a                   6.0327(15)
_cell_length_b                   12.4065(27)
_cell_length_c                   10.4310(32)
_cell_volume                     780.7(4)
_computing_structure_refinement  GSAS
_diffrn_ambient_temperature      298
_diffrn_radiation_probe          neutron
_diffrn_radiation_wavelength     1.621
_exptl_absorpt_correction_T_max  1.00000
_exptl_absorpt_correction_T_min  1.00000
_exptl_absorpt_process_details
;   GSAS Absorption/surface roughness correction: function number 0
 No correction is applied.
;
_pd_block_id                     2009-05-18T21:17|G-BA4NB2O9_298K||
_pd_calc_method                  'Rietveld Refinement'
_pd_instr_location               ' ?'
_pd_meas_2theta_range_inc        0.05
_pd_meas_2theta_range_max        163.9
_pd_meas_2theta_range_min        4.0
_pd_meas_number_of_points        3199
_pd_phase_name                   'g-III-Ba4Nb2O9 298K'
_pd_proc_2theta_range_inc        0.05
_pd_proc_2theta_range_max        164.0002
_pd_proc_2theta_range_min        4.1002
_pd_proc_info_datetime           2009-05-18T21:17:31
_pd_proc_info_excluded_regions   ' ?'
_pd_proc_ls_background_function
;   GSAS Background function number 1 with 16 terms.
 Shifted Chebyshev function of 1st kind
      1:    1137.55     2:    272.567     3:   -67.6973     4:   -148.867    
      5:    3.71907     6:   -68.7280     7:    33.5119     8:    42.0223    
      9:    9.57417    10:   -14.4392    11:   -9.09587    12:   -11.5090    
     13:   -4.18342    14:   -27.2582    15:    3.35117    16:   -22.6440    
;
_pd_proc_ls_peak_cutoff          0.00500
_pd_proc_ls_profile_function
;
 CW Profile function number 2 with  18 terms
 Profile coefficients for Simpson's rule integration of pseudovoigt function
 C.J. Howard (1982). J. Appl. Cryst.,15,615-620.
 P. Thompson, D.E. Cox & J.B. Hastings (1987). J. Appl. Cryst.,20,79-83.
 Peak tails are ignored  where the intensity is below 0.0050 times the peak
   Aniso. broadening axis   0.0   0.0   1.0
;
_pd_proc_ls_prof_R_factor        0.0505
_pd_proc_ls_prof_wR_expected     0.0233
_pd_proc_ls_prof_wR_factor       0.0651
_pd_proc_number_of_points        3199
_pd_spec_mounting                ' ?'
_refine_ls_goodness_of_fit_all   2.83
_refine_ls_matrix_type           full
_refine_ls_number_parameters     52
_refine_ls_number_restraints     0
_refine_ls_R_Fsqd_factor         0.08466
_refine_ls_shift/su_max          0.06
_refine_ls_shift/su_mean         0.01
_reflns_d_resolution_high        1.058
_reflns_d_resolution_low         7.984
_reflns_limit_h_max              5
_reflns_limit_h_min              0
_reflns_limit_k_max              11
_reflns_limit_k_min              0
_reflns_limit_l_max              9
_reflns_limit_l_min              0
_reflns_number_total             417
_cod_data_source_file            cm901644e_si_002.cif
_cod_data_source_block           G-BA4NB2O9_298K_publ
_cod_depositor_comments
;
The following automatic conversions were performed:

'_geom_bond_publ_flag' value 'N' changed to 'n' according to
/home/saulius/struct/CIF-dictionaries/cif_core.dic dictionary named
'cif_core.dic' version 2.4.2 from 2011-04-26 (213
times).

'_geom_angle_publ_flag' value 'N' changed to 'n' according
to /home/saulius/struct/CIF-dictionaries/cif_core.dic dictionary
named 'cif_core.dic' version 2.4.2 from 2011-04-26 (913 times).

Automatic conversion script
Id: cif_fix_values 1715 2011-07-08 13:25:40Z adriana 
;
_cod_original_cell_volume        780.7(5)
_cod_database_code               4001054
#BEGIN Tags that were not found in dictionaries:
_gsas_exptl_extinct_corr_t_min   1.00000
_gsas_exptl_extinct_corr_t_max   1.00000
#END Tags that were not found in dictionaries
loop_
_symmetry_equiv_pos_site_id
_symmetry_equiv_pos_as_xyz
1 +x,+y,+z
2 -x,+y,+z
3 +x+1/2,-y,+z+1/2
4 -x+1/2,-y,+z+1/2
loop_
_atom_site_type_symbol
_atom_site_label
_atom_site_fract_x
_atom_site_fract_y
_atom_site_fract_z
_atom_site_occupancy
_atom_site_thermal_displace_type
_atom_site_U_iso_or_equiv
_atom_site_symmetry_multiplicity
Ba Ba1 0.5 0.4917(22) 0.9842(33) 1.0 Uiso 0.0293(26) 2
Ba Ba2 0.5 0.6718(19) 0.3035(29) 1.0 Uiso 0.0293(26) 2
Ba Ba3 0.5 0.8346(19) 0.0290(26) 1.0 Uiso 0.0293(26) 2
Ba Ba4 0.5 0.3407(17) 0.3455(32) 1.0 Uiso 0.0293(26) 2
Ba Ba5 0.0 0.8615(22) 0.4351(25) 1.0 Uiso 0.0293(26) 2
Ba Ba6 0.5 0.9113(17) 0.6319(24) 1.0 Uiso 0.0293(26) 2
Nb Nb1 0.5 0.62836 0.66558 1.0 Uiso 0.0153(20) 2
Nb Nb2 0.5 0.38858 0.65764 1.0 Uiso 0.0153(20) 2
Nb Nb3 0.0 0.00458 0.83953 1.0 Uiso 0.030(4) 2
O O1 0.74376 0.32029 0.57899 1.0 Uiso 0.0478(16) 4
O O2 0.72704 0.51343 0.73934 1.0 Uiso 0.0478(16) 4
O O3 0.73299 0.70315 0.57846 1.0 Uiso 0.0478(16) 4
O O4 0.5 0.71554 0.81864 1.0 Uiso 0.0478(16) 2
O O5 0.5 0.506 0.51681 1.0 Uiso 0.0478(16) 2
O O6 0.5 0.33713 0.82945 1.0 Uiso 0.0478(16) 2
O O7 0.24174 0.99765 0.94989 1.0 Uiso 0.227(12) 4
O O8 0.5 0.85422 0.27497 1.0 Uiso 0.227(12) 2
O O9 0.0 0.88741 0.72263 1.0 Uiso 0.227(12) 2
O O10 0.0 0.827(7) 0.230(6) 1.0 Uiso 0.29(4) 2
H H1 0.0 0.773(10) 0.166(17) 1.0 Uiso 0.29(4) 2
loop_
_atom_type_symbol
_atom_type_number_in_cell
_atom_type_scat_length_neutron
_atom_type_scat_source
Ba 12.0 0.5070 International_Tables_Vol_C
Nb 6.0 0.7054 International_Tables_Vol_C
O 28.0 0.5803 International_Tables_Vol_C
H 2.0 -0.3739 International_Tables_Vol_C
loop_
_geom_angle_atom_site_label_1
_geom_angle_atom_site_label_2
_geom_angle_atom_site_label_3
_geom_angle
_geom_angle_site_symmetry_1
_geom_angle_site_symmetry_3
_geom_angle_publ_flag
Ba2 Ba1 Ba2 131.2(5) 1_556 3_465 n
Ba2 Ba1 Ba2 131.2(5) 1_556 3_565 n
Ba2 Ba1 Ba3 49.9(6) 1_556 1_556 n
Ba2 Ba1 Ba4 60.3(7) 1_556 1_556 n
Ba2 Ba1 Ba4 90.6(6) 1_556 3_465 n
Ba2 Ba1 Ba4 90.6(6) 1_556 3_565 n
Ba2 Ba1 Ba5 130.5(9) 1_556 3_565 n
Ba2 Ba1 Nb2 166.7(9) 1_556 1_555 n
Ba2 Ba1 O1 44.4(5) 1_556 3_465 n
Ba2 Ba1 O1 44.4(5) 1_556 4_665 n
Ba2 Ba1 O2 132.6(7) 1_556 1_555 n
Ba2 Ba1 O2 132.6(7) 1_556 2_655 n
Ba2 Ba1 O2 46.0(5) 1_556 3_465 n
Ba2 Ba1 O2 46.0(5) 1_556 4_665 n
Ba2 Ba1 O3 100.0(8) 1_556 3_465 n
Ba2 Ba1 O3 100.0(8) 1_556 4_665 n
Ba2 Ba1 O5 84.4(6) 1_556 3_465 n
Ba2 Ba1 O5 84.4(6) 1_556 3_565 n
Ba2 Ba1 O6 164.0(11) 1_556 1_555 n
Ba2 Ba1 Ba2 94.9(8) 3_465 3_565 n
Ba2 Ba1 Ba3 122.9(5) 3_465 1_556 n
Ba2 Ba1 Ba4 101.1(6) 3_465 1_556 n
Ba2 Ba1 Ba4 61.9(4) 3_465 3_465 n
Ba2 Ba1 Ba4 131.0(12) 3_465 3_565 n
Ba2 Ba1 Ba5 56.9(5) 3_465 3_565 n
Ba2 Ba1 Nb2 52.8(5) 3_465 1_555 n
Ba2 Ba1 O1 99.15(32) 3_465 3_465 n
Ba2 Ba1 O1 157.9(8) 3_465 4_665 n
Ba2 Ba1 O2 89.3(9) 3_465 1_555 n
Ba2 Ba1 O2 45.2(5) 3_465 2_655 n
Ba2 Ba1 O2 89.6(5) 3_465 3_465 n
Ba2 Ba1 O2 140.3(9) 3_465 4_665 n
Ba2 Ba1 O3 51.0(5) 3_465 3_465 n
Ba2 Ba1 O3 98.3(7) 3_465 4_665 n
Ba2 Ba1 O5 47.5(4) 3_465 3_465 n
Ba2 Ba1 O5 142.0(9) 3_465 3_565 n
Ba2 Ba1 O6 47.5(4) 3_465 1_555 n
Ba2 Ba1 Ba3 122.9(5) 3_565 1_556 n
Ba2 Ba1 Ba4 101.1(6) 3_565 1_556 n
Ba2 Ba1 Ba4 131.0(12) 3_565 3_465 n
Ba2 Ba1 Ba4 61.9(4) 3_565 3_565 n
Ba2 Ba1 Ba5 56.9(5) 3_565 3_565 n
Ba2 Ba1 Nb2 52.8(5) 3_565 1_555 n
Ba2 Ba1 O1 157.9(8) 3_565 3_465 n
Ba2 Ba1 O1 99.15(32) 3_565 4_665 n
Ba2 Ba1 O2 45.2(5) 3_565 1_555 n
Ba2 Ba1 O2 89.3(9) 3_565 2_655 n
Ba2 Ba1 O2 140.3(9) 3_565 3_465 n
Ba2 Ba1 O2 89.6(5) 3_565 4_665 n
Ba2 Ba1 O3 98.3(7) 3_565 3_465 n
Ba2 Ba1 O3 51.0(5) 3_565 4_665 n
Ba2 Ba1 O5 142.0(9) 3_565 3_465 n
Ba2 Ba1 O5 47.5(4) 3_565 3_565 n
Ba2 Ba1 O6 47.5(4) 3_565 1_555 n
Ba3 Ba1 Ba4 110.2(9) 1_556 1_556 n
Ba3 Ba1 Ba4 61.0(4) 1_556 3_465 n
Ba3 Ba1 Ba4 61.0(4) 1_556 3_565 n
Ba3 Ba1 Ba5 179.587(7) 1_556 3_565 n
Ba3 Ba1 Nb2 116.8(7) 1_556 1_555 n
Ba3 Ba1 O1 35.2(4) 1_556 3_465 n
Ba3 Ba1 O1 35.2(4) 1_556 4_665 n
Ba3 Ba1 O2 90.2(6) 1_556 1_555 n
Ba3 Ba1 O2 90.2(6) 1_556 2_655 n
Ba3 Ba1 O2 85.8(7) 1_556 3_465 n
Ba3 Ba1 O2 85.8(7) 1_556 4_665 n
Ba3 Ba1 O3 138.5(7) 1_556 3_465 n
Ba3 Ba1 O3 138.5(7) 1_556 4_665 n
Ba3 Ba1 O5 88.8(5) 1_556 3_465 n
Ba3 Ba1 O5 88.8(5) 1_556 3_565 n
Ba3 Ba1 O6 146.2(11) 1_556 1_555 n
Ba4 Ba1 Ba4 124.3(8) 1_556 3_465 n
Ba4 Ba1 Ba4 124.3(8) 1_556 3_565 n
Ba4 Ba1 Ba5 70.2(6) 1_556 3_565 n
Ba4 Ba1 Nb2 133.0(8) 1_556 1_555 n
Ba4 Ba1 O1 93.0(9) 1_556 3_465 n
Ba4 Ba1 O1 93.0(9) 1_556 4_665 n
Ba4 Ba1 O2 145.8(5) 1_556 1_555 n
Ba4 Ba1 O2 145.8(5) 1_556 2_655 n
Ba4 Ba1 O2 39.6(4) 1_556 3_465 n
Ba4 Ba1 O2 39.6(4) 1_556 4_665 n
Ba4 Ba1 O3 50.4(5) 1_556 3_465 n
Ba4 Ba1 O3 50.4(5) 1_556 4_665 n
Ba4 Ba1 O5 84.5(6) 1_556 3_465 n
Ba4 Ba1 O5 84.5(6) 1_556 3_565 n
Ba4 Ba1 O6 103.7(8) 1_556 1_555 n
Ba4 Ba1 Ba4 100.0(10) 3_465 3_565 n
Ba4 Ba1 Ba5 118.8(6) 3_465 3_565 n
Ba4 Ba1 Nb2 80.9(7) 3_465 1_555 n
Ba4 Ba1 O1 46.3(4) 3_465 3_465 n
Ba4 Ba1 O1 96.1(7) 3_465 4_665 n
Ba4 Ba1 O2 89.4(9) 3_465 1_555 n
Ba4 Ba1 O2 43.0(5) 3_465 2_655 n
Ba4 Ba1 O2 85.4(5) 3_465 3_465 n
Ba4 Ba1 O2 136.5(10) 3_465 4_665 n
Ba4 Ba1 O3 97.56(30) 3_465 3_465 n
Ba4 Ba1 O3 159.4(7) 3_465 4_665 n
Ba4 Ba1 O5 43.5(4) 3_465 3_465 n
Ba4 Ba1 O5 142.8(9) 3_465 3_565 n
Ba4 Ba1 O6 99.6(8) 3_465 1_555 n
Ba4 Ba1 Ba5 118.8(6) 3_565 3_565 n
Ba4 Ba1 Nb2 80.9(7) 3_565 1_555 n
Ba4 Ba1 O1 96.1(7) 3_565 3_465 n
Ba4 Ba1 O1 46.3(4) 3_565 4_665 n
Ba4 Ba1 O2 43.0(5) 3_565 1_555 n
Ba4 Ba1 O2 89.4(9) 3_565 2_655 n
Ba4 Ba1 O2 136.5(10) 3_565 3_465 n
Ba4 Ba1 O2 85.4(5) 3_565 4_665 n
Ba4 Ba1 O3 159.4(7) 3_565 3_465 n
Ba4 Ba1 O3 97.56(30) 3_565 4_665 n
Ba4 Ba1 O5 142.8(9) 3_565 3_465 n
Ba4 Ba1 O5 43.5(4) 3_565 3_565 n
Ba4 Ba1 O6 99.6(8) 3_565 1_555 n
Ba5 Ba1 Nb2 62.7(6) 3_565 1_555 n
Ba5 Ba1 O1 145.0(5) 3_565 3_465 n
Ba5 Ba1 O1 145.0(5) 3_565 4_665 n
Ba5 Ba1 O2 89.4(8) 3_565 1_555 n
Ba5 Ba1 O2 89.4(8) 3_565 2_655 n
Ba5 Ba1 O2 94.5(7) 3_565 3_465 n
Ba5 Ba1 O2 94.5(7) 3_565 4_665 n
Ba5 Ba1 O3 41.8(4) 3_565 3_465 n
Ba5 Ba1 O3 41.8(4) 3_565 4_665 n
Ba5 Ba1 O5 91.3(5) 3_565 3_465 n
Ba5 Ba1 O5 91.3(5) 3_565 3_565 n
Ba5 Ba1 O6 33.4(5) 3_565 1_555 n
Nb2 Ba1 O1 126.0(8) 1_555 3_465 n
Nb2 Ba1 O1 126.0(8) 1_555 4_665 n
Nb2 Ba1 O2 37.9(4) 1_555 1_555 n
Nb2 Ba1 O2 37.9(4) 1_555 2_655 n
Nb2 Ba1 O2 142.1(5) 1_555 3_465 n
Nb2 Ba1 O2 142.1(5) 1_555 4_665 n
Nb2 Ba1 O3 91.3(7) 1_555 3_465 n
Nb2 Ba1 O3 91.3(7) 1_555 4_665 n
Nb2 Ba1 O5 96.2(6) 1_555 3_465 n
Nb2 Ba1 O5 96.2(6) 1_555 3_565 n
Nb2 Ba1 O6 29.3(4) 1_555 1_555 n
O1 Ba1 O1 62.8(6) 3_465 4_665 n
O1 Ba1 O2 117.7(9) 3_465 1_555 n
O1 Ba1 O2 88.5(6) 3_465 2_655 n
O1 Ba1 O2 57.2(5) 3_465 3_465 n
O1 Ba1 O2 90.4(9) 3_465 4_665 n
O1 Ba1 O3 103.8(5) 3_465 3_465 n
O1 Ba1 O3 141.9(12) 3_465 4_665 n
O1 Ba1 O5 55.79(27) 3_465 3_465 n
O1 Ba1 O5 118.2(9) 3_465 3_565 n
O1 Ba1 O6 144.7(7) 3_465 1_555 n
O1 Ba1 O2 88.5(6) 4_665 1_555 n
O1 Ba1 O2 117.7(9) 4_665 2_655 n
O1 Ba1 O2 90.4(9) 4_665 3_465 n
O1 Ba1 O2 57.2(5) 4_665 4_665 n
O1 Ba1 O3 141.9(12) 4_665 3_465 n
O1 Ba1 O3 103.8(5) 4_665 4_665 n
O1 Ba1 O5 118.2(9) 4_665 3_465 n
O1 Ba1 O5 55.79(27) 4_665 3_565 n
O1 Ba1 O6 144.7(7) 4_665 1_555 n
O2 Ba1 O2 56.1(6) 1_555 2_655 n
O2 Ba1 O2 174.5(8) 1_555 3_465 n
O2 Ba1 O2 120.03(7) 1_555 4_665 n
O2 Ba1 O3 127.0(11) 1_555 3_465 n
O2 Ba1 O3 96.2(6) 1_555 4_665 n
O2 Ba1 O5 124.4(10) 1_555 3_465 n
O2 Ba1 O5 68.27(32) 1_555 3_565 n
O2 Ba1 O6 60.4(7) 1_555 1_555 n
O2 Ba1 O2 120.03(7) 2_655 3_465 n
O2 Ba1 O2 174.5(8) 2_655 4_665 n
O2 Ba1 O3 96.2(6) 2_655 3_465 n
O2 Ba1 O3 127.0(11) 2_655 4_665 n
O2 Ba1 O5 68.27(32) 2_655 3_465 n
O2 Ba1 O5 124.4(10) 2_655 3_565 n
O2 Ba1 O6 60.4(7) 2_655 1_555 n
O2 Ba1 O2 63.5(7) 3_465 4_665 n
O2 Ba1 O3 55.6(4) 3_465 3_465 n
O2 Ba1 O3 89.3(8) 3_465 4_665 n
O2 Ba1 O5 51.85(31) 3_465 3_465 n
O2 Ba1 O5 115.3(10) 3_465 3_565 n
O2 Ba1 O6 122.1(8) 3_465 1_555 n
O2 Ba1 O3 89.3(8) 4_665 3_465 n
O2 Ba1 O3 55.6(4) 4_665 4_665 n
O2 Ba1 O5 115.3(10) 4_665 3_465 n
O2 Ba1 O5 51.85(31) 4_665 3_565 n
O2 Ba1 O6 122.1(8) 4_665 1_555 n
O3 Ba1 O3 63.4(5) 3_465 4_665 n
O3 Ba1 O5 56.61(26) 3_465 3_465 n
O3 Ba1 O5 119.6(8) 3_465 3_565 n
O3 Ba1 O6 66.6(6) 3_465 1_555 n
O3 Ba1 O5 119.6(8) 4_665 3_465 n
O3 Ba1 O5 56.61(26) 4_665 3_565 n
O3 Ba1 O6 66.6(6) 4_665 1_555 n
O5 Ba1 O5 167.1(13) 3_465 3_565 n
O5 Ba1 O6 94.6(6) 3_465 1_555 n
O5 Ba1 O6 94.6(6) 3_565 1_555 n
Ba1 Ba2 Ba1 96.1(5) 1_554 3_464 n
Ba1 Ba2 Ba1 96.1(5) 1_554 3_564 n
Ba1 Ba2 Ba3 69.1(8) 1_554 1_555 n
Ba1 Ba2 Ba4 62.2(7) 1_554 1_555 n
Ba1 Ba2 Ba5 127.1(6) 1_554 1_555 n
Ba1 Ba2 Ba5 127.1(6) 1_554 1_655 n
Ba1 Ba2 Nb2 60.9(4) 1_554 3_464 n
Ba1 Ba2 Nb2 60.9(4) 1_554 3_564 n
Ba1 Ba2 O1 47.7(5) 1_554 3_464 n
Ba1 Ba2 O1 47.7(5) 1_554 4_664 n
Ba1 Ba2 O2 50.8(5) 1_554 3_464 n
Ba1 Ba2 O2 50.8(5) 1_554 4_664 n
Ba1 Ba2 O5 103.4(7) 1_554 1_555 n
Ba1 Ba2 O6 93.1(5) 1_554 3_464 n
Ba1 Ba2 O6 93.1(5) 1_554 3_564 n
Ba1 Ba2 O8 116.4(11) 1_554 1_555 n
Ba1 Ba2 Ba1 94.9(8) 3_464 3_564 n
Ba1 Ba2 Ba3 131.4(5) 3_464 1_555 n
Ba1 Ba2 Ba4 57.2(5) 3_464 1_555 n
Ba1 Ba2 Ba5 65.5(6) 3_464 1_555 n
Ba1 Ba2 Ba5 132.7(10) 3_464 1_655 n
Ba1 Ba2 Nb2 56.8(5) 3_464 3_464 n
Ba1 Ba2 Nb2 137.5(8) 3_464 3_564 n
Ba1 Ba2 O1 89.8(5) 3_464 3_464 n
Ba1 Ba2 O1 143.8(10) 3_464 4_664 n
Ba1 Ba2 O2 45.3(5) 3_464 3_464 n
Ba1 Ba2 O2 97.6(7) 3_464 4_664 n
Ba1 Ba2 O5 47.6(4) 3_464 1_555 n
Ba1 Ba2 O6 37.6(4) 3_464 3_464 n
Ba1 Ba2 O6 132.4(8) 3_464 3_564 n
Ba1 Ba2 O8 123.4(6) 3_464 1_555 n
Ba1 Ba2 Ba3 131.4(5) 3_564 1_555 n
Ba1 Ba2 Ba4 57.2(5) 3_564 1_555 n
Ba1 Ba2 Ba5 132.7(10) 3_564 1_555 n
Ba1 Ba2 Ba5 65.5(6) 3_564 1_655 n
Ba1 Ba2 Nb2 137.5(8) 3_564 3_464 n
Ba1 Ba2 Nb2 56.8(5) 3_564 3_564 n
Ba1 Ba2 O1 143.8(10) 3_564 3_464 n
Ba1 Ba2 O1 89.8(5) 3_564 4_664 n
Ba1 Ba2 O2 97.6(7) 3_564 3_464 n
Ba1 Ba2 O2 45.3(5) 3_564 4_664 n
Ba1 Ba2 O5 47.6(4) 3_564 1_555 n
Ba1 Ba2 O6 132.4(8) 3_564 3_464 n
Ba1 Ba2 O6 37.6(4) 3_564 3_564 n
Ba1 Ba2 O8 123.4(6) 3_564 1_555 n
Ba3 Ba2 Ba4 131.3(9) 1_555 1_555 n
Ba3 Ba2 Ba5 86.7(6) 1_555 1_555 n
Ba3 Ba2 Ba5 86.7(6) 1_555 1_655 n
Ba3 Ba2 Nb2 76.4(5) 1_555 3_464 n
Ba3 Ba2 Nb2 76.4(5) 1_555 3_564 n
Ba3 Ba2 O1 45.4(4) 1_555 3_464 n
Ba3 Ba2 O1 45.4(4) 1_555 4_664 n
Ba3 Ba2 O2 105.5(8) 1_555 3_464 n
Ba3 Ba2 O2 105.5(8) 1_555 4_664 n
Ba3 Ba2 O5 172.4(10) 1_555 1_555 n
Ba3 Ba2 O6 95.4(5) 1_555 3_464 n
Ba3 Ba2 O6 95.4(5) 1_555 3_564 n
Ba3 Ba2 O8 47.3(7) 1_555 1_555 n
Ba4 Ba2 Ba5 122.7(5) 1_555 1_555 n
Ba4 Ba2 Ba5 122.7(5) 1_555 1_655 n
Ba4 Ba2 Nb2 80.3(5) 1_555 3_464 n
Ba4 Ba2 Nb2 80.3(5) 1_555 3_564 n
Ba4 Ba2 O1 97.1(7) 1_555 3_464 n
Ba4 Ba2 O1 97.1(7) 1_555 4_664 n
Ba4 Ba2 O2 40.3(4) 1_555 3_464 n
Ba4 Ba2 O2 40.3(4) 1_555 4_664 n
Ba4 Ba2 O5 41.2(5) 1_555 1_555 n
Ba4 Ba2 O6 87.4(4) 1_555 3_464 n
Ba4 Ba2 O6 87.4(4) 1_555 3_564 n
Ba4 Ba2 O8 178.6(11) 1_555 1_555 n
Ba5 Ba2 Ba5 95.8(8) 1_555 1_655 n
Ba5 Ba2 Nb2 68.10(34) 1_555 3_464 n
Ba5 Ba2 Nb2 157.0(7) 1_555 3_564 n
Ba5 Ba2 O1 81.5(4) 1_555 3_464 n
Ba5 Ba2 O1 132.1(8) 1_555 4_664 n
Ba5 Ba2 O2 96.62(33) 1_555 3_464 n
Ba5 Ba2 O2 163.0(7) 1_555 4_664 n
Ba5 Ba2 O5 98.3(7) 1_555 1_555 n
Ba5 Ba2 O6 41.6(4) 1_555 3_464 n
Ba5 Ba2 O6 136.9(8) 1_555 3_564 n
Ba5 Ba2 O8 58.0(5) 1_555 1_555 n
Ba5 Ba2 Nb2 157.0(7) 1_655 3_464 n
Ba5 Ba2 Nb2 68.10(34) 1_655 3_564 n
Ba5 Ba2 O1 132.1(8) 1_655 3_464 n
Ba5 Ba2 O1 81.5(4) 1_655 4_664 n
Ba5 Ba2 O2 163.0(7) 1_655 3_464 n
Ba5 Ba2 O2 96.62(33) 1_655 4_664 n
Ba5 Ba2 O5 98.3(7) 1_655 1_555 n
Ba5 Ba2 O6 136.9(8) 1_655 3_464 n
Ba5 Ba2 O6 41.6(4) 1_655 3_564 n
Ba5 Ba2 O8 58.0(5) 1_655 1_555 n
Nb2 Ba2 Nb2 121.3(8) 3_464 3_564 n
Nb2 Ba2 O1 32.96(15) 3_464 3_464 n
Nb2 Ba2 O1 96.9(8) 3_464 4_664 n
Nb2 Ba2 O2 39.95(19) 3_464 3_464 n
Nb2 Ba2 O2 102.8(7) 3_464 4_664 n
Nb2 Ba2 O5 100.1(5) 3_464 1_555 n
Nb2 Ba2 O6 33.25(13) 3_464 3_464 n
Nb2 Ba2 O6 154.0(10) 3_464 3_564 n
Nb2 Ba2 O8 99.0(6) 3_464 1_555 n
Nb2 Ba2 O1 96.9(8) 3_564 3_464 n
Nb2 Ba2 O1 32.96(15) 3_564 4_664 n
Nb2 Ba2 O2 102.8(7) 3_564 3_464 n
Nb2 Ba2 O2 39.95(19) 3_564 4_664 n
Nb2 Ba2 O5 100.1(5) 3_564 1_555 n
Nb2 Ba2 O6 154.0(10) 3_564 3_464 n
Nb2 Ba2 O6 33.25(13) 3_564 3_564 n
Nb2 Ba2 O8 99.0(6) 3_564 1_555 n
O1 Ba2 O1 66.8(7) 3_464 4_664 n
O1 Ba2 O2 61.5(4) 3_464 3_464 n
O1 Ba2 O2 98.5(9) 3_464 4_664 n
O1 Ba2 O5 129.5(7) 3_464 1_555 n
O1 Ba2 O6 61.82(23) 3_464 3_464 n
O1 Ba2 O6 128.6(9) 3_464 3_564 n
O1 Ba2 O8 81.8(7) 3_464 1_555 n
O1 Ba2 O2 98.5(9) 4_664 3_464 n
O1 Ba2 O2 61.5(4) 4_664 4_664 n
O1 Ba2 O5 129.5(7) 4_664 1_555 n
O1 Ba2 O6 128.6(9) 4_664 3_464 n
O1 Ba2 O6 61.82(23) 4_664 3_564 n
O1 Ba2 O8 81.8(7) 4_664 1_555 n
O2 Ba2 O2 69.1(5) 3_464 4_664 n
O2 Ba2 O5 68.4(5) 3_464 1_555 n
O2 Ba2 O6 55.08(19) 3_464 3_464 n
O2 Ba2 O6 123.8(7) 3_464 3_564 n
O2 Ba2 O8 139.0(7) 3_464 1_555 n
O2 Ba2 O5 68.4(5) 4_664 1_555 n
O2 Ba2 O6 123.8(7) 4_664 3_464 n
O2 Ba2 O6 55.08(19) 4_664 3_564 n
O2 Ba2 O8 139.0(7) 4_664 1_555 n
O5 Ba2 O6 84.8(5) 1_555 3_464 n
O5 Ba2 O6 84.8(5) 1_555 3_564 n
O5 Ba2 O8 140.3(12) 1_555 1_555 n
O6 Ba2 O6 168.9(11) 3_464 3_564 n
O6 Ba2 O8 92.7(5) 3_464 1_555 n
O6 Ba2 O8 92.7(5) 3_564 1_555 n
Ba1 Ba3 Ba2 61.1(8) 1_554 1_555 n
Ba1 Ba3 Ba4 55.5(4) 1_554 3_464 n
Ba1 Ba3 Ba4 55.5(4) 1_554 3_564 n
Ba1 Ba3 Ba5 159.2(8) 1_554 3_574 n
Ba1 Ba3 Ba6 96.7(7) 1_554 1_554 n
Ba1 Ba3 O1 42.7(4) 1_554 3_464 n
Ba1 Ba3 O1 42.7(4) 1_554 4_664 n
Ba1 Ba3 O4 49.8(6) 1_554 1_554 n
Ba1 Ba3 O7 135.7(5) 1_554 1_554 n
Ba1 Ba3 O7 135.7(5) 1_554 2_654 n
Ba1 Ba3 O8 101.7(8) 1_554 1_555 n
Ba2 Ba3 Ba4 94.2(6) 1_555 3_464 n
Ba2 Ba3 Ba4 94.2(6) 1_555 3_564 n
Ba2 Ba3 Ba5 139.8(9) 1_555 3_574 n
Ba2 Ba3 Ba6 157.7(8) 1_555 1_554 n
Ba2 Ba3 O1 52.5(6) 1_555 3_464 n
Ba2 Ba3 O1 52.5(6) 1_555 4_664 n
Ba2 Ba3 O4 110.8(9) 1_555 1_554 n
Ba2 Ba3 O7 133.3(7) 1_555 1_554 n
Ba2 Ba3 O7 133.3(7) 1_555 2_654 n
Ba2 Ba3 O8 40.6(6) 1_555 1_555 n
Ba4 Ba3 Ba4 92.3(7) 3_464 3_564 n
Ba4 Ba3 Ba5 112.9(6) 3_464 3_574 n
Ba4 Ba3 Ba6 70.8(5) 3_464 1_554 n
Ba4 Ba3 O1 41.9(5) 3_464 3_464 n
Ba4 Ba3 O1 98.1(7) 3_464 4_664 n
Ba4 Ba3 O4 47.9(4) 3_464 1_554 n
Ba4 Ba3 O7 80.4(4) 3_464 1_554 n
Ba4 Ba3 O7 132.1(9) 3_464 2_654 n
Ba4 Ba3 O8 120.3(6) 3_464 1_555 n
Ba4 Ba3 Ba5 112.9(6) 3_564 3_574 n
Ba4 Ba3 Ba6 70.8(5) 3_564 1_554 n
Ba4 Ba3 O1 98.1(7) 3_564 3_464 n
Ba4 Ba3 O1 41.9(5) 3_564 4_664 n
Ba4 Ba3 O4 47.9(4) 3_564 1_554 n
Ba4 Ba3 O7 132.1(9) 3_564 1_554 n
Ba4 Ba3 O7 80.4(4) 3_564 2_654 n
Ba4 Ba3 O8 120.3(6) 3_564 1_555 n
Ba5 Ba3 Ba6 62.5(6) 3_574 1_554 n
Ba5 Ba3 O1 142.2(4) 3_574 3_464 n
Ba5 Ba3 O1 142.2(4) 3_574 4_664 n
Ba5 Ba3 O4 109.4(8) 3_574 1_554 n
Ba5 Ba3 O7 36.20(30) 3_574 1_554 n
Ba5 Ba3 O7 36.20(30) 3_574 2_654 n
Ba5 Ba3 O8 99.1(8) 3_574 1_555 n
Ba6 Ba3 O1 111.9(7) 1_554 3_464 n
Ba6 Ba3 O1 111.9(7) 1_554 4_664 n
Ba6 Ba3 O4 46.9(5) 1_554 1_554 n
Ba6 Ba3 O7 62.1(6) 1_554 1_554 n
Ba6 Ba3 O7 62.1(6) 1_554 2_654 n
Ba6 Ba3 O8 161.7(9) 1_554 1_555 n
O1 Ba3 O1 75.6(7) 3_464 4_664 n
O1 Ba3 O4 75.3(6) 3_464 1_554 n
O1 Ba3 O7 106.40(9) 3_464 1_554 n
O1 Ba3 O7 173.9(11) 3_464 2_654 n
O1 Ba3 O8 82.3(8) 3_464 1_555 n
O1 Ba3 O4 75.3(6) 4_664 1_554 n
O1 Ba3 O7 173.9(11) 4_664 1_554 n
O1 Ba3 O7 106.40(9) 4_664 2_654 n
O1 Ba3 O8 82.3(8) 4_664 1_555 n
O4 Ba3 O7 99.6(8) 1_554 1_554 n
O4 Ba3 O7 99.6(8) 1_554 2_654 n
O4 Ba3 O8 151.5(11) 1_554 1_555 n
O7 Ba3 O7 71.0(6) 1_554 2_654 n
O7 Ba3 O8 103.6(7) 1_554 1_555 n
O7 Ba3 O8 103.6(7) 2_654 1_555 n
Ba1 Ba4 Ba1 95.4(5) 1_554 3_464 n
Ba1 Ba4 Ba1 95.4(5) 1_554 3_564 n
Ba1 Ba4 Ba2 57.5(6) 1_554 1_555 n
Ba1 Ba4 Ba3 129.9(5) 1_554 3_465 n
Ba1 Ba4 Ba3 129.9(5) 1_554 3_565 n
Ba1 Ba4 Nb1 58.8(4) 1_554 3_464 n
Ba1 Ba4 Nb1 58.8(4) 1_554 3_564 n
Ba1 Ba4 Nb2 143.2(7) 1_554 1_555 n
Ba1 Ba4 O1 143.4(4) 1_554 1_555 n
Ba1 Ba4 O1 143.4(4) 1_554 2_655 n
Ba1 Ba4 O2 48.0(5) 1_554 3_464 n
Ba1 Ba4 O2 48.0(5) 1_554 4_664 n
Ba1 Ba4 O4 91.1(6) 1_554 3_464 n
Ba1 Ba4 O4 91.1(6) 1_554 3_564 n
Ba1 Ba4 O5 104.6(7) 1_554 1_555 n
Ba1 Ba4 O9 92.1(9) 1_554 3_564 n
Ba1 Ba4 Ba1 100.0(10) 3_464 3_564 n
Ba1 Ba4 Ba2 60.9(5) 3_464 1_555 n
Ba1 Ba4 Ba3 63.5(5) 3_464 3_465 n
Ba1 Ba4 Ba3 131.2(10) 3_464 3_565 n
Ba1 Ba4 Nb1 59.3(4) 3_464 3_464 n
Ba1 Ba4 Nb1 141.5(7) 3_464 3_564 n
Ba1 Ba4 Nb2 62.9(7) 3_464 1_555 n
Ba1 Ba4 O1 97.3(10) 3_464 1_555 n
Ba1 Ba4 O1 48.7(6) 3_464 2_655 n
Ba1 Ba4 O2 47.6(6) 3_464 3_464 n
Ba1 Ba4 O2 105.4(7) 3_464 4_664 n
Ba1 Ba4 O4 53.75(34) 3_464 3_464 n
Ba1 Ba4 O4 153.5(10) 3_464 3_564 n
Ba1 Ba4 O5 50.3(5) 3_464 1_555 n
Ba1 Ba4 O9 129.2(4) 3_464 3_564 n
Ba1 Ba4 Ba2 60.9(5) 3_564 1_555 n
Ba1 Ba4 Ba3 131.2(10) 3_564 3_465 n
Ba1 Ba4 Ba3 63.5(5) 3_564 3_565 n
Ba1 Ba4 Nb1 141.5(7) 3_564 3_464 n
Ba1 Ba4 Nb1 59.3(4) 3_564 3_564 n
Ba1 Ba4 Nb2 62.9(7) 3_564 1_555 n
Ba1 Ba4 O1 48.7(6) 3_564 1_555 n
Ba1 Ba4 O1 97.3(10) 3_564 2_655 n
Ba1 Ba4 O2 105.4(7) 3_564 3_464 n
Ba1 Ba4 O2 47.6(6) 3_564 4_664 n
Ba1 Ba4 O4 153.5(10) 3_564 3_464 n
Ba1 Ba4 O4 53.75(34) 3_564 3_564 n
Ba1 Ba4 O5 50.3(5) 3_564 1_555 n
Ba1 Ba4 O9 129.2(4) 3_564 3_564 n
Ba2 Ba4 Ba3 124.5(5) 1_555 3_465 n
Ba2 Ba4 Ba3 124.5(5) 1_555 3_565 n
Ba2 Ba4 Nb1 80.7(4) 1_555 3_464 n
Ba2 Ba4 Nb1 80.7(4) 1_555 3_564 n
Ba2 Ba4 Nb2 85.8(6) 1_555 1_555 n
Ba2 Ba4 O1 100.3(7) 1_555 1_555 n
Ba2 Ba4 O1 100.3(7) 1_555 2_655 n
Ba2 Ba4 O2 44.5(4) 1_555 3_464 n
Ba2 Ba4 O2 44.5(4) 1_555 4_664 n
Ba2 Ba4 O4 102.3(4) 1_555 3_464 n
Ba2 Ba4 O4 102.3(4) 1_555 3_564 n
Ba2 Ba4 O5 47.2(5) 1_555 1_555 n
Ba2 Ba4 O9 149.6(10) 1_555 3_564 n
Ba3 Ba4 Ba3 92.3(7) 3_465 3_565 n
Ba3 Ba4 Nb1 71.78(29) 3_465 3_464 n
Ba3 Ba4 Nb1 154.8(7) 3_465 3_564 n
Ba3 Ba4 Nb2 69.1(5) 3_465 1_555 n
Ba3 Ba4 O1 86.3(7) 3_465 1_555 n
Ba3 Ba4 O1 36.1(4) 3_465 2_655 n
Ba3 Ba4 O2 95.56(25) 3_465 3_464 n
Ba3 Ba4 O2 168.9(7) 3_465 4_664 n
Ba3 Ba4 O4 39.17(35) 3_465 3_464 n
Ba3 Ba4 O4 128.6(6) 3_465 3_564 n
Ba3 Ba4 O5 95.3(7) 3_465 1_555 n
Ba3 Ba4 O9 73.4(5) 3_465 3_564 n
Ba3 Ba4 Nb1 154.8(7) 3_565 3_464 n
Ba3 Ba4 Nb1 71.78(29) 3_565 3_564 n
Ba3 Ba4 Nb2 69.1(5) 3_565 1_555 n
Ba3 Ba4 O1 36.1(4) 3_565 1_555 n
Ba3 Ba4 O1 86.3(7) 3_565 2_655 n
Ba3 Ba4 O2 168.9(7) 3_565 3_464 n
Ba3 Ba4 O2 95.56(25) 3_565 4_664 n
Ba3 Ba4 O4 128.6(6) 3_565 3_464 n
Ba3 Ba4 O4 39.17(35) 3_565 3_564 n
Ba3 Ba4 O5 95.3(7) 3_565 1_555 n
Ba3 Ba4 O9 73.4(5) 3_565 3_564 n
Nb1 Ba4 Nb1 115.2(9) 3_464 3_564 n
Nb1 Ba4 Nb2 119.8(5) 3_464 1_555 n
Nb1 Ba4 O1 153.1(8) 3_464 1_555 n
Nb1 Ba4 O1 91.31(12) 3_464 2_655 n
Nb1 Ba4 O2 36.24(22) 3_464 3_464 n
Nb1 Ba4 O2 103.2(7) 3_464 4_664 n
Nb1 Ba4 O4 32.61(16) 3_464 3_464 n
Nb1 Ba4 O4 142.7(11) 3_464 3_564 n
Nb1 Ba4 O5 105.3(4) 3_464 1_555 n
Nb1 Ba4 O9 83.2(6) 3_464 3_564 n
Nb1 Ba4 Nb2 119.8(5) 3_564 1_555 n
Nb1 Ba4 O1 91.31(12) 3_564 1_555 n
Nb1 Ba4 O1 153.1(8) 3_564 2_655 n
Nb1 Ba4 O2 103.2(7) 3_564 3_464 n
Nb1 Ba4 O2 36.24(22) 3_564 4_664 n
Nb1 Ba4 O4 142.7(11) 3_564 3_464 n
Nb1 Ba4 O4 32.61(16) 3_564 3_564 n
Nb1 Ba4 O5 105.3(4) 3_564 1_555 n
Nb1 Ba4 O9 83.2(6) 3_564 3_564 n
Nb2 Ba4 O1 34.6(4) 1_555 1_555 n
Nb2 Ba4 O1 34.6(4) 1_555 2_655 n
Nb2 Ba4 O2 106.5(8) 1_555 3_464 n
Nb2 Ba4 O2 106.5(8) 1_555 4_664 n
Nb2 Ba4 O4 97.4(6) 1_555 3_464 n
Nb2 Ba4 O4 97.4(6) 1_555 3_564 n
Nb2 Ba4 O5 38.6(4) 1_555 1_555 n
Nb2 Ba4 O9 124.7(7) 1_555 3_564 n
O1 Ba4 O1 62.0(7) 1_555 2_655 n
O1 Ba4 O2 136.6(11) 1_555 3_464 n
O1 Ba4 O2 95.5(5) 1_555 4_664 n
O1 Ba4 O4 123.8(9) 1_555 3_464 n
O1 Ba4 O4 63.73(25) 1_555 3_564 n
O1 Ba4 O5 60.4(7) 1_555 1_555 n
O1 Ba4 O9 105.7(6) 1_555 3_564 n
O1 Ba4 O2 95.5(5) 2_655 3_464 n
O1 Ba4 O2 136.6(11) 2_655 4_664 n
O1 Ba4 O4 63.73(25) 2_655 3_464 n
O1 Ba4 O4 123.8(9) 2_655 3_564 n
O1 Ba4 O5 60.4(7) 2_655 1_555 n
O1 Ba4 O9 105.7(6) 2_655 3_564 n
O2 Ba4 O2 75.6(6) 3_464 4_664 n
O2 Ba4 O4 61.26(17) 3_464 3_464 n
O2 Ba4 O4 135.2(8) 3_464 3_564 n
O2 Ba4 O5 76.3(5) 3_464 1_555 n
O2 Ba4 O9 116.3(9) 3_464 3_564 n
O2 Ba4 O4 135.2(8) 4_664 3_464 n
O2 Ba4 O4 61.26(17) 4_664 3_564 n
O2 Ba4 O5 76.3(5) 4_664 1_555 n
O2 Ba4 O9 116.3(9) 4_664 3_564 n
O4 Ba4 O4 152.0(9) 3_464 3_564 n
O4 Ba4 O5 103.2(6) 3_464 1_555 n
O4 Ba4 O9 76.0(5) 3_464 3_564 n
O4 Ba4 O5 103.2(6) 3_564 1_555 n
O4 Ba4 O9 76.0(5) 3_564 3_564 n
O5 Ba4 O9 163.3(11) 1_555 3_564 n
Ba1 Ba5 Ba2 57.6(5) 3_464 1_455 n
Ba1 Ba5 Ba2 57.6(5) 3_464 1_555 n
Ba1 Ba5 Ba3 158.8(9) 3_464 3_475 n
Ba1 Ba5 Ba6 95.8(5) 3_464 1_455 n
Ba1 Ba5 Ba6 95.8(5) 3_464 1_555 n
Ba1 Ba5 Ba6 138.4(8) 3_464 3_474 n
Ba1 Ba5 Nb3 119.5(4) 3_464 3_464 n
Ba1 Ba5 Nb3 119.5(4) 3_464 3_564 n
Ba1 Ba5 O3 43.9(5) 3_464 1_455 n
Ba1 Ba5 O3 43.9(5) 3_464 2_655 n
Ba1 Ba5 O6 30.8(6) 3_464 3_464 n
Ba1 Ba5 O7 137.1(5) 3_464 3_474 n
Ba1 Ba5 O7 137.1(5) 3_464 4_574 n
Ba1 Ba5 O9 89.4(7) 3_464 1_555 n
Ba1 Ba5 O10 85.2(28) 3_464 1_555 n
Ba1 Ba5 H1 75.3(25) 3_464 1_555 n
Ba2 Ba5 Ba2 95.8(8) 1_455 1_555 n
Ba2 Ba5 Ba3 130.2(4) 1_455 3_475 n
Ba2 Ba5 Ba6 71.3(5) 1_455 1_455 n
Ba2 Ba5 Ba6 152.7(9) 1_455 1_555 n
Ba2 Ba5 Ba6 97.7(6) 1_455 3_474 n
Ba2 Ba5 Nb3 63.26(34) 1_455 3_464 n
Ba2 Ba5 Nb3 143.0(9) 1_455 3_564 n
Ba2 Ba5 O3 51.7(5) 1_455 1_455 n
Ba2 Ba5 O3 101.0(8) 1_455 2_655 n
Ba2 Ba5 O6 48.2(4) 1_455 3_464 n
Ba2 Ba5 O7 87.7(4) 1_455 3_474 n
Ba2 Ba5 O7 161.1(10) 1_455 4_574 n
Ba2 Ba5 O9 113.4(6) 1_455 1_555 n
Ba2 Ba5 O10 63.5(15) 1_455 1_555 n
Ba2 Ba5 H1 58.3(13) 1_455 1_555 n
Ba2 Ba5 Ba3 130.2(4) 1_555 3_475 n
Ba2 Ba5 Ba6 152.7(9) 1_555 1_455 n
Ba2 Ba5 Ba6 71.3(5) 1_555 1_555 n
Ba2 Ba5 Ba6 97.7(6) 1_555 3_474 n
Ba2 Ba5 Nb3 143.0(9) 1_555 3_464 n
Ba2 Ba5 Nb3 63.26(34) 1_555 3_564 n
Ba2 Ba5 O3 101.0(8) 1_555 1_455 n
Ba2 Ba5 O3 51.7(5) 1_555 2_655 n
Ba2 Ba5 O6 48.2(4) 1_555 3_464 n
Ba2 Ba5 O7 161.1(10) 1_555 3_474 n
Ba2 Ba5 O7 87.7(4) 1_555 4_574 n
Ba2 Ba5 O9 113.4(6) 1_555 1_555 n
Ba2 Ba5 O10 63.5(15) 1_555 1_555 n
Ba2 Ba5 H1 58.3(13) 1_555 1_555 n
Ba3 Ba5 Ba6 72.5(6) 3_475 1_455 n
Ba3 Ba5 Ba6 72.5(6) 3_475 1_555 n
Ba3 Ba5 Ba6 62.9(6) 3_475 3_474 n
Ba3 Ba5 Nb3 67.8(5) 3_475 3_464 n
Ba3 Ba5 Nb3 67.8(5) 3_475 3_564 n
Ba3 Ba5 O3 121.2(7) 3_475 1_455 n
Ba3 Ba5 O3 121.2(7) 3_475 2_655 n
Ba3 Ba5 O6 170.5(10) 3_475 3_464 n
Ba3 Ba5 O7 42.5(5) 3_475 3_474 n
Ba3 Ba5 O7 42.5(5) 3_475 4_574 n
Ba3 Ba5 O9 69.3(6) 3_475 1_555 n
Ba3 Ba5 O10 116.0(26) 3_475 1_555 n
Ba3 Ba5 H1 125.9(25) 3_475 1_555 n
Ba6 Ba5 Ba6 109.2(8) 1_455 1_555 n
Ba6 Ba5 Ba6 107.6(5) 1_455 3_474 n
Ba6 Ba5 Nb3 52.5(4) 1_455 3_464 n
Ba6 Ba5 Nb3 139.7(9) 1_455 3_564 n
Ba6 Ba5 O3 52.01(33) 1_455 1_455 n
Ba6 Ba5 O3 106.0(6) 1_455 2_655 n
Ba6 Ba5 O6 112.3(6) 1_455 3_464 n
Ba6 Ba5 O7 45.4(5) 1_455 3_474 n
Ba6 Ba5 O7 112.4(10) 1_455 4_574 n
Ba6 Ba5 O9 55.3(4) 1_455 1_555 n
Ba6 Ba5 O10 125.2(4) 1_455 1_555 n
Ba6 Ba5 H1 125.3(4) 1_455 1_555 n
Ba6 Ba5 Ba6 107.6(5) 1_555 3_474 n
Ba6 Ba5 Nb3 139.7(9) 1_555 3_464 n
Ba6 Ba5 Nb3 52.5(4) 1_555 3_564 n
Ba6 Ba5 O3 106.0(6) 1_555 1_455 n
Ba6 Ba5 O3 52.01(33) 1_555 2_655 n
Ba6 Ba5 O6 112.3(6) 1_555 3_464 n
Ba6 Ba5 O7 112.4(10) 1_555 3_474 n
Ba6 Ba5 O7 45.4(5) 1_555 4_574 n
Ba6 Ba5 O9 55.3(4) 1_555 1_555 n
Ba6 Ba5 O10 125.2(4) 1_555 1_555 n
Ba6 Ba5 H1 125.3(4) 1_555 1_555 n
Ba6 Ba5 Nb3 58.9(4) 3_474 3_464 n
Ba6 Ba5 Nb3 58.9(4) 3_474 3_564 n
Ba6 Ba5 O3 145.30(34) 3_474 1_455 n
Ba6 Ba5 O3 145.30(34) 3_474 2_655 n
Ba6 Ba5 O6 107.6(7) 3_474 3_464 n
Ba6 Ba5 O7 63.5(6) 3_474 3_474 n
Ba6 Ba5 O7 63.5(6) 3_474 4_574 n
Ba6 Ba5 O9 132.2(8) 3_474 1_555 n
Ba6 Ba5 O10 53.2(25) 3_474 1_555 n
Ba6 Ba5 H1 63.1(24) 3_474 1_555 n
Nb3 Ba5 Nb3 114.6(7) 3_464 3_564 n
Nb3 Ba5 O3 89.44(8) 3_464 1_455 n
Nb3 Ba5 O3 155.4(6) 3_464 2_655 n
Nb3 Ba5 O6 108.0(5) 3_464 3_464 n
Nb3 Ba5 O7 27.68(18) 3_464 3_474 n
Nb3 Ba5 O7 103.4(8) 3_464 4_574 n
Nb3 Ba5 O9 103.1(6) 3_464 1_555 n
Nb3 Ba5 O10 79.6(13) 3_464 1_555 n
Nb3 Ba5 H1 84.8(13) 3_464 1_555 n
Nb3 Ba5 O3 155.4(6) 3_564 1_455 n
Nb3 Ba5 O3 89.44(8) 3_564 2_655 n
Nb3 Ba5 O6 108.0(5) 3_564 3_464 n
Nb3 Ba5 O7 103.4(8) 3_564 3_474 n
Nb3 Ba5 O7 27.68(18) 3_564 4_574 n
Nb3 Ba5 O9 103.1(6) 3_564 1_555 n
Nb3 Ba5 O10 79.6(13) 3_564 1_555 n
Nb3 Ba5 H1 84.8(13) 3_564 1_555 n
O3 Ba5 O3 66.2(5) 1_455 2_655 n
O3 Ba5 O6 66.3(6) 1_455 3_464 n
O3 Ba5 O7 95.7(4) 1_455 3_474 n
O3 Ba5 O7 145.7(11) 1_455 4_574 n
O3 Ba5 O9 64.3(5) 1_455 1_555 n
O3 Ba5 O10 111.4(23) 1_455 1_555 n
O3 Ba5 H1 103.3(22) 1_455 1_555 n
O3 Ba5 O6 66.3(6) 2_655 3_464 n
O3 Ba5 O7 145.7(11) 2_655 3_474 n
O3 Ba5 O7 95.7(4) 2_655 4_574 n
O3 Ba5 O9 64.3(5) 2_655 1_555 n
O3 Ba5 O10 111.4(23) 2_655 1_555 n
O3 Ba5 H1 103.3(22) 2_655 1_555 n
O6 Ba5 O7 135.0(6) 3_464 3_474 n
O6 Ba5 O7 135.0(6) 3_464 4_574 n
O6 Ba5 O9 120.2(9) 3_464 1_555 n
O6 Ba5 O10 54.4(26) 3_464 1_555 n
O6 Ba5 H1 44.5(25) 3_464 1_555 n
O7 Ba5 O7 83.2(9) 3_474 4_574 n
O7 Ba5 O9 81.7(8) 3_474 1_555 n
O7 Ba5 O10 102.3(19) 3_474 1_555 n
O7 Ba5 H1 109.4(18) 3_474 1_555 n
O7 Ba5 O9 81.7(8) 4_574 1_555 n
O7 Ba5 O10 102.3(19) 4_574 1_555 n
O7 Ba5 H1 109.4(18) 4_574 1_555 n
O9 Ba5 O10 174.6(29) 1_555 1_555 n
O9 Ba5 H1 164.7(26) 1_555 1_555 n
O10 Ba5 H1 9.9(28) 1_555 1_555 n
Ba3 Ba6 Ba5 120.2(4) 1_556 1_555 n
Ba3 Ba6 Ba5 120.2(4) 1_556 1_655 n
Ba3 Ba6 Ba5 54.6(4) 1_556 3_575 n
Ba3 Ba6 Nb1 71.3(4) 1_556 1_555 n
Ba3 Ba6 Nb3 174.0(7) 1_556 3_564 n
Ba3 Ba6 O3 89.3(5) 1_556 1_555 n
Ba3 Ba6 O3 89.3(5) 1_556 2_655 n
Ba3 Ba6 O4 38.3(4) 1_556 1_555 n
Ba3 Ba6 O7 142.6(5) 1_556 3_574 n
Ba3 Ba6 O7 142.6(5) 1_556 4_574 n
Ba5 Ba6 Ba5 109.2(8) 1_555 1_655 n
Ba5 Ba6 Ba5 121.7(4) 1_555 3_575 n
Ba5 Ba6 Nb1 83.6(6) 1_555 1_555 n
Ba5 Ba6 Nb3 61.9(4) 1_555 3_564 n
Ba5 Ba6 O3 97.8(7) 1_555 1_555 n
Ba5 Ba6 O3 50.9(5) 1_555 2_655 n
Ba5 Ba6 O4 102.5(5) 1_555 1_555 n
Ba5 Ba6 O7 97.0(7) 1_555 3_574 n
Ba5 Ba6 O7 39.1(5) 1_555 4_574 n
Ba5 Ba6 Ba5 121.7(4) 1_655 3_575 n
Ba5 Ba6 Nb1 83.6(6) 1_655 1_555 n
Ba5 Ba6 Nb3 61.9(4) 1_655 3_564 n
Ba5 Ba6 O3 50.9(5) 1_655 1_555 n
Ba5 Ba6 O3 97.8(7) 1_655 2_655 n
Ba5 Ba6 O4 102.5(5) 1_655 1_555 n
Ba5 Ba6 O7 39.1(5) 1_655 3_574 n
Ba5 Ba6 O7 97.0(7) 1_655 4_574 n
Ba5 Ba6 Nb1 126.0(6) 3_575 1_555 n
Ba5 Ba6 Nb3 119.4(6) 3_575 3_564 n
Ba5 Ba6 O3 135.5(5) 3_575 1_555 n
Ba5 Ba6 O3 135.5(5) 3_575 2_655 n
Ba5 Ba6 O4 93.0(6) 3_575 1_555 n
Ba5 Ba6 O7 104.6(6) 3_575 3_574 n
Ba5 Ba6 O7 104.6(6) 3_575 4_574 n
Nb1 Ba6 Nb3 114.6(7) 1_555 3_564 n
Nb1 Ba6 O3 32.85(22) 1_555 1_555 n
Nb1 Ba6 O3 32.85(22) 1_555 2_655 n
Nb1 Ba6 O4 33.02(21) 1_555 1_555 n
Nb1 Ba6 O7 119.8(7) 1_555 3_574 n
Nb1 Ba6 O7 119.8(7) 1_555 4_574 n
Nb3 Ba6 O3 95.9(6) 3_564 1_555 n
Nb3 Ba6 O3 95.9(6) 3_564 2_655 n
Nb3 Ba6 O4 147.6(8) 3_564 1_555 n
Nb3 Ba6 O7 35.24(30) 3_564 3_574 n
Nb3 Ba6 O7 35.24(30) 3_564 4_574 n
O3 Ba6 O3 56.0(4) 1_555 2_655 n
O3 Ba6 O4 56.2(4) 1_555 1_555 n
O3 Ba6 O7 88.6(5) 1_555 3_574 n
O3 Ba6 O7 119.6(9) 1_555 4_574 n
O3 Ba6 O4 56.2(4) 2_655 1_555 n
O3 Ba6 O7 119.6(9) 2_655 3_574 n
O3 Ba6 O7 88.6(5) 2_655 4_574 n
O4 Ba6 O7 141.4(5) 1_555 3_574 n
O4 Ba6 O7 141.4(5) 1_555 4_574 n
O7 Ba6 O7 66.9(6) 3_574 4_574 n
Ba4 Nb1 Ba4 115.2(9) 3_465 3_565 n
Ba4 Nb1 Ba6 86.9(4) 3_465 1_555 n
Ba4 Nb1 O2 115.3(5) 3_465 1_555 n
Ba4 Nb1 O2 48.45(33) 3_465 2_655 n
Ba4 Nb1 O3 144.82(34) 3_465 1_555 n
Ba4 Nb1 O3 65.0(5) 3_465 2_655 n
Ba4 Nb1 O4 60.3(4) 3_465 1_555 n
Ba4 Nb1 O5 116.78(33) 3_465 1_555 n
Ba4 Nb1 Ba6 86.9(4) 3_565 1_555 n
Ba4 Nb1 O2 48.45(33) 3_565 1_555 n
Ba4 Nb1 O2 115.3(5) 3_565 2_655 n
Ba4 Nb1 O3 65.0(5) 3_565 1_555 n
Ba4 Nb1 O3 144.82(34) 3_565 2_655 n
Ba4 Nb1 O4 60.3(4) 3_565 1_555 n
Ba4 Nb1 O5 116.78(33) 3_565 1_555 n
Ba6 Nb1 O2 134.82(17) 1_555 1_555 n
Ba6 Nb1 O2 134.82(17) 1_555 2_655 n
Ba6 Nb1 O3 58.01(20) 1_555 1_555 n
Ba6 Nb1 O3 58.01(20) 1_555 2_655 n
Ba6 Nb1 O4 61.6(4) 1_555 1_555 n
Ba6 Nb1 O5 128.6(4) 1_555 1_555 n
O2 Nb1 O2 80.419(18) 1_555 2_655 n
O2 Nb1 O3 91.370(17) 1_555 1_555 n
O2 Nb1 O3 166.4652(15) 1_555 2_655 n
O2 Nb1 O4 94.399(15) 1_555 1_555 n
O2 Nb1 O5 77.834(15) 1_555 1_555 n
O2 Nb1 O3 166.4652(15) 2_655 1_555 n
O2 Nb1 O3 91.370(17) 2_655 2_655 n
O2 Nb1 O4 94.399(15) 2_655 1_555 n
O2 Nb1 O5 77.834(15) 2_655 1_555 n
O3 Nb1 O3 94.523(18) 1_555 2_655 n
O3 Nb1 O4 96.961(14) 1_555 1_555 n
O3 Nb1 O5 89.978(15) 1_555 1_555 n
O3 Nb1 O4 96.961(14) 2_655 1_555 n
O3 Nb1 O5 89.978(15) 2_655 1_555 n
O4 Nb1 O5 169.7458(8) 1_555 1_555 n
Ba1 Nb2 Ba2 70.4(5) 1_555 3_465 n
Ba1 Nb2 Ba2 70.4(5) 1_555 3_565 n
Ba1 Nb2 Ba4 169.8(6) 1_555 1_555 n
Ba1 Nb2 O1 124.43(14) 1_555 1_555 n
Ba1 Nb2 O1 124.43(14) 1_555 2_655 n
Ba1 Nb2 O2 53.11(28) 1_555 1_555 n
Ba1 Nb2 O2 53.11(28) 1_555 2_655 n
Ba1 Nb2 O5 114.7(4) 1_555 1_555 n
Ba1 Nb2 O6 40.2(4) 1_555 1_555 n
Ba1 Nb2 H1 108(5) 1_555 3_565 n
Ba2 Nb2 Ba2 121.3(8) 3_465 3_565 n
Ba2 Nb2 Ba4 113.2(5) 3_465 1_555 n
Ba2 Nb2 O1 140.7(4) 3_465 1_555 n
Ba2 Nb2 O1 54.1(4) 3_465 2_655 n
Ba2 Nb2 O2 121.1(4) 3_465 1_555 n
Ba2 Nb2 O2 56.5(4) 3_465 2_655 n
Ba2 Nb2 O5 117.7(4) 3_465 1_555 n
Ba2 Nb2 O6 60.9(4) 3_465 1_555 n
Ba2 Nb2 H1 76.4(21) 3_465 3_565 n
Ba2 Nb2 Ba4 113.2(5) 3_565 1_555 n
Ba2 Nb2 O1 54.1(4) 3_565 1_555 n
Ba2 Nb2 O1 140.7(4) 3_565 2_655 n
Ba2 Nb2 O2 56.5(4) 3_565 1_555 n
Ba2 Nb2 O2 121.1(4) 3_565 2_655 n
Ba2 Nb2 O5 117.7(4) 3_565 1_555 n
Ba2 Nb2 O6 60.9(4) 3_565 1_555 n
Ba2 Nb2 H1 76.4(21) 3_565 3_565 n
Ba4 Nb2 O1 59.42(14) 1_555 1_555 n
Ba4 Nb2 O1 59.42(14) 1_555 2_655 n
Ba4 Nb2 O2 119.94(24) 1_555 1_555 n
Ba4 Nb2 O2 119.94(24) 1_555 2_655 n
Ba4 Nb2 O5 55.10(34) 1_555 1_555 n
Ba4 Nb2 O6 150.06(34) 1_555 1_555 n
Ba4 Nb2 H1 82(5) 1_555 3_565 n
O1 Nb2 O1 102.541(18) 1_555 2_655 n
O1 Nb2 O2 89.964(17) 1_555 1_555 n
O1 Nb2 O2 162.7298(16) 1_555 2_655 n
O1 Nb2 O5 90.427(14) 1_555 1_555 n
O1 Nb2 O6 105.022(11) 1_555 1_555 n
O1 Nb2 H1 64.5(25) 1_555 3_565 n
O1 Nb2 O2 162.7298(16) 2_655 1_555 n
O1 Nb2 O2 89.964(17) 2_655 2_655 n
O1 Nb2 O5 90.427(14) 2_655 1_555 n
O1 Nb2 O6 105.022(11) 2_655 1_555 n
O1 Nb2 H1 64.5(25) 2_655 3_565 n
O2 Nb2 O2 75.532(17) 1_555 2_655 n
O2 Nb2 O5 77.460(16) 1_555 1_555 n
O2 Nb2 O6 82.728(12) 1_555 1_555 n
O2 Nb2 H1 132.5(27) 1_555 3_565 n
O2 Nb2 O5 77.460(16) 2_655 1_555 n
O2 Nb2 O6 82.728(12) 2_655 1_555 n
O2 Nb2 H1 132.5(27) 2_655 3_565 n
O5 Nb2 O6 154.844(4) 1_555 1_555 n
O5 Nb2 H1 137(5) 1_555 3_565 n
O6 Nb2 H1 68(5) 1_555 3_565 n
Ba5 Nb3 Ba5 114.6(7) 3_465 3_565 n
Ba5 Nb3 Ba6 65.6(4) 3_465 3_465 n
Ba5 Nb3 O7 120.6(4) 3_465 1_545 n
Ba5 Nb3 O7 35.9(5) 3_465 2_545 n
Ba5 Nb3 O8 70.6(4) 3_465 3_465 n
Ba5 Nb3 O9 122.26(34) 3_465 1_545 n
Ba5 Nb3 Ba6 65.6(4) 3_565 3_465 n
Ba5 Nb3 O7 35.9(5) 3_565 1_545 n
Ba5 Nb3 O7 120.6(4) 3_565 2_545 n
Ba5 Nb3 O8 70.6(4) 3_565 3_465 n
Ba5 Nb3 O9 122.26(34) 3_565 1_545 n
Ba6 Nb3 O7 55.21(12) 3_465 1_545 n
Ba6 Nb3 O7 55.21(12) 3_465 2_545 n
Ba6 Nb3 O8 92.1(4) 3_465 3_465 n
Ba6 Nb3 O9 148.9(4) 3_465 1_545 n
O7 Nb3 O7 103.272(22) 1_545 2_545 n
O7 Nb3 O8 105.381(6) 1_545 3_465 n
O7 Nb3 O9 111.245(11) 1_545 1_545 n
O7 Nb3 O8 105.381(6) 2_545 3_465 n
O7 Nb3 O9 111.245(11) 2_545 1_545 n
O8 Nb3 O9 118.981(18) 3_465 1_545 n
Ba1 O1 Ba2 87.9(8) 3_564 3_565 n
Ba1 O1 Ba3 102.2(6) 3_564 3_565 n
Ba1 O1 Ba4 85.1(6) 3_564 1_555 n
Ba1 O1 Nb2 101.4(4) 3_564 1_555 n
Ba2 O1 Ba3 82.1(6) 3_565 3_565 n
Ba2 O1 Ba4 172.5(5) 3_565 1_555 n
Ba2 O1 Nb2 92.9(4) 3_565 1_555 n
Ba3 O1 Ba4 101.9(8) 3_565 1_555 n
Ba3 O1 Nb2 155.7(5) 3_565 1_555 n
Ba4 O1 Nb2 86.0(4) 1_555 1_555 n
Ba1 O2 Ba1 172.61(27) 1_555 3_564 n
Ba1 O2 Ba2 89.5(7) 1_555 3_565 n
Ba1 O2 Ba4 89.4(8) 1_555 3_565 n
Ba1 O2 Nb1 94.4(4) 1_555 1_555 n
Ba1 O2 Nb2 89.0(5) 1_555 1_555 n
Ba1 O2 Ba2 83.2(7) 3_564 3_565 n
Ba1 O2 Ba4 92.4(7) 3_564 3_565 n
Ba1 O2 Nb1 92.6(4) 3_564 1_555 n
Ba1 O2 Nb2 89.1(4) 3_564 1_555 n
Ba2 O2 Ba4 95.2(5) 3_565 3_565 n
Ba2 O2 Nb1 168.8(5) 3_565 1_555 n
Ba2 O2 Nb2 83.5(4) 3_565 1_555 n
Ba4 O2 Nb1 95.3(4) 3_565 1_555 n
Ba4 O2 Nb2 177.9(7) 3_565 1_555 n
Nb1 O2 Nb2 86.096(17) 1_555 1_555 n
Ba1 O3 Ba5 94.3(7) 3_564 1_655 n
Ba1 O3 Ba6 170.6(7) 3_564 1_555 n
Ba1 O3 Nb1 99.0(4) 3_564 1_555 n
Ba5 O3 Ba6 77.0(4) 1_655 1_555 n
Ba5 O3 Nb1 164.86(33) 1_655 1_555 n
Ba6 O3 Nb1 89.14(29) 1_555 1_555 n
Ba3 O4 Ba4 92.9(6) 1_556 3_465 n
Ba3 O4 Ba4 92.9(6) 1_556 3_565 n
Ba3 O4 Ba6 94.8(7) 1_556 1_555 n
Ba3 O4 Nb1 179.8417(16) 1_556 1_555 n
Ba4 O4 Ba4 152.0(9) 3_465 3_565 n
Ba4 O4 Ba6 103.4(5) 3_465 1_555 n
Ba4 O4 Nb1 87.1(5) 3_465 1_555 n
Ba4 O4 Ba6 103.4(5) 3_565 1_555 n
Ba4 O4 Nb1 87.1(5) 3_565 1_555 n
Ba6 O4 Nb1 85.4(4) 1_555 1_555 n
Ba1 O5 Ba1 167.1(13) 3_464 3_564 n
Ba1 O5 Ba2 84.9(6) 3_464 1_555 n
Ba1 O5 Ba4 86.2(6) 3_464 1_555 n
Ba1 O5 Nb1 94.2(6) 3_464 1_555 n
Ba1 O5 Nb2 94.9(6) 3_464 1_555 n
Ba1 O5 Ba2 84.9(6) 3_564 1_555 n
Ba1 O5 Ba4 86.2(6) 3_564 1_555 n
Ba1 O5 Nb1 94.2(6) 3_564 1_555 n
Ba1 O5 Nb2 94.9(6) 3_564 1_555 n
Ba2 O5 Ba4 91.7(7) 1_555 1_555 n
Ba2 O5 Nb1 92.9(5) 1_555 1_555 n
Ba2 O5 Nb2 178.0(5) 1_555 1_555 n
Ba4 O5 Nb1 175.4(5) 1_555 1_555 n
Ba4 O5 Nb2 86.3(5) 1_555 1_555 n
Nb1 O5 Nb2 89.131(22) 1_555 1_555 n
Ba1 O6 Ba2 94.9(5) 1_555 3_465 n
Ba1 O6 Ba2 94.9(5) 1_555 3_565 n
Ba1 O6 Ba5 115.8(9) 1_555 3_565 n
Ba1 O6 Nb2 110.5(7) 1_555 1_555 n
Ba2 O6 Ba2 168.9(11) 3_465 3_565 n
Ba2 O6 Ba5 90.2(5) 3_465 3_565 n
Ba2 O6 Nb2 85.9(6) 3_465 1_555 n
Ba2 O6 Ba5 90.2(5) 3_565 3_565 n
Ba2 O6 Nb2 85.9(6) 3_565 1_555 n
Ba5 O6 Nb2 133.7(5) 3_565 1_555 n
Ba3 O7 Ba5 101.3(5) 1_556 3_575 n
Ba3 O7 Ba6 114.9(8) 1_556 3_475 n
Ba3 O7 Nb3 132.9(4) 1_556 1_565 n
Ba5 O7 Ba6 95.5(7) 3_575 3_475 n
Ba5 O7 Nb3 116.5(6) 3_575 1_565 n
Ba6 O7 Nb3 89.55(34) 3_475 1_565 n
Ba2 O8 Ba3 92.1(9) 1_555 1_555 n
Ba2 O8 Nb3 151.5(8) 1_555 3_564 n
Ba3 O8 Nb3 116.4(5) 1_555 3_564 n
Ba4 O9 Ba5 108.3(8) 3_465 1_555 n
Ba4 O9 Nb3 115.6(5) 3_465 1_565 n
Ba5 O9 Nb3 136.1(5) 1_555 1_565 n
Ba5 O10 H1 147(10) 1_555 1_555 n
Ba5 H1 Nb2 114(6) 1_555 3_464 n
Ba5 H1 O10 23(7) 1_555 1_555 n
Nb2 H1 O10 137(13) 3_464 1_555 n
loop_
_geom_bond_atom_site_label_1
_geom_bond_atom_site_label_2
_geom_bond_distance
_geom_bond_site_symmetry_2
_geom_bond_publ_flag
Ba1 Ba2 4.01(5) 1_556 n
Ba1 Ba2 4.095(27) 3_465 n
Ba1 Ba2 4.095(27) 3_565 n
Ba1 Ba3 4.28(4) 1_556 n
Ba1 Ba4 4.21(5) 1_556 n
Ba1 Ba4 3.939(28) 3_465 n
Ba1 Ba4 3.939(28) 3_565 n
Ba1 Ba5 4.41(4) 3_565 n
Ba1 Nb1 3.731(32) 1_555 n
Ba1 Nb1 3.859(19) 3_465 n
Ba1 Nb1 3.859(19) 3_565 n
Ba1 Nb2 3.639(34) 1_555 n
Ba1 Nb2 3.818(20) 3_465 n
Ba1 Nb2 3.818(20) 3_565 n
Ba1 O1 2.968(25) 3_465 n
Ba1 O1 2.968(25) 4_665 n
Ba1 O2 2.911(30) 1_555 n
Ba1 O2 2.911(30) 2_655 n
Ba1 O2 3.130(29) 3_465 n
Ba1 O2 3.130(29) 4_665 n
Ba1 O3 3.067(23) 3_465 n
Ba1 O3 3.067(23) 4_665 n
Ba1 O4 3.271(28) 1_555 n
Ba1 O5 3.036(4) 3_465 n
Ba1 O5 3.036(4) 3_565 n
Ba1 O6 2.507(32) 1_555 n
Ba2 Ba1 4.01(5) 1_554 n
Ba2 Ba1 4.095(27) 3_464 n
Ba2 Ba1 4.095(27) 3_564 n
Ba2 Ba3 3.505(35) 1_555 n
Ba2 Ba4 4.131(23) 1_555 n
Ba2 Ba5 4.065(25) 1_555 n
Ba2 Ba5 4.065(25) 1_655 n
Ba2 Ba6 4.53(4) 1_555 n
Ba2 Nb1 3.815(30) 1_555 n
Ba2 Nb2 3.460(14) 3_464 n
Ba2 Nb2 3.460(14) 3_564 n
Ba2 Nb3 4.032(24) 3_564 n
Ba2 O1 2.808(25) 3_464 n
Ba2 O1 2.808(25) 4_664 n
Ba2 O2 2.905(20) 3_464 n
Ba2 O2 2.905(20) 4_664 n
Ba2 O3 3.217(27) 1_555 n
Ba2 O3 3.217(27) 2_655 n
Ba2 O5 3.030(27) 1_555 n
Ba2 O6 3.0305(29) 3_464 n
Ba2 O6 3.0305(29) 3_564 n
Ba2 O8 2.283(24) 1_555 n
Ba3 Ba1 4.28(4) 1_554 n
Ba3 Ba2 3.505(35) 1_555 n
Ba3 Ba4 4.182(23) 3_464 n
Ba3 Ba4 4.182(23) 3_564 n
Ba3 Ba5 3.895(30) 3_574 n
Ba3 Ba6 4.250(32) 1_554 n
Ba3 Ba6 4.493(25) 3_474 n
Ba3 Ba6 4.493(25) 3_574 n
Ba3 Nb3 3.804(25) 3_564 n
Ba3 O1 2.521(20) 3_464 n
Ba3 O1 2.521(20) 4_664 n
Ba3 O4 2.645(24) 1_554 n
Ba3 O7 2.683(21) 1_554 n
Ba3 O7 2.683(21) 2_654 n
Ba3 O8 2.578(27) 1_555 n
Ba4 Ba1 4.21(5) 1_554 n
Ba4 Ba1 3.939(28) 3_464 n
Ba4 Ba1 3.939(28) 3_564 n
Ba4 Ba2 4.131(23) 1_555 n
Ba4 Ba3 4.182(23) 3_465 n
Ba4 Ba3 4.182(23) 3_565 n
Ba4 Nb1 3.573(17) 3_464 n
Ba4 Nb1 3.573(17) 3_564 n
Ba4 Nb2 3.310(34) 1_555 n
Ba4 O1 2.856(28) 1_555 n
Ba4 O1 2.856(28) 2_655 n
Ba4 O2 2.686(17) 3_464 n
Ba4 O2 2.686(17) 4_664 n
Ba4 O3 3.263(29) 3_464 n
Ba4 O3 3.263(29) 4_664 n
Ba4 O4 3.109(6) 3_464 n
Ba4 O4 3.109(6) 3_564 n
Ba4 O5 2.720(30) 1_555 n
Ba4 O9 3.107(26) 3_564 n
Ba5 Ba1 4.41(4) 3_464 n
Ba5 Ba2 4.065(25) 1_455 n
Ba5 Ba2 4.065(25) 1_555 n
Ba5 Ba3 3.895(30) 3_475 n
Ba5 Ba6 3.700(18) 1_455 n
Ba5 Ba6 3.700(18) 1_555 n
Ba5 Ba6 4.237(35) 3_474 n
Ba5 Nb3 3.585(14) 3_464 n
Ba5 Nb3 3.585(14) 3_564 n
Ba5 O3 2.948(21) 1_455 n
Ba5 O3 2.948(21) 2_655 n
Ba5 O6 2.700(29) 3_464 n
Ba5 O7 2.346(21) 3_474 n
Ba5 O7 2.346(21) 4_574 n
Ba5 O8 3.449(13) 1_455 n
Ba5 O8 3.449(13) 1_555 n
Ba5 O9 3.016(27) 1_555 n
Ba5 O10 2.18(6) 1_555 n
Ba5 H1 3.02(17) 1_555 n
Ba6 Ba2 4.53(4) 1_555 n
Ba6 Ba3 4.250(32) 1_556 n
Ba6 Ba3 4.493(25) 3_475 n
Ba6 Ba3 4.493(25) 3_575 n
Ba6 Ba5 3.700(18) 1_555 n
Ba6 Ba5 3.700(18) 1_655 n
Ba6 Ba5 4.237(35) 3_575 n
Ba6 Nb1 3.528(21) 1_555 n
Ba6 Nb3 3.890(16) 1_565 n
Ba6 Nb3 3.890(16) 1_665 n
Ba6 Nb3 3.223(24) 3_564 n
Ba6 O3 2.992(19) 1_555 n
Ba6 O3 2.992(19) 2_655 n
Ba6 O4 3.113(22) 1_555 n
Ba6 O7 2.647(19) 3_574 n
Ba6 O7 2.647(19) 4_574 n
Ba6 O9 3.175(8) 1_555 n
Ba6 O9 3.175(8) 1_655 n
Ba6 O10 3.41(9) 3_575 n
Nb1 Ba1 3.731(32) 1_555 n
Nb1 Ba1 3.859(19) 3_464 n
Nb1 Ba1 3.859(19) 3_564 n
Nb1 Ba2 3.815(30) 1_555 n
Nb1 Ba4 3.573(17) 3_465 n
Nb1 Ba4 3.573(17) 3_565 n
Nb1 Ba6 3.528(21) 1_555 n
Nb1 Nb2 2.9760(6) 1_555 n
Nb1 O2 2.12156(32) 1_555 n
Nb1 O2 2.12156(32) 2_655 n
Nb1 O3 1.91373(31) 1_555 n
Nb1 O3 1.91373(31) 2_655 n
Nb1 O4 1.9284(4) 1_555 n
Nb1 O5 2.1709(4) 1_555 n
Nb2 Ba1 3.639(34) 1_555 n
Nb2 Ba1 3.818(20) 3_464 n
Nb2 Ba1 3.818(20) 3_564 n
Nb2 Ba2 3.460(14) 3_465 n
Nb2 Ba2 3.460(14) 3_565 n
Nb2 Ba4 3.310(34) 1_555 n
Nb2 Nb1 2.9760(6) 1_555 n
Nb2 O1 1.88502(32) 1_555 n
Nb2 O1 1.88502(32) 2_655 n
Nb2 O2 2.23639(33) 1_555 n
Nb2 O2 2.23639(33) 2_655 n
Nb2 O5 2.0688(4) 1_555 n
Nb2 O6 1.9024(5) 1_555 n
Nb2 H1 2.01(12) 3_565 n
Nb3 Ba2 4.032(24) 3_465 n
Nb3 Ba3 3.804(25) 3_465 n
Nb3 Ba5 3.585(14) 3_465 n
Nb3 Ba5 3.585(14) 3_565 n
Nb3 Ba6 3.890(16) 1_445 n
Nb3 Ba6 3.890(16) 1_545 n
Nb3 Ba6 3.223(24) 3_465 n
Nb3 O7 1.8599(4) 1_545 n
Nb3 O7 1.8599(4) 2_545 n
Nb3 O8 1.8768(4) 3_465 n
Nb3 O9 1.89737(34) 1_545 n
O1 Ba1 2.968(25) 3_564 n
O1 Ba2 2.808(25) 3_565 n
O1 Ba3 2.521(20) 3_565 n
O1 Ba4 2.856(28) 1_555 n
O1 Nb2 1.88502(32) 1_555 n
O2 Ba1 2.911(30) 1_555 n
O2 Ba1 3.130(29) 3_564 n
O2 Ba2 2.905(20) 3_565 n
O2 Ba4 2.686(17) 3_565 n
O2 Nb1 2.12156(32) 1_555 n
O2 Nb2 2.23639(33) 1_555 n
O3 Ba1 3.067(23) 3_564 n
O3 Ba2 3.217(27) 1_555 n
O3 Ba4 3.263(29) 3_565 n
O3 Ba5 2.948(21) 1_655 n
O3 Ba6 2.992(19) 1_555 n
O3 Nb1 1.91373(31) 1_555 n
O4 Ba1 3.271(28) 1_555 n
O4 Ba3 2.645(24) 1_556 n
O4 Ba4 3.109(6) 3_465 n
O4 Ba4 3.109(6) 3_565 n
O4 Ba6 3.113(22) 1_555 n
O4 Nb1 1.9284(4) 1_555 n
O5 Ba1 3.036(4) 3_464 n
O5 Ba1 3.036(4) 3_564 n
O5 Ba2 3.030(27) 1_555 n
O5 Ba4 2.720(30) 1_555 n
O5 Nb1 2.1709(4) 1_555 n
O5 Nb2 2.0688(4) 1_555 n
O6 Ba1 2.507(32) 1_555 n
O6 Ba2 3.0305(29) 3_465 n
O6 Ba2 3.0305(29) 3_565 n
O6 Ba5 2.700(29) 3_565 n
O6 Nb2 1.9024(5) 1_555 n
O7 Ba3 2.683(21) 1_556 n
O7 Ba5 2.346(21) 3_575 n
O7 Ba6 2.647(19) 3_475 n
O7 Nb3 1.8599(4) 1_565 n
O8 Ba2 2.283(24) 1_555 n
O8 Ba3 2.578(27) 1_555 n
O8 Ba5 3.449(13) 1_555 n
O8 Ba5 3.449(13) 1_655 n
O8 Nb3 1.8768(4) 3_564 n
O9 Ba4 3.107(26) 3_465 n
O9 Ba5 3.016(27) 1_555 n
O9 Ba6 3.175(8) 1_455 n
O9 Ba6 3.175(8) 1_555 n
O9 Nb3 1.89737(34) 1_565 n
O10 Ba5 2.18(6) 1_555 n
O10 Ba6 3.41(9) 3_474 n
O10 H1 0.95(15) 1_555 n
H1 Ba5 3.02(17) 1_555 n
H1 Nb2 2.01(12) 3_464 n
H1 O10 0.95(15) 1_555 n
loop_
_pd_meas_counts_total
_pd_proc_ls_weight
_pd_proc_intensity_bkg_calc
_pd_calc_intensity_total
35.0 0.0 39958.92188 .
36.0 0.0 38827.65625 .
33.0 0.0 37724.77734 .
31.0 0.0 36649.69531 .
39.0 0.0 35601.80469 .
44.0 0.0 34580.51562 .
55.0 0.0 33585.19922 .
66.0 0.0 32615.35547 .
75.0 0.0 31670.39844 .
78.0 0.0 30749.77734 .
92.0 0.0 29852.94531 .
110.0 0.0 28979.37305 .
138.0 0.0 28128.55273 .
190.0 0.0 27299.98047 .
253.0 0.0 26493.13672 .
303.0 0.0 25707.56250 .
354.0 0.0 24942.75781 .
386.0 0.0 24198.23438 .
404.0 0.0 23473.57812 .
442.0 0.0 22768.27930 .
443.0 0.0 22081.94336 .
513.0 0.0 21414.04688 .
492.0 0.0 20764.29297 .
563.0 0.0 20132.21484 .
580.0 0.0 19517.38672 .
1490.0 0.0 18919.41016 .
1530.0 0.0 18337.89453 .
1586.0 0.0 17772.44727 .
1625.0 0.0 17222.71484 .
1547.0 0.0 16688.28516 .
1649.0 0.0 16168.81152 .
1599.0 0.0 15663.96875 .
1606.0 0.0 15173.36328 .
1630.0 0.0 14696.66895 .
1662.0 0.0 14233.56250 .
1706.0 0.0 13783.69727 .
1704.0 0.0 13346.77148 .
1638.0 0.0 12922.45898 .
1689.0 0.0 12510.45703 .
1626.0 0.0 12110.45508 .
1647.0 0.0 11722.16406 .
1601.0 0.0 11345.29199 .
1638.0 0.0 10979.51953 .
1621.0 0.0 10624.64648 .
1662.0 0.0 10280.35742 .
1625.0 0.0 9946.39844 .
1681.0 0.0 9622.49414 .
1643.0 0.0 9308.39844 .
1703.0 0.0 9003.86523 .
1731.0 0.0 8708.63281 .
1637.0 0.0 8422.47852 .
1694.0 0.0 8145.16992 .
1698.0 0.0 7876.46875 .
1645.0 0.0 7616.15820 .
1692.0 0.0 7364.01367 .
1718.0 0.0 7119.82520 .
1740.0 0.0 6883.38135 .
1843.0 0.0 6654.48047 .
1795.0 0.0 6432.91797 .
1846.0 0.0 6218.49756 .
1865.0 0.0 6011.03613 .
2025.0 0.0 5810.33398 .
2031.0 0.0 5616.21973 .
2103.0 0.0 5428.50342 .
2090.0 0.0 5247.02148 .
2007.0 0.0 5071.57666 .
1932.0 0.0 4902.03809 .
1964.0 0.0 4738.22559 .
1973.0 0.0 4579.98438 .
1912.0 0.0 4427.15576 .
1810.0 0.0 4279.58301 .
1724.0 0.0 4137.12061 .
1603.0 0.0 3999.62500 .
1615.0 0.0 3866.95264 .
1497.0 0.0 3738.96387 .
1558.0 0.0 3615.52246 .
1405.0 0.0 3496.49976 .
1375.0 0.0 3381.76636 .
1351.0 0.0 3271.19287 .
1382.0 0.0 3164.65918 .
1299.0 0.0 3062.04492 .
1282.0 0.0 2963.23242 .
1218.0 0.0 2868.10889 .
1273.0 0.0 2776.55884 .
1190.0 0.0 2688.47803 .
1137.0 0.0 2603.75928 .
1179.0 0.0 2522.29810 .
1158.0 0.0 2443.98730 .
1216.0 0.0 2368.74805 .
1214.0 0.0 2296.45752 .
1209.0 0.0 2227.04663 .
1178.0 0.0 2160.41138 .
1184.0 0.0 2096.46753 .
1142.0 0.0 2035.12500 .
1186.0 0.0 1976.30334 .
1129.0 0.0 1919.91577 .
1208.0 0.0 1865.88684 .
1155.0 0.0 1814.13538 .
1091.0 0.0 1764.58728 .
1180.0 0.0 1717.16711 .
1233.0 0.0 1671.80371 .
1198.0 0.0 1628.42847 .
1197.0 0.0 1586.97083 .
1157.0 0.0 1547.36548 .
1227.0 0.0 1509.54858 .
1162.0 0.0 1473.45630 .
1198.0 0.0 1439.02686 .
1150.0 0.0 1406.20398 .
1184.0 0.0 1374.92688 .
1144.0 0.0 1345.14099 .
1153.0 0.0 1316.79077 .
1126.0 0.0 1289.82104 .
1091.0 0.0 1264.18604 .
1101.0 0.0 1239.83203 .
1112.0 0.0 1216.71143 .
1079.0 0.0 1194.77600 .
1072.0 0.0 1173.98022 .
1104.0 0.0 1154.27966 .
1077.0 0.0 1135.63135 .
1076.0 0.0 1117.99353 .
1059.0 0.0 1101.32495 .
1073.0 0.000930 1085.58582 1124.23865
1107.0 0.000902 1070.73901 1108.79663
1036.0 0.000964 1056.74634 1094.34399
1101.0 0.000907 1043.57239 1080.86914
971.0 0.001027 1031.18225 1068.37024
1071.0 0.000935 1019.54199 1056.85498
1018.0 0.000983 1008.61829 1046.34241
1053.0 0.000953 998.38165 1036.86462
1017.0 0.000983 988.79858 1028.46057
1064.0 0.000941 979.84100 1021.18182
1108.0 0.000902 971.48016 1015.08575
1097.0 0.000913 963.68787 1010.23566
1006.0 0.000995 956.43701 1006.69550
1067.0 0.000935 949.70215 1004.52667
1026.0 0.000977 943.45782 1003.77844
1095.0 0.000913 937.67957 1004.47601
1015.0 0.000983 932.34436 1006.60248
996.0 0.001001 927.42920 1010.08514
1002.0 0.000995 922.91211 1016.36743
1024.0 0.000977 918.77228 1022.16748
1030.0 0.000970 914.98932 1036.19055
1081.0 0.000924 911.54352 1043.64368
1060.0 0.000941 908.41565 1051.56128
1052.0 0.000953 905.58789 1059.59021
1020.0 0.000983 903.04242 1067.17688
1059.0 0.000947 900.76221 1073.54431
1027.0 0.000977 898.73132 1077.75928
1062.0 0.000941 896.93372 1078.91968
1086.0 0.000918 895.35437 1076.41248
1071.0 0.000935 893.97882 1070.12097
1037.0 0.000964 892.79315 1060.44592
1020.0 0.000983 891.78406 1048.16187
1032.0 0.000970 890.93842 1034.21094
1022.0 0.000977 890.24426 1019.53186
984.0 0.001014 889.68964 1004.94562
931.0 0.001075 889.26300 991.10004
1046.0 0.000959 888.95374 978.45538
954.0 0.001047 888.75146 967.29572
967.0 0.001034 888.64642 957.75201
1020.0 0.000983 888.62842 949.83081
939.0 0.001068 888.68903 943.44379
884.0 0.001134 888.81964 938.43976
951.0 0.001054 889.01166 934.63226
928.0 0.001075 889.25751 931.82336
979.0 0.001021 889.54950 929.82239
885.0 0.001134 889.88049 928.45807
974.0 0.001027 890.24377 927.58411
1006.0 0.000995 890.63293 927.08185
933.0 0.001075 891.04205 926.85870
907.0 0.001104 891.46527 926.84418
973.0 0.001027 891.89685 926.98608
954.0 0.001047 892.33191 927.24701
905.0 0.001104 892.76544 927.59991
944.0 0.001061 893.19299 928.02527
847.0 0.001181 893.61035 928.50946
902.0 0.001111 894.01312 929.04205
939.0 0.001068 894.39783 929.61572
895.0 0.001119 894.76068 930.22504
922.0 0.001082 895.09857 930.86633
881.0 0.001134 895.40833 931.53680
947.0 0.001054 895.68713 932.23553
885.0 0.001134 895.93231 932.96204
975.0 0.001027 896.14142 933.71753
904.0 0.001104 896.31226 934.50531
982.0 0.001021 896.44287 935.32977
894.0 0.001119 896.53113 936.19843
944.0 0.001061 896.57544 937.12134
989.0 0.001014 896.57452 938.11298
947.0 0.001054 896.52661 939.19189
908.0 0.001104 896.43073 933.45270
904.0 0.001104 896.28595 934.89594
874.0 0.001141 896.09119 936.52307
998.0 0.001001 895.84570 938.38629
912.0 0.001096 895.54895 940.54974
929.0 0.001075 895.20032 943.09009
921.0 0.001089 894.79950 946.09863
954.0 0.001047 894.34619 949.67987
929.0 0.001075 893.84009 953.95197
1082.0 0.000924 893.28156 959.04218
976.0 0.001027 892.67023 965.08380
963.0 0.001041 892.00653 972.20886
956.0 0.001047 891.29041 980.53827
976.0 0.001027 890.52240 990.16833
968.0 0.001034 889.70282 1001.15454
1020.0 0.000983 888.83246 1013.49011
963.0 0.001041 887.91138 1027.08618
1048.0 0.000953 886.94031 1041.75330
1047.0 0.000953 885.92029 1057.19568
1110.0 0.000902 884.85199 1073.02380
1074.0 0.000930 883.73608 1088.77600
1160.0 0.000860 882.57324 1103.93713
1087.0 0.000918 881.36487 1117.92517
1134.0 0.000881 880.11182 1130.05457
1127.0 0.000886 878.81464 1139.51709
1237.0 0.000807 877.47510 1145.44617
1159.0 0.000865 876.09375 1147.08215
1173.0 0.000855 874.67212 1143.99756
1204.0 0.000831 873.21106 1136.25952
1147.0 0.000870 871.71210 1124.44238
1123.0 0.000891 870.17615 1109.48376
1108.0 0.000902 868.60455 1092.47314
1123.0 0.000891 866.99878 1074.45776
1057.0 0.000947 865.35986 1056.32434
1054.0 0.000947 863.68945 1038.75598
996.0 0.001001 861.98859 1022.23755
1008.0 0.000995 860.25879 1007.08453
1005.0 0.000995 858.50122 993.47601
942.0 0.001061 856.71759 981.48419
902.0 0.001111 854.90887 971.10144
940.0 0.001061 853.07690 962.25922
982.0 0.001021 851.22253 954.84924
978.0 0.001021 849.34778 951.56537
951.0 0.001054 847.45343 946.82068
908.0 0.001104 845.54126 943.11005
916.0 0.001089 843.61261 940.30267
942.0 0.001061 841.66888 938.28540
949.0 0.001054 839.71130 936.96716
911.0 0.001096 837.74127 936.28345
955.0 0.001047 835.76038 936.19702
938.0 0.001068 833.76978 936.70245
915.0 0.001096 831.77087 937.82446
960.0 0.001041 829.76495 939.62018
937.0 0.001068 827.75354 949.61212
1006.0 0.000995 825.73761 953.89575
958.0 0.001041 823.71869 959.40607
1007.0 0.000995 821.69818 966.37140
994.0 0.001008 819.67725 975.04523
1037.0 0.000964 817.65698 985.69092
1020.0 0.000983 815.63873 998.55829
990.0 0.001008 813.62408 1013.85297
1029.0 0.000970 811.61340 1031.72974
990.0 0.001008 809.60858 1052.15942
1034.0 0.000964 807.61053 1075.01904
1022.0 0.000977 805.62036 1100.02380
1070.0 0.000935 803.63928 1126.76709
1095.0 0.000913 801.66827 1154.73364
1108.0 0.000902 799.70856 1183.28235
1130.0 0.000886 797.76111 1211.62195
1166.0 0.000860 795.82690 1238.87720
1111.0 0.000902 793.90717 1264.30212
1192.0 0.000840 792.00269 1287.55981
1183.0 0.000845 790.11426 1308.86426
1315.0 0.000759 788.24298 1328.84949
1296.0 0.000772 786.38995 1349.14319
1357.0 0.000738 784.55609 1368.53674
1386.0 0.000723 782.74182 1388.19275
1523.0 0.000657 780.94824 1408.15405
1463.0 0.000685 779.17621 1428.22449
1541.0 0.000647 777.42627 1447.83984
1591.0 0.000628 775.69952 1465.89893
1595.0 0.000628 773.99670 1480.72595
1663.0 0.000601 772.31830 1490.29065
1629.0 0.000613 770.66492 1492.65710
1632.0 0.000613 769.03735 1486.51831
1601.0 0.000625 767.43628 1471.64734
1555.0 0.000644 765.86243 1449.10840
1608.0 0.000622 764.31610 1421.16272
1505.0 0.000664 762.79816 1390.89404
1436.0 0.000696 761.30896 1361.66833
1423.0 0.000704 759.84888 1336.57886
1461.0 0.000685 758.41858 1332.43347
1415.0 0.000707 757.01855 1323.39624
1327.0 0.000755 755.64929 1323.37317
1327.0 0.000755 754.31116 1332.46008
1367.0 0.000730 753.00433 1350.44421
1411.0 0.000707 751.72937 1377.14429
1419.0 0.000704 750.48651 1412.71619
1478.0 0.000678 749.27625 1457.89197
1573.0 0.000634 748.09875 1517.10229
1691.0 0.000592 746.95428 1586.74463
1750.0 0.000572 745.84326 1672.76367
1866.0 0.000536 744.76562 1778.81274
1885.0 0.000531 743.72180 1908.83752
2066.0 0.000483 742.71185 2066.55762
2151.0 0.000464 741.73602 2254.71533
2546.0 0.000392 740.79468 2474.11499
2602.0 0.000384 739.88733 2722.52539
2987.0 0.0003342 739.01483 2993.64917
3417.0 0.0002922 738.17651 3276.52100
3692.0 0.0002705 737.37311 3555.71875
3955.0 0.0002528 736.60431 3812.44849
4234.0 0.0002360 735.87006 4026.09814
4032.0 0.0002480 735.17047 4176.08643
4180.0 0.0002389 734.50580 4244.59668
4213.0 0.0002374 733.87555 4220.52783
4062.0 0.0002464 733.28021 4103.30811
3896.0 0.0002568 732.71906 3903.94531
3721.0 0.0002687 732.19226 3646.78613
3546.0 0.0002825 731.70001 3347.60791
3291.0 0.0003035 731.24200 3034.82275
2968.0 0.0003367 730.81787 2729.49268
2568.0 0.000389 730.42786 2447.42383
2331.0 0.000429 730.07166 2198.47900
2130.0 0.000469 729.74890 1986.86609
1765.0 0.000567 729.45972 1812.18079
1612.0 0.000622 729.20361 1670.86060
1444.0 0.000693 728.98059 1557.66870
1327.0 0.000755 728.79034 1466.93884
1138.0 0.000881 728.63251 1393.43042
1113.0 0.000896 728.50677 1332.78076
1011.0 0.000989 728.41333 1281.64124
1038.0 0.000964 728.35132 1237.59680
1008.0 0.000995 728.32080 1198.98804
1035.0 0.000964 728.32135 1164.70801
1018.0 0.000983 728.35260 1134.02319
1021.0 0.000977 728.41437 1106.43530
994.0 0.001008 728.50635 1081.59070
1014.0 0.000989 728.62799 1059.21692
1019.0 0.000983 728.77893 1039.09436
1047.0 0.000953 728.95898 1021.03748
1012.0 0.000989 729.16791 1004.89093
1028.0 0.000970 729.40479 990.52850
1126.0 0.000886 729.66974 977.85797
981.0 0.001021 729.96234 966.82556
985.0 0.001014 730.28186 957.41998
1021.0 0.000977 730.62805 949.67255
907.0 0.001104 731.00061 943.65173
1032.0 0.000970 731.39905 939.44849
1024.0 0.000977 731.82281 937.15253
959.0 0.001041 732.27179 936.81561
942.0 0.001061 732.74512 938.40912
981.0 0.001021 733.24255 941.77972
916.0 0.001089 733.76379 946.61664
921.0 0.001089 734.30811 952.44757
990.0 0.001008 734.87531 958.67084
944.0 0.001061 735.46466 964.63239
1034.0 0.000964 736.07587 969.72760
944.0 0.001061 736.70862 973.52905
979.0 0.001021 737.36230 975.92261
1019.0 0.000983 738.03625 977.22339
1020.0 0.000983 738.73022 978.20807
959.0 0.001041 739.44391 980.04810
1022.0 0.000977 740.17627 984.17059
1047.0 0.000953 740.92743 992.09808
1130.0 0.000886 741.69641 1005.29608
1088.0 0.000918 742.48322 1025.04529
1133.0 0.000881 743.28711 1052.33496
1174.0 0.000850 744.10742 1087.78259
1209.0 0.000826 744.94415 1131.55908
1173.0 0.000855 745.79651 1183.31702
1289.0 0.000776 746.66394 1242.10803
1346.0 0.000742 747.54633 1310.21362
1410.0 0.000711 748.44281 1377.87341
1494.0 0.000668 749.35315 1445.69641
1509.0 0.000664 750.27661 1510.19702
1655.0 0.000604 751.21326 1567.57568
1648.0 0.000607 752.16211 1613.97119
1620.0 0.000619 753.12292 1645.94092
1611.0 0.000622 754.09503 1661.31213
1700.0 0.000589 755.07837 1660.12769
1622.0 0.000616 756.07196 1645.03137
1632.0 0.000613 757.07581 1620.70679
1570.0 0.000638 758.08923 1592.70801
1548.0 0.000647 759.11176 1566.32800
1559.0 0.000641 760.14307 1545.87891
1519.0 0.000657 761.18274 1534.36926
1524.0 0.000657 762.23029 1533.39233
1537.0 0.000651 763.28510 1543.09412
1503.0 0.000664 764.34711 1562.18542
1573.0 0.000634 765.41547 1589.11340
1617.0 0.000619 766.49005 1618.04602
1536.0 0.000651 767.57050 1645.44189
1587.0 0.000631 768.65607 1666.46362
1604.0 0.000625 769.74664 1676.53528
1559.0 0.000641 770.84155 1672.42444
1505.0 0.000664 771.94073 1651.57410
1527.0 0.000654 773.04370 1614.87305
1508.0 0.000664 774.14996 1565.02405
1467.0 0.000682 775.25922 1506.09180
1461.0 0.000685 776.37085 1442.51428
1354.0 0.000738 777.48480 1381.46252
1331.0 0.000751 778.60077 1320.05640
1257.0 0.000793 779.71814 1263.74573
1210.0 0.000826 780.83655 1214.02539
1091.0 0.000918 781.95575 1171.60876
1126.0 0.000886 783.07544 1136.58020
1091.0 0.000918 784.19537 1108.55933
1086.0 0.000918 785.31494 1086.85583
1048.0 0.000953 786.43396 1070.60803
1017.0 0.000983 787.55225 1058.88379
1060.0 0.000941 788.66937 1050.76135
980.0 0.001021 789.78516 1045.37476
987.0 0.001014 790.89899 1041.95532
990.0 0.001008 792.01086 1039.87585
998.0 0.001001 793.12048 1038.68604
1018.0 0.000983 794.22736 1038.10974
999.0 0.001001 795.33148 1037.98999
1021.0 0.000977 796.43250 1038.20703
1019.0 0.000983 797.52997 1038.61853
1026.0 0.000977 798.62408 1039.03003
979.0 0.001021 799.71399 1039.19922
977.0 0.001021 800.80017 1038.85425
1025.0 0.000977 801.88159 1037.72705
1042.0 0.000959 802.95874 1035.58618
1004.0 0.000995 804.03113 1032.27197
1048.0 0.000953 805.09827 1027.71936
1014.0 0.000989 806.16040 1021.96631
972.0 0.001027 807.21722 1015.14447
943.0 0.001061 808.26831 1007.45593
1023.0 0.000977 809.31372 999.14221
985.0 0.001014 810.35327 990.45355
949.0 0.001054 811.38666 981.62360
969.0 0.001034 812.41388 972.85510
908.0 0.001104 813.43457 964.31104
876.0 0.001141 814.44861 956.11487
909.0 0.001104 815.45618 948.35364
994.0 0.001008 816.45691 941.12952
914.0 0.001096 817.45068 934.38739
927.0 0.001082 818.43719 928.18341
898.0 0.001111 819.41656 922.51587
965.0 0.001034 820.38867 917.37317
911.0 0.001096 821.35333 912.73627
956.0 0.001047 822.31067 908.58008
980.0 0.001021 823.26013 904.87689
969.0 0.001034 824.20215 901.59674
961.0 0.001041 825.13635 898.70880
899.0 0.001111 826.06262 896.18201
944.0 0.001061 826.98102 893.98492
964.0 0.001041 827.89154 892.08862
975.0 0.001027 828.79413 890.46539
943.0 0.001061 829.68842 889.08862
974.0 0.001027 830.57495 887.93408
947.0 0.001054 831.45325 895.66498
926.0 0.001082 832.32336 895.35486
882.0 0.001134 833.18536 895.10449
1024.0 0.000977 834.03894 895.03198
980.0 0.001021 834.88452 895.13666
884.0 0.001134 835.72192 895.43170
941.0 0.001061 836.55109 895.95221
975.0 0.001027 837.37183 896.76843
958.0 0.001041 838.18469 898.00433
976.0 0.001027 838.98920 899.86102
991.0 0.001008 839.78552 902.64056
967.0 0.001034 840.57385 906.76666
991.0 0.001008 841.35400 912.78632
1006.0 0.000995 842.12610 921.34302
995.0 0.001008 842.89008 933.10596
982.0 0.001021 843.64624 948.64600
978.0 0.001021 844.39429 969.07434
1020.0 0.000983 845.13458 992.91425
1061.0 0.000941 845.86694 1020.13452
1061.0 0.000941 846.59149 1049.42969
1073.0 0.000930 847.30835 1078.94385
1073.0 0.000930 848.01782 1106.52332
1087.0 0.000918 848.71936 1130.10242
1088.0 0.000918 849.41388 1148.14709
1079.0 0.000930 850.10077 1160.03577
1144.0 0.000875 850.78027 1166.26404
1096.0 0.000913 851.45270 1168.36060
1142.0 0.000875 852.11804 1168.50391
1222.0 0.000816 852.77618 1168.94263
1246.0 0.000803 853.42767 1171.40479
1252.0 0.000798 854.07208 1176.66858
1326.0 0.000755 854.71014 1184.41748
1257.0 0.000793 855.34119 1193.41821
1251.0 0.000798 855.96613 1201.95874
1260.0 0.000793 856.58435 1208.45129
1293.0 0.000772 857.19641 1212.22302
1293.0 0.000772 857.80255 1213.03174
1282.0 0.000780 858.40259 1212.58679
1307.0 0.000763 858.99689 1213.39404
1240.0 0.000807 859.58533 1218.56702
1280.0 0.000780 860.16809 1231.35352
1272.0 0.000785 860.74561 1254.69226
1324.0 0.000755 861.31757 1290.85205
1334.0 0.000751 861.88446 1341.17163
1364.0 0.000734 862.44647 1405.90222
1467.0 0.000682 863.00348 1484.11194
1593.0 0.000628 863.55573 1573.71973
1646.0 0.000607 864.10327 1671.00024
1800.0 0.000556 864.64661 1771.16333
1889.0 0.000528 865.18549 1867.98389
2030.0 0.000492 865.72015 1954.15820
2011.0 0.000498 866.25104 2021.86548
2043.0 0.000489 866.77795 2063.74097
1997.0 0.000500 867.30139 2074.32324
1993.0 0.000503 867.82123 2051.66602
1982.0 0.000505 868.33759 1998.21570
1907.0 0.000524 868.85089 1920.19092
1845.0 0.000541 869.36108 1825.75391
1720.0 0.000581 869.86841 1723.08008
1683.0 0.000595 870.37329 1621.78638
1508.0 0.000664 870.87531 1521.96680
1435.0 0.000696 871.37506 1429.96838
1383.0 0.000723 871.87268 1348.13440
1322.0 0.000755 872.36835 1277.64355
1218.0 0.000821 872.86206 1218.73828
1187.0 0.000840 873.35394 1170.95349
1106.0 0.000902 873.84436 1133.33813
1108.0 0.000902 874.33356 1104.66235
1094.0 0.000913 874.82166 1083.59436
1031.0 0.000970 875.30859 1068.84106
1071.0 0.000935 875.79449 1059.24353
1001.0 0.001001 876.27979 1053.82922
1073.0 0.000930 876.76471 1051.83325
1029.0 0.000970 877.24908 1053.61975
1002.0 0.000995 877.73334 1056.98315
1061.0 0.000941 878.21777 1063.79968
1066.0 0.000941 878.70227 1071.76465
1123.0 0.000891 879.18701 1081.96387
1131.0 0.000886 879.67212 1089.41272
1136.0 0.000881 880.15796 1182.99939
1107.0 0.000902 880.64453 1213.17847
1228.0 0.000816 881.13220 1249.76819
1249.0 0.000803 881.62097 1294.00647
1267.0 0.000789 882.11090 1347.25208
1224.0 0.000816 882.60236 1410.87866
1276.0 0.000785 883.09546 1486.12744
1391.0 0.000719 883.59027 1573.91113
1455.0 0.000689 884.08710 1674.58545
1569.0 0.000638 884.58575 1790.83679
1663.0 0.000601 885.08679 1915.45837
1851.0 0.000541 885.59015 2048.59497
2058.0 0.000485 886.09613 2186.34912
2191.0 0.000457 886.60468 2323.50903
2243.0 0.000445 887.11621 2455.27979
2423.0 0.000413 887.63062 2571.15210
2589.0 0.000386 888.14825 2665.10791
2661.0 0.000376 888.66901 2730.15186
2661.0 0.000376 889.19312 2760.98315
2721.0 0.000367 889.72070 2758.35303
2679.0 0.000373 890.25214 2717.27441
2549.0 0.000392 890.78735 2645.53369
2421.0 0.000413 891.32642 2550.33032
2393.0 0.000418 891.86975 2439.65088
2229.0 0.000449 892.41705 2320.85693
2155.0 0.000464 892.96875 2199.89600
2036.0 0.000492 893.52490 2081.10718
1852.0 0.000541 894.08557 1967.39209
1788.0 0.000559 894.65125 1860.56897
1802.0 0.000556 895.22144 1761.75891
1598.0 0.000625 895.79669 1671.66382
1481.0 0.000675 896.37695 1590.67310
1436.0 0.000696 896.96216 1518.84680
1403.0 0.000711 897.55292 1455.89648
1362.0 0.000734 898.14899 1401.22693
1317.0 0.000759 898.75055 1354.01917
1235.0 0.000812 899.35773 1313.34082
1193.0 0.000840 899.97040 1278.30249
1263.0 0.000793 900.58905 1247.98755
1176.0 0.000850 901.21362 1221.82715
1144.0 0.000875 901.84406 1199.31055
1224.0 0.000816 902.48059 1180.18164
1218.0 0.000821 903.12311 1164.25122
1171.0 0.000855 903.77216 1149.02991
1186.0 0.000845 904.42706 1139.10193
1219.0 0.000821 905.08881 1131.94543
1165.0 0.000860 905.75690 1127.37292
1168.0 0.000855 906.43127 1125.14368
1210.0 0.000826 907.11267 1124.94348
1214.0 0.000826 907.80054 1126.37134
1201.0 0.000831 908.49518 1128.92188
1233.0 0.000812 909.19659 1131.98706
1213.0 0.000826 909.90503 1134.87231
1190.0 0.000840 910.62012 1136.85315
1253.0 0.000798 911.34222 1136.89905
1203.0 0.000831 912.07172 1135.28992
1116.0 0.000896 912.80811 1131.48035
1168.0 0.000855 913.55176 1125.63611
1178.0 0.000850 914.30225 1118.18567
1143.0 0.000875 915.06024 1109.67810
1170.0 0.000855 915.82544 1100.65137
1092.0 0.000918 916.59802 1091.55432
1154.0 0.000865 917.37793 1082.73352
1152.0 0.000870 918.16510 1076.49670
1126.0 0.000886 918.95966 1069.08484
1103.0 0.000907 919.76172 1062.64685
1128.0 0.000886 920.57111 1057.38696
1121.0 0.000891 921.38818 1053.71997
1126.0 0.000886 922.21259 1051.45996
1124.0 0.000891 923.04443 1050.99194
1116.0 0.000896 923.88397 1052.47559
1093.0 0.000913 924.73090 1056.00439
1106.0 0.000902 925.58521 1061.56970
1131.0 0.000886 926.44727 1069.03027
1226.0 0.000816 927.31671 1078.10071
1196.0 0.000835 928.19385 1088.36743
1135.0 0.000881 929.07843 1099.34241
1186.0 0.000845 929.97058 1110.55042
1198.0 0.000835 930.86993 1121.62854
1206.0 0.000831 931.77716 1132.42065
1199.0 0.000835 932.69159 1143.03467
1200.0 0.000835 933.61371 1153.82654
1265.0 0.000789 934.54327 1165.30811
1298.0 0.000772 935.48004 1178.00488
1340.0 0.000747 936.42419 1192.31396
1325.0 0.000755 937.37598 1228.11072
1352.0 0.000738 938.33490 1251.58569
1384.0 0.000723 939.30109 1284.49072
1343.0 0.000747 940.27484 1311.58484
1358.0 0.000734 941.25555 1341.57410
1364.0 0.000734 942.24353 1375.02771
1408.0 0.000711 943.23871 1413.12341
1473.0 0.000678 944.24109 1457.74475
1420.0 0.000704 945.25031 1511.33813
1552.0 0.000644 946.26666 1576.45874
1651.0 0.000607 947.28992 1655.09021
1713.0 0.000583 948.32019 1747.88037
1808.0 0.000554 949.35724 1853.47656
1924.0 0.000519 950.40112 1968.08301
2011.0 0.000498 951.45178 2085.31543
2024.0 0.000494 952.50897 2196.47290
2109.0 0.000475 953.57294 2291.51440
2219.0 0.000451 954.64331 2360.05420
2255.0 0.000443 955.72028 2394.09521
2171.0 0.000460 956.80347 2390.07764
2193.0 0.000457 957.89325 2350.44922
2214.0 0.000451 958.98914 2283.92529
2177.0 0.000459 960.09113 2200.14502
2175.0 0.000460 961.19940 2111.76685
2051.0 0.000487 962.31372 2029.60327
2001.0 0.000500 963.43396 1962.37451
2051.0 0.000487 964.56006 1916.13403
2032.0 0.000492 965.69183 1893.89722
2105.0 0.000475 966.82935 1895.46204
2083.0 0.000481 967.97217 1917.48083
2110.0 0.000475 969.12097 1953.88159
2139.0 0.000469 970.27502 1996.66003
2156.0 0.000464 971.43451 2037.37366
2104.0 0.000475 972.59918 2071.77734
2139.0 0.000469 973.76892 2085.05029
2020.0 0.000496 974.94373 2080.01318
1971.0 0.000507 976.12354 2053.29565
1877.0 0.000533 977.30798 2009.94617
1835.0 0.000546 978.49731 1955.65247
1730.0 0.000578 979.69116 1897.26624
1695.0 0.000589 980.88983 1841.54407
1727.0 0.000578 982.09265 1794.10925
1612.0 0.000622 983.29980 1758.99426
1663.0 0.000601 984.51141 1737.53918
1698.0 0.000589 985.72681 1729.65967
1825.0 0.000548 986.94617 1733.27368
1751.0 0.000572 988.16986 1744.86694
1798.0 0.000556 989.39685 1759.96021
1836.0 0.000546 990.62744 1773.66504
1729.0 0.000578 991.86176 1782.58203
1718.0 0.000583 993.09973 1780.55505
1679.0 0.000595 994.34076 1766.59192
1610.0 0.000622 995.58496 1740.36609
1627.0 0.000616 996.83234 1705.05652
1615.0 0.000619 998.08252 1660.43787
1497.0 0.000668 999.33557 1611.88074
1514.0 0.000661 1000.59125 1563.36060
1482.0 0.000675 1001.84961 1518.49988
1504.0 0.000664 1003.11047 1480.26428
1393.0 0.000719 1004.37354 1450.87158
1411.0 0.000707 1005.63885 1431.86755
1471.0 0.000678 1006.90649 1424.28064
1398.0 0.000715 1008.17615 1428.75720
1441.0 0.000693 1009.44739 1445.61731
1503.0 0.000664 1010.72028 1474.99792
1481.0 0.000675 1011.99500 1515.95081
1527.0 0.000654 1013.27106 1567.35559
1601.0 0.000625 1014.54822 1627.00488
1610.0 0.000622 1015.82715 1691.64124
1827.0 0.000548 1017.10663 1756.93372
1773.0 0.000564 1018.38739 1817.64307
1755.0 0.000570 1019.66895 1868.10669
1800.0 0.000556 1020.95142 1903.16846
1788.0 0.000559 1022.23413 1919.49756
1753.0 0.000570 1023.51727 1916.85767
1783.0 0.000562 1024.80103 1898.50977
1698.0 0.000589 1026.08496 1870.32751
1721.0 0.000581 1027.36890 1854.56567
1683.0 0.000595 1028.65283 1829.79150
1684.0 0.000595 1029.93665 1815.15564
1604.0 0.000625 1031.21960 1824.63098
1756.0 0.000570 1032.50281 1844.65955
1672.0 0.000598 1033.78540 1885.67590
1723.0 0.000581 1035.06702 1949.20813
1749.0 0.000572 1036.34790 2036.26001
1939.0 0.000517 1037.62781 2143.85498
2090.0 0.000479 1038.90686 2281.18481
2182.0 0.000459 1040.18445 2446.47339
2395.0 0.000418 1041.46130 2642.80688
2732.0 0.000366 1042.73621 2873.57153
3075.0 0.0003246 1044.00952 3140.89868
3509.0 0.0002853 1045.28137 3443.35449
4013.0 0.0002496 1046.55127 3773.46899
4290.0 0.0002331 1047.81946 4118.22119
4486.0 0.0002228 1049.08533 4450.26221
4700.0 0.0002125 1050.34961 4766.88672
4964.0 0.0002012 1051.61108 4990.29980
4993.0 0.0002001 1052.87024 5117.39014
4969.0 0.0002012 1054.12683 5130.89697
4738.0 0.0002113 1055.38123 5026.85303
4658.0 0.0002150 1056.63245 4816.10156
4442.0 0.0002255 1057.88086 4522.16016
4023.0 0.0002488 1059.12671 4175.93848
3783.0 0.0002644 1060.36890 3809.58252
3564.0 0.0002806 1061.60815 3451.56616
3189.0 0.0003133 1062.84399 3122.69897
3033.0 0.0003294 1064.07642 2836.60620
2665.0 0.000376 1065.30518 2596.32837
2425.0 0.000413 1066.53040 2400.69263
2259.0 0.000443 1067.75195 2243.74414
2201.0 0.000455 1068.96960 2117.99243
2063.0 0.000485 1070.18323 2016.29504
1923.0 0.000519 1071.39282 1934.72278
1800.0 0.000556 1072.59814 1865.24414
1783.0 0.000562 1073.79956 1806.14771
1693.0 0.000592 1074.99609 1754.79468
1604.0 0.000625 1076.18835 1709.14587
1601.0 0.000625 1077.37610 1667.75085
1713.0 0.000583 1078.55884 1629.79224
1541.0 0.000647 1079.73730 1595.08154
1690.0 0.000592 1080.91052 1563.92163
1575.0 0.000634 1082.07874 1536.86755
1517.0 0.000661 1083.24219 1514.46375
1493.0 0.000671 1084.40015 1497.05261
1466.0 0.000682 1085.55298 1484.67468
1432.0 0.000700 1086.70044 1477.04675
1546.0 0.000647 1087.84253 1473.59143
1552.0 0.000644 1088.97913 1473.49243
1542.0 0.000647 1090.10999 1475.77393
1535.0 0.000651 1091.23523 1479.41138
1546.0 0.000647 1092.35461 1484.17419
1575.0 0.000634 1093.46826 1488.06274
1544.0 0.000647 1094.57605 1491.38416
1575.0 0.000634 1095.67737 1494.00317
1606.0 0.000622 1096.77307 1495.75208
1606.0 0.000622 1097.86267 1496.28381
1603.0 0.000625 1098.94592 1495.09839
1629.0 0.000613 1100.02258 1491.72229
1592.0 0.000628 1101.09314 1485.96619
1627.0 0.000616 1102.15710 1478.14172
1593.0 0.000628 1103.21460 1472.55981
1684.0 0.000595 1104.26562 1464.19434
1680.0 0.000595 1105.30994 1457.66296
1704.0 0.000586 1106.34729 1454.58948
1728.0 0.000578 1107.37793 1456.49377
1791.0 0.000559 1108.40198 1464.72485
1688.0 0.000592 1109.41882 1480.45544
1847.0 0.000541 1110.42908 1504.72754
1878.0 0.000533 1111.43225 1538.51868
1830.0 0.000546 1112.42773 1582.78894
1798.0 0.000556 1113.41687 1638.50049
1900.0 0.000526 1114.39844 1706.59021
1905.0 0.000526 1115.37317 1787.92163
1943.0 0.000514 1116.34021 1883.22668
2070.0 0.000483 1117.29968 2020.82617
1993.0 0.000503 1118.25232 2150.68335
2247.0 0.000445 1119.19751 2298.40137
2312.0 0.000432 1120.13513 2466.06812
2397.0 0.000416 1121.06519 2657.09521
2564.0 0.000391 1121.98779 2876.96704
2720.0 0.000367 1122.90259 3133.85278
3044.0 0.0003282 1123.81030 3438.62524
3479.0 0.0002873 1124.70996 3803.95361
4131.0 0.0002419 1125.60205 4258.45459
4871.0 0.0002053 1126.48657 4780.43018
5795.0 0.0001727 1127.36316 5388.65918
6710.0 0.0001491 1128.23218 6070.98828
7779.0 0.0001285 1129.09338 6804.34082
8412.0 0.0001189 1129.94653 7548.56250
9021.0 0.0001108 1130.79211 8243.05566
9452.0 0.0001058 1131.62952 8821.09863
9540.0 0.0001048 1132.45959 9214.59180
9442.0 0.0001058 1133.28149 9363.89551
9153.0 0.0001092 1134.09521 9255.25684
8662.0 0.0001154 1134.90125 8893.80762
8064.0 0.0001240 1135.69958 8324.19434
7636.0 0.0001309 1136.48950 7612.25635
6981.0 0.0001431 1137.27173 6830.12793
6107.0 0.0001639 1138.04578 6044.87158
5331.0 0.0001877 1138.81213 5311.92041
4662.0 0.0002144 1139.57043 4672.20020
4182.0 0.0002389 1140.32080 4151.70361
3783.0 0.0002644 1141.06311 3762.61328
3611.0 0.0002769 1141.79736 3505.19067
3547.0 0.0002815 1142.52356 3369.77344
3577.0 0.0002796 1143.24219 3338.51074
3681.0 0.0002714 1143.95239 3386.89282
3811.0 0.0002627 1144.65454 3485.17773
3862.0 0.0002593 1145.34888 3601.21924
3985.0 0.0002512 1146.03552 3701.27930
4007.0 0.0002496 1146.71375 3756.86401
3986.0 0.0002512 1147.38428 3747.05591
3845.0 0.0002601 1148.04700 3662.94897
3582.0 0.0002796 1148.70154 3499.32886
3451.0 0.0002902 1149.34827 3296.96729
3309.0 0.0003025 1149.98718 3058.77222
3046.0 0.0003282 1150.61804 2805.83472
2872.0 0.0003481 1151.24109 2563.22705
2573.0 0.000389 1151.85620 2345.91260
2342.0 0.000427 1152.46362 2162.60254
2162.0 0.000462 1153.06323 2016.31970
2050.0 0.000487 1153.65479 1905.79858
1971.0 0.000507 1154.23889 1827.14856
1835.0 0.000546 1154.81531 1775.31409
1712.0 0.000583 1155.38403 1745.08081
1697.0 0.000589 1155.94470 1731.57642
1740.0 0.000575 1156.49792 1730.38342
1713.0 0.000583 1157.04395 1741.66223
1692.0 0.000592 1157.58179 1753.27954
1669.0 0.000598 1158.11243 1765.70264
1619.0 0.000619 1158.63538 1775.76990
1600.0 0.000625 1159.15063 1781.24023
1593.0 0.000628 1159.65894 1781.20435
1603.0 0.000625 1160.15967 1774.56018
1626.0 0.000616 1160.65283 1765.38452
1569.0 0.000638 1161.13879 1753.29456
1633.0 0.000613 1161.61743 1739.04602
1672.0 0.000598 1162.08899 1723.31946
1643.0 0.000610 1162.55334 1706.32532
1699.0 0.000589 1163.01025 1689.79065
1654.0 0.000604 1163.45996 1676.56555
1627.0 0.000616 1163.90308 1670.35571
1615.0 0.000619 1164.33899 1675.97327
1652.0 0.000607 1164.76770 1698.04175
1753.0 0.000570 1165.18982 1740.48230
1855.0 0.000538 1165.60474 1805.92297
1981.0 0.000505 1166.01294 1895.13110
2160.0 0.000462 1166.41431 2006.49658
2362.0 0.000423 1166.80884 2135.62842
2519.0 0.000397 1167.19702 2275.14258
2638.0 0.000379 1167.57825 2414.70361
2803.0 0.000357 1167.95325 2541.49121
2774.0 0.000360 1168.32141 2642.09863
2690.0 0.000371 1168.68311 2702.34204
2730.0 0.000367 1169.03857 2718.33862
2776.0 0.000360 1169.38757 2681.20874
2666.0 0.000376 1169.73022 2601.39453
2534.0 0.000395 1170.06677 2486.50537
2390.0 0.000418 1170.39722 2351.55103
2319.0 0.000430 1170.72144 2204.69800
2139.0 0.000469 1171.04004 2057.85815
1927.0 0.000519 1171.35156 1919.66138
1815.0 0.000551 1171.65771 1796.77515
1703.0 0.000586 1171.95813 1693.71326
1651.0 0.000607 1172.25269 1612.81836
1537.0 0.000651 1172.54126 1554.43457
1456.0 0.000685 1172.82410 1517.25452
1420.0 0.000704 1173.10156 1498.75244
1414.0 0.000707 1173.37354 1495.63416
1415.0 0.000707 1173.63977 1504.22571
1389.0 0.000719 1173.90051 1527.45593
1411.0 0.000707 1174.15625 1549.62292
1451.0 0.000689 1174.40637 1573.84668
1455.0 0.000689 1174.65137 1598.44836
1537.0 0.000651 1174.89111 1623.14600
1517.0 0.000661 1175.12573 1649.10278
1553.0 0.000644 1175.35510 1678.82825
1617.0 0.000619 1175.57971 1715.35376
1692.0 0.000592 1175.79944 1762.64807
1712.0 0.000583 1176.01440 1824.65027
1830.0 0.000546 1176.22449 1905.51843
1940.0 0.000517 1176.42957 2005.49121
2116.0 0.000473 1176.63025 2124.10229
2251.0 0.000445 1176.82629 2257.55249
2397.0 0.000416 1177.01782 2398.37207
2467.0 0.000405 1177.20532 2535.79150
2535.0 0.000395 1177.38794 2656.66675
2585.0 0.000388 1177.56616 2747.41309
2716.0 0.000368 1177.74060 2796.90845
2689.0 0.000371 1177.91052 2799.64429
2611.0 0.000383 1178.07629 2757.57666
2563.0 0.000391 1178.23828 2679.37695
2403.0 0.000416 1178.39600 2577.40356
2260.0 0.000443 1178.55005 2464.21094
2223.0 0.000451 1178.70032 2335.02637
2110.0 0.000475 1178.84644 2227.10352
2053.0 0.000487 1178.98938 2128.43286
1827.0 0.000548 1179.12805 2039.42285
1786.0 0.000559 1179.26367 1960.09485
1718.0 0.000583 1179.39575 1886.69983
1567.0 0.000638 1179.52429 1816.96851
1620.0 0.000619 1179.64917 1751.63635
1618.0 0.000619 1179.77124 1691.48242
1607.0 0.000622 1179.88977 1638.04724
1586.0 0.000631 1180.00525 1592.91846
1529.0 0.000654 1180.11743 1560.23608
1557.0 0.000641 1180.22705 1534.99316
1560.0 0.000641 1180.33350 1519.32874
1530.0 0.000654 1180.43677 1511.87500
1549.0 0.000644 1180.53723 1510.60046
1557.0 0.000641 1180.63525 1517.71851
1571.0 0.000638 1180.73022 1522.30188
1504.0 0.000664 1180.82263 1526.26562
1532.0 0.000654 1180.91260 1549.23071
1521.0 0.000657 1181.00000 1551.57397
1484.0 0.000675 1181.08472 1553.81860
1475.0 0.000678 1181.16699 1556.38623
1515.0 0.000661 1181.24731 1562.25061
1480.0 0.000675 1181.32532 1577.05603
1601.0 0.000625 1181.40051 1602.71338
1629.0 0.000613 1181.47449 1644.41138
1685.0 0.000595 1181.54565 1701.14661
1711.0 0.000583 1181.61523 1775.44482
1872.0 0.000533 1181.68237 1866.54089
2044.0 0.000489 1181.74805 1971.57666
2009.0 0.000498 1181.81189 2085.38257
2197.0 0.000455 1181.87354 2200.54858
2306.0 0.000434 1181.93372 2308.13281
2377.0 0.000420 1181.99207 2398.29272
2322.0 0.000430 1182.04883 2462.55225
2487.0 0.000402 1182.10388 2494.49365
2338.0 0.000427 1182.15759 2490.59521
2386.0 0.000420 1182.20984 2450.81177
2191.0 0.000457 1182.26074 2379.13647
2095.0 0.000477 1182.31018 2283.44482
2053.0 0.000487 1182.35840 2175.62061
1908.0 0.000524 1182.40515 2063.53735
1930.0 0.000519 1182.45105 1959.16455
1760.0 0.000567 1182.49548 1867.79431
1697.0 0.000589 1182.53906 1795.04883
1781.0 0.000562 1182.58130 1743.19080
1595.0 0.000628 1182.62292 1712.45422
1625.0 0.000616 1182.66333 1701.51074
1684.0 0.000595 1182.70288 1707.96997
1764.0 0.000567 1182.74170 1729.00549
1805.0 0.000554 1182.77954 1760.96753
1880.0 0.000531 1182.81653 1800.45544
1834.0 0.000546 1182.85278 1843.59167
1938.0 0.000517 1182.88867 1886.05774
1956.0 0.000512 1182.92371 1923.15576
1923.0 0.000519 1182.95837 1950.16663
1962.0 0.000510 1182.99219 1963.05627
1947.0 0.000514 1183.02576 1959.34888
1854.0 0.000538 1183.05896 1938.78137
1836.0 0.000546 1183.09143 1903.37292
1776.0 0.000564 1183.12366 1856.80786
1752.0 0.000570 1183.15540 1809.06982
1765.0 0.000567 1183.18677 1753.23047
1595.0 0.000628 1183.21851 1697.89563
1593.0 0.000628 1183.24963 1645.35339
1503.0 0.000664 1183.28040 1596.94360
1395.0 0.000719 1183.31079 1553.27417
1377.0 0.000727 1183.34180 1514.44409
1465.0 0.000682 1183.37195 1481.62244
1388.0 0.000719 1183.40247 1452.00354
1351.0 0.000738 1183.43311 1426.46643
1320.0 0.000759 1183.46338 1404.74561
1289.0 0.000776 1183.49390 1388.04224
1301.0 0.000767 1183.52429 1373.47839
1359.0 0.000734 1183.55530 1362.32068
1257.0 0.000793 1183.58557 1354.49622
1306.0 0.000767 1183.61670 1349.87964
1322.0 0.000755 1183.64783 1348.24866
1406.0 0.000711 1183.67920 1349.25195
1419.0 0.000704 1183.71094 1352.96570
1396.0 0.000715 1183.74268 1358.34216
1475.0 0.000678 1183.77502 1363.67676
1447.0 0.000693 1183.80762 1368.98108
1469.0 0.000682 1183.83997 1373.05640
1450.0 0.000689 1183.87317 1375.34607
1452.0 0.000689 1183.90686 1375.41577
1439.0 0.000696 1183.94067 1373.20557
1437.0 0.000696 1183.97498 1369.08289
1429.0 0.000700 1184.00989 1363.83521
1456.0 0.000685 1184.04553 1365.52893
1463.0 0.000685 1184.08105 1362.88428
1455.0 0.000689 1184.11719 1363.72839
1534.0 0.000651 1184.15393 1370.03540
1549.0 0.000644 1184.19141 1384.09753
1587.0 0.000631 1184.22888 1408.49976
1581.0 0.000631 1184.26758 1446.07910
1552.0 0.000644 1184.30676 1499.78027
1672.0 0.000598 1184.34619 1572.36584
1751.0 0.000572 1184.38672 1665.98450
1825.0 0.000548 1184.42761 1781.60706
1980.0 0.000505 1184.46875 1918.80896
2125.0 0.000471 1184.51099 2073.56836
2283.0 0.000438 1184.55408 2240.90381
2462.0 0.000406 1184.59753 2410.41504
2646.0 0.000379 1184.64148 2570.73096
2768.0 0.000361 1184.68652 2707.88550
2866.0 0.0003494 1184.73193 2808.66797
2989.0 0.0003342 1184.77820 2860.79077
2969.0 0.0003367 1184.82532 2860.71436
2877.0 0.0003481 1184.87280 2812.30908
2723.0 0.000367 1184.92139 2726.20361
2762.0 0.000361 1184.97070 2616.33936
2690.0 0.000371 1185.02063 2496.56201
2565.0 0.000391 1185.07117 2378.39404
2434.0 0.000411 1185.12268 2269.89453
2299.0 0.000436 1185.17468 2175.22437
2219.0 0.000451 1185.22803 2094.80151
2127.0 0.000471 1185.28149 2026.08069
1947.0 0.000514 1185.33618 1964.91602
1913.0 0.000524 1185.39148 1907.15698
1850.0 0.000541 1185.44739 1849.88354
1712.0 0.000583 1185.50427 1791.88354
1690.0 0.000592 1185.56165 1733.43115
1627.0 0.000616 1185.62024 1677.34009
1575.0 0.000634 1185.67957 1622.16931
1504.0 0.000664 1185.73938 1570.97925
1482.0 0.000675 1185.80017 1525.14062
1417.0 0.000707 1185.86145 1485.69788
1420.0 0.000704 1185.92395 1453.34399
1461.0 0.000685 1185.98706 1428.39343
1390.0 0.000719 1186.05103 1410.87366
1425.0 0.000704 1186.11584 1400.56116
1381.0 0.000723 1186.18140 1397.06628
1441.0 0.000693 1186.24744 1397.01465
1448.0 0.000689 1186.31409 1405.77271
1513.0 0.000661 1186.38220 1419.59326
1587.0 0.000631 1186.45056 1437.96460
1691.0 0.000592 1186.52002 1460.20386
1714.0 0.000583 1186.58997 1485.51648
1841.0 0.000543 1186.66077 1512.93982
1870.0 0.000536 1186.73254 1546.09595
1916.0 0.000521 1186.80481 1577.14514
2037.0 0.000492 1186.87769 1604.03491
2065.0 0.000485 1186.95154 1627.46021
2137.0 0.000469 1187.02625 1645.82495
2142.0 0.000466 1187.10144 1658.68689
2138.0 0.000469 1187.17761 1663.70923
2180.0 0.000459 1187.25415 1661.97327
2119.0 0.000473 1187.33142 1654.19629
2035.0 0.000492 1187.40955 1642.21338
1930.0 0.000519 1187.48877 1628.03748
1934.0 0.000517 1187.56824 1613.60730
1816.0 0.000551 1187.64844 1598.98071
1701.0 0.000589 1187.72961 1592.36768
1624.0 0.000616 1187.81104 1584.85962
1552.0 0.000644 1187.89355 1579.62390
1523.0 0.000657 1187.97656 1575.91467
1474.0 0.000678 1188.06030 1572.62878
1455.0 0.000689 1188.14478 1566.80981
1398.0 0.000715 1188.22974 1562.20593
1307.0 0.000763 1188.31567 1557.29468
1364.0 0.000734 1188.40173 1555.48120
1310.0 0.000763 1188.48901 1554.23962
1327.0 0.000755 1188.57642 1557.05872
1339.0 0.000747 1188.66528 1564.85205
1365.0 0.000734 1188.75403 1577.71045
1412.0 0.000707 1188.84338 1594.77063
1445.0 0.000693 1188.93359 1614.26306
1448.0 0.000689 1189.02478 1636.04590
1547.0 0.000647 1189.11609 1652.96155
1564.0 0.000641 1189.20825 1664.57007
1542.0 0.000647 1189.30103 1668.95874
1538.0 0.000651 1189.39429 1668.59607
1522.0 0.000657 1189.48816 1657.52856
1530.0 0.000654 1189.58289 1640.23840
1496.0 0.000668 1189.67786 1619.34729
1503.0 0.000664 1189.77368 1596.94934
1479.0 0.000675 1189.87024 1576.45093
1381.0 0.000723 1189.96716 1574.42065
1459.0 0.000685 1190.06421 1567.98877
1393.0 0.000719 1190.16260 1572.07092
1419.0 0.000704 1190.26147 1588.58276
1505.0 0.000664 1190.36060 1618.78076
1503.0 0.000664 1190.46069 1663.18469
1551.0 0.000644 1190.56140 1721.50732
1698.0 0.000589 1190.66211 1792.59363
1739.0 0.000575 1190.76416 1874.24829
1816.0 0.000551 1190.86658 1963.77246
1876.0 0.000533 1190.96899 2057.58911
2095.0 0.000477 1191.07288 2150.86353
2193.0 0.000457 1191.17688 2239.78516
2370.0 0.000422 1191.28186 2321.36499
2471.0 0.000405 1191.38708 2394.65845
2807.0 0.000356 1191.49280 2460.90576
2836.0 0.000352 1191.59973 2522.65967
2928.0 0.0003417 1191.70679 2582.39038
3015.0 0.0003318 1191.81445 2647.65210
2986.0 0.0003354 1191.92297 2704.55298
3053.0 0.0003270 1192.03198 2755.08447
3159.0 0.0003166 1192.14172 2792.42554
3121.0 0.0003200 1192.25195 2808.30176
3059.0 0.0003270 1192.36304 2795.36865
2997.0 0.0003342 1192.47485 2749.90479
2906.0 0.0003442 1192.58691 2673.33984
2752.0 0.000363 1192.70020 2571.66382
2563.0 0.000391 1192.81384 2453.25610
2488.0 0.000402 1192.92822 2326.58936
2351.0 0.000425 1193.04333 2198.79077
2129.0 0.000471 1193.15930 2075.17944
1963.0 0.000510 1193.27600 1959.39844
1849.0 0.000541 1193.39307 1853.76514
1756.0 0.000570 1193.51135 1759.60388
1688.0 0.000592 1193.63025 1677.46887
1549.0 0.000644 1193.75000 1607.28003
1489.0 0.000671 1193.87000 1548.43652
1476.0 0.000678 1193.99146 1499.97998
1497.0 0.000668 1194.11377 1460.79211
1494.0 0.000668 1194.23669 1430.25781
1599.0 0.000625 1194.36023 1412.51599
1465.0 0.000682 1194.48486 1396.76636
1479.0 0.000675 1194.61060 1388.25427
1482.0 0.000675 1194.73718 1387.93518
1530.0 0.000654 1194.86426 1396.69434
1589.0 0.000628 1194.99268 1416.74500
1546.0 0.000647 1195.12219 1450.61816
1622.0 0.000616 1195.25232 1501.14514
1638.0 0.000610 1195.38379 1571.05542
1676.0 0.000598 1195.51599 1662.42407
1745.0 0.000572 1195.64954 1775.99524
1862.0 0.000536 1195.78381 1910.49500
2037.0 0.000492 1195.91956 2062.05176
2334.0 0.000429 1196.05615 2223.83057
2353.0 0.000425 1196.19409 2386.56689
2570.0 0.000389 1196.33313 2536.83350
2584.0 0.000388 1196.47327 2661.23926
2689.0 0.000371 1196.61462 2746.62085
2684.0 0.000373 1196.75757 2783.71460
2609.0 0.000383 1196.90161 2771.72974
2517.0 0.000397 1197.04712 2713.00659
2561.0 0.000391 1197.19348 2619.90356
2562.0 0.000391 1197.34143 2505.77734
2386.0 0.000420 1197.49072 2383.70166
2291.0 0.000436 1197.64185 2269.64722
2205.0 0.000453 1197.79407 2163.15771
2185.0 0.000459 1197.94775 2074.76929
2211.0 0.000453 1198.10339 2007.33557
2218.0 0.000451 1198.26013 1960.56738
2107.0 0.000475 1198.41870 1931.37231
2143.0 0.000466 1198.57874 1914.66260
2071.0 0.000483 1198.74084 1904.48364
2062.0 0.000485 1198.90405 1895.19519
2048.0 0.000487 1199.06946 1879.95520
1987.0 0.000503 1199.23608 1861.54248
1878.0 0.000533 1199.40503 1834.49158
1921.0 0.000521 1199.57581 1799.70447
1693.0 0.000592 1199.74817 1757.59302
1697.0 0.000589 1199.92285 1710.49158
1752.0 0.000570 1200.09924 1658.52185
1644.0 0.000610 1200.27771 1606.35449
1586.0 0.000631 1200.45801 1554.48865
1617.0 0.000619 1200.64075 1506.53015
1513.0 0.000661 1200.82544 1464.42920
1497.0 0.000668 1201.01233 1432.53528
1454.0 0.000689 1201.20129 1405.72522
1387.0 0.000723 1201.39270 1386.07129
1404.0 0.000711 1201.58618 1378.31226
1351.0 0.000738 1201.78223 1371.84424
1415.0 0.000707 1201.98083 1369.80115
1334.0 0.000751 1202.18140 1370.71680
1405.0 0.000711 1202.38464 1373.20544
1399.0 0.000715 1202.59033 1375.21460
1319.0 0.000759 1202.79907 1377.90930
1249.0 0.000803 1203.01001 1380.19385
1309.0 0.000763 1203.22363 1382.44934
1284.0 0.000780 1203.44006 1385.41650
1265.0 0.000789 1203.65881 1390.38159
1284.0 0.000780 1203.88123 1397.13916
1324.0 0.000755 1204.10571 1406.45166
1276.0 0.000785 1204.33325 1417.41833
1343.0 0.000747 1204.56384 1430.99463
1246.0 0.000803 1204.79761 1445.27307
1273.0 0.000785 1205.03430 1458.78357
1242.0 0.000807 1205.27429 1469.81250
1247.0 0.000803 1205.51709 1476.69922
1238.0 0.000807 1205.76331 1482.07117
1271.0 0.000785 1206.01306 1479.73816
1277.0 0.000785 1206.26562 1473.97034
1327.0 0.000755 1206.52148 1466.74487
1238.0 0.000807 1206.78125 1460.31470
1363.0 0.000734 1207.04395 1456.87976
1355.0 0.000738 1207.31042 1458.25000
1452.0 0.000689 1207.58069 1465.83813
1491.0 0.000671 1207.85425 1480.62500
1461.0 0.000685 1208.13184 1502.99609
1530.0 0.000654 1208.41272 1531.37793
1564.0 0.000641 1208.69775 1562.54932
1649.0 0.000607 1208.98645 1599.80042
1709.0 0.000586 1209.27917 1638.39087
1784.0 0.000562 1209.57581 1675.91125
1671.0 0.000598 1209.87598 1710.36584
1767.0 0.000567 1210.18103 1737.84802
1640.0 0.000610 1210.48962 1757.04810
1685.0 0.000595 1210.80237 1764.56128
1693.0 0.000592 1211.11963 1760.64380
1582.0 0.000631 1211.44116 1747.00378
1535.0 0.000651 1211.76636 1725.19934
1598.0 0.000625 1212.09656 1699.13562
1522.0 0.000657 1212.43140 1672.20984
1496.0 0.000668 1212.77014 1647.31287
1518.0 0.000657 1213.11377 1627.03857
1527.0 0.000654 1213.46167 1611.71863
1480.0 0.000675 1213.81458 1602.16150
1455.0 0.000689 1214.17200 1598.43494
1493.0 0.000671 1214.53430 1599.11475
1485.0 0.000675 1214.90149 1603.71692
1524.0 0.000657 1215.27319 1611.57654
1530.0 0.000654 1215.64990 1622.44531
1526.0 0.000654 1216.03198 1689.76208
1546.0 0.000647 1216.41846 1716.31763
1563.0 0.000641 1216.81055 1751.22961
1697.0 0.000589 1217.20752 1797.33252
1628.0 0.000616 1217.60986 1857.81726
1799.0 0.000556 1218.01697 1935.90125
1855.0 0.000538 1218.42981 2034.47009
1873.0 0.000533 1218.84790 2155.74634
2017.0 0.000496 1219.27136 2301.06519
2242.0 0.000447 1219.70007 2469.81348
2479.0 0.000403 1220.13440 2663.48389
2747.0 0.000364 1220.57422 2885.19043
3093.0 0.0003235 1221.01953 3122.00366
3449.0 0.0002902 1221.47058 3374.37451
3867.0 0.0002585 1221.92737 3635.24731
3975.0 0.0002520 1222.38989 3894.41431
4265.0 0.0002345 1222.85803 4138.36963
4225.0 0.0002367 1223.33215 4351.55322
4372.0 0.0002289 1223.81201 4515.15479
4383.0 0.0002282 1224.29797 4614.71387
4285.0 0.0002331 1224.78943 4641.65771
4252.0 0.0002352 1225.28735 4597.44531
4260.0 0.0002345 1225.79126 4492.36719
4031.0 0.0002480 1226.30066 4341.29883
4020.0 0.0002488 1226.81726 4163.47461
3977.0 0.0002512 1227.33960 3975.63623
3779.0 0.0002644 1227.86792 3790.62451
3645.0 0.0002741 1228.40308 3619.26001
3491.0 0.0002863 1228.94348 3458.71240
3304.0 0.0003025 1229.49109 3311.29541
3249.0 0.0003078 1230.04468 3171.44263
3153.0 0.0003166 1230.60486 3035.67700
2959.0 0.0003379 1231.17151 2900.75659
2855.0 0.0003507 1231.74451 2769.65088
2807.0 0.000356 1232.32422 2637.04980
2691.0 0.000371 1232.91040 2508.82520
2531.0 0.000395 1233.50305 2387.79443
2396.0 0.000418 1234.10266 2275.53589
2355.0 0.000425 1234.70886 2173.08057
2230.0 0.000449 1235.32141 2081.59399
2130.0 0.000469 1235.94104 1998.24451
2089.0 0.000479 1236.56726 1923.19019
1971.0 0.000507 1237.20044 1856.23425
1889.0 0.000528 1237.83997 1799.19263
1862.0 0.000536 1238.48682 1749.22510
1877.0 0.000533 1239.14026 1708.38196
1875.0 0.000533 1239.80078 1677.44360
1860.0 0.000538 1240.46814 1659.20728
1886.0 0.000531 1241.14233 1649.85767
1915.0 0.000521 1241.82397 1651.30151
1948.0 0.000514 1242.51196 1666.75232
1958.0 0.000512 1243.20764 1695.30249
2008.0 0.000498 1243.90991 1738.04309
2075.0 0.000481 1244.61877 1791.02942
2075.0 0.000481 1245.33533 1853.07007
2076.0 0.000481 1246.05896 1920.30054
2186.0 0.000457 1246.78943 1987.69666
2179.0 0.000459 1247.52734 2049.55908
2129.0 0.000471 1248.27209 2100.06958
2202.0 0.000455 1249.02405 2133.77295
2188.0 0.000457 1249.78308 2146.16626
2138.0 0.000469 1250.54932 2134.63672
2109.0 0.000475 1251.32275 2099.14233
2057.0 0.000485 1252.10339 2044.38367
2004.0 0.000498 1252.89099 1973.66577
1917.0 0.000521 1253.68579 1894.98889
1794.0 0.000556 1254.48804 1815.01343
1736.0 0.000575 1255.29724 1743.51501
1633.0 0.000613 1256.11365 1678.99219
1618.0 0.000619 1256.93738 1625.58496
1595.0 0.000628 1257.76819 1586.32471
1618.0 0.000619 1258.60620 1561.87695
1521.0 0.000657 1259.45142 1552.00500
1516.0 0.000661 1260.30371 1555.26270
1524.0 0.000657 1261.16309 1571.61768
1507.0 0.000664 1262.02954 1599.01208
1555.0 0.000644 1262.90369 1635.78564
1628.0 0.000616 1263.78442 1680.17798
1670.0 0.000598 1264.67236 1730.23621
1740.0 0.000575 1265.56775 1783.80237
1752.0 0.000570 1266.46997 1838.54883
1832.0 0.000546 1267.37939 1892.10913
1960.0 0.000510 1268.29602 1942.31860
2070.0 0.000483 1269.21924 1987.42188
2119.0 0.000473 1270.14978 2033.02148
2137.0 0.000469 1271.08704 2065.64380
2146.0 0.000466 1272.03162 2091.31714
2265.0 0.000441 1272.98291 2111.36987
2222.0 0.000451 1273.94128 2126.88159
2326.0 0.000430 1274.90649 2136.56616
2369.0 0.000422 1275.87842 2143.13159
2327.0 0.000430 1276.85742 2148.19604
2275.0 0.000440 1277.84338 2153.92041
2248.0 0.000445 1278.83557 2163.36987
2300.0 0.000434 1279.83496 2180.35742
2430.0 0.000411 1280.84094 2208.73071
2359.0 0.000423 1281.85376 2253.94629
2531.0 0.000395 1282.87268 2313.58154
2522.0 0.000397 1283.89893 2386.46338
2650.0 0.000377 1284.93127 2470.01880
2750.0 0.000364 1285.97009 2558.44019
3097.0 0.0003223 1287.01562 2644.67578
2939.0 0.0003404 1288.06775 2718.96924
2926.0 0.0003417 1289.12573 2774.70825
2985.0 0.0003354 1290.19006 2807.02124
2791.0 0.000359 1291.26123 2814.38892
2856.0 0.0003507 1292.33862 2798.60889
2776.0 0.000360 1293.42212 2764.18042
2686.0 0.000373 1294.51123 2717.34009
2633.0 0.000380 1295.60669 2664.81885
2665.0 0.000376 1296.70789 2612.49805
2610.0 0.000383 1297.81543 2564.33179
2551.0 0.000392 1298.92871 2521.74414
2484.0 0.000403 1300.04773 2483.61792
2460.0 0.000406 1301.17273 2446.54004
2476.0 0.000403 1302.30359 2406.26050
2404.0 0.000416 1303.43958 2353.54614
2295.0 0.000436 1304.58154 2294.39087
2295.0 0.000436 1305.72888 2229.11035
2296.0 0.000436 1306.88196 2157.24829
2235.0 0.000447 1308.04016 2082.58789
2129.0 0.000471 1309.20386 2006.95728
2173.0 0.000460 1310.37280 1933.93738
2107.0 0.000475 1311.54651 1865.76648
2007.0 0.000498 1312.72571 1804.08154
1958.0 0.000512 1313.90942 1750.06140
1748.0 0.000572 1315.09851 1704.25256
1710.0 0.000583 1316.29272 1666.56738
1656.0 0.000604 1317.49109 1636.61328
1606.0 0.000622 1318.69446 1613.44006
1557.0 0.000641 1319.90247 1595.99988
1469.0 0.000682 1321.11487 1582.40625
1443.0 0.000693 1322.33191 1571.48132
1439.0 0.000696 1323.55286 1561.59106
1472.0 0.000678 1324.77881 1551.58789
1422.0 0.000704 1326.00830 1540.80627
1435.0 0.000696 1327.24231 1528.43481
1421.0 0.000704 1328.48010 1514.86731
1419.0 0.000704 1329.72205 1500.69336
1425.0 0.000704 1330.96765 1486.67236
1490.0 0.000671 1332.21655 1477.16968
1499.0 0.000668 1333.46997 1466.19019
1452.0 0.000689 1334.72644 1457.45264
1470.0 0.000682 1335.98657 1451.44885
1460.0 0.000685 1337.24976 1448.67310
1422.0 0.000704 1338.51624 1451.05481
1413.0 0.000707 1339.78601 1456.81799
1402.0 0.000715 1341.05920 1469.08533
1476.0 0.000678 1342.33496 1487.51086
1466.0 0.000682 1343.61316 1514.16016
1496.0 0.000668 1344.89465 1550.02002
1591.0 0.000628 1346.17847 1595.63831
1691.0 0.000592 1347.46533 1649.85522
1743.0 0.000575 1348.75403 1710.85669
1830.0 0.000546 1350.04553 1775.24390
1897.0 0.000526 1351.33899 1838.43762
1982.0 0.000505 1352.63464 1895.15820
2100.0 0.000477 1353.93262 1940.16858
2138.0 0.000469 1355.23181 1969.21912
2055.0 0.000487 1356.53333 1980.05676
2050.0 0.000487 1357.83606 1973.17957
2014.0 0.000496 1359.14087 1951.99670
1979.0 0.000505 1360.44702 1921.86523
1895.0 0.000528 1361.75427 1889.42505
1896.0 0.000528 1363.06299 1861.00842
1880.0 0.000531 1364.37292 1841.66077
1794.0 0.000556 1365.68372 1834.75708
1827.0 0.000548 1366.99561 1841.27686
1902.0 0.000526 1368.30762 1860.22119
1835.0 0.000546 1369.62085 1887.31165
1830.0 0.000546 1370.93445 1917.82251
1830.0 0.000546 1372.24854 1945.77051
1817.0 0.000551 1373.56299 1965.55188
1839.0 0.000543 1374.87756 1971.73303
1859.0 0.000538 1376.19238 1961.99207
1927.0 0.000519 1377.50671 1937.01953
2057.0 0.000485 1378.82141 1898.94531
2030.0 0.000492 1380.13611 1850.50269
2075.0 0.000481 1381.44971 1797.30774
1981.0 0.000505 1382.76294 1743.48413
1926.0 0.000519 1384.07556 1692.84448
1904.0 0.000526 1385.38770 1648.08423
1839.0 0.000543 1386.69897 1610.82922
1806.0 0.000554 1388.00891 1581.71997
1727.0 0.000578 1389.31787 1560.78284
1700.0 0.000589 1390.62573 1546.84314
1551.0 0.000644 1391.93262 1536.49756
1524.0 0.000657 1393.23767 1533.27002
1504.0 0.000664 1394.54126 1535.83508
1473.0 0.000678 1395.84290 1538.14380
1490.0 0.000671 1397.14282 1541.51660
1430.0 0.000700 1398.44092 1545.75183
1423.0 0.000704 1399.73730 1549.11804
1434.0 0.000696 1401.03113 1551.79041
1441.0 0.000693 1402.32288 1557.33813
1489.0 0.000671 1403.61206 1558.70959
1571.0 0.000638 1404.89893 1559.73816
1605.0 0.000622 1406.18311 1560.95471
1587.0 0.000631 1407.46436 1567.56226
1616.0 0.000619 1408.74304 1575.26086
1551.0 0.000644 1410.01868 1582.61572
1622.0 0.000616 1411.29126 1593.77100
1565.0 0.000638 1412.56042 1609.89832
1701.0 0.000589 1413.82654 1632.45508
1802.0 0.000556 1415.08923 1663.03967
1766.0 0.000567 1416.34814 1704.65381
1756.0 0.000570 1417.60400 1759.99341
1882.0 0.000531 1418.85547 1831.56287
1842.0 0.000543 1420.10303 1918.11523
1907.0 0.000524 1421.34705 2026.34253
2042.0 0.000489 1422.58691 2151.64600
2185.0 0.000459 1423.82251 2290.00049
2344.0 0.000427 1425.05383 2434.56226
2441.0 0.000410 1426.28064 2576.45215
2604.0 0.000384 1427.50317 2703.00781
2821.0 0.000355 1428.72095 2802.56494
2787.0 0.000359 1429.93372 2864.04517
2898.0 0.0003455 1431.14209 2881.02344
2819.0 0.000355 1432.34570 2849.52466
2828.0 0.000353 1433.54382 2774.95483
2513.0 0.000398 1434.73706 2666.56104
2528.0 0.000395 1435.92529 2536.26245
2455.0 0.000408 1437.10779 2396.55786
2376.0 0.000422 1438.28491 2260.63159
2223.0 0.000451 1439.45679 2134.94531
2104.0 0.000475 1440.62305 2028.04138
1975.0 0.000507 1441.78357 1944.19080
1908.0 0.000524 1442.93787 1885.00281
1893.0 0.000528 1444.08655 1849.78931
1881.0 0.000531 1445.22961 1836.07568
1794.0 0.000556 1446.36621 1840.14844
1785.0 0.000562 1447.49683 1857.57361
1765.0 0.000567 1448.62158 1883.66003
1748.0 0.000572 1449.73938 1915.75696
1879.0 0.000533 1450.85107 1946.23718
1837.0 0.000543 1451.95618 1973.88708
1834.0 0.000546 1453.05481 1999.63647
1884.0 0.000531 1454.14661 2018.27612
1789.0 0.000559 1455.23206 2032.06128
1830.0 0.000546 1456.31055 2042.76831
1851.0 0.000541 1457.38196 2051.09229
1864.0 0.000536 1458.44666 2058.42334
1705.0 0.000586 1459.50439 2064.67944
1826.0 0.000548 1460.55518 2069.03418
1844.0 0.000543 1461.59863 2070.49829
1737.0 0.000575 1462.63477 2068.15234
1672.0 0.000598 1463.66370 2061.78931
1616.0 0.000619 1464.68506 2052.19336
1610.0 0.000622 1465.69946 2040.99878
1698.0 0.000589 1466.70618 2030.22241
1661.0 0.000601 1467.70508 2021.69434
1655.0 0.000604 1468.69690 2015.90259
1725.0 0.000581 1469.68103 2014.78296
1757.0 0.000570 1470.65723 2017.19458
1715.0 0.000583 1471.62561 2022.90295
1846.0 0.000541 1472.58643 2028.61389
1870.0 0.000536 1473.53906 2033.17749
1851.0 0.000541 1474.48450 2034.43372
1861.0 0.000538 1475.42126 2030.73853
1970.0 0.000507 1476.35059 2022.91907
2018.0 0.000496 1477.27124 2003.83228
1962.0 0.000510 1478.18457 1977.14880
1993.0 0.000503 1479.08948 1944.37439
1953.0 0.000512 1479.98633 1908.41113
1922.0 0.000521 1480.87524 1872.10498
1824.0 0.000548 1481.75549 1839.39124
1964.0 0.000510 1482.62781 1811.58740
1907.0 0.000524 1483.49170 1792.00635
1841.0 0.000543 1484.34741 1782.62195
1830.0 0.000546 1485.19482 1784.71838
1891.0 0.000528 1486.03369 1798.79260
1918.0 0.000521 1486.86426 1824.56360
1914.0 0.000524 1487.68689 1860.83887
1955.0 0.000512 1488.50073 1905.96228
2071.0 0.000483 1489.30627 1957.35742
2122.0 0.000471 1490.10339 2016.23914
2079.0 0.000481 1490.89246 2071.71338
2202.0 0.000455 1491.67249 2124.86206
2302.0 0.000434 1492.44421 2173.29761
2239.0 0.000447 1493.20764 2215.53247
2274.0 0.000440 1493.96252 2251.29517
2268.0 0.000441 1494.70898 2281.50757
2274.0 0.000440 1495.44714 2307.85181
2324.0 0.000430 1496.17664 2332.06763
2382.0 0.000420 1496.89771 2355.29150
2368.0 0.000422 1497.60999 2377.64771
2395.0 0.000418 1498.31409 2398.23901
2340.0 0.000427 1499.00989 2415.52686
2323.0 0.000430 1499.69727 2428.21338
2332.0 0.000429 1500.37634 2434.77271
2281.0 0.000438 1501.04663 2434.90430
2331.0 0.000429 1501.70862 2428.18872
2369.0 0.000422 1502.36292 2413.97266
2398.0 0.000416 1503.00806 2391.38208
2454.0 0.000408 1503.64478 2359.65405
2394.0 0.000418 1504.27344 2318.55127
2330.0 0.000429 1504.89404 2268.66016
2345.0 0.000427 1505.50647 2211.47729
2297.0 0.000436 1506.11023 2149.86426
2185.0 0.000459 1506.70605 2085.16113
2145.0 0.000466 1507.29346 2021.55444
2119.0 0.000473 1507.87268 1961.51221
2042.0 0.000489 1508.44421 1907.37244
1961.0 0.000510 1509.00720 1860.75305
1846.0 0.000541 1509.56250 1822.65747
1841.0 0.000543 1510.10962 1792.78394
1908.0 0.000524 1510.64868 1770.61523
1862.0 0.000536 1511.17993 1754.98718
1974.0 0.000507 1511.70325 1744.35498
1985.0 0.000503 1512.21899 1737.57092
2106.0 0.000475 1512.72681 1732.83301
2107.0 0.000475 1513.22668 1729.45752
2184.0 0.000459 1513.71912 1726.73633
2121.0 0.000471 1514.20374 1724.81885
2123.0 0.000471 1514.68091 1721.89258
1915.0 0.000521 1515.15002 1718.23999
2024.0 0.000494 1515.61218 1713.86023
2035.0 0.000492 1516.06653 1708.76245
1949.0 0.000514 1516.51379 1702.47522
1857.0 0.000538 1516.95325 1695.89905
1887.0 0.000531 1517.38586 1689.70752
1783.0 0.000562 1517.81116 1685.67737
1781.0 0.000562 1518.22900 1683.29980
1720.0 0.000581 1518.63977 1683.62488
1765.0 0.000567 1519.04419 1687.90015
1787.0 0.000559 1519.44055 1696.99084
1711.0 0.000583 1519.83069 1712.05579
1761.0 0.000567 1520.21375 1733.26428
1752.0 0.000570 1520.58972 1761.67529
1813.0 0.000551 1520.95959 1798.09460
1891.0 0.000528 1521.32214 1843.01697
2048.0 0.000487 1521.67847 1897.56482
2081.0 0.000481 1522.02795 1961.45679
2129.0 0.000471 1522.37085 2035.53101
2188.0 0.000457 1522.70740 2120.04688
2318.0 0.000432 1523.03772 2214.99585
2454.0 0.000408 1523.36157 2319.84253
2485.0 0.000403 1523.67957 2434.19897
2554.0 0.000392 1523.99084 2554.71436
2558.0 0.000391 1524.29651 2678.43311
2634.0 0.000380 1524.59583 2799.29858
2777.0 0.000360 1524.88916 2913.93457
2782.0 0.000360 1525.17651 3010.85278
2928.0 0.0003417 1525.45801 3082.17847
2890.0 0.0003455 1525.73401 3122.45557
2961.0 0.0003379 1526.00391 3125.17505
2926.0 0.0003417 1526.26831 3091.94873
2849.0 0.0003507 1526.52747 3023.57788
2801.0 0.000357 1526.78040 2926.59277
2695.0 0.000371 1527.02844 2812.01831
2586.0 0.000386 1527.27087 2679.54736
2508.0 0.000398 1527.50806 2541.68750
2400.0 0.000416 1527.73987 2405.45972
2229.0 0.000449 1527.96631 2277.30347
2114.0 0.000473 1528.18799 2162.18408
2058.0 0.000485 1528.40430 2063.34399
2009.0 0.000498 1528.61536 1982.29102
1917.0 0.000521 1528.82178 1920.44287
1828.0 0.000546 1529.02295 1876.77051
1812.0 0.000551 1529.21973 1844.79614
1775.0 0.000564 1529.41125 1823.90979
1805.0 0.000554 1529.59839 1811.31042
1794.0 0.000556 1529.78052 1803.84656
1819.0 0.000551 1529.95801 1800.56201
1850.0 0.000541 1530.13098 1796.62976
1863.0 0.000536 1530.29932 1790.31531
1905.0 0.000526 1530.46313 1780.94177
1945.0 0.000514 1530.62268 1770.38989
1917.0 0.000521 1530.77759 1759.11609
1827.0 0.000548 1530.92810 1749.20044
1821.0 0.000548 1531.07446 1743.07886
1853.0 0.000541 1531.21631 1741.75171
1821.0 0.000548 1531.35413 1752.21570
1735.0 0.000575 1531.48730 1776.14160
1832.0 0.000546 1531.61646 1817.27759
1870.0 0.000536 1531.74182 1879.29724
1972.0 0.000507 1531.86206 1965.40015
2069.0 0.000483 1531.97900 2077.77588
2120.0 0.000473 1532.09192 2216.96997
2292.0 0.000436 1532.20044 2381.31250
2630.0 0.000380 1532.30505 2566.18921
2887.0 0.0003468 1532.40552 2765.08228
3105.0 0.0003223 1532.50220 2965.72192
3336.0 0.0002993 1532.59473 3157.55762
3645.0 0.0002741 1532.68311 3324.14185
3850.0 0.0002601 1532.76758 3453.02466
3856.0 0.0002593 1532.84827 3532.77051
3797.0 0.0002635 1532.92456 3556.54419
3728.0 0.0002679 1532.99731 3523.26343
3611.0 0.0002769 1533.06580 3437.82812
3296.0 0.0003035 1533.13037 3310.56470
3139.0 0.0003189 1533.19080 3155.20850
2908.0 0.0003442 1533.24744 2983.33984
2677.0 0.000374 1533.30029 2810.64209
2454.0 0.000408 1533.34863 2647.05396
2236.0 0.000447 1533.39282 2501.36011
2209.0 0.000453 1533.43372 2379.33301
2152.0 0.000464 1533.46960 2282.33252
2024.0 0.000494 1533.50171 2210.41260
2027.0 0.000494 1533.52979 2161.37573
1971.0 0.000507 1533.55359 2132.00317
2073.0 0.000483 1533.57275 2118.51953
2028.0 0.000494 1533.58801 2117.58789
2069.0 0.000483 1533.59900 2125.98804
2025.0 0.000494 1533.60522 2141.40039
2157.0 0.000464 1533.60681 2162.08545
2172.0 0.000460 1533.60437 2186.67163
2253.0 0.000443 1533.59729 2213.76514
2333.0 0.000429 1533.58557 2244.16455
2349.0 0.000425 1533.56873 2276.56885
2350.0 0.000425 1533.54761 2309.98999
2356.0 0.000425 1533.52136 2342.96021
2469.0 0.000405 1533.49060 2369.34302
2483.0 0.000403 1533.45410 2396.26807
2534.0 0.000395 1533.41309 2419.25049
2627.0 0.000380 1533.36670 2435.59839
2695.0 0.000371 1533.31494 2446.83374
2605.0 0.000384 1533.25757 2453.89990
2693.0 0.000371 1533.19543 2457.95679
2647.0 0.000379 1533.12720 2460.28638
2639.0 0.000379 1533.05310 2461.30908
2507.0 0.000398 1532.97363 2461.75684
2467.0 0.000405 1532.88782 2461.22461
2436.0 0.000410 1532.79626 2459.72241
2501.0 0.000400 1532.69836 2456.69653
2326.0 0.000430 1532.59436 2451.66431
2362.0 0.000423 1532.48352 2444.01831
2340.0 0.000427 1532.36670 2433.37085
2299.0 0.000436 1532.24268 2419.27393
2202.0 0.000455 1532.11194 2401.46753
2195.0 0.000455 1531.97412 2379.65747
2191.0 0.000457 1531.82910 2353.59717
2115.0 0.000473 1531.67688 2323.23218
2068.0 0.000483 1531.51685 2289.16748
2079.0 0.000481 1531.34961 2251.73169
2018.0 0.000496 1531.17468 2212.47681
2074.0 0.000483 1530.99133 2172.94971
2031.0 0.000492 1530.80005 2134.60034
1945.0 0.000514 1530.60059 2098.46484
1961.0 0.000510 1530.39197 2064.98633
1989.0 0.000503 1530.17542 2034.90076
2027.0 0.000494 1529.94971 2005.77344
1980.0 0.000505 1529.71497 1977.75085
1976.0 0.000505 1529.47083 1949.78442
1872.0 0.000533 1529.21753 1921.60913
1838.0 0.000543 1528.95447 1893.35718
1743.0 0.000575 1528.68127 1865.88940
1829.0 0.000546 1528.39819 1839.64294
1781.0 0.000562 1528.10498 1815.95312
1698.0 0.000589 1527.80115 1795.73169
1708.0 0.000586 1527.48657 1779.84265
1693.0 0.000592 1527.16113 1768.84192
1622.0 0.000616 1526.82422 1762.96082
1639.0 0.000610 1526.47620 1762.09607
1616.0 0.000619 1526.11670 1765.69409
1672.0 0.000598 1525.74536 1772.93726
1701.0 0.000589 1525.36182 1783.51160
1760.0 0.000567 1524.96594 1794.41968
1768.0 0.000567 1524.55762 1805.01733
1779.0 0.000562 1524.13684 1813.56372
1839.0 0.000543 1523.70264 1818.67468
1861.0 0.000538 1523.25525 1819.21887
1757.0 0.000570 1522.79456 1814.62756
1815.0 0.000551 1522.32019 1805.90540
1824.0 0.000548 1521.83142 1792.01929
1794.0 0.000556 1521.32861 1774.92212
1732.0 0.000578 1520.81140 1755.82605
1696.0 0.000589 1520.27954 1735.85925
1672.0 0.000598 1519.73254 1716.02136
1735.0 0.000575 1519.17053 1696.88391
1625.0 0.000616 1518.59277 1678.96179
1660.0 0.000604 1517.99951 1662.49744
1616.0 0.000619 1517.39001 1647.60522
1669.0 0.000598 1516.76440 1634.20581
1663.0 0.000601 1516.12231 1623.00574
1704.0 0.000586 1515.46350 1614.05786
1670.0 0.000598 1514.78784 1604.42847
1708.0 0.000586 1514.09473 1596.91907
1763.0 0.000567 1513.38428 1590.91467
1719.0 0.000581 1512.65576 1586.77991
1667.0 0.000601 1511.90942 1584.28015
1653.0 0.000604 1511.14514 1584.00476
1603.0 0.000625 1510.36182 1586.37805
1554.0 0.000644 1509.55994 1591.64600
1568.0 0.000638 1508.73926 1600.52417
1559.0 0.000641 1507.89905 1613.60547
1508.0 0.000664 1507.03943 1631.57910
1502.0 0.000664 1506.16028 1655.49866
1556.0 0.000644 1505.26111 1684.28162
1616.0 0.000619 1504.34180 1718.45801
1648.0 0.000607 1503.40210 1757.81030
1677.0 0.000595 1502.44165 1801.62366
1744.0 0.000572 1501.46033 1848.70081
1848.0 0.000541 1500.45837 1897.46497
1890.0 0.000528 1499.43445 1946.19971
1898.0 0.000526 1498.38989 1992.39758
1956.0 0.000512 1497.32288 2034.20276
2027.0 0.000494 1496.23413 2069.95361
2047.0 0.000489 1495.12378 2098.58911
2117.0 0.000473 1493.99036 2118.95337
2223.0 0.000451 1492.83521 2131.15869
2238.0 0.000447 1491.65686 2135.50317
2274.0 0.000440 1490.45581 2132.94629
2303.0 0.000434 1489.23193 2124.24097
2265.0 0.000441 1487.98486 2110.94775
2227.0 0.000449 1486.71460 2094.40503
2268.0 0.000441 1485.42065 2075.66040
2230.0 0.000449 1484.10315 2055.39282
2208.0 0.000453 1482.76196 2033.61426
2143.0 0.000466 1481.39685 2008.42761
2088.0 0.000479 1480.00818 1983.56885
2052.0 0.000487 1478.59497 1956.89282
2030.0 0.000492 1477.15796 1928.58911
1996.0 0.000500 1475.69641 1899.29016
2134.0 0.000469 1474.21045 1869.63135
2101.0 0.000477 1472.70044 1841.25232
2044.0 0.000489 1471.16577 1813.18079
2025.0 0.000494 1469.60645 1787.14502
1986.0 0.000503 1468.02319 1762.05652
1937.0 0.000517 1466.41431 1743.12085
1928.0 0.000519 1464.78174 1729.16602
1947.0 0.000514 1463.12439 1721.99219
1970.0 0.000507 1461.44189 1720.03931
1929.0 0.000519 1459.73523 1724.90894
1908.0 0.000524 1458.00391 1736.31848
1945.0 0.000514 1456.24841 1752.07373
1903.0 0.000526 1454.46777 1772.13501
1828.0 0.000546 1452.66309 1795.16162
1824.0 0.000548 1450.83411 1819.57178
1764.0 0.000567 1448.98083 1845.14233
1722.0 0.000581 1447.10364 1867.65649
1818.0 0.000551 1445.20203 1886.41309
1801.0 0.000556 1443.27673 1900.70471
1832.0 0.000546 1441.32788 1910.14172
1812.0 0.000551 1439.35522 1915.61902
1870.0 0.000536 1437.35962 1916.81348
1773.0 0.000564 1435.34033 1915.21399
1825.0 0.000548 1433.29846 1912.18384
1868.0 0.000536 1431.23401 1908.94189
1840.0 0.000543 1429.14636 1906.21790
1892.0 0.000528 1427.03748 1906.35645
1897.0 0.000526 1424.90613 1908.46606
1803.0 0.000554 1422.75330 1913.67114
1887.0 0.000531 1420.57922 1921.63843
1862.0 0.000536 1418.38379 1932.60168
1791.0 0.000559 1416.16821 1943.82495
1876.0 0.000533 1413.93176 1956.31213
1916.0 0.000521 1411.67542 1968.45764
2000.0 0.000500 1409.40039 1978.15027
1854.0 0.000538 1407.10583 1983.46472
1878.0 0.000533 1404.79260 1982.90820
1858.0 0.000538 1402.46118 1974.97705
1908.0 0.000524 1400.11218 1958.66272
1777.0 0.000562 1397.74634 1934.49915
1758.0 0.000570 1395.36328 1902.16382
1735.0 0.000575 1392.96460 1865.29773
1727.0 0.000578 1390.55042 1824.32617
1669.0 0.000598 1388.12085 1783.16907
1608.0 0.000622 1385.67725 1744.64050
1582.0 0.000631 1383.21948 1711.52979
1685.0 0.000595 1380.74951 1685.19763
1590.0 0.000628 1378.26624 1666.50134
1677.0 0.000595 1375.77173 1657.77783
1647.0 0.000607 1373.26611 1658.33191
1700.0 0.000589 1370.74988 1667.15881
1735.0 0.000575 1368.22461 1683.58752
1739.0 0.000575 1365.68994 1705.13977
1745.0 0.000572 1363.14771 1730.13757
1724.0 0.000581 1360.59790 1756.29443
1821.0 0.000548 1358.04175 1781.27478
1813.0 0.000551 1355.48096 1802.91980
1889.0 0.000528 1352.91455 1819.46179
1893.0 0.000528 1350.34473 1829.74084
1903.0 0.000526 1347.77209 1833.32202
1791.0 0.000559 1345.19763 1830.12512
1873.0 0.000533 1342.62231 1820.75671
1768.0 0.000567 1340.04688 1806.05176
1817.0 0.000551 1337.47192 1786.99219
1781.0 0.000562 1334.90015 1764.58740
1772.0 0.000564 1332.33044 1739.66150
1691.0 0.000592 1329.76550 1713.43921
1686.0 0.000592 1327.20557 1686.70215
1609.0 0.000622 1324.65149 1660.41235
1587.0 0.000631 1322.10571 1635.53369
1581.0 0.000631 1319.56750 1613.11182
1538.0 0.000651 1317.03955 1593.47266
1587.0 0.000631 1314.52222 1577.16089
1593.0 0.000628 1312.01721 1564.49524
1468.0 0.000682 1309.52527 1554.75232
1537.0 0.000651 1307.04761 1547.91907
1481.0 0.000675 1304.58545 1542.79614
1542.0 0.000647 1302.14014 1538.88342
1431.0 0.000700 1299.71289 1535.27100
1407.0 0.000711 1297.30554 1531.79919
1511.0 0.000661 1294.91882 1527.47559
1451.0 0.000689 1292.55383 1523.68103
1548.0 0.000647 1290.21216 1519.28601
1493.0 0.000671 1287.89465 1515.92603
1565.0 0.000638 1285.60364 1514.55652
1586.0 0.000631 1283.33936 1516.26672
1582.0 0.000631 1281.10449 1521.57678
1589.0 0.000628 1278.89905 1531.15186
1713.0 0.000583 1276.72437 1545.15979
1658.0 0.000604 1274.58276 1563.33838
1636.0 0.000613 1272.47498 1584.95496
1670.0 0.000598 1270.40259 1608.81909
1706.0 0.000586 1268.36694 1633.35156
1694.0 0.000589 1266.36926 1656.82275
1658.0 0.000604 1264.41150 1677.23486
1804.0 0.000554 1262.49365 1693.14587
1717.0 0.000583 1260.61865 1703.58435
1785.0 0.000562 1258.78625 1708.26086
1824.0 0.000548 1256.99927 1707.55493
1792.0 0.000559 1255.25793 1702.44409
1841.0 0.000543 1253.56421 1693.95300
1762.0 0.000567 1251.91943 1683.44507
1762.0 0.000567 1250.32446 1672.08521
1699.0 0.000589 1248.78027 1660.74744
1704.0 0.000586 1247.28894 1649.91064
1668.0 0.000601 1245.85132 1639.28235
1653.0 0.000604 1244.46899 1629.24976
1687.0 0.000592 1243.14233 1619.12390
1673.0 0.000598 1241.87317 1607.77246
1663.0 0.000601 1240.66235 1594.81885
1642.0 0.000610 1239.51086 1579.85901
1624.0 0.000616 1238.42017 1562.78979
1609.0 0.000622 1237.39087 1543.84790
1605.0 0.000622 1236.42407 1523.61353
1525.0 0.000654 1235.52063 1502.47534
1490.0 0.000671 1234.68188 1482.30762
1491.0 0.000671 1233.90820 1463.66406
1547.0 0.000647 1233.20068 1446.31299
1557.0 0.000641 1232.55957 1431.47278
1518.0 0.000657 1231.98608 1419.25464
1440.0 0.000696 1231.48083 1409.76782
1425.0 0.000704 1231.04370 1403.34424
1391.0 0.000719 1230.67578 1398.70190
1377.0 0.000727 1230.37781 1395.87891
1346.0 0.000742 1230.14917 1394.20325
1377.0 0.000727 1229.99048 1393.22412
1303.0 0.000767 1229.90271 1392.61255
1288.0 0.000776 1229.88464 1392.16113
1288.0 0.000776 1229.93726 1391.80298
1308.0 0.000763 1230.06006 1391.77197
1328.0 0.000755 1230.25256 1392.34216
1322.0 0.000755 1230.51526 1393.78723
1309.0 0.000763 1230.84692 1396.31165
1330.0 0.000751 1231.24792 1399.99744
1326.0 0.000755 1231.71692 1404.79529
1380.0 0.000727 1232.25330 1410.87659
1359.0 0.000734 1232.85596 1417.31482
1326.0 0.000755 1233.52393 1424.15967
1379.0 0.000727 1234.25659 1431.02429
1394.0 0.000719 1235.05188 1437.69482
1401.0 0.000715 1235.90869 1444.19971
1456.0 0.000685 1236.82581 1450.21277
1433.0 0.000696 1237.80054 1455.98767
1449.0 0.000689 1238.83167 1461.68213
1468.0 0.000682 1239.91699 1466.09949
1511.0 0.000661 1241.05334 1472.31897
1511.0 0.000661 1242.23914 1478.44116
1461.0 0.000685 1243.47131 1484.61353
1435.0 0.000696 1244.74731 1490.93225
1433.0 0.000696 1246.06335 1496.77222
1469.0 0.000682 1247.41650 1502.06604
1484.0 0.000675 1248.80334 1506.73608
1470.0 0.000682 1250.21985 1510.67273
1465.0 0.000682 1251.66211 1513.78625
1460.0 0.000685 1253.12524 1516.00659
1466.0 0.000682 1254.60596 1517.29834
1468.0 0.000682 1256.09827 1517.68359
1432.0 0.000700 1257.59753 1517.26245
1446.0 0.000693 1259.09875 1516.19873
1480.0 0.000675 1260.59521 1514.73022
1499.0 0.000668 1262.08215 1512.92419
1463.0 0.000685 1263.55225 1511.10828
1499.0 0.000668 1264.99963 1509.04517
1489.0 0.000671 1266.41711 1507.31738
1529.0 0.000654 1267.79749 1505.27698
1558.0 0.000641 1269.13293 1503.29041
1527.0 0.000654 1270.41541 1501.55762
1561.0 0.000641 1271.63708 1500.23376
1578.0 0.000634 1272.78857 1499.44617
1564.0 0.000641 1273.86121 1499.25500
1559.0 0.000641 1274.84509 1499.91882
1592.0 0.000628 1275.73022 1500.69373
1566.0 0.000638 1276.50647 1501.55542
1518.0 0.000657 1277.16284 1502.06458
1553.0 0.000644 1277.68774 1501.71069
1577.0 0.000634 1278.06970 1500.01050
1508.0 0.000664 1278.29639 1496.62634
1489.0 0.000671 1278.35547 1492.71802
1483.0 0.000675 1278.23218 1485.96118
1501.0 0.000668 1277.91431 1477.86475
1488.0 0.000671 1277.38660 1468.84973
1467.0 0.000682 1276.63489 1459.72375
1415.0 0.000707 1275.64282 1450.20007
1412.0 0.000707 1274.39465 1440.96216
1367.0 0.000730 1272.87415 1431.31543
1409.0 0.000711 1271.06299 1423.46594
1487.0 0.000671 1268.94446 1416.56641
1441.0 0.000693 1266.49878 1410.71008
1437.0 0.000696 1263.70728 1405.93677
1438.0 0.000696 1260.55042 1402.23486
1405.0 0.000711 1257.00720 1399.56604
1397.0 0.000715 1253.05640 1397.89465
1416.0 0.000707 1248.67468 1397.22083
1451.0 0.000689 1243.84009 1397.61194
1437.0 0.000696 1238.53003 1399.21191
1470.0 0.000682 1232.71899 1402.30676
1539.0 0.000651 1226.38147 1406.98511
1478.0 0.000678 1219.49170 1413.75769
1456.0 0.000685 1212.02148 1421.86499
1438.0 0.000696 1203.94617 1431.44409
1454.0 0.000689 1195.23291 1441.99805
1428.0 0.000700 1185.85559 1452.63098
1449.0 0.000689 1175.78149 1462.56555
1410.0 0.000711 1164.97827 1470.00134
1380.0 0.000727 1153.41638 1474.61768
1372.0 0.000730 1141.05823 1474.74854
1396.0 0.000715 1127.87366 1469.48315
1327.0 . . .
1327.0 . . .
1355.0 . . .
1405.0 . . .
1362.0 . . .
1325.0 . . .
1360.0 . . .
1300.0 . . .
1267.0 . . .
1275.0 . . .
1348.0 . . .
1406.0 . . .
1333.0 . . .
1345.0 . . .
1303.0 . . .
1421.0 . . .
1436.0 . . .
1409.0 . . .
1447.0 . . .
1472.0 . . .
1486.0 . . .
1415.0 . . .
1387.0 . . .
1437.0 . . .
1409.0 . . .
1383.0 . . .
1409.0 . . .
1369.0 . . .
1385.0 . . .
1294.0 . . .
1372.0 . . .
1372.0 . . .
1408.0 . . .
1424.0 . . .
1490.0 . . .
1430.0 . . .
1470.0 . . .
1418.0 . . .
1408.0 . . .
1460.0 . . .
1447.0 . . .
1472.0 . . .
1408.0 . . .
1549.0 . . .
1509.0 . . .
1609.0 . . .
1524.0 . . .
1553.0 . . .
1500.0 . . .
1495.0 . . .
1525.0 . . .
1547.0 . . .
1485.0 . . .
1542.0 . . .
1528.0 . . .
1581.0 . . .
1561.0 . . .
1674.0 . . .
1628.0 . . .
1692.0 . . .
1710.0 . . .
1669.0 . . .
1673.0 . . .
1699.0 . . .
1711.0 . . .
1640.0 . . .
1589.0 . . .
1524.0 . . .
1581.0 . . .
1569.0 . . .
1482.0 . . .
1500.0 . . .
1410.0 . . .
1479.0 . . .
1427.0 . . .
1489.0 . . .
1456.0 . . .
1430.0 . . .
1395.0 . . .
1394.0 . . .
1347.0 . . .
1384.0 . . .
1410.0 . . .
1347.0 . . .
1405.0 . . .
1360.0 . . .
1419.0 . . .
1293.0 . . .
1326.0 . . .
1280.0 . . .
1341.0 . . .
1321.0 . . .
1293.0 . . .
1325.0 . . .
1228.0 . . .
1288.0 . . .
1252.0 . . .
1285.0 . . .
1318.0 . . .
1286.0 . . .
1278.0 . . .
1325.0 . . .
1293.0 . . .
1346.0 . . .
1293.0 . . .
1327.0 . . .
1303.0 . . .
1375.0 . . .
1363.0 . . .
1430.0 . . .
1372.0 . . .
1366.0 . . .
1438.0 . . .
1477.0 . . .
1377.0 . . .
1399.0 . . .
1419.0 . . .
1441.0 . . .
1450.0 . . .
1497.0 . . .
1501.0 . . .
1465.0 . . .
1541.0 . . .
1519.0 . . .
1474.0 . . .
1583.0 . . .
1580.0 . . .
1534.0 . . .
1546.0 . . .
1579.0 . . .
1482.0 . . .
1526.0 . . .
1554.0 . . .
1529.0 . . .
1477.0 . . .
1446.0 . . .
1457.0 . . .
1423.0 . . .
1461.0 . . .
1443.0 . . .
1395.0 . . .
1504.0 . . .
1513.0 . . .
1506.0 . . .
1479.0 . . .
1408.0 . . .
1496.0 . . .
1541.0 . . .
1489.0 . . .
1467.0 . . .
1508.0 . . .
1533.0 . . .
1551.0 . . .
1505.0 . . .
1480.0 . . .
1626.0 . . .
1647.0 . . .
1635.0 . . .
1657.0 . . .
1734.0 . . .
1773.0 . . .
1789.0 . . .
1857.0 . . .
1796.0 . . .
1868.0 . . .
1877.0 . . .
1867.0 . . .
1825.0 . . .
1922.0 . . .
1971.0 . . .
2011.0 . . .
2001.0 . . .
1934.0 . . .
1984.0 . . .
1869.0 . . .
1829.0 . . .
1858.0 . . .
1795.0 . . .
1741.0 . . .
1758.0 . . .
1803.0 . . .
1766.0 . . .
1701.0 . . .
1667.0 . . .
1722.0 . . .
1707.0 . . .
1680.0 . . .
1676.0 . . .
1626.0 . . .
1586.0 . . .
1608.0 . . .
1566.0 . . .
1573.0 . . .
1571.0 . . .
1524.0 . . .
1638.0 . . .
1649.0 . . .
1627.0 . . .
1661.0 . . .
1648.0 . . .
1610.0 . . .
1731.0 . . .
1761.0 . . .
1737.0 . . .
1828.0 . . .
1686.0 . . .
1694.0 . . .
1603.0 . . .
1530.0 . . .
1547.0 . . .
1559.0 . . .
1544.0 . . .
1496.0 . . .
1537.0 . . .
1597.0 . . .
1560.0 . . .
1586.0 . . .
1590.0 . . .
1644.0 . . .
1656.0 . . .
1631.0 . . .
1610.0 . . .
1616.0 . . .
1646.0 . . .
1637.0 . . .
1596.0 . . .
1573.0 . . .
1599.0 . . .
1645.0 . . .
1665.0 . . .
1580.0 . . .
1674.0 . . .
1695.0 . . .
1674.0 . . .
1690.0 . . .
1709.0 . . .
1699.0 . . .
1714.0 . . .
1798.0 . . .
1812.0 . . .
1807.0 . . .
1793.0 . . .
1811.0 . . .
1876.0 . . .
1904.0 . . .
1929.0 . . .
1886.0 . . .
1972.0 . . .
1969.0 . . .
1891.0 . . .
1809.0 . . .
1745.0 . . .
1742.0 . . .
1754.0 . . .
1769.0 . . .
1672.0 . . .
1684.0 . . .
1632.0 . . .
1585.0 . . .
1603.0 . . .
1570.0 . . .
1565.0 . . .
1516.0 . . .
1479.0 . . .
1477.0 . . .
1430.0 . . .
1364.0 . . .
1336.0 . . .
1362.0 . . .
1391.0 . . .
1405.0 . . .
1411.0 . . .
1408.0 . . .
1441.0 . . .
1508.0 . . .
1506.0 . . .
1557.0 . . .
1595.0 . . .
1629.0 . . .
1721.0 . . .
1663.0 . . .
1657.0 . . .
1699.0 . . .
1701.0 . . .
1672.0 . . .
1713.0 . . .
1820.0 . . .
1904.0 . . .
1987.0 . . .
2030.0 . . .
2183.0 . . .
2335.0 . . .
2342.0 . . .
2409.0 . . .
2508.0 . . .
2603.0 . . .
2580.0 . . .
2598.0 . . .
2604.0 . . .
2599.0 . . .
2579.0 . . .
2550.0 . . .
2489.0 . . .
2443.0 . . .
2374.0 . . .
2356.0 . . .
2292.0 . . .
2366.0 . . .
2306.0 . . .
2276.0 . . .
2283.0 . . .
2314.0 . . .
2243.0 . . .
2200.0 . . .
2167.0 . . .
2049.0 . . .
2019.0 . . .
1917.0 . . .
1910.0 . . .
1834.0 . . .
1748.0 . . .
1697.0 . . .
1694.0 . . .
1686.0 . . .
1627.0 . . .
1627.0 . . .
1687.0 . . .
1694.0 . . .
1682.0 . . .
1816.0 . . .
1771.0 . . .
1769.0 . . .
1758.0 . . .
1800.0 . . .
1729.0 . . .
1832.0 . . .
1802.0 . . .
1772.0 . . .
1862.0 . . .
1923.0 . . .
1973.0 . . .
2029.0 . . .
1977.0 . . .
2136.0 . . .
2151.0 . . .
2183.0 . . .
2179.0 . . .
2149.0 . . .
2197.0 . . .
2280.0 . . .
2182.0 . . .
2197.0 . . .
2269.0 . . .
2146.0 . . .
2119.0 . . .
2028.0 . . .
2020.0 . . .
1996.0 . . .
1933.0 . . .
1919.0 . . .
1868.0 . . .
1819.0 . . .
1788.0 . . .
1820.0 . . .
1862.0 . . .
1849.0 . . .
1845.0 . . .
1882.0 . . .
1905.0 . . .
1873.0 . . .
1916.0 . . .
1911.0 . . .
1985.0 . . .
2046.0 . . .
1938.0 . . .
1930.0 . . .
1921.0 . . .
1926.0 . . .
1949.0 . . .
1897.0 . . .
1840.0 . . .
1824.0 . . .
1858.0 . . .
1865.0 . . .
1831.0 . . .
1839.0 . . .
1849.0 . . .
1883.0 . . .
1890.0 . . .
1880.0 . . .
1884.0 . . .
1835.0 . . .
1768.0 . . .
1829.0 . . .
1888.0 . . .
1850.0 . . .
1788.0 . . .
1800.0 . . .
1779.0 . . .
1740.0 . . .
1749.0 . . .
1744.0 . . .
1753.0 . . .
1805.0 . . .
1883.0 . . .
1790.0 . . .
1786.0 . . .
1739.0 . . .
1680.0 . . .
1695.0 . . .
1700.0 . . .
1652.0 . . .
1678.0 . . .
1709.0 . . .
1650.0 . . .
1710.0 . . .
1678.0 . . .
1718.0 . . .
1816.0 . . .
1802.0 . . .
1828.0 . . .
1838.0 . . .
1869.0 . . .
1792.0 . . .
1720.0 . . .
1734.0 . . .
1817.0 . . .
1818.0 . . .
1870.0 . . .
1974.0 . . .
2036.0 . . .
2053.0 . . .
2004.0 . . .
2000.0 . . .
1970.0 . . .
1952.0 . . .
1980.0 . . .
1946.0 . . .
1901.0 . . .
1827.0 . . .
1792.0 . . .
1745.0 . . .
1682.0 . . .
1628.0 . . .
1622.0 . . .
1627.0 . . .
1662.0 . . .
1649.0 . . .
1580.0 . . .
1530.0 . . .
1521.0 . . .
1571.0 . . .
1519.0 . . .
1490.0 . . .
1514.0 . . .
1491.0 . . .
1515.0 . . .
1452.0 . . .
1483.0 . . .
1505.0 . . .
1515.0 . . .
1506.0 . . .
1596.0 . . .
1646.0 . . .
1621.0 . . .
1678.0 . . .
1778.0 . . .
1767.0 . . .
1833.0 . . .
1890.0 . . .
1857.0 . . .
1890.0 . . .
1863.0 . . .
1932.0 . . .
1938.0 . . .
1892.0 . . .
2039.0 . . .
1979.0 . . .
2020.0 . . .
2073.0 . . .
2030.0 . . .
2019.0 . . .
2027.0 . . .
1991.0 . . .
2006.0 . . .
1970.0 . . .
2015.0 . . .
1928.0 . . .
1980.0 . . .
1922.0 . . .
1884.0 . . .
1812.0 . . .
1748.0 . . .
1775.0 . . .
1805.0 . . .
1788.0 . . .
1753.0 . . .
1795.0 . . .
1716.0 . . .
1691.0 . . .
1693.0 . . .
1695.0 . . .
1648.0 . . .
1622.0 . . .
1615.0 . . .
1469.0 . . .
1448.0 . . .
1435.0 . . .
1471.0 . . .
1492.0 . . .
1470.0 . . .
1473.0 . . .
1481.0 . . .
1479.0 . . .
1526.0 . . .
1548.0 . . .
1459.0 . . .
1444.0 . . .
1508.0 . . .
1569.0 . . .
1574.0 . . .
1520.0 . . .
1588.0 . . .
1625.0 . . .
1552.0 . . .
1560.0 . . .
1570.0 . . .
1561.0 . . .
1605.0 . . .
1717.0 . . .
1692.0 . . .
1697.0 . . .
1705.0 . . .
1729.0 . . .
1723.0 . . .
1781.0 . . .
1783.0 . . .
1806.0 . . .
1893.0 . . .
1815.0 . . .
1832.0 . . .
1827.0 . . .
1900.0 . . .
1908.0 . . .
1887.0 . . .
1870.0 . . .
1869.0 . . .
1877.0 . . .
1808.0 . . .
1775.0 . . .
1770.0 . . .
1762.0 . . .
1727.0 . . .
1800.0 . . .
1850.0 . . .
1903.0 . . .
1914.0 . . .
1837.0 . . .
1809.0 . . .
1962.0 . . .
1938.0 . . .
1920.0 . . .
1871.0 . . .
1802.0 . . .
1855.0 . . .
1795.0 . . .
1819.0 . . .
1844.0 . . .
1880.0 . . .
1845.0 . . .
1771.0 . . .
1802.0 . . .
1803.0 . . .
1836.0 . . .
1812.0 . . .
1856.0 . . .
1943.0 . . .
1936.0 . . .
1995.0 . . .
1962.0 . . .
2026.0 . . .
2011.0 . . .
2111.0 . . .
2016.0 . . .
2044.0 . . .
2070.0 . . .
2029.0 . . .
2081.0 . . .
1991.0 . . .
1943.0 . . .
1852.0 . . .
1921.0 . . .
1876.0 . . .
1847.0 . . .
1851.0 . . .
1843.0 . . .
1774.0 . . .
1780.0 . . .
1881.0 . . .
1765.0 . . .
1704.0 . . .
1824.0 . . .
1727.0 . . .
1822.0 . . .
1911.0 . . .
1844.0 . . .
1834.0 . . .
1842.0 . . .
1872.0 . . .
1794.0 . . .
1806.0 . . .
1829.0 . . .
1831.0 . . .
1827.0 . . .
1843.0 . . .
1846.0 . . .
1937.0 . . .
1812.0 . . .
1830.0 . . .
1898.0 . . .
1821.0 . . .
1885.0 . . .
1920.0 . . .
1957.0 . . .
1890.0 . . .
1883.0 . . .
1928.0 . . .
1916.0 . . .
1928.0 . . .
1888.0 . . .
1914.0 . . .
1950.0 . . .
1887.0 . . .
1860.0 . . .
1928.0 . . .
1858.0 . . .
1853.0 . . .
1775.0 . . .
1802.0 . . .
1811.0 . . .
1793.0 . . .
1790.0 . . .
1725.0 . . .
1741.0 . . .
1691.0 . . .
1673.0 . . .
1617.0 . . .
1700.0 . . .
1661.0 . . .
1525.0 . . .
1533.0 . . .
1514.0 . . .
1453.0 . . .
1506.0 . . .
1486.0 . . .
1557.0 . . .
1565.0 . . .
1541.0 . . .
1539.0 . . .
1531.0 . . .
1534.0 . . .
1577.0 . . .
1567.0 . . .
1580.0 . . .
1559.0 . . .
1565.0 . . .
1601.0 . . .
1601.0 . . .
1626.0 . . .
1665.0 . . .
1713.0 . . .
1696.0 . . .
1732.0 . . .
1770.0 . . .
1756.0 . . .
1810.0 . . .
1826.0 . . .
1748.0 . . .
1778.0 . . .
1855.0 . . .
1916.0 . . .
1939.0 . . .
1863.0 . . .
1830.0 . . .
1831.0 . . .
1853.0 . . .
1824.0 . . .
1764.0 . . .
1749.0 . . .
1812.0 . . .
1780.0 . . .
1801.0 . . .
1803.0 . . .
1819.0 . . .
1813.0 . . .
1832.0 . . .
1819.0 . . .
1886.0 . . .
1845.0 . . .
1821.0 . . .
1828.0 . . .
1890.0 . . .
1908.0 . . .
1897.0 . . .
1756.0 . . .
2021.0 . . .
2028.0 . . .
1984.0 . . .
2034.0 . . .
2061.0 . . .
2112.0 . . .
2060.0 . . .
1991.0 . . .
2020.0 . . .
1968.0 . . .
2040.0 . . .
2017.0 . . .
1994.0 . . .
2041.0 . . .
2018.0 . . .
1982.0 . . .
1965.0 . . .
2027.0 . . .
2017.0 . . .
1932.0 . . .
1971.0 . . .
1964.0 . . .
1906.0 . . .
1935.0 . . .
1859.0 . . .
1931.0 . . .
1769.0 . . .
1819.0 . . .
1788.0 . . .
1762.0 . . .
1713.0 . . .
1710.0 . . .
1659.0 . . .
1713.0 . . .
1675.0 . . .
1699.0 . . .
1690.0 . . .
1642.0 . . .
1710.0 . . .
1686.0 . . .
1708.0 . . .
1734.0 . . .
1769.0 . . .
1849.0 . . .
1847.0 . . .
1877.0 . . .
1854.0 . . .
1736.0 . . .
1750.0 . . .
1829.0 . . .
1811.0 . . .
1775.0 . . .
1775.0 . . .
1757.0 . . .
1722.0 . . .
1733.0 . . .
1689.0 . . .
1684.0 . . .
1784.0 . . .
1710.0 . . .
1752.0 . . .
1712.0 . . .
1726.0 . . .
1694.0 . . .
1775.0 . . .
1792.0 . . .
1751.0 . . .
1766.0 . . .
1731.0 . . .
1723.0 . . .
1722.0 . . .
1680.0 . . .
1767.0 . . .
1686.0 . . .
1694.0 . . .
1656.0 . . .
1748.0 . . .
1717.0 . . .
1689.0 . . .
1624.0 . . .
1647.0 . . .
1605.0 . . .
1713.0 . . .
1722.0 . . .
1678.0 . . .
1693.0 . . .
1739.0 . . .
1738.0 . . .
1705.0 . . .
1732.0 . . .
1714.0 . . .
1721.0 . . .
1824.0 . . .
1773.0 . . .
1704.0 . . .
1772.0 . . .
1815.0 . . .
1818.0 . . .
1823.0 . . .
1831.0 . . .
1754.0 . . .
1824.0 . . .
1767.0 . . .
1691.0 . . .
1810.0 . . .
1796.0 . . .
1723.0 . . .
1674.0 . . .
1801.0 . . .
1823.0 . . .
1722.0 . . .
1705.0 . . .
1762.0 . . .
1758.0 . . .
1747.0 . . .
1713.0 . . .
1784.0 . . .
1709.0 . . .
1699.0 . . .
1686.0 . . .
1726.0 . . .
1751.0 . . .
1718.0 . . .
1767.0 . . .
1794.0 . . .
1749.0 . . .
1652.0 . . .
1638.0 . . .
1713.0 . . .
1687.0 . . .
1703.0 . . .
1611.0 . . .
1627.0 . . .
1657.0 . . .
1658.0 . . .
1703.0 . . .
1617.0 . . .
1621.0 . . .
1693.0 . . .
1714.0 . . .
1697.0 . . .
1722.0 . . .
1743.0 . . .
1717.0 . . .
1651.0 . . .
1710.0 . . .
1716.0 . . .
1746.0 . . .
1749.0 . . .
1718.0 . . .
1715.0 . . .
1782.0 . . .
1771.0 . . .
1718.0 . . .
1708.0 . . .
1776.0 . . .
1791.0 . . .
1801.0 . . .
1804.0 . . .
1826.0 . . .
1815.0 . . .
1839.0 . . .
1866.0 . . .
1939.0 . . .
1933.0 . . .
1888.0 . . .
1905.0 . . .
1968.0 . . .
1994.0 . . .
1941.0 . . .
1956.0 . . .
2007.0 . . .
1974.0 . . .
1978.0 . . .
2122.0 . . .
1927.0 . . .
1974.0 . . .
1972.0 . . .
1966.0 . . .
1993.0 . . .
1965.0 . . .
1988.0 . . .
1977.0 . . .
1980.0 . . .
1985.0 . . .
1938.0 . . .
1970.0 . . .
1992.0 . . .
1982.0 . . .
2014.0 . . .
1970.0 . . .
1944.0 . . .
1913.0 . . .
1825.0 . . .
1820.0 . . .
1803.0 . . .
1764.0 . . .
1742.0 . . .
1653.0 . . .
1797.0 . . .
1593.0 . . .
1646.0 . . .
1591.0 . . .
1610.0 . . .
1603.0 . . .
1510.0 . . .
1495.0 . . .
1492.0 . . .
1462.0 . . .
1544.0 . . .
1479.0 . . .
1509.0 . . .
1466.0 . . .
1452.0 . . .
1425.0 . . .
1504.0 . . .
1499.0 . . .
1449.0 . . .
1414.0 . . .
1435.0 . . .
1503.0 . . .
1499.0 . . .
1424.0 . . .
1466.0 . . .
1484.0 . . .
1485.0 . . .
1482.0 . . .
1478.0 . . .
1480.0 . . .
1499.0 . . .
1526.0 . . .
1519.0 . . .
1571.0 . . .
1586.0 . . .
1541.0 . . .
1565.0 . . .
1609.0 . . .
1603.0 . . .
1619.0 . . .
1640.0 . . .
1650.0 . . .
1644.0 . . .
1697.0 . . .
1689.0 . . .
1681.0 . . .
1670.0 . . .
1650.0 . . .
1729.0 . . .
1700.0 . . .
1744.0 . . .
1818.0 . . .
1732.0 . . .
1810.0 . . .
1795.0 . . .
1770.0 . . .
1734.0 . . .
1770.0 . . .
1773.0 . . .
1803.0 . . .
1842.0 . . .
1820.0 . . .
1776.0 . . .
1802.0 . . .
1884.0 . . .
1895.0 . . .
1878.0 . . .
1861.0 . . .
1825.0 . . .
1847.0 . . .
1873.0 . . .
1904.0 . . .
1870.0 . . .
1861.0 . . .
1869.0 . . .
1878.0 . . .
1929.0 . . .
1951.0 . . .
1902.0 . . .
1908.0 . . .
1852.0 . . .
1862.0 . . .
1859.0 . . .
1906.0 . . .
1819.0 . . .
1890.0 . . .
1910.0 . . .
1877.0 . . .
1817.0 . . .
1831.0 . . .
1814.0 . . .
1836.0 . . .
1830.0 . . .
1775.0 . . .
1752.0 . . .
1750.0 . . .
1758.0 . . .
1703.0 . . .
1744.0 . . .
1699.0 . . .
1758.0 . . .
1703.0 . . .
1705.0 . . .
1704.0 . . .
1666.0 . . .
1643.0 . . .
1677.0 . . .
1675.0 . . .
1688.0 . . .
1717.0 . . .
1725.0 . . .
1768.0 . . .
1694.0 . . .
1718.0 . . .
1745.0 . . .
1762.0 . . .
1777.0 . . .
1810.0 . . .
1815.0 . . .
1759.0 . . .
1766.0 . . .
1833.0 . . .
1836.0 . . .
1820.0 . . .
1826.0 . . .
1818.0 . . .
1851.0 . . .
1880.0 . . .
1928.0 . . .
1939.0 . . .
1918.0 . . .
1980.0 . . .
1927.0 . . .
1934.0 . . .
1980.0 . . .
2056.0 . . .
2016.0 . . .
1992.0 . . .
2019.0 . . .
2075.0 . . .
2088.0 . . .
2047.0 . . .
2027.0 . . .
2005.0 . . .
2050.0 . . .
2010.0 . . .
2028.0 . . .
2050.0 . . .
2011.0 . . .
2022.0 . . .
2162.0 . . .
1961.0 . . .
1979.0 . . .
1989.0 . . .
1920.0 . . .
1928.0 . . .
1898.0 . . .
1875.0 . . .
1868.0 . . .
1910.0 . . .
1927.0 . . .
1948.0 . . .
1871.0 . . .
1830.0 . . .
1928.0 . . .
1928.0 . . .
1896.0 . . .
1859.0 . . .
1867.0 . . .
1854.0 . . .
1852.0 . . .
1864.0 . . .
1865.0 . . .
1897.0 . . .
1850.0 . . .
1899.0 . . .
1787.0 . . .
1811.0 . . .
1738.0 . . .
1696.0 . . .
1740.0 . . .
1758.0 . . .
1743.0 . . .
1741.0 . . .
1746.0 . . .
1760.0 . . .
1784.0 . . .
1775.0 . . .
1767.0 . . .
1766.0 . . .
1778.0 . . .
1767.0 . . .
1795.0 . . .
1845.0 . . .
1830.0 . . .
1826.0 . . .
1823.0 . . .
1831.0 . . .
1818.0 . . .
1801.0 . . .
1822.0 . . .
1868.0 . . .
1838.0 . . .
1890.0 . . .
1873.0 . . .
1850.0 . . .
1864.0 . . .
1835.0 . . .
1816.0 . . .
1857.0 . . .
1872.0 . . .
1875.0 . . .
1852.0 . . .
1875.0 . . .
1878.0 . . .
1871.0 . . .
1861.0 . . .
1815.0 . . .
1830.0 . . .
1803.0 . . .
1805.0 . . .
1783.0 . . .
1833.0 . . .
1837.0 . . .
1787.0 . . .
1804.0 . . .
1717.0 . . .
1724.0 . . .
1698.0 . . .
1701.0 . . .
1716.0 . . .
1696.0 . . .
1652.0 . . .
1709.0 . . .
1771.0 . . .
1731.0 . . .
1705.0 . . .
1654.0 . . .
1692.0 . . .
1687.0 . . .
1735.0 . . .
1746.0 . . .
1648.0 . . .
1693.0 . . .
1715.0 . . .
1689.0 . . .
1703.0 . . .
1749.0 . . .
1709.0 . . .
1688.0 . . .
1743.0 . . .
1754.0 . . .
1760.0 . . .
1761.0 . . .
1748.0 . . .
1694.0 . . .
1716.0 . . .
1732.0 . . .
1734.0 . . .
1781.0 . . .
1791.0 . . .
1735.0 . . .
1675.0 . . .
1666.0 . . .
1719.0 . . .
1721.0 . . .
1755.0 . . .
1721.0 . . .
1690.0 . . .
1654.0 . . .
1669.0 . . .
1749.0 . . .
1691.0 . . .
1638.0 . . .
1651.0 . . .
1648.0 . . .
1690.0 . . .
1694.0 . . .
1692.0 . . .
1620.0 . . .
1660.0 . . .
1668.0 . . .
1637.0 . . .
1676.0 . . .
1672.0 . . .
1662.0 . . .
1645.0 . . .
1646.0 . . .
1643.0 . . .
1701.0 . . .
1718.0 . . .
1762.0 . . .
1730.0 . . .
1677.0 . . .
1656.0 . . .
1694.0 . . .
1763.0 . . .
1725.0 . . .
1741.0 . . .
1749.0 . . .
1755.0 . . .
1798.0 . . .
1796.0 . . .
1840.0 . . .
1781.0 . . .
1759.0 . . .
1816.0 . . .
1794.0 . . .
1774.0 . . .
1813.0 . . .
1824.0 . . .
1811.0 . . .
1838.0 . . .
1797.0 . . .
1800.0 . . .
1811.0 . . .
1781.0 . . .
1761.0 . . .
1803.0 . . .
1793.0 . . .
1798.0 . . .
1820.0 . . .
1863.0 . . .
1832.0 . . .
1871.0 . . .
1832.0 . . .
1848.0 . . .
1871.0 . . .
1855.0 . . .
1806.0 . . .
1812.0 . . .
1805.0 . . .
1835.0 . . .
1788.0 . . .
1819.0 . . .
1850.0 . . .
1912.0 . . .
1874.0 . . .
1825.0 . . .
1819.0 . . .
1849.0 . . .
1842.0 . . .
1854.0 . . .
1782.0 . . .
1886.0 . . .
1827.0 . . .
1757.0 . . .
1797.0 . . .
1793.0 . . .
1835.0 . . .
1825.0 . . .
1102.0 . . .
1089.0 . . .
1109.0 . . .
1081.0 . . .
1101.0 . . .
1137.0 . . .
1065.0 . . .
1110.0 . . .
1066.0 . . .
1054.0 . . .
1022.0 . . .
1156.0 . . .
1053.0 . . .
1073.0 . . .
1068.0 . . .
1071.0 . . .
1069.0 . . .
1118.0 . . .
1067.0 . . .
1054.0 . . .
1021.0 . . .
1051.0 . . .
1031.0 . . .
995.0 . . .
loop_
_refln_index_h
_refln_index_k
_refln_index_l
_refln_observed_status
_refln_F_squared_meas
_refln_F_squared_calc
_refln_phase_calc
_refln_d_spacing
_gsas_i100_meas
1 0 1 o 3.887 3.769 51.71 5.22219 8.79
0 1 1 o 0.597 0.585 73.43 7.98401 3.13
0 2 0 o 3.599 3.508 0.00 6.20323 5.72
1 1 1 o 13.634 13.536 -107.33 4.81317 52.49
1 1 0 o 0.947 1.039 90.00 5.42528 2.31
0 2 1 o 1.420 1.416 77.89 5.33167 3.34
0 0 2 o 3.761 3.265 138.77 5.21548 4.24
1 1 2 o 2.569 2.543 -175.16 3.75988 6.09
0 1 2 o 16.290 15.970 -69.93 4.80792 31.29
1 2 1 o 4.853 5.019 -18.78 3.99501 12.96
0 3 0 o 20.056 19.474 0.00 4.13549 14.32
1 2 0 o 0.628 0.578 90.00 4.32478 0.98
0 2 2 o 2.829 3.011 -87.67 3.99201 3.77
0 3 1 o 0.465 0.513 74.63 3.84438 0.58
1 2 2 o 0.895 0.801 119.54 3.32911 1.68
1 0 3 o 31.521 33.057 157.17 3.01245 24.33
1 3 0 o 2.593 2.560 -90.00 3.41097 2.54
1 3 1 o 12.209 12.026 1.88 3.24203 21.71
1 1 3 o 0.518 0.495 128.71 2.92739 0.76
0 1 3 o 2.754 2.380 -94.35 3.34799 2.61
0 4 0 o 0.092 0.103 180.00 3.10162 0.04
0 3 2 o 0.156 0.156 -84.55 3.24043 0.14
2 1 1 o 0.444 0.341 39.13 2.82167 0.60
2 0 2 o 29.818 29.528 -128.73 2.61109 17.52
1 3 2 o 2.076 1.650 157.05 2.85466 2.89
0 2 3 o 1.922 2.154 -95.87 3.03303 1.50
2 0 0 o 45.273 48.884 0.00 3.01633 17.51
0 4 1 o 1.713 1.812 147.48 2.97297 1.29
1 2 3 o 4.552 4.111 163.43 2.70982 5.74
2 1 0 o 0.602 0.604 0.00 2.93095 0.44
2 1 2 o 9.023 9.382 159.02 2.55512 10.17
2 2 1 o 0.156 0.150 120.94 2.62532 0.18
1 4 0 o 1.250 0.889 90.00 2.75839 0.81
1 4 1 o 3.552 3.675 -94.74 2.66673 4.34
2 2 0 o 0.455 0.415 0.00 2.71264 0.29
0 4 2 o 16.401 17.185 -52.06 2.66583 10.02
0 3 3 o 3.246 3.385 -38.52 2.66134 1.98
2 2 2 o 38.948 39.772 40.90 2.40659 39.24
0 0 4 o 15.750 15.696 85.91 2.60774 4.61
1 1 4 o 4.582 4.427 159.61 2.35033 4.42
0 1 4 o 3.937 4.199 -136.20 2.55197 2.21
0 5 0 o 33.507 37.694 180.00 2.48129 8.94
1 3 3 o 3.184 3.499 -158.41 2.43492 3.28
2 1 3 o 1.465 1.335 -88.17 2.24097 1.29
2 3 1 o 4.495 4.446 77.61 2.37307 4.41
1 4 2 o 1.632 1.830 -128.47 2.43837 1.69
2 3 0 o 1.053 1.197 180.00 2.43697 0.54
0 5 1 o 13.832 14.203 159.48 2.41394 7.01
0 2 4 o 45.090 45.706 -58.57 2.40396 22.67
1 2 4 o 8.483 8.167 -141.98 2.23318 7.44
2 3 2 o 116.493 111.640 -157.34 2.20784 100.00
1 5 0 o 4.414 3.210 90.00 2.29476 2.03
2 2 3 o 4.438 4.276 -40.21 2.13875 3.59
0 4 3 o 3.877 3.289 -146.52 2.31455 1.82
1 5 1 o 1.244 1.232 -23.35 2.24117 1.10
0 5 2 o 4.882 4.852 -110.31 2.24064 2.15
2 0 4 o 2.278 2.504 -161.65 1.97271 0.80
0 3 4 o 106.677 103.364 148.24 2.20581 45.71
1 4 3 o 17.126 15.753 -25.76 2.16096 14.13
2 4 1 o 4.951 5.604 151.38 2.11737 3.94
2 4 0 o 43.730 39.664 180.00 2.16239 18.06
1 3 4 o 0.096 0.092 -80.88 2.07167 0.07
2 1 4 o 3.786 4.003 82.71 1.94824 2.59
2 3 3 o 1.298 1.442 -146.65 1.99561 0.93
0 6 0 o 112.601 105.906 0.00 2.06774 21.43
1 0 5 o 1.127 1.250 -72.41 1.97163 0.39
1 5 2 o 4.429 4.873 -17.61 2.10044 3.47
2 4 2 o 18.323 20.274 -40.57 1.99751 13.10
1 1 5 o 1.464 1.545 126.73 1.94719 1.00
3 0 1 o 0.302 0.337 85.92 1.97453 0.11
0 1 5 o 5.504 5.307 1.14 2.05731 2.08
3 1 1 o 2.478 2.606 -118.69 1.94999 1.70
0 6 1 o 5.118 6.459 -47.37 2.02828 1.88
2 2 4 o 10.121 10.740 141.22 1.87994 6.49
0 5 3 o 3.478 4.237 113.67 2.01973 1.27
0 4 4 o 21.883 24.056 28.61 1.99600 7.81
3 1 0 o 0.130 0.149 90.00 1.98498 0.05
1 6 0 o 0.349 0.354 -90.00 1.95603 0.12
0 2 5 o 8.850 10.444 -50.34 1.97736 3.11
3 1 2 o 1.218 1.315 -155.14 1.85516 0.76
3 2 1 o 5.611 5.897 -27.83 1.88151 3.61
1 2 5 o 4.334 4.615 64.14 1.87900 2.78
2 5 0 o 6.325 6.878 0.00 1.91624 2.10
1 6 1 o 5.275 5.587 -106.87 1.92252 3.52
0 6 2 o 7.929 8.415 -72.08 1.92219 2.65
2 5 1 o 0.967 0.994 -104.84 1.88470 0.62
1 5 3 o 13.450 14.541 -149.50 1.91524 8.92
3 2 0 o 1.692 1.848 90.00 1.91289 0.56
2 4 3 o 2.323 1.837 -121.79 1.83624 1.43
1 4 4 o 1.542 1.607 -43.58 1.89497 1.00
3 2 2 o 0.994 0.899 157.21 1.79590 0.59
3 0 3 o 43.448 29.348 160.90 1.74073 12.18
2 3 4 o 7.014 6.619 -176.01 1.78051 4.09
0 3 5 o 1.052 1.363 82.11 1.86261 0.33
2 5 2 o 27.635 25.134 109.45 1.79868 16.41
3 1 3 o 0.255 0.254 -145.31 1.72384 0.14
1 6 2 o 1.785 1.280 102.36 1.83146 1.09
3 3 1 o 6.319 6.032 10.51 1.78184 3.69
2 1 5 o 4.484 5.818 -1.48 1.69961 2.41
1 3 5 o 2.221 2.138 -56.02 1.77971 1.29
3 3 0 o 0.801 0.679 -90.00 1.80842 0.24
0 5 4 o 28.414 26.274 -116.46 1.79758 8.42
0 7 0 o 0.169 0.171 180.00 1.77235 0.02
3 3 2 o 2.057 2.897 157.40 1.70863 1.12
0 6 3 o 2.070 2.085 -119.74 1.77722 0.60
3 2 3 o 6.693 6.560 124.34 1.67599 3.52
0 7 1 o 3.830 2.193 -35.78 1.74731 1.08
2 2 5 o 6.582 5.946 -43.40 1.65370 3.38
0 0 6 o 8.629 4.766 -22.77 1.73849 1.21
0 4 5 o 1.163 0.852 43.43 1.73105 0.32
1 5 4 o 3.242 3.766 -94.99 1.72273 1.79
0 1 6 o 1.347 1.853 -132.87 1.72167 0.37
2 4 4 o 15.130 13.586 72.56 1.66456 7.86
1 7 0 o 0.326 0.470 90.00 1.70048 0.09
2 6 0 o 1.524 2.312 0.00 1.70548 0.41
2 5 3 o 3.465 3.509 85.55 1.67824 1.83
1 1 6 o 1.256 1.147 48.07 1.65557 0.65
1 6 3 o 2.711 4.038 -172.42 1.70478 1.47
2 6 1 o 0.559 0.643 -176.38 1.68314 0.30
3 4 1 o 11.200 9.864 -100.50 1.66565 5.83
3 4 0 o 0.583 0.758 90.00 1.68730 0.15
1 7 1 o 6.649 6.668 -139.68 1.67833 3.50
3 3 3 o 9.250 8.280 -135.37 1.60439 4.52
0 7 2 o 7.148 7.134 -41.20 1.67810 1.88
3 1 4 o 1.760 2.220 139.86 1.57946 0.84
0 2 6 o 4.529 4.084 3.07 1.67399 1.19
1 4 5 o 21.485 19.007 101.70 1.66390 11.16
3 4 2 o 2.692 2.373 -108.35 1.60537 1.32
1 2 6 o 5.064 4.696 105.59 1.61304 2.50
2 6 2 o 29.939 29.339 -79.63 1.62102 14.88
2 3 5 o 0.114 0.121 -44.53 1.58480 0.05
3 2 4 o 3.854 4.727 -143.83 1.54241 1.77
0 6 4 o 24.697 24.534 57.37 1.62021 6.13
1 7 2 o 0.371 0.360 155.36 1.61672 0.18
0 3 6 o 10.355 8.844 -30.06 1.60264 2.53
0 5 5 o 11.874 10.454 -154.21 1.59680 2.88
2 0 6 o 128.183 132.345 -11.82 1.50622 28.26
0 7 3 o 2.302 3.076 -47.25 1.57904 0.55
2 5 4 o 3.910 4.666 153.18 1.54416 1.79
3 4 3 o 9.145 10.562 -9.89 1.51800 4.08
3 5 1 o 3.002 3.465 23.32 1.54503 1.38
2 1 6 o 34.345 32.232 166.07 1.49524 14.97
0 8 0 o 7.419 8.415 0.00 1.55081 0.86
3 5 0 o 0.221 0.528 90.00 1.56227 0.05
1 3 6 o 0.116 0.133 -117.14 1.54891 0.05
1 6 4 o 2.559 6.057 7.78 1.56476 1.20
2 6 3 o 1.527 2.067 -117.47 1.53120 0.69
3 3 4 o 0.481 0.400 -104.25 1.48605 0.21
2 4 5 o 0.588 0.587 107.16 1.50138 0.26
1 5 5 o 3.220 3.814 -39.17 1.54364 1.48
2 7 0 o 2.282 3.157 180.00 1.52808 0.51
3 0 5 o 5.768 5.680 -71.56 1.44780 1.20
0 8 1 o 1.541 2.096 -32.31 1.53395 0.35
1 7 3 o 0.674 0.907 -9.86 1.52758 0.30
3 5 2 o 5.339 5.086 -5.79 1.49657 2.33
2 2 6 o 0.323 0.303 42.48 1.46369 0.14
2 7 1 o 3.609 3.803 19.18 1.51195 1.60
1 8 0 o 0.373 0.379 90.00 1.50197 0.08
0 4 6 o 5.198 5.831 144.38 1.51651 1.16
3 1 5 o 5.379 4.861 106.39 1.43804 2.21
4 1 1 o 0.034 0.026 110.51 1.48195 0.01
4 0 0 o 230.256 238.546 0.00 1.50816 25.43
4 0 2 o 2.944 2.948 104.45 1.44880 0.61
4 1 0 o 15.133 14.451 180.00 1.49714 3.30
1 8 1 o 3.769 3.096 50.09 1.48664 1.63
1 0 7 o 11.778 11.663 24.12 1.44666 2.44
0 8 2 o 4.728 3.870 -145.47 1.48649 1.02
2 7 2 o 19.013 17.196 -127.82 1.46644 8.04
0 1 7 o 3.937 2.792 -61.84 1.47950 0.84
4 1 2 o 6.436 5.796 -67.60 1.43903 2.64
4 2 1 o 0.667 0.696 107.02 1.45122 0.28
1 4 6 o 8.778 7.114 -1.52 1.47075 3.73
3 2 5 o 2.235 2.081 90.84 1.40991 0.89
1 1 7 o 13.296 11.707 -78.25 1.43692 5.45
0 6 5 o 1.429 1.227 88.94 1.46859 0.30
0 7 4 o 9.283 8.541 122.09 1.46584 1.96
4 2 0 o 0.063 0.058 0.00 1.46547 0.01
3 4 4 o 1.724 1.601 -19.70 1.41662 0.69
2 3 6 o 27.410 25.252 -6.26 1.41527 10.97
3 5 3 o 11.276 10.450 -155.89 1.42503 4.56
0 2 7 o 0.917 0.971 21.13 1.44892 0.19
4 2 2 o 0.988 0.900 -124.51 1.41084 0.39
2 6 4 o 6.833 6.213 64.58 1.42733 2.77
3 6 0 o 0.201 0.181 90.00 1.44159 0.04
1 8 2 o 8.589 8.034 3.22 1.44331 3.54
3 6 1 o 11.977 10.763 -110.40 1.42802 4.86
2 5 5 o 0.113 0.102 -170.01 1.41125 0.04
1 2 7 o 1.960 1.775 -5.37 1.40885 0.78
1 6 5 o 11.493 10.446 70.46 1.42692 4.66
4 1 3 o 0.781 0.744 -57.41 1.37509 0.30
1 7 4 o 1.819 1.695 100.98 1.42440 0.73
0 5 6 o 20.343 19.139 5.84 1.42380 4.11
4 3 1 o 0.469 0.504 76.34 1.40399 0.19
4 3 0 o 13.368 12.459 0.00 1.41688 2.68
0 8 3 o 3.980 3.683 107.96 1.41632 0.80
3 3 5 o 4.092 3.551 -22.08 1.36648 1.55
3 6 2 o 0.860 0.968 120.91 1.38949 0.33
2 7 3 o 3.132 4.046 -156.66 1.39894 1.23
0 3 7 o 1.264 1.578 10.93 1.40190 0.25
4 3 2 o 6.474 5.756 176.01 1.36732 2.46
4 2 3 o 0.668 0.735 -69.90 1.35043 0.25
0 9 0 o 3.235 2.996 180.00 1.37850 0.31
2 8 0 o 23.802 21.694 0.00 1.37920 4.58
1 5 6 o 0.155 0.162 1.94 1.38573 0.06
2 4 6 o 1.769 1.704 31.94 1.35491 0.66
1 8 3 o 8.239 7.606 164.88 1.37883 3.17
2 8 1 o 12.395 11.185 -75.61 1.36730 4.71
2 1 7 o 1.611 1.654 -62.08 1.32832 0.59
3 5 4 o 3.574 3.587 -95.82 1.34017 1.32
1 3 7 o 1.944 1.602 14.71 1.36552 0.74
0 9 1 o 1.847 1.602 120.45 1.36661 0.35
4 4 1 o 0.552 0.559 123.42 1.34500 0.21
4 4 0 o 0.873 0.755 -180.00 1.35632 0.16
3 1 6 o 0.845 1.298 63.91 1.30781 0.30
4 0 4 o 7.413 10.293 116.66 1.30555 1.32
3 6 3 o 2.554 2.597 172.53 1.33167 0.94
1 9 0 o 1.065 1.039 -90.00 1.34386 0.20
0 7 5 o 3.453 4.329 89.09 1.35072 0.65
4 3 3 o 0.586 0.975 -43.51 1.31212 0.21
3 4 5 o 5.724 9.495 107.68 1.31191 2.05
4 1 4 o 1.930 1.919 177.68 1.29838 0.68
2 2 7 o 1.168 1.759 35.11 1.30605 0.42
0 4 7 o 1.306 1.259 139.25 1.34316 0.24
2 8 2 o 14.326 14.752 46.13 1.33336 5.25
4 4 2 o 3.298 5.703 -69.45 1.31266 1.18
2 6 5 o 3.605 4.472 167.60 1.32041 1.30
1 9 1 o 14.292 14.625 -76.70 1.33284 5.24
3 2 6 o 3.016 2.827 117.78 1.28655 1.05
3 7 0 o 0.027 0.027 90.00 1.32962 0.00
0 8 4 o 26.561 27.188 -74.84 1.33292 4.87
0 9 2 o 14.252 14.568 -105.05 1.33273 2.61
0 6 6 o 2.956 2.956 77.02 1.33067 0.54
3 7 1 o 4.472 6.012 -154.61 1.31895 1.62
2 7 4 o 1.801 2.453 -5.81 1.31841 0.65
1 7 5 o 1.454 2.029 109.19 1.31808 0.52
4 2 4 o 15.570 13.572 -55.99 1.27756 5.39
1 4 7 o 2.431 4.609 -156.66 1.31106 0.87
0 0 8 o 5.293 7.533 -144.40 1.30387 0.47
2 5 6 o 14.345 13.374 135.48 1.28756 5.01
1 8 4 o 8.722 9.992 167.65 1.30153 3.09
1 9 2 o 1.897 2.145 -145.47 1.30135 0.67
3 7 2 o 0.523 0.482 122.44 1.28841 0.18
1 6 6 o 0.641 0.644 -109.01 1.29943 0.23
2 3 7 o 1.344 0.893 -26.60 1.27130 0.46
0 1 8 o 0.331 0.291 -160.57 1.29673 0.06
3 3 6 o 0.219 0.174 -119.89 1.25329 0.07
4 4 3 o 5.560 2.752 -149.23 1.26358 1.90
4 5 0 o 15.500 14.166 180.00 1.28878 2.71
4 5 1 o 3.918 3.735 152.22 1.27905 1.36
2 8 3 o 17.594 17.391 15.66 1.28202 6.11
1 1 8 o 6.701 3.506 -170.71 1.26777 2.29
3 6 4 o 5.942 3.044 16.42 1.26164 2.02
0 9 3 o 4.924 4.904 -3.57 1.28146 0.86
0 5 7 o 1.133 1.053 98.88 1.27747 0.20
0 2 8 o 22.486 19.854 1.30 1.27599 3.88
3 5 5 o 1.102 0.973 -12.81 1.25050 0.37
4 3 4 o 47.247 47.072 145.36 1.24498 15.80
4 5 2 o 2.661 2.332 -160.15 1.25114 0.90
1 2 8 o 5.395 5.181 81.44 1.24837 1.81
2 9 0 o 0.854 0.700 180.00 1.25377 0.14
4 1 5 o 2.576 2.591 -2.49 1.21634 0.84
1 9 3 o 0.209 0.171 47.44 1.25349 0.07
3 7 3 o 2.108 2.210 -57.12 1.24191 0.70
1 5 7 o 2.501 2.319 -21.46 1.24976 0.84
2 9 1 o 2.507 2.675 58.57 1.24481 0.84
0 10 0 o 15.871 16.776 0.00 1.24065 1.32
2 4 7 o 0.039 0.033 85.58 1.22701 0.01
0 8 5 o 11.511 12.307 -101.28 1.24460 1.92
0 3 8 o 29.369 31.888 -155.24 1.24353 4.90
0 7 6 o 5.410 5.788 178.69 1.24110 0.90
2 7 5 o 0.569 0.498 37.41 1.23276 0.19
3 4 6 o 5.080 5.514 1.74 1.21079 1.64
3 0 7 o 18.766 19.111 28.03 1.19724 2.99
0 10 1 o 16.965 14.314 -12.00 1.23196 2.80
4 2 5 o 6.682 6.513 -58.43 1.19917 2.14
4 4 4 o 16.737 15.868 35.45 1.20329 5.37
2 0 8 o 12.459 12.796 100.21 1.19684 1.99
3 1 7 o 11.447 13.194 -88.90 1.19171 3.63
3 8 0 o 0.151 0.122 90.00 1.22803 0.02
2 6 6 o 26.013 25.688 6.37 1.21746 8.46
4 5 3 o 2.600 2.739 122.95 1.20843 0.84
3 8 1 o 3.662 3.459 39.47 1.21961 1.19
2 8 4 o 5.907 5.638 -173.73 1.21918 1.93
2 9 2 o 25.239 24.042 -131.58 1.21904 8.23
1 3 8 o 1.832 1.786 101.63 1.21792 0.60
1 8 5 o 2.179 2.082 20.33 1.21893 0.71
0 9 4 o 17.282 16.538 131.41 1.21870 2.82
4 6 0 o 40.740 38.973 0.00 1.21849 6.63
1 10 0 o 4.961 5.248 -90.00 1.21521 0.81
2 1 8 o 5.776 6.764 -77.04 1.19131 1.83
4 6 1 o 2.066 2.308 -52.92 1.21026 0.67
1 7 6 o 0.071 0.074 -128.90 1.21564 0.02
0 6 7 o 1.448 1.577 129.01 1.20892 0.23
5 0 1 o 11.517 11.228 59.79 1.19854 1.84
1 10 1 o 3.972 4.049 24.95 1.20705 1.28
0 10 2 o 6.651 6.762 85.01 1.20697 1.07
3 2 7 o 0.866 0.903 21.16 1.17555 0.27
3 6 5 o 3.969 4.751 67.02 1.18598 1.25
5 1 1 o 6.648 7.681 -111.89 1.19299 2.11
0 4 8 o 22.734 20.457 -60.54 1.20198 3.64
4 3 5 o 0.440 0.387 58.80 1.17211 0.14
3 8 2 o 7.011 7.628 -7.87 1.19535 2.23
5 1 0 o 1.251 1.153 90.00 1.20087 0.20
4 6 2 o 4.403 5.243 -70.85 1.18653 1.39
3 7 4 o 0.464 0.572 112.49 1.18453 0.15
2 2 8 o 1.296 1.340 -92.29 1.17516 0.40
1 9 4 o 0.278 0.311 47.30 1.19457 0.09
2 5 7 o 9.783 10.714 117.02 1.17632 3.06
5 1 2 o 2.531 1.981 -172.19 1.17025 0.79
5 2 1 o 0.433 0.487 0.89 1.17678 0.14
1 6 7 o 0.845 1.031 -123.42 1.18535 0.27
5 2 0 o 0.305 0.382 90.00 1.18434 0.05
1 10 2 o 0.157 0.203 -39.09 1.18351 0.05
3 5 6 o 0.365 0.406 27.89 1.16201 0.11
2 9 3 o 0.057 0.074 79.11 1.17943 0.02
1 4 8 o 0.830 1.037 -140.51 1.17881 0.26
4 5 4 o 12.857 11.862 -120.68 1.15538 3.94
3 3 7 o 2.596 1.924 -2.72 1.15002 0.79
4 0 6 o 8.789 8.634 -13.89 1.13923 1.33
5 2 2 o 0.497 0.448 153.77 1.15493 0.15
0 10 3 o 0.448 0.302 -68.04 1.16849 0.07
3 8 3 o 7.367 8.121 146.38 1.15793 2.27
4 1 6 o 0.958 1.067 -164.53 1.13445 0.29
4 6 3 o 1.505 1.092 -115.32 1.14992 0.46
2 3 8 o 0.071 0.051 -80.41 1.14966 0.02
5 0 3 o 24.043 23.036 165.00 1.13985 3.64
4 4 5 o 0.862 0.929 38.53 1.13712 0.26
5 3 0 o 0.379 0.433 -90.00 1.15824 0.06
5 1 3 o 0.206 0.229 53.42 1.13507 0.06
0 8 6 o 12.097 12.863 -2.65 1.15727 1.86
5 3 1 o 13.386 10.147 -10.01 1.15117 4.09
0 5 8 o 12.170 10.487 94.93 1.15422 1.87
0 1 9 o 0.125 0.106 178.64 1.15397 0.02
1 0 9 o 2.642 2.868 160.66 1.13818 0.40
2 8 5 o 1.096 0.811 -122.46 1.15050 0.33
4 2 6 o 2.474 2.464 6.13 1.12049 0.74
2 7 6 o 5.584 3.774 161.33 1.14774 1.70
0 9 5 o 2.940 2.113 81.11 1.15010 0.45
2 10 0 o 0.914 0.588 -180.00 1.14738 0.14
4 7 0 o 1.561 1.043 -180.00 1.14860 0.24
1 10 3 o 1.320 0.861 153.61 1.14717 0.40
4 7 1 o 0.899 0.764 -40.09 1.14170 0.27
5 3 2 o 0.663 0.783 -163.21 1.13070 0.20
1 1 9 o 3.826 4.439 -57.14 1.13342 1.15
2 10 1 o 3.343 3.193 71.91 1.14050 1.01
0 7 7 o 1.907 1.812 6.08 1.14057 0.29
0 2 9 o 0.486 0.517 -47.32 1.13928 0.07
3 9 0 o 0.913 1.052 -90.00 1.13699 0.14
5 2 3 o 2.511 2.490 -151.06 1.12108 0.75
3 4 7 o 2.087 2.150 -170.09 1.11692 0.62
1 8 6 o 3.840 4.361 145.60 1.13655 1.16
1 5 8 o 3.976 4.635 -5.87 1.13365 1.20
0 11 0 o 1.237 1.480 180.00 1.12786 0.09
3 9 1 o 6.958 8.502 -72.32 1.13029 2.09
2 9 4 o 4.057 4.919 108.72 1.12995 1.22
3 7 5 o 2.469 2.437 86.74 1.12125 0.74
1 9 5 o 6.212 7.570 73.01 1.12975 1.86
4 7 2 o 3.815 3.747 -48.92 1.12172 1.14
2 4 8 o 5.857 6.091 -72.06 1.11659 1.74
2 6 7 o 0.713 0.708 -53.32 1.12215 0.21
1 2 9 o 5.273 5.193 126.58 1.11949 1.57
5 4 0 o 0.802 0.841 90.00 1.12445 0.12
3 6 6 o 1.747 1.733 -106.05 1.10970 0.52
4 3 6 o 5.484 4.796 -20.09 1.09831 1.61
5 4 1 o 2.273 2.294 -98.77 1.11797 0.68
2 10 2 o 0.004 0.004 -163.10 1.12059 0.00
0 11 1 o 5.977 5.829 132.27 1.12132 0.89
1 7 7 o 2.236 2.182 -91.19 1.12072 0.67
0 10 4 o 0.771 0.751 95.91 1.12032 0.11
3 8 4 o 5.806 6.118 152.17 1.11101 1.72
4 6 4 o 15.691 13.541 62.91 1.10392 4.61
0 3 9 o 1.407 1.491 172.62 1.11600 0.21
5 3 3 o 3.112 2.703 152.82 1.09888 0.91
3 9 2 o 1.564 1.658 -173.10 1.11090 0.46
5 1 4 o 1.761 2.026 151.23 1.09077 0.51
3 1 8 o 2.513 3.106 -176.62 1.08979 0.73
4 5 5 o 5.839 5.108 -156.01 1.09643 1.71
1 11 0 o 0.169 0.159 90.00 1.10865 0.02
5 4 2 o 1.003 0.867 -148.64 1.09919 0.29
1 11 1 o 2.415 2.063 25.64 1.10244 0.71
0 6 8 o 10.705 9.108 -109.03 1.10291 1.57
0 11 2 o 3.428 2.930 174.71 1.10238 0.50
1 10 4 o 0.425 0.364 97.59 1.10149 0.12
4 7 3 o 1.540 1.848 -50.11 1.09063 0.45
3 2 8 o 3.962 4.320 76.69 1.07739 1.14
1 3 9 o 6.875 5.882 -170.06 1.09738 2.01
5 2 4 o 1.895 2.106 -135.05 1.07834 0.55
2 1 9 o 0.053 0.059 -174.21 1.07779 0.02
3 5 7 o 1.147 1.283 -57.86 1.07828 0.33
2 10 3 o 0.574 0.776 -144.67 1.08959 0.17
4 4 6 o 3.991 3.629 141.22 1.06937 1.15
0 4 9 o 1.703 2.345 -171.93 1.08567 0.25
5 4 3 o 8.120 7.307 -25.73 1.06989 2.33
5 5 0 o 0.968 1.269 90.00 1.08505 0.14
1 6 8 o 0.152 0.196 -94.55 1.08492 0.04
3 9 3 o 0.066 0.075 -20.49 1.08068 0.02
2 5 8 o 1.430 1.605 -154.63 1.07799 0.41
1 11 2 o 3.694 4.639 -27.65 1.08442 1.07
5 5 1 o 0.923 1.058 -67.02 1.07923 0.27
4 8 0 o 4.357 4.947 0.00 1.08119 0.63
2 8 6 o 2.173 2.484 -3.89 1.08048 0.63
2 2 9 o 0.162 0.149 -139.16 1.06579 0.05
0 9 6 o 0.645 0.739 -142.71 1.08014 0.09
4 8 1 o 1.239 1.265 -39.88 1.07543 0.36
5 3 4 o 0.177 0.173 0.56 1.05853 0.05
2 9 5 o 2.079 2.021 23.12 1.07463 0.60
3 3 8 o 0.654 0.662 95.97 1.05763 0.19
0 8 7 o 3.819 3.673 -96.02 1.07449 0.55
0 11 3 o 3.529 3.144 87.56 1.07283 0.51
5 5 2 o 2.640 2.310 -15.49 1.06231 0.75
2 7 7 o 0.605 0.561 -32.59 1.06685 0.17
1 4 9 o 0.609 0.559 16.33 1.06851 0.17
0 10 5 o 2.410 2.234 79.60 1.06633 0.35
1 9 6 o 2.981 2.593 152.87 1.06323 0.85
4 8 2 o 1.309 1.298 -163.30 1.05868 0.37
3 8 5 o 0.529 0.530 16.13 1.05829 0.15
1 8 7 o 9.887 10.234 39.21 1.05785 2.82
