#------------------------------------------------------------------------------
#$Date: 2016-03-21 01:21:50 +0200 (Mon, 21 Mar 2016) $
#$Revision: 178377 $
#$URL: svn://www.crystallography.net/cod/cif/4/00/11/4001195.cif $
#------------------------------------------------------------------------------
#
# This file is available in the Crystallography Open Database (COD),
# http://www.crystallography.net/
#
# All data on this site have been placed in the public domain by the
# contributors.
#
data_4001195
loop_
_publ_author_name
'Zhou, Yongkai'
'Adams, Stefan'
'Rao, R. Prasada'
'Edwards, Doreen D.'
'Neiman, Arkady'
'Pestereva, N.'
_publ_section_title
;
 Charge Transport by Polyatomic Anion Diffusion in Sc2(WO4)3
;
_journal_issue                   20
_journal_name_full               'Chemistry of Materials'
_journal_page_first              6335
_journal_paper_doi               10.1021/cm800466y
_journal_volume                  20
_journal_year                    2008
_chemical_formula_moiety         ' Sc2(WO4)3 '
_chemical_formula_sum            'O12 Sc2 W3'
_chemical_formula_weight         833.45
_chemical_melting_point          1913
_chemical_name_common            ' Scandium Tungstate '
_chemical_name_systematic        ' Scandium Tungstate '
_space_group_IT_number           60
_symmetry_cell_setting           orthorhombic
_symmetry_space_group_name_Hall  '-P 2a 2n'
_symmetry_space_group_name_H-M   'P n c a'
_audit_creation_date             2008-01-25T12:03
_audit_creation_method           'from EXP file using GSAS2CIF'
_audit_update_record
' 2008-01-25T12:03  Initial CIF as created by GSAS2CIF'
_cell_angle_alpha                90.0
_cell_angle_beta                 90.0
_cell_angle_gamma                90.0
_cell_formula_units_Z            4
_cell_length_a                   9.64531(5)
_cell_length_b                   13.34780(7)
_cell_length_c                   9.56346(5)
_cell_measurement_temperature    650
_cell_volume                     1231.235(11)
_computing_structure_refinement  GSAS
_diffrn_radiation_polarisn_ratio 0.68
_diffrn_radiation_probe          x-ray
_exptl_absorpt_correction_T_max  1.00000
_exptl_absorpt_correction_T_min  1.00000
_exptl_absorpt_process_details
;   GSAS Absorption/surface roughness correction: function number 0
 No correction is applied.
;
_pd_block_id
2008-01-25T12:03|T11K|Zhou_Yongkai|Philips_Xpert
_pd_calc_method                  'Rietveld Refinement'
_pd_instr_location               ' ?'
_pd_meas_2theta_range_inc        0.017
_pd_meas_2theta_range_max        119.9874
_pd_meas_2theta_range_min        10.0144
_pd_meas_number_of_points        6470
_pd_proc_2theta_range_inc        0.017
_pd_proc_2theta_range_max        119.9874
_pd_proc_2theta_range_min        10.0144
_pd_proc_info_datetime           2008-01-25T12:28:13
_pd_proc_info_excluded_regions   ' ?'
_pd_proc_ls_background_function
;   GSAS Background function number 1 with 12 terms.
 Shifted Chebyshev function of 1st kind
      1:    352.169     2:   -43.0570     3:    23.5031     4:    38.4865    
      5:   -4.86492     6:    10.8274     7:   -9.21413     8:    4.12926    
      9:    9.97269    10:   -23.1434    11:    22.7750    12:   -8.34527    
;
_pd_proc_ls_peak_cutoff          0.00250
_pd_proc_ls_pref_orient_corr
;   March-Dollase
 AXIS  1 Ratio=   0.94913  h= 0.000  k= 1.000  l= 0.000
 Prefered orientation correction range: Min=   0.92467, Max=   1.16956
;
_pd_proc_ls_profile_function
;
 CW Profile function number 3 with  19 terms
 Pseudovoigt profile coefficients as parameterized in
 P. Thompson, D.E. Cox & J.B. Hastings (1987). J. Appl. Cryst.,20,79-83.
 Asymmetry correction of L.W. Finger, D.E. Cox & A. P. Jephcoat (1994).
 J. Appl. Cryst.,27,892-900.
 Peak tails are ignored  where the intensity is below 0.0025 times the peak
   Aniso. broadening axis   0.0   0.0   1.0
;
_pd_proc_ls_prof_R_factor        0.0495
_pd_proc_ls_prof_wR_expected     0.0357
_pd_proc_ls_prof_wR_factor       0.0652
_pd_proc_number_of_points        6470
_pd_spec_mounting                ' ?'
_refine_ls_goodness_of_fit_all   1.85
_refine_ls_matrix_type           full
_refine_ls_number_parameters     51
_refine_ls_number_restraints     0
_refine_ls_R_Fsqd_factor         0.05713
_refine_ls_shift/su_max          0.03
_refine_ls_shift/su_mean         0.01
_reflns_d_resolution_high        0.890
_reflns_d_resolution_low         6.674
_reflns_limit_h_max              10
_reflns_limit_h_min              0
_reflns_limit_k_max              15
_reflns_limit_k_min              0
_reflns_limit_l_max              10
_reflns_limit_l_min              0
_reflns_number_total             1832
_cod_data_source_file            cm800466y_si_014.cif
_cod_data_source_block           T650K
_cod_depositor_comments
;
The following automatic conversions were performed:

'_chemical_melting_point' value ' 1913K ' was changed to '1913' - the
value should be numeric and without a unit
designator.

'_geom_bond_publ_flag' value 'N' changed to 'n'
according to /home/saulius/struct/CIF-dictionaries/cif_core.dic
dictionary named 'cif_core.dic' version 2.4.1 from 2010-06-29 (26
times).

'_geom_angle_publ_flag' value 'N' changed to 'n' according
to /home/saulius/struct/CIF-dictionaries/cif_core.dic dictionary
named 'cif_core.dic' version 2.4.1 from 2010-06-29 (33 times).

Automatic conversion script
Id: cif_fix_values 1715 2011-07-08 13:25:40Z adriana 
;
_cod_original_cell_volume        1231.235(13)
_cod_database_code               4001195
#BEGIN Tags that were not found in dictionaries:
_gsas_exptl_extinct_corr_t_min   1.00000
_gsas_exptl_extinct_corr_t_max   1.00000
#END Tags that were not found in dictionaries
loop_
_symmetry_equiv_pos_site_id
_symmetry_equiv_pos_as_xyz
1 +x,+y,+z
2 -x+1/2,+y+1/2,+z+1/2
3 +x,-y+1/2,+z+1/2
4 -x+1/2,-y,+z
-1 -x,-y,-z
-2 +x+1/2,-y+1/2,-z+1/2
-3 -x,+y+1/2,-z+1/2
-4 +x+1/2,+y,-z
loop_
_atom_site_type_symbol
_atom_site_label
_atom_site_fract_x
_atom_site_fract_y
_atom_site_fract_z
_atom_site_occupancy
_atom_site_thermal_displace_type
_atom_site_U_iso_or_equiv
_atom_site_symmetry_multiplicity
Sc Sc1 0.46884(34) 0.38142(23) 0.2477(4) 1.0 Uiso 0.0229(11) 8
W W1 0.25 0.0 0.47180(14) 1.0 Uiso 0.02345(27) 4
W W2 0.11391(10) 0.35636(7) 0.39234(11) 1.0 Uiso 0.02345(27) 8
O O1 0.0901(11) 0.1320(8) 0.0723(11) 1.0 Uiso 0.0446(17) 8
O O2 0.1460(12) 0.0729(8) 0.3693(12) 1.0 Uiso 0.0446(17) 8
O O3 0.0077(12) 0.2644(9) 0.3164(11) 1.0 Uiso 0.0446(17) 8
O O4 0.3341(11) 0.4065(7) 0.0767(11) 1.0 Uiso 0.0446(17) 8
O O5 0.0632(11) 0.4759(8) 0.3239(12) 1.0 Uiso 0.0446(17) 8
O O6 0.2918(12) 0.3439(8) 0.3477(11) 1.0 Uiso 0.0446(17) 8
loop_
_atom_type_symbol
_atom_type_number_in_cell
_atom_type_scat_dispersion_real
_atom_type_scat_dispersion_imag
_atom_type_scat_Cromer_Mann_a1
_atom_type_scat_Cromer_Mann_a2
_atom_type_scat_Cromer_Mann_a3
_atom_type_scat_Cromer_Mann_a4
_atom_type_scat_Cromer_Mann_b1
_atom_type_scat_Cromer_Mann_b2
_atom_type_scat_Cromer_Mann_b3
_atom_type_scat_Cromer_Mann_b4
_atom_type_scat_Cromer_Mann_c
_atom_type_scat_source
Sc 8.0 0.000 0.000 9.18900 9.02130 7.36790 0.57290 1.64090 136.108 1.46800
51.3531 1.33290 International_Tables_Vol_C
W 12.0 0.000 0.000 29.0818 1.72029 15.4300 9.22590 14.4327 0.32170 5.11982
57.0560 9.88750 International_Tables_Vol_C
O 48.0 0.000 0.000 3.04850 13.2771 2.28680 5.70110 1.54630 0.32390 0.86700
32.9089 0.25080 International_Tables_Vol_C
loop_
_diffrn_radiation_wavelength
_diffrn_radiation_wavelength_wt
_diffrn_radiation_type
_diffrn_radiation_wavelength_id
1.540500 1.000 K\a~1~ 1
1.544300 0.000 K\a~2~ 2
loop_
_geom_angle_atom_site_label_1
_geom_angle_atom_site_label_2
_geom_angle_atom_site_label_3
_geom_angle
_geom_angle_site_symmetry_1
_geom_angle_site_symmetry_3
_geom_angle_publ_flag
O1 Sc1 O2 90.5(4) -2_666 -2_666 n
O1 Sc1 O3 93.5(4) -2_666 -2_666 n
O1 Sc1 O4 174.1(5) -2_666 1_555 n
O1 Sc1 O5 82.6(4) -2_666 4_565 n
O1 Sc1 O6 93.5(5) -2_666 1_555 n
O2 Sc1 O3 88.2(5) -2_666 -2_666 n
O2 Sc1 O4 92.4(5) -2_666 1_555 n
O2 Sc1 O5 92.4(4) -2_666 4_565 n
O2 Sc1 O6 175.6(5) -2_666 1_555 n
O3 Sc1 O4 91.8(4) -2_666 1_555 n
O3 Sc1 O5 176.1(5) -2_666 4_565 n
O3 Sc1 O6 93.4(4) -2_666 1_555 n
O4 Sc1 O5 92.0(4) 1_555 4_565 n
O4 Sc1 O6 83.5(4) 1_555 1_555 n
O5 Sc1 O6 86.3(4) 4_565 1_555 n
O2 W1 O2 109.9(8) 1_555 4_555 n
O2 W1 O4 116.9(5) 1_555 2_545 n
O2 W1 O4 101.0(5) 1_555 3_555 n
O2 W1 O4 101.0(5) 4_555 2_545 n
O2 W1 O4 116.9(5) 4_555 3_555 n
O4 W1 O4 112.0(7) 2_545 3_555 n
O1 W2 O3 113.2(5) 3_555 1_555 n
O1 W2 O5 104.2(5) 3_555 1_555 n
O1 W2 O6 111.9(5) 3_555 1_555 n
O3 W2 O5 108.2(5) 1_555 1_555 n
O3 W2 O6 113.5(5) 1_555 1_555 n
O5 W2 O6 105.0(5) 1_555 1_555 n
Sc1 O1 W2 153.5(6) -2_466 3_554 n
Sc1 O2 W1 159.3(6) -2_555 1_555 n
Sc1 O3 W2 152.0(7) -2_466 1_555 n
Sc1 O4 W1 145.0(6) 1_555 2_554 n
Sc1 O5 W2 172.7(6) 4_565 1_555 n
Sc1 O6 W2 155.1(6) 1_555 1_555 n
loop_
_geom_bond_atom_site_label_1
_geom_bond_atom_site_label_2
_geom_bond_distance
_geom_bond_site_symmetry_2
_geom_bond_publ_flag
Sc1 O1 2.089(11) -2_555 n
Sc1 O2 2.132(12) -2_555 n
Sc1 O3 2.074(11) -2_555 n
Sc1 O4 2.115(11) 1_555 n
Sc1 O5 2.062(11) 4_565 n
Sc1 O6 2.021(11) 1_555 n
W1 O2 1.707(11) 1_555 n
W1 O2 1.707(11) 4_555 n
W1 O4 1.796(10) 2_545 n
W1 O4 1.796(10) 3_555 n
W2 O1 1.743(11) 3_555 n
W2 O3 1.756(11) 1_555 n
W2 O5 1.793(11) 1_555 n
W2 O6 1.776(12) 1_555 n
O1 Sc1 2.089(11) -2_455 n
O1 W2 1.743(11) 3_554 n
O2 Sc1 2.132(12) -2_455 n
O2 W1 1.707(11) 1_555 n
O3 Sc1 2.074(11) -2_455 n
O3 W2 1.756(11) 1_555 n
O4 Sc1 2.115(11) 1_555 n
O4 W1 1.796(10) 2_554 n
O5 Sc1 2.062(11) 4_565 n
O5 W2 1.793(11) 1_555 n
O6 Sc1 2.021(11) 1_555 n
O6 W2 1.776(12) 1_555 n
loop_
_pd_meas_counts_total
_pd_proc_ls_weight
_pd_proc_intensity_bkg_calc
_pd_calc_intensity_total
357.0 0.0 733.91174 .
306.0 0.0 729.67181 .
335.0 0.0 725.46393 .
309.0 0.0 721.28754 .
308.0 0.0 717.14197 .
305.0 0.0 713.02832 .
315.0 0.0 708.94556 .
316.0 0.0 704.89325 .
356.0 0.0 700.87238 .
352.0 0.0 696.88129 .
314.0 0.0 692.92120 .
333.0 0.0 688.99109 .
351.0 0.0 685.09113 .
333.0 0.0 681.22131 .
327.0 0.0 677.38110 .
323.0 0.0 673.57062 .
327.0 0.0 669.78955 .
335.0 0.0 666.03760 .
314.0 0.0 662.31543 .
337.0 0.0 658.62219 .
351.0 0.0 654.95776 .
340.0 0.0 651.32184 .
319.0 0.0 647.71448 .
325.0 0.0 644.13593 .
313.0 0.0 640.58563 .
317.0 0.0 637.06348 .
327.0 0.0 633.56927 .
319.0 0.0 630.10266 .
319.0 0.0 626.66394 .
338.0 0.0 623.25330 .
359.0 0.0 619.86938 .
362.0 0.0 616.51294 .
322.0 0.0 613.18365 .
300.0 0.0 609.88153 .
316.0 0.0 606.60638 .
322.0 0.0 603.35773 .
363.0 0.0 600.13568 .
346.0 0.0 596.93982 .
324.0 0.0 593.77051 .
327.0 0.0 590.62756 .
317.0 0.0 587.51038 .
330.0 0.0 584.41913 .
332.0 0.0 581.35327 .
327.0 0.0 578.31354 .
354.0 0.0 575.29926 .
351.0 0.0 572.31012 .
345.0 0.0 569.34613 .
330.0 0.0 566.40698 .
326.0 0.0 563.49335 .
338.0 0.0 560.60413 .
322.0 0.0 557.73987 .
327.0 0.0 554.89972 .
332.0 0.0 552.08398 .
317.0 0.0 549.29266 .
352.0 0.0 546.52563 .
326.0 0.0 543.78247 .
350.0 0.0 541.06305 .
348.0 0.0 538.36725 .
357.0 0.0 535.69537 .
359.0 0.0 533.04706 .
335.0 0.0 530.42206 .
343.0 0.0 527.81995 .
347.0 0.0 525.24091 .
346.0 0.0 522.68506 .
352.0 0.0 520.15222 .
365.0 0.0 517.64209 .
383.0 0.0 515.15411 .
389.0 0.0 512.68878 .
368.0 0.0 510.24588 .
368.0 0.0 507.82526 .
325.0 0.0 505.42679 .
356.0 0.0 503.04999 .
349.0 0.0 500.69522 .
345.0 0.0 498.36203 .
347.0 0.0 496.05069 .
341.0 0.0 493.76077 .
353.0 0.0 491.49188 .
324.0 0.0 489.24466 .
331.0 0.0 487.01831 .
349.0 0.0 484.81299 .
369.0 0.0 482.62875 .
374.0 0.0 480.46515 .
376.0 0.0 478.32205 .
369.0 0.0 476.19955 .
360.0 0.0 474.09766 .
360.0 0.0 472.01596 .
345.0 0.0 469.95435 .
344.0 0.0 467.91278 .
340.0 0.0 465.89114 .
356.0 0.0 463.88962 .
355.0 0.0 461.90762 .
337.0 0.0 459.94522 .
353.0 0.0 458.00217 .
360.0 0.0 456.07864 .
332.0 0.0 454.17456 .
339.0 0.0 452.28967 .
352.0 0.0 450.42328 .
351.0 0.0 448.57623 .
358.0 0.0 446.74792 .
372.0 0.0 444.93842 .
365.0 0.0 443.14758 .
347.0 0.0 441.37497 .
388.0 0.0 439.62082 .
358.0 0.0 437.88510 .
386.0 0.0 436.16745 .
357.0 0.0 434.46796 .
346.0 0.0 432.78619 .
366.0 0.0 431.12244 .
371.0 0.0 429.47647 .
350.0 0.0 427.84796 .
341.0 0.0 426.23724 .
345.0 0.0 424.64380 .
360.0 0.0 423.06750 .
376.0 0.0 421.50876 .
346.0 0.0 419.96695 .
359.0 0.0 418.44214 .
412.0 0.0 416.93423 .
387.0 0.002584 415.44318 415.44272
368.0 0.002717 413.96890 413.96851
357.0 0.002801 412.51111 412.51071
358.0 0.002793 411.06995 411.06949
327.0 0.003058 409.64511 409.64471
347.0 0.002882 408.23645 408.23602
346.0 0.002890 406.84415 406.84384
335.0 0.002985 405.46796 405.46756
349.0 0.002865 404.10773 404.10733
335.0 0.002985 402.76340 402.76306
374.0 0.002674 401.43481 401.43442
364.0 0.002747 400.12201 400.12167
357.0 0.002801 398.82483 398.82452
381.0 0.002625 397.54324 397.54279
391.0 0.002558 396.27689 396.27652
391.0 0.002558 395.02594 395.02551
358.0 0.002793 393.79025 393.78986
340.0 0.002941 392.56967 392.56931
350.0 0.002857 391.36420 391.36377
346.0 0.002890 390.17358 390.17328
367.0 0.002725 388.99771 388.99738
363.0 0.002755 387.83676 387.83643
359.0 0.002786 386.69055 386.69016
367.0 0.002725 385.55875 385.55835
349.0 0.002865 384.44141 384.44110
361.0 0.002770 383.33841 383.33804
389.0 0.002571 382.24991 382.24954
373.0 0.002681 381.17548 381.17514
359.0 0.002786 380.11520 380.11484
357.0 0.002801 379.06894 379.06857
363.0 0.002755 378.03656 378.03619
386.0 0.002591 377.01807 377.01773
385.0 0.002597 376.01334 376.01300
370.0 0.002703 375.02225 375.02188
364.0 0.002747 374.04471 374.04434
368.0 0.002717 373.08060 373.08020
363.0 0.002755 372.12991 372.12964
376.0 0.002660 371.19266 371.19235
392.0 0.002551 370.26855 370.26825
369.0 0.002710 369.35754 369.35730
342.0 0.002924 368.45953 368.45926
367.0 0.002725 367.57465 367.57434
381.0 0.002625 366.70267 366.70227
393.0 0.002545 365.84329 365.84296
381.0 0.002625 364.99670 364.99637
390.0 0.002564 364.16275 368.68878
389.0 0.002571 363.34137 370.36667
395.0 0.002532 362.53238 370.22659
382.0 0.002618 361.73581 370.21854
419.0 0.002387 360.95145 370.38184
395.0 0.002532 360.17929 370.77808
405.0 0.002469 359.41940 371.52383
395.0 0.002532 358.67154 372.98785
429.0 0.002331 357.93555 376.65256
427.0 0.002342 357.21143 385.67108
441.0 0.002268 356.49908 401.76410
474.0 0.002110 355.79852 424.17407
455.0 0.002198 355.10965 451.81296
495.0 0.002020 354.43228 483.27902
475.0 0.002105 353.76630 517.88580
504.0 0.001984 353.11182 555.72803
612.0 0.001634 352.46863 597.21515
630.0 0.001587 351.83676 642.85138
632.0 0.001582 351.21597 693.25836
669.0 0.001495 350.60623 749.34332
781.0 0.001280 350.00751 812.15979
830.0 0.001205 349.41980 883.07581
900.0 0.001111 348.84293 964.06158
976.0 0.001025 348.27679 1057.54944
1136.0 0.000880 347.72141 1167.25024
1284.0 0.000779 347.17651 1298.28113
1519.0 0.000658 346.64233 1458.69812
1820.0 0.000549 346.11859 1661.57983
2174.0 0.000460 345.60522 1930.80383
2813.0 0.000355 345.10220 2319.39453
3620.0 0.0002762 344.60941 2955.59155
4347.0 0.0002300 344.12686 3859.58325
4338.0 0.0002305 343.65433 4065.10669
3343.0 0.0002991 343.19189 3005.18262
2163.0 0.000462 342.73941 2026.00757
1192.0 0.000839 342.29684 1078.37830
619.0 0.001616 341.86401 607.62311
477.0 0.002096 341.44101 477.86258
447.0 0.002237 341.02768 433.57120
463.0 0.002160 340.62384 409.02484
437.0 0.002288 340.22958 393.14386
409.0 0.002445 339.84482 382.14716
408.0 0.002451 339.46948 374.14758
377.0 0.002653 339.10342 368.10071
395.0 0.002532 338.74661 363.38663
395.0 0.002532 338.39896 359.61740
365.0 0.002740 338.06049 356.53915
370.0 0.002703 337.73108 353.97906
370.0 0.002703 337.41055 351.81647
376.0 0.002660 337.09903 349.96481
350.0 0.002857 336.79630 348.36057
374.0 0.002674 336.50232 346.95642
366.0 0.002732 336.21713 345.71585
368.0 0.002717 335.94052 344.61118
399.0 0.002506 335.67249 338.61609
371.0 0.002695 335.41296 338.10931
369.0 0.002710 335.16193 335.16159
374.0 0.002674 334.91925 334.91898
347.0 0.002882 334.68488 334.68457
329.0 0.003040 334.45874 334.45844
403.0 0.002481 334.24078 334.24048
374.0 0.002674 334.03094 334.03067
370.0 0.002703 333.82922 333.82895
368.0 0.002717 333.63550 333.63516
363.0 0.002755 333.44965 333.44934
364.0 0.002747 333.27164 333.27133
345.0 0.002899 333.10150 333.10117
342.0 0.002924 332.93906 332.93878
403.0 0.002481 332.78433 332.78403
366.0 0.002732 332.63718 332.63687
344.0 0.002907 332.49765 332.49731
402.0 0.002488 332.36554 332.36523
370.0 0.002703 332.24091 332.24063
321.0 0.003115 332.12369 332.12335
376.0 0.002660 332.01373 332.01349
355.0 0.002817 331.91098 331.91077
346.0 0.002890 331.81555 331.81525
381.0 0.002625 331.72717 331.72684
345.0 0.002899 331.64590 331.64557
353.0 0.002833 331.57162 331.57129
367.0 0.002725 331.50433 337.75058
412.0 0.002427 331.44388 338.20905
377.0 0.002653 331.39038 341.82281
405.0 0.002469 331.34357 342.71191
424.0 0.002358 331.30353 343.75580
426.0 0.002347 331.27011 344.99283
407.0 0.002457 331.24338 346.47787
420.0 0.002381 331.22311 348.29379
416.0 0.002404 331.20941 350.57492
433.0 0.002309 331.20215 353.59555
462.0 0.002165 331.20126 358.33337
487.0 0.002053 331.20673 368.27478
489.0 0.002045 331.21851 388.95554
471.0 0.002123 331.23642 422.00095
528.0 0.001894 331.26050 465.96210
585.0 0.001709 331.29074 519.50793
593.0 0.001686 331.32706 580.59430
649.0 0.001541 331.36932 648.35522
689.0 0.001451 331.41760 723.29126
769.0 0.001300 331.47168 806.47614
840.0 0.001190 331.53174 899.32031
920.0 0.001087 331.59750 1003.64856
1057.0 0.000946 331.66904 1121.96667
1131.0 0.000884 331.74622 1257.80750
1285.0 0.000778 331.82913 1415.95752
1488.0 0.000672 331.91751 1602.87842
1714.0 0.000583 332.01147 1828.80164
2113.0 0.000473 332.11093 2109.93140
2586.0 0.000387 332.21582 2473.57642
3173.0 0.0003152 332.32608 2975.53003
4009.0 0.0002494 332.44168 3752.86841
5154.0 0.0001940 332.56259 5003.46143
5667.0 0.0001765 332.68863 6029.54102
4822.0 0.0002074 332.81992 4985.51367
3421.0 0.0002923 332.95630 3524.61011
2069.0 0.000483 333.09775 2251.12207
1050.0 0.000952 333.24429 1083.53577
638.0 0.001567 333.39575 633.29901
509.0 0.001965 333.55219 511.12347
467.0 0.002141 333.71353 459.51630
450.0 0.002222 333.87964 428.76184
434.0 0.002304 334.05063 408.50830
407.0 0.002457 334.22623 394.39813
439.0 0.002278 334.40665 384.15201
385.0 0.002597 334.59167 376.47018
377.0 0.002653 334.78131 370.56503
398.0 0.002513 334.97549 365.93326
340.0 0.002941 335.17413 362.24002
346.0 0.002890 335.37729 359.25543
375.0 0.002667 335.58490 356.81680
364.0 0.002747 335.79681 354.80655
368.0 0.002717 336.01306 353.13760
361.0 0.002770 336.23364 351.74423
412.0 0.002427 336.45837 350.57623
378.0 0.002646 336.68741 341.53659
384.0 0.002604 336.92056 341.34857
380.0 0.002632 337.15768 337.15735
366.0 0.002732 337.39899 337.39862
339.0 0.002950 337.64429 337.64392
376.0 0.002660 337.89362 337.89325
367.0 0.002725 338.14685 338.14639
337.0 0.002967 338.40393 338.40347
366.0 0.002732 338.66486 338.66446
372.0 0.002688 338.92957 338.92914
355.0 0.002817 339.19809 339.19766
365.0 0.002740 339.47034 339.46982
381.0 0.002625 339.74606 339.74573
382.0 0.002618 340.02570 340.02524
381.0 0.002625 340.30878 340.30829
368.0 0.002717 340.59543 340.59500
349.0 0.002865 340.88559 340.88516
350.0 0.002857 341.17926 341.17877
365.0 0.002740 341.47629 341.47586
382.0 0.002618 341.77667 341.77628
376.0 0.002660 342.08054 342.08008
372.0 0.002688 342.38766 342.38724
367.0 0.002725 342.69800 342.69760
375.0 0.002667 343.01160 343.01114
353.0 0.002833 343.32834 343.32788
367.0 0.002725 343.64832 343.64795
372.0 0.002688 343.97137 343.97095
356.0 0.002809 344.29752 344.29706
351.0 0.002849 344.62662 344.62625
355.0 0.002817 344.95880 344.95840
363.0 0.002755 345.29388 345.29355
370.0 0.002703 345.63199 345.63156
329.0 0.003040 345.97290 345.97247
355.0 0.002817 346.31662 346.31622
375.0 0.002667 346.66324 346.66272
350.0 0.002857 347.01260 347.01215
365.0 0.002740 347.36465 347.36423
368.0 0.002717 347.71945 347.71896
351.0 0.002849 348.07687 348.07645
348.0 0.002874 348.43695 348.43643
355.0 0.002817 348.79959 348.79916
345.0 0.002899 349.16483 349.16440
354.0 0.002825 349.53259 349.53210
382.0 0.002618 349.90280 349.90237
379.0 0.002639 350.27542 350.27496
376.0 0.002660 350.65051 350.65012
371.0 0.002695 351.02808 351.02756
366.0 0.002732 351.40787 351.40735
336.0 0.002976 351.78995 351.78946
330.0 0.003030 352.17435 352.17392
341.0 0.002933 352.56107 352.56058
357.0 0.002801 352.94989 352.94937
349.0 0.002865 353.34091 353.34045
363.0 0.002755 353.73413 353.73358
358.0 0.002793 354.12939 354.12885
337.0 0.002967 354.52676 354.52621
373.0 0.002681 354.92615 354.92563
371.0 0.002695 355.32758 355.32706
383.0 0.002611 355.73093 355.73044
356.0 0.002809 356.13638 356.13586
344.0 0.002907 356.54358 356.54309
337.0 0.002967 356.95270 356.95224
358.0 0.002793 357.36374 357.36319
348.0 0.002874 357.77652 357.77600
346.0 0.002890 358.19119 358.19061
349.0 0.002865 358.60751 358.60693
351.0 0.002849 359.02563 359.02515
369.0 0.002710 359.44534 359.44492
370.0 0.002703 359.86685 359.86633
361.0 0.002770 360.28992 360.28943
344.0 0.002907 360.71466 360.71414
372.0 0.002688 361.14093 361.14038
364.0 0.002747 361.56882 361.56824
347.0 0.002882 361.99811 361.99759
340.0 0.002941 362.42899 362.42841
347.0 0.002882 362.86121 362.86072
362.0 0.002762 363.29501 363.29443
356.0 0.002809 363.73013 363.72955
344.0 0.002907 364.16656 364.16599
342.0 0.002924 364.60443 364.60385
345.0 0.002899 365.04364 365.04309
359.0 0.002786 365.48407 365.48343
348.0 0.002874 365.92575 365.92526
335.0 0.002985 366.36865 366.36810
332.0 0.003012 366.81277 366.81219
326.0 0.003067 367.25809 367.25754
346.0 0.002890 367.70456 367.70404
352.0 0.002841 368.15222 368.15167
346.0 0.002890 368.60089 368.60034
376.0 0.002660 369.05057 369.04999
364.0 0.002747 369.50143 369.50085
359.0 0.002786 369.95325 369.95270
390.0 0.002564 370.40607 370.40549
366.0 0.002732 370.85977 370.85919
335.0 0.002985 371.31448 371.31384
333.0 0.003003 371.77005 371.76953
346.0 0.002890 372.22662 372.22598
348.0 0.002874 372.68399 372.68335
350.0 0.002857 373.14218 373.14163
367.0 0.002725 373.60114 373.60052
365.0 0.002740 374.06100 374.06042
355.0 0.002817 374.52151 374.52097
413.0 0.002421 374.98285 374.98224
384.0 0.002604 375.44482 375.44424
323.0 0.003096 375.90753 375.90692
320.0 0.003125 376.37085 376.37021
348.0 0.002874 376.83484 376.83420
365.0 0.002740 377.29944 377.29886
353.0 0.002833 377.76465 377.76404
333.0 0.003003 378.23035 378.22977
351.0 0.002849 378.69672 378.69620
345.0 0.002899 379.16364 379.16302
326.0 0.003067 379.63098 379.63031
337.0 0.002967 380.09875 380.09811
345.0 0.002899 380.56699 380.56635
331.0 0.003021 381.03571 381.03506
359.0 0.002786 381.50485 381.50424
349.0 0.002865 381.97433 381.97363
377.0 0.002653 382.44418 382.44360
360.0 0.002778 382.91431 382.91370
369.0 0.002710 383.38489 383.38428
360.0 0.002778 383.85574 383.85510
361.0 0.002770 384.32678 384.32614
371.0 0.002695 384.79813 384.79749
366.0 0.002732 385.26971 385.26904
352.0 0.002841 385.74152 385.74084
340.0 0.002941 386.21347 386.21283
338.0 0.002959 386.68564 386.68500
357.0 0.002801 387.15802 387.15735
353.0 0.002833 387.63046 387.62976
367.0 0.002725 388.10300 388.10239
347.0 0.002882 388.57565 388.57495
334.0 0.002994 389.04825 389.04767
354.0 0.002825 389.52106 389.52039
351.0 0.002849 389.99384 389.99323
341.0 0.002933 390.46667 390.46603
326.0 0.003067 390.93948 390.93875
324.0 0.003086 391.41226 391.41159
347.0 0.002882 391.88501 391.88434
371.0 0.002695 392.35760 392.35690
365.0 0.002740 392.83011 392.82944
340.0 0.002941 393.30270 393.30197
347.0 0.002882 393.77493 393.77432
383.0 0.002611 394.24716 394.24643
369.0 0.002710 394.71921 394.71854
347.0 0.002882 395.19107 395.19040
359.0 0.002786 395.66275 395.66205
348.0 0.002874 396.13419 396.13351
364.0 0.002747 396.60544 396.60471
346.0 0.002890 397.07632 397.07568
338.0 0.002959 397.54712 397.54633
362.0 0.002762 398.01749 398.01682
355.0 0.002817 398.48758 398.48688
369.0 0.002710 398.95734 398.95670
385.0 0.002597 399.42685 399.42618
389.0 0.002571 399.89597 399.89529
374.0 0.002674 400.36469 400.36398
362.0 0.002762 400.83304 400.83234
343.0 0.002915 401.30090 401.30023
347.0 0.002882 401.76849 401.76782
336.0 0.002976 402.23557 402.23489
354.0 0.002825 402.70224 402.70157
343.0 0.002915 403.16840 403.16766
319.0 0.003135 403.63403 403.63336
354.0 0.002825 404.09924 404.09851
359.0 0.002786 404.56390 404.56317
364.0 0.002747 405.02805 405.02725
359.0 0.002786 405.49164 405.51099
334.0 0.002994 405.95462 405.97552
394.0 0.002538 406.41705 406.44919
370.0 0.002703 406.87891 406.91364
351.0 0.002849 407.34024 407.37796
379.0 0.002639 407.80087 407.84180
378.0 0.002646 408.26077 408.30557
310.0 0.003226 408.72015 408.76938
355.0 0.002817 409.17883 409.23312
370.0 0.002703 409.63684 411.19376
373.0 0.002681 410.09409 411.76871
365.0 0.002740 410.55063 412.35748
362.0 0.002762 411.00650 413.72308
346.0 0.002890 411.46167 414.40588
337.0 0.002967 411.91614 415.66486
355.0 0.002817 412.36963 416.46741
358.0 0.002793 412.82251 417.35211
342.0 0.002924 413.27454 418.62817
370.0 0.002703 413.72580 419.77853
360.0 0.002778 414.17618 421.07416
351.0 0.002849 414.62579 422.54404
390.0 0.002564 415.07452 424.22375
405.0 0.002469 415.52243 426.17334
370.0 0.002703 415.96942 428.51419
385.0 0.002597 416.41568 431.60025
420.0 0.002381 416.86084 436.64581
409.0 0.002445 417.30515 445.89001
428.0 0.002336 417.74860 460.33267
446.0 0.002242 418.19110 479.52347
462.0 0.002165 418.63269 503.88098
502.0 0.001992 419.07330 534.33972
546.0 0.001832 419.51291 572.04645
590.0 0.001695 419.95154 615.66382
633.0 0.001580 420.38919 659.44775
650.0 0.001538 420.82590 710.42755
720.0 0.001389 421.26154 775.29895
821.0 0.001218 421.69611 852.77710
929.0 0.001076 422.12970 951.71246
1053.0 0.000950 422.56223 1084.28503
1296.0 0.000772 422.99377 1274.52246
1636.0 0.000611 423.42410 1574.69495
2017.0 0.000496 423.85345 1943.79773
1944.0 0.000514 424.28168 1930.47107
1561.0 0.000641 424.70880 1543.14941
1393.0 0.000718 425.13483 1425.13403
1301.0 0.000769 425.55972 1288.75659
1107.0 0.000903 425.98355 1126.71448
974.0 0.001027 426.40607 994.51239
825.0 0.001212 426.82761 804.84863
707.0 0.001414 427.24789 725.46649
617.0 0.001621 427.66711 632.93420
471.0 0.002123 428.08499 522.50525
471.0 0.002123 428.50180 475.34653
440.0 0.002273 428.91733 460.51556
439.0 0.002278 429.33170 453.53238
409.0 0.002445 429.74484 449.17670
418.0 0.002392 430.15680 446.20016
404.0 0.002475 430.56732 444.10828
360.0 0.002778 430.97678 442.59326
387.0 0.002584 431.38498 441.48148
406.0 0.002463 431.79190 440.66214
405.0 0.002469 432.19742 440.06125
413.0 0.002421 432.60181 439.62735
430.0 0.002326 433.00488 436.94095
404.0 0.002475 433.40662 436.93530
431.0 0.002320 433.80698 436.98965
404.0 0.002475 434.20609 435.93381
426.0 0.002347 434.60394 436.16858
424.0 0.002358 435.00037 435.55664
416.0 0.002404 435.39548 449.18857
413.0 0.002421 435.78928 450.51550
434.0 0.002304 436.18155 457.77271
430.0 0.002326 436.57257 459.83398
442.0 0.002262 436.96231 462.10257
443.0 0.002257 437.35059 464.61606
478.0 0.002092 437.73749 467.42145
484.0 0.002066 438.12296 470.57913
495.0 0.002020 438.50702 474.16635
502.0 0.001992 438.88965 478.28549
500.0 0.002000 439.27094 483.07358
508.0 0.001969 439.65073 488.72131
549.0 0.001821 440.02908 495.50510
591.0 0.001692 440.40610 503.84531
610.0 0.001639 440.78162 514.44031
642.0 0.001558 441.15564 528.79187
688.0 0.001453 441.52823 552.11224
755.0 0.001325 441.89938 600.20044
844.0 0.001185 442.26898 692.84698
931.0 0.001074 442.63721 831.69220
1081.0 0.000925 443.00391 1011.77637
1239.0 0.000807 443.36908 1237.89539
1450.0 0.000690 443.73273 1511.28735
1654.0 0.000605 444.09491 1831.45654
1881.0 0.000532 444.45560 2205.51660
2390.0 0.000418 444.81476 2647.63062
2942.0 0.0003399 445.17236 3179.84082
3489.0 0.0002866 445.52850 3837.87915
4507.0 0.0002219 445.88297 4682.37695
5955.0 0.0001679 446.23608 5830.23047
8000.0 0.0001250 446.58752 7562.20410
10825.0 0.0000924 446.93741 10320.04395
13181.0 0.0000759 447.28577 12911.13281
10967.0 0.0000912 447.63263 10945.36621
7641.0 0.0001309 447.97781 7558.81738
6363.0 0.0001572 448.32150 6527.52148
4272.0 0.0002341 448.66360 4329.32275
1890.0 0.000529 449.00403 1998.72083
1016.0 0.000984 449.34293 1116.44629
723.0 0.001383 449.68027 859.70215
661.0 0.001513 450.01599 743.96985
602.0 0.001661 450.35010 673.80054
589.0 0.001698 450.68265 627.10156
538.0 0.001859 451.01355 594.27289
507.0 0.001972 451.34283 570.23718
457.0 0.002188 451.67047 552.07941
493.0 0.002028 451.99649 538.01611
524.0 0.001908 452.32092 526.89948
517.0 0.001934 452.64359 517.96332
476.0 0.002101 452.96472 510.67752
524.0 0.001908 453.28427 504.66632
535.0 0.001869 453.60211 499.65616
496.0 0.002016 453.91821 495.44318
454.0 0.002203 454.23279 491.87360
475.0 0.002105 454.54568 468.03885
436.0 0.002294 454.85687 467.11032
462.0 0.002165 455.16644 466.34479
451.0 0.002217 455.47424 455.47333
448.0 0.002232 455.78046 455.77951
476.0 0.002101 456.08502 456.08401
447.0 0.002237 456.38785 456.38693
445.0 0.002247 456.68890 456.68805
483.0 0.002070 456.98846 456.98746
504.0 0.001984 457.28622 457.28534
473.0 0.002114 457.58234 457.58142
447.0 0.002237 457.87668 457.87579
445.0 0.002247 458.16943 458.16852
477.0 0.002096 458.46039 458.45941
486.0 0.002058 458.74963 475.54898
462.0 0.002165 459.03720 477.04510
470.0 0.002128 459.32318 478.67764
491.0 0.002037 459.60715 488.80981
466.0 0.002146 459.88959 491.38596
465.0 0.002151 460.17038 494.25018
505.0 0.001980 460.44928 497.45575
527.0 0.001898 460.72659 501.06882
495.0 0.002020 461.00214 505.17331
519.0 0.001927 461.27585 509.87802
542.0 0.001845 461.54800 515.32574
554.0 0.001805 461.81836 521.70905
563.0 0.001776 462.08701 529.29370
592.0 0.001689 462.35379 538.46149
648.0 0.001543 462.61887 549.78998
702.0 0.001425 462.88223 564.21741
729.0 0.001372 463.14392 583.61108
831.0 0.001203 463.40384 613.99701
935.0 0.001070 463.66202 674.80981
1043.0 0.000959 463.91840 795.47656
1243.0 0.000805 464.17294 984.69220
1367.0 0.000732 464.42590 1233.55603
1464.0 0.000683 464.67706 1548.32214
1741.0 0.000574 464.92639 1937.20190
2156.0 0.000464 465.17410 2402.16016
2584.0 0.000387 465.41989 2953.28809
3094.0 0.0003232 465.66400 3615.29688
3792.0 0.0002637 465.90634 4429.02100
4817.0 0.0002076 466.14691 5461.55566
6429.0 0.0001555 466.38574 6839.56543
8596.0 0.0001163 466.62271 8850.25391
12164.0 0.0000822 466.85809 12064.26074
16381.0 0.0000610 467.09155 15849.58301
14929.0 0.0000670 467.32327 15028.80664
9819.0 0.0001018 467.55331 10100.22656
8060.0 0.0001241 467.78143 8463.38477
6933.0 0.0001442 468.00787 6911.65039
3197.0 0.0003128 468.23254 3493.82324
1353.0 0.000739 468.45544 1653.29810
969.0 0.001032 468.67664 1104.91016
809.0 0.001236 468.89587 905.41156
716.0 0.001397 469.11337 794.20471
660.0 0.001515 469.32928 722.36676
653.0 0.001531 469.54321 672.86188
577.0 0.001733 469.75543 637.10718
578.0 0.001730 469.96585 610.37170
573.0 0.001745 470.17459 589.80634
564.0 0.001773 470.38156 573.62531
565.0 0.001770 470.58661 560.66351
543.0 0.001842 470.78995 550.10895
591.0 0.001692 470.99152 541.40442
581.0 0.001721 471.19128 534.13947
591.0 0.001692 471.38937 528.01447
566.0 0.001767 471.58557 522.80896
575.0 0.001739 471.78003 490.34726
555.0 0.001802 471.97269 488.79483
578.0 0.001730 472.16360 503.24783
563.0 0.001776 472.35269 489.24860
592.0 0.001689 472.54004 490.68860
608.0 0.001645 472.72562 500.03036
566.0 0.001767 472.90945 502.33606
588.0 0.001701 473.09149 504.90439
596.0 0.001678 473.27173 523.70032
615.0 0.001626 473.45013 528.08179
666.0 0.001502 473.62683 533.03558
693.0 0.001443 473.80170 546.49365
717.0 0.001395 473.97485 553.52100
760.0 0.001316 474.14624 561.64178
791.0 0.001264 474.31583 571.12024
763.0 0.001311 474.48364 582.33521
796.0 0.001256 474.64969 595.81177
855.0 0.001170 474.81406 612.35645
903.0 0.001107 474.97656 633.29480
978.0 0.001022 475.13721 661.51581
1094.0 0.000914 475.29623 706.78876
1248.0 0.000801 475.45343 795.04230
1405.0 0.000712 475.60886 952.37018
1592.0 0.000628 475.76254 1217.43127
1908.0 0.000524 475.91443 1512.97253
2139.0 0.000468 476.06461 1888.75146
2571.0 0.000389 476.21295 2381.48315
2994.0 0.0003340 476.35956 2986.20288
3720.0 0.0002688 476.50449 3766.57959
4728.0 0.0002115 476.64758 4761.70508
5870.0 0.0001704 476.78897 6030.95508
7646.0 0.0001308 476.92850 7708.38477
10312.0 0.0000970 477.06635 10085.12402
14666.0 0.0000682 477.20248 13695.50586
18669.0 0.0000536 477.33679 17826.65234
18105.0 0.0000552 477.46939 17574.98047
14405.0 0.0000694 477.60025 13973.99707
14518.0 0.0000689 477.72931 13964.43262
15269.0 0.0000655 477.85666 14893.83496
15247.0 0.0000656 477.98230 14892.95215
16611.0 0.0000602 478.10617 16544.36133
14906.0 0.0000671 478.22824 14939.59863
10261.0 0.0000975 478.34869 10313.81738
9355.0 0.0001069 478.46738 9250.68359
8553.0 0.0001169 478.58423 8690.17773
6135.0 0.0001630 478.69949 6166.58496
4789.0 0.0002088 478.81296 5080.70898
5057.0 0.0001977 478.92465 5543.68115
5926.0 0.0001687 479.03464 6634.20068
7116.0 0.0001405 479.14294 8112.85059
9058.0 0.0001104 479.24951 10036.82910
11599.0 0.0000862 479.35434 12587.43164
15520.0 0.0000644 479.45743 16177.10059
21921.0 0.0000456 479.55884 21786.27734
29344.0 0.00003408 479.65857 30065.77148
32663.0 0.00003062 479.75656 34517.93359
25907.0 0.0000386 479.85278 25282.28906
18012.0 0.0000555 479.94736 17980.72656
15798.0 0.0000633 480.04019 16997.03711
11706.0 0.0000854 480.13135 11808.53613
5714.0 0.0001750 480.22079 5227.60596
2555.0 0.000391 480.30856 2529.33594
1649.0 0.000606 480.39468 1700.19995
1416.0 0.000706 480.47903 1352.30432
1270.0 0.000787 480.56171 1149.05176
1125.0 0.000889 480.64270 997.14038
997.0 0.001003 480.72202 901.08911
903.0 0.001107 480.79962 830.84521
847.0 0.001181 480.87561 780.53833
832.0 0.001202 480.94983 739.70087
787.0 0.001271 481.02240 707.51624
719.0 0.001391 481.09329 681.78394
683.0 0.001464 481.16260 664.24670
699.0 0.001431 481.23013 647.51508
709.0 0.001410 481.29611 633.91052
683.0 0.001464 481.36035 622.88129
656.0 0.001524 481.42297 615.75500
687.0 0.001456 481.48386 549.92090
695.0 0.001439 481.54321 549.71252
676.0 0.001479 481.60086 550.72150
659.0 0.001517 481.65680 523.09100
681.0 0.001468 481.71115 529.69006
710.0 0.001408 481.76389 538.57959
735.0 0.001361 481.81494 552.54407
800.0 0.001250 481.86438 579.83466
840.0 0.001190 481.91223 631.66101
898.0 0.001114 481.95840 710.20343
978.0 0.001022 482.00293 812.29608
1107.0 0.000903 482.04590 942.16852
1196.0 0.000836 482.08719 1105.93323
1335.0 0.000749 482.12695 1307.90076
1536.0 0.000651 482.16495 1557.92664
1779.0 0.000562 482.20148 1878.71924
2248.0 0.000445 482.23636 2306.34937
2987.0 0.0003348 482.26962 2902.54858
4087.0 0.0002447 482.30124 3812.70166
5226.0 0.0001914 482.33130 5136.18018
5857.0 0.0001707 482.35980 5915.04443
4506.0 0.0002219 482.38669 4673.67920
3622.0 0.0002761 482.41196 3722.08643
3710.0 0.0002695 482.43570 3825.68457
3429.0 0.0002916 482.45786 3448.42993
2752.0 0.000363 482.47849 2810.37012
2880.0 0.0003472 482.49744 2961.90479
3334.0 0.0002999 482.51483 3579.98413
3325.0 0.0003008 482.53076 3481.55127
2376.0 0.000421 482.54498 2455.85181
1883.0 0.000531 482.55777 2057.93945
1816.0 0.000551 482.56891 1977.65393
1325.0 0.000755 482.57855 1392.12708
890.0 0.001124 482.58673 869.44928
714.0 0.001401 482.59326 678.79706
649.0 0.001541 482.59827 616.27667
629.0 0.001590 482.60168 584.47931
570.0 0.001754 482.60370 563.99127
548.0 0.001825 482.60406 549.65375
564.0 0.001773 482.60297 539.10461
580.0 0.001724 482.60034 531.04388
579.0 0.001727 482.59619 524.70447
547.0 0.001828 482.59052 510.65918
545.0 0.001835 482.58334 507.20258
556.0 0.001799 482.57465 504.36371
573.0 0.001745 482.56451 497.40509
541.0 0.001848 482.55286 495.78506
526.0 0.001901 482.53967 494.41589
547.0 0.001828 482.52499 493.24579
547.0 0.001828 482.50891 486.47192
522.0 0.001916 482.49124 486.07208
506.0 0.001976 482.47217 485.72369
505.0 0.001980 482.45154 485.41757
528.0 0.001894 482.42957 482.42856
535.0 0.001869 482.40604 482.40497
512.0 0.001953 482.38101 482.38004
516.0 0.001938 482.35461 492.97623
547.0 0.001828 482.32672 493.70090
510.0 0.001961 482.29736 494.50830
492.0 0.002033 482.26660 500.52771
513.0 0.001949 482.23444 501.89835
547.0 0.001828 482.20078 503.43954
578.0 0.001730 482.16568 505.18011
557.0 0.001795 482.12918 507.15805
557.0 0.001795 482.09125 509.41837
523.0 0.001912 482.05182 512.02014
569.0 0.001757 482.01108 515.03894
562.0 0.001779 481.96890 518.57001
587.0 0.001704 481.92529 522.74542
602.0 0.001661 481.88034 527.73993
604.0 0.001656 481.83392 533.80377
635.0 0.001575 481.78610 541.30133
635.0 0.001575 481.73700 550.78296
706.0 0.001416 481.68637 563.18335
770.0 0.001299 481.63443 580.46625
771.0 0.001297 481.58112 608.97583
849.0 0.001178 481.52646 666.90790
996.0 0.001004 481.47040 777.50433
1111.0 0.000900 481.41290 944.03967
1266.0 0.000790 481.35419 1160.20850
1531.0 0.000653 481.29401 1436.34912
1744.0 0.000573 481.23245 1787.22876
2192.0 0.000456 481.16962 2227.54517
2676.0 0.000374 481.10553 2779.81323
3384.0 0.0002955 481.03998 3490.15186
4419.0 0.0002263 480.97314 4459.67725
6247.0 0.0001601 480.90500 5925.71143
8377.0 0.0001194 480.83551 8176.90869
10185.0 0.0000982 480.76462 10041.76563
8511.0 0.0001175 480.69254 8164.45166
5741.0 0.0001742 480.61905 5468.26025
5039.0 0.0001985 480.54431 5084.42627
4684.0 0.0002135 480.46832 4639.85596
2930.0 0.0003413 480.39090 2648.55981
1426.0 0.000701 480.31238 1343.60779
958.0 0.001044 480.23236 918.69556
807.0 0.001239 480.15115 793.63458
712.0 0.001404 480.06876 718.16290
691.0 0.001447 479.98492 670.80023
701.0 0.001427 479.89993 639.06104
683.0 0.001464 479.81363 627.42493
634.0 0.001577 479.72610 612.35101
596.0 0.001678 479.63730 601.84344
610.0 0.001639 479.54718 594.63916
613.0 0.001631 479.45593 590.07349
631.0 0.001585 479.36340 587.72565
639.0 0.001565 479.26959 587.29364
626.0 0.001597 479.17465 588.68622
661.0 0.001513 479.07834 591.90875
696.0 0.001437 478.98096 597.08191
682.0 0.001466 478.88232 586.60626
688.0 0.001453 478.78238 598.08527
728.0 0.001374 478.68134 612.70911
795.0 0.001258 478.57907 631.60919
862.0 0.001160 478.47556 648.12000
943.0 0.001060 478.37091 683.80255
1066.0 0.000938 478.26495 741.40216
1177.0 0.000850 478.15790 856.58344
1425.0 0.000702 478.04965 1078.93188
1741.0 0.000574 477.94031 1424.14270
2129.0 0.000470 477.82974 1875.85229
2512.0 0.000398 477.71802 2453.88110
3054.0 0.0003274 477.60513 3198.45166
3735.0 0.0002677 477.49106 4147.26074
4794.0 0.0002086 477.37589 5346.99414
6558.0 0.0001525 477.25958 6909.94873
9073.0 0.0001102 477.14206 9090.23730
13070.0 0.0000765 477.02341 12456.96680
18639.0 0.0000537 476.90366 17262.56250
20882.0 0.0000479 476.78284 19570.32813
14749.0 0.0000678 476.66083 14082.03320
10156.0 0.0000985 476.53766 9816.39941
10224.0 0.0000978 476.41345 9773.42773
8822.0 0.0001134 476.28815 8440.09180
4419.0 0.0002263 476.16171 4388.32178
1834.0 0.000545 476.03427 2074.95654
1143.0 0.000875 475.90558 1334.33228
947.0 0.001056 475.77594 1066.80725
835.0 0.001198 475.64508 920.37201
777.0 0.001287 475.51324 817.46570
696.0 0.001437 475.38040 745.21326
653.0 0.001531 475.24634 695.67670
601.0 0.001664 475.11130 659.66907
612.0 0.001634 474.97516 632.10681
559.0 0.001789 474.83798 610.40900
561.0 0.001783 474.69983 592.96393
553.0 0.001808 474.56055 578.69696
540.0 0.001852 474.42026 566.86835
542.0 0.001845 474.27896 556.93146
523.0 0.001912 474.13663 548.49731
507.0 0.001972 473.99326 541.26611
496.0 0.002016 473.84882 499.18100
502.0 0.001992 473.70352 496.62726
485.0 0.002062 473.55707 494.40155
501.0 0.001996 473.40967 473.59396
485.0 0.002062 473.26129 473.42767
485.0 0.002062 473.11182 473.17368
485.0 0.002062 472.96152 473.01724
476.0 0.002101 472.81015 472.86063
491.0 0.002037 472.65781 472.70377
474.0 0.002110 472.50446 472.50345
472.0 0.002119 472.35016 472.34915
454.0 0.002203 472.19498 472.19397
478.0 0.002092 472.03876 472.03778
476.0 0.002101 471.88165 471.88068
454.0 0.002203 471.72357 471.72250
444.0 0.002252 471.56445 471.56345
457.0 0.002188 471.40451 471.40347
464.0 0.002155 471.24365 471.24261
440.0 0.002273 471.08179 471.08078
437.0 0.002288 470.91907 470.91803
467.0 0.002141 470.75534 470.75430
488.0 0.002049 470.59082 470.58981
487.0 0.002053 470.42526 470.42432
470.0 0.002128 470.25897 470.25797
474.0 0.002110 470.09167 470.09061
476.0 0.002101 469.92340 469.92242
465.0 0.002151 469.75436 469.75339
460.0 0.002174 469.58444 469.58337
455.0 0.002198 469.41360 469.41257
435.0 0.002299 469.24194 469.24097
439.0 0.002278 469.06931 469.06836
450.0 0.002222 468.89597 468.89493
480.0 0.002083 468.72165 468.72070
467.0 0.002141 468.54648 468.54550
455.0 0.002198 468.37057 468.36954
476.0 0.002101 468.19373 468.19272
463.0 0.002160 468.01605 468.01508
467.0 0.002141 467.83755 467.83658
468.0 0.002137 467.65826 467.65732
442.0 0.002262 467.47821 467.47717
468.0 0.002137 467.29718 467.29614
435.0 0.002299 467.11545 467.11438
482.0 0.002075 466.93283 474.41940
440.0 0.002273 466.74948 474.75546
448.0 0.002232 466.56537 475.14728
455.0 0.002198 466.38031 475.60352
467.0 0.002141 466.19467 479.89435
442.0 0.002262 466.00809 480.77438
440.0 0.002273 465.82071 481.78516
467.0 0.002141 465.63272 482.95029
476.0 0.002101 465.44385 484.29846
514.0 0.001946 465.25424 485.86462
474.0 0.002110 465.06387 487.69476
456.0 0.002193 464.87286 489.84561
503.0 0.001988 464.68094 492.39349
508.0 0.001969 464.48834 495.43884
521.0 0.001919 464.29501 499.11484
537.0 0.001862 464.10095 503.61304
570.0 0.001754 463.90613 509.20306
584.0 0.001712 463.71069 516.29730
588.0 0.001701 463.51437 525.55573
622.0 0.001608 463.31750 538.18292
699.0 0.001431 463.11981 557.47516
756.0 0.001323 462.92154 593.99506
859.0 0.001164 462.72244 667.93500
940.0 0.001064 462.52264 788.92548
1090.0 0.000917 462.32230 958.38617
1230.0 0.000813 462.12109 1177.77808
1430.0 0.000699 461.91937 1459.71265
1826.0 0.000548 461.71695 1825.32654
2272.0 0.000440 461.51379 2310.15698
2999.0 0.0003334 461.31000 2961.90430
4182.0 0.0002391 461.10550 3918.57813
6006.0 0.0001665 460.90045 5393.03027
7454.0 0.0001342 460.69470 6918.19824
6421.0 0.0001557 460.48834 6236.02734
4292.0 0.0002330 460.28137 4076.24243
3791.0 0.0002638 460.07367 3454.56958
3935.0 0.0002541 459.86542 3660.31860
2942.0 0.0003399 459.65649 2851.46680
1557.0 0.000642 459.44696 1532.59399
866.0 0.001155 459.23679 926.45056
709.0 0.001410 459.02612 738.74860
626.0 0.001597 458.81479 662.50049
589.0 0.001698 458.60281 619.20874
575.0 0.001739 458.39020 592.00458
565.0 0.001770 458.17712 574.50903
582.0 0.001718 457.96335 563.60547
588.0 0.001701 457.74915 557.83478
576.0 0.001736 457.53430 556.89355
575.0 0.001739 457.31888 562.52643
596.0 0.001678 457.10284 581.74567
632.0 0.001582 456.88626 627.85956
741.0 0.001350 456.66916 702.56543
876.0 0.001142 456.45151 805.39532
920.0 0.001087 456.23325 940.47333
1094.0 0.000914 456.01459 1105.65271
1292.0 0.000774 455.79526 1340.39465
1675.0 0.000597 455.57547 1651.33472
2248.0 0.000445 455.35519 2085.82007
2999.0 0.0003334 455.13428 2743.58423
4118.0 0.0002428 454.91290 3694.56006
4546.0 0.0002200 454.69104 4234.33887
3401.0 0.0002940 454.46875 3214.90991
2329.0 0.000429 454.24579 2255.37207
2363.0 0.000423 454.02231 2210.50244
2330.0 0.000429 453.79849 2242.79883
1621.0 0.000617 453.57410 1552.91431
939.0 0.001065 453.34933 917.77539
662.0 0.001511 453.12402 679.44238
598.0 0.001672 452.89816 603.97748
561.0 0.001783 452.67191 569.68335
570.0 0.001754 452.44513 550.66528
539.0 0.001855 452.21808 541.55859
523.0 0.001912 451.99042 542.91309
569.0 0.001757 451.76221 556.66809
531.0 0.001883 451.53372 583.29901
575.0 0.001739 451.30466 620.53479
629.0 0.001590 451.07538 671.54468
671.0 0.001490 450.84555 741.27899
780.0 0.001282 450.61520 834.88184
892.0 0.001121 450.38452 962.27307
1182.0 0.000846 450.15338 1150.48071
1483.0 0.000674 449.92194 1442.07581
1714.0 0.000583 449.68997 1749.95874
1681.0 0.000595 449.45764 1665.36316
1318.0 0.000759 449.22498 1277.44019
1141.0 0.000876 448.99179 1191.93103
1265.0 0.000791 448.75833 1312.87439
1242.0 0.000805 448.52448 1301.23181
1117.0 0.000895 448.29010 1160.04089
1110.0 0.000901 448.05545 1188.49194
1296.0 0.000772 447.82047 1389.34460
1712.0 0.000584 447.58511 1752.82263
2177.0 0.000459 447.34937 2215.13257
2138.0 0.000468 447.11325 2241.76563
1593.0 0.000628 446.87683 1613.73767
1292.0 0.000774 446.64001 1291.11719
1300.0 0.000769 446.40289 1341.68298
1171.0 0.000854 446.16541 1284.09827
862.0 0.001160 445.92755 899.97070
602.0 0.001661 445.68939 636.46136
507.0 0.001972 445.45096 545.20062
473.0 0.002114 445.21216 512.98419
453.0 0.002208 444.97311 495.88983
438.0 0.002283 444.73361 484.84552
443.0 0.002257 444.49402 474.44751
411.0 0.002433 444.25391 468.99875
412.0 0.002427 444.01364 464.85559
420.0 0.002381 443.77304 461.60172
408.0 0.002451 443.53204 457.63748
406.0 0.002463 443.29086 455.58810
397.0 0.002519 443.04941 453.87161
433.0 0.002309 442.80771 452.41034
397.0 0.002519 442.56567 451.14706
415.0 0.002410 442.32333 450.04034
396.0 0.002525 442.08084 445.05276
436.0 0.002294 441.83801 444.50961
412.0 0.002427 441.59503 444.00989
400.0 0.002500 441.35172 443.54526
393.0 0.002545 441.10809 441.10718
431.0 0.002320 440.86438 440.86346
402.0 0.002488 440.62030 440.61942
393.0 0.002545 440.37610 440.37518
398.0 0.002513 440.13165 440.13068
376.0 0.002660 439.88687 439.88589
422.0 0.002370 439.64197 439.64105
419.0 0.002387 439.39679 439.39584
384.0 0.002604 439.15152 439.15057
408.0 0.002451 438.90591 438.90494
408.0 0.002451 438.66013 438.65918
413.0 0.002421 438.41425 438.41327
427.0 0.002342 438.16803 438.16708
434.0 0.002304 437.92169 437.92075
408.0 0.002451 437.67523 437.67426
421.0 0.002375 437.42847 437.42752
431.0 0.002320 437.18155 437.18066
430.0 0.002326 436.93454 436.93359
406.0 0.002463 436.68735 436.68643
400.0 0.002500 436.43994 436.43903
436.0 0.002294 436.19238 436.19144
432.0 0.002315 435.94470 435.94379
430.0 0.002326 435.69681 435.69586
413.0 0.002421 435.44885 435.44788
411.0 0.002433 435.20078 435.19983
415.0 0.002410 434.95233 434.95142
389.0 0.002571 434.70401 434.70306
400.0 0.002500 434.45541 434.45456
398.0 0.002513 434.20682 434.20593
368.0 0.002717 433.95804 433.95709
383.0 0.002611 433.70901 433.70813
400.0 0.002500 433.46008 439.42099
409.0 0.002445 433.21097 439.57080
426.0 0.002347 432.96176 439.76208
419.0 0.002387 432.71240 440.00101
414.0 0.002415 432.46292 444.31000
410.0 0.002439 432.21335 448.05310
412.0 0.002427 431.96375 448.99969
447.0 0.002237 431.71408 450.08871
452.0 0.002212 431.46426 453.30933
449.0 0.002227 431.21436 457.36588
442.0 0.002262 430.96448 459.36722
447.0 0.002237 430.71448 461.68201
420.0 0.002381 430.46436 464.37183
438.0 0.002283 430.21429 468.72632
423.0 0.002364 429.96399 472.51633
461.0 0.002169 429.71378 477.01120
469.0 0.002132 429.46347 482.40054
500.0 0.002000 429.21320 488.93939
543.0 0.001842 428.96274 496.99951
531.0 0.001883 428.71231 507.13400
564.0 0.001773 428.46182 520.21027
629.0 0.001590 428.21130 537.85516
618.0 0.001618 427.96078 564.38226
662.0 0.001511 427.71033 612.33307
814.0 0.001229 427.45963 702.61035
968.0 0.001033 427.20914 844.47479
1107.0 0.000903 426.95847 1045.92065
1376.0 0.000727 426.70801 1322.94592
1743.0 0.000574 426.45731 1703.26428
2172.0 0.000460 426.20663 2230.09033
2822.0 0.000354 425.95615 2966.38477
4023.0 0.0002486 425.70551 4056.10205
5590.0 0.0001789 425.45496 5630.85693
6477.0 0.0001544 425.20435 6941.92334
6020.0 0.0001661 424.95370 6292.39063
5554.0 0.0001801 424.70322 5546.23779
6312.0 0.0001584 424.45276 6285.88623
6674.0 0.0001498 424.20227 6809.94482
5312.0 0.0001883 423.95184 5387.95557
4079.0 0.0002452 423.70142 3996.05103
4318.0 0.0002316 423.45111 4015.39917
4480.0 0.0002232 423.20071 4334.20703
3455.0 0.0002894 422.95050 3315.70605
2134.0 0.000469 422.70032 2027.88586
1669.0 0.000599 422.45004 1600.12744
1706.0 0.000586 422.19992 1620.76648
1425.0 0.000702 421.94983 1459.06006
1005.0 0.000995 421.69992 1000.77026
682.0 0.001466 421.45004 719.27985
559.0 0.001789 421.20016 615.51343
556.0 0.001799 420.95044 571.41974
536.0 0.001866 420.70068 544.98059
498.0 0.002008 420.45114 526.85406
515.0 0.001942 420.20163 513.78760
510.0 0.001961 419.95215 504.12769
483.0 0.002070 419.70282 485.68924
490.0 0.002041 419.45355 481.32211
474.0 0.002110 419.20447 478.41101
465.0 0.002151 418.95541 476.78427
477.0 0.002096 418.70648 476.38647
475.0 0.002105 418.45767 477.26877
505.0 0.001980 418.20905 479.60699
503.0 0.001988 417.96045 485.54492
536.0 0.001866 417.71198 492.28995
557.0 0.001795 417.46362 503.00873
581.0 0.001721 417.21545 522.28168
652.0 0.001534 416.96735 563.28668
732.0 0.001366 416.71942 635.84662
829.0 0.001206 416.47165 752.26050
942.0 0.001062 416.22394 911.23102
1099.0 0.000910 415.97644 1121.52393
1329.0 0.000752 415.72903 1404.46338
1722.0 0.000581 415.48190 1796.53198
2415.0 0.000414 415.23486 2377.53564
3374.0 0.0002964 414.98792 3270.38916
4284.0 0.0002334 414.74118 4284.22168
4032.0 0.0002480 414.49463 4161.31494
2645.0 0.000378 414.24814 2768.37183
2097.0 0.000477 414.00198 2128.10181
2285.0 0.000438 413.75580 2282.76392
2408.0 0.000415 413.50998 2363.28955
1610.0 0.000621 413.26419 1639.97473
876.0 0.001142 413.01877 956.08136
696.0 0.001437 412.77341 691.13654
638.0 0.001567 412.52820 611.33197
555.0 0.001802 412.28333 588.42987
595.0 0.001681 412.03854 595.95984
607.0 0.001647 411.79401 628.72772
637.0 0.001570 411.54965 680.91559
698.0 0.001433 411.30539 758.37311
797.0 0.001255 411.06152 869.69495
986.0 0.001014 410.81775 1029.37793
1215.0 0.000823 410.57428 1274.87061
1544.0 0.000648 410.33099 1637.81165
1856.0 0.000539 410.08786 1924.05432
1599.0 0.000625 409.84506 1638.41309
1181.0 0.000847 409.60233 1190.45300
1100.0 0.000909 409.35995 1097.74121
1252.0 0.000799 409.11786 1205.63171
1251.0 0.000799 408.87582 1182.43604
1026.0 0.000975 408.63419 953.12280
934.0 0.001071 408.39273 872.36768
987.0 0.001013 408.15152 967.75165
1112.0 0.000899 407.91055 1158.24475
1354.0 0.000739 407.66983 1428.62634
1790.0 0.000559 407.42941 1818.63086
2520.0 0.000397 407.18915 2400.01440
3546.0 0.0002820 406.94928 3300.68018
4555.0 0.0002195 406.70959 4358.78271
4365.0 0.0002291 406.47012 4330.68799
2933.0 0.0003409 406.23105 2896.33789
2175.0 0.000460 405.99216 2157.84302
2371.0 0.000422 405.75360 2279.82227
2442.0 0.000410 405.51523 2444.96509
1794.0 0.000557 405.27710 1797.68823
1010.0 0.000990 405.03937 1030.50281
659.0 0.001517 404.80191 704.96423
566.0 0.001767 404.56470 603.65704
532.0 0.001880 404.32779 566.55475
526.0 0.001901 404.09109 554.75360
548.0 0.001825 403.85486 552.21411
518.0 0.001931 403.61884 529.88672
488.0 0.002049 403.38312 494.48676
475.0 0.002105 403.14771 477.71881
471.0 0.002123 402.91254 475.30350
468.0 0.002137 402.67773 469.39856
414.0 0.002415 402.44327 451.57669
375.0 0.002667 402.20908 436.05121
374.0 0.002674 401.97528 428.47055
375.0 0.002667 401.74167 423.56821
352.0 0.002841 401.50851 420.72269
392.0 0.002551 401.27554 418.43063
385.0 0.002597 401.04300 416.50592
340.0 0.002941 400.81079 414.84903
353.0 0.002833 400.57883 413.39761
360.0 0.002778 400.34729 412.11023
386.0 0.002591 400.11603 410.95547
407.0 0.002457 399.88516 409.91089
379.0 0.002639 399.65466 408.95834
406.0 0.002463 399.42435 403.16763
388.0 0.002577 399.19455 402.65897
389.0 0.002571 398.96500 402.18143
392.0 0.002551 398.73590 401.73068
364.0 0.002747 398.50705 398.77890
342.0 0.002924 398.27859 398.52655
368.0 0.002717 398.05054 398.27765
367.0 0.002725 397.82278 398.03168
416.0 0.002404 397.59546 397.78815
391.0 0.002558 397.36847 397.54684
346.0 0.002890 397.14182 397.30740
354.0 0.002825 396.91559 397.06973
344.0 0.002907 396.68961 396.74725
351.0 0.002849 396.46420 396.51770
371.0 0.002695 396.23907 396.28885
356.0 0.002809 396.01428 396.06076
349.0 0.002865 395.78992 395.78909
338.0 0.002959 395.56595 395.56503
373.0 0.002681 395.34241 395.34146
369.0 0.002710 395.11920 395.11835
354.0 0.002825 394.89633 394.89545
384.0 0.002604 394.67392 394.67310
372.0 0.002688 394.45193 394.45105
359.0 0.002786 394.23029 394.22946
371.0 0.002695 394.00912 394.00824
362.0 0.002762 393.78824 393.78735
342.0 0.002924 393.56787 393.56699
351.0 0.002849 393.34778 393.34698
366.0 0.002732 393.12827 393.12741
371.0 0.002695 392.90909 392.90823
367.0 0.002725 392.69034 392.68939
364.0 0.002747 392.47198 392.47107
362.0 0.002762 392.25400 392.25311
370.0 0.002703 392.03653 392.03571
351.0 0.002849 391.81946 391.81854
315.0 0.003175 391.60266 391.60190
351.0 0.002849 391.38647 391.38568
370.0 0.002703 391.17068 391.16983
379.0 0.002639 390.95538 390.95450
361.0 0.002770 390.74036 390.73959
343.0 0.002915 390.52585 390.52499
365.0 0.002740 390.31183 390.31094
386.0 0.002591 390.09814 390.09726
397.0 0.002519 389.88498 389.88416
366.0 0.002732 389.67221 389.67133
365.0 0.002740 389.45990 389.45898
369.0 0.002710 389.24805 389.24725
373.0 0.002681 389.03659 389.03571
376.0 0.002660 388.82568 388.82483
376.0 0.002660 388.61517 388.61435
323.0 0.003096 388.40506 388.40421
377.0 0.002653 388.19547 388.19464
407.0 0.002457 387.98627 387.98547
389.0 0.002571 387.77771 387.77679
378.0 0.002646 387.56952 387.56863
362.0 0.002762 387.36160 387.36081
357.0 0.002801 387.15442 387.15356
370.0 0.002703 386.94757 386.94666
362.0 0.002762 386.74130 386.74042
400.0 0.002500 386.53537 386.53458
380.0 0.002632 386.32990 386.32904
354.0 0.002825 386.12500 386.12415
361.0 0.002770 385.92053 385.91965
365.0 0.002740 385.71658 385.71570
378.0 0.002646 385.51309 385.51224
383.0 0.002611 385.31006 385.30914
353.0 0.002833 385.10748 385.10660
350.0 0.002857 384.90546 387.26111
361.0 0.002770 384.70389 387.21729
374.0 0.002674 384.50281 387.19055
349.0 0.002865 384.30219 387.18301
400.0 0.002500 384.10208 387.19778
351.0 0.002849 383.90247 388.42618
362.0 0.002762 383.70340 388.57617
388.0 0.002577 383.50476 388.76932
387.0 0.002584 383.30661 389.01294
350.0 0.002857 383.10901 389.31577
373.0 0.002681 382.91187 389.68924
377.0 0.002653 382.71536 399.13733
368.0 0.002717 382.51923 400.29813
341.0 0.002933 382.32355 401.64688
351.0 0.002849 382.12848 403.22119
388.0 0.002577 381.93390 405.07227
398.0 0.002513 381.73981 411.78986
405.0 0.002469 381.54633 414.71942
417.0 0.002398 381.35318 418.23889
408.0 0.002451 381.16068 422.53000
407.0 0.002457 380.96866 431.82471
424.0 0.002358 380.77713 438.92874
466.0 0.002146 380.58618 448.42108
495.0 0.002020 380.39566 462.66687
513.0 0.001949 380.20575 488.06363
551.0 0.001815 380.01627 536.41199
619.0 0.001616 379.82748 609.06250
704.0 0.001420 379.63910 709.92670
857.0 0.001167 379.45123 844.50183
1063.0 0.000941 379.26395 1026.27344
1315.0 0.000760 379.07712 1295.22192
1759.0 0.000569 378.89090 1710.92041
2343.0 0.000427 378.70526 2229.68701
2446.0 0.000409 378.51999 2359.11865
1969.0 0.000508 378.33536 1777.02576
1642.0 0.000609 378.15121 1429.65137
1710.0 0.000585 377.96771 1578.32520
1996.0 0.000501 377.78470 1976.05603
2091.0 0.000478 377.60211 2246.77808
2093.0 0.000478 377.42029 2337.42383
2531.0 0.000395 377.23883 2743.64136
3355.0 0.0002981 377.05798 3629.03760
4803.0 0.0002082 376.87769 5109.53027
6600.0 0.0001515 376.69788 7025.28320
6899.0 0.0001449 376.51868 7571.52490
4720.0 0.0002119 376.34000 5308.51416
3173.0 0.0003152 376.16193 3698.65405
3458.0 0.0002892 375.98431 3764.28540
4262.0 0.0002346 375.80728 4554.11279
4214.0 0.0002373 375.63089 4621.94727
3297.0 0.0003033 375.45496 3600.90308
3257.0 0.0003070 375.27957 3301.43945
3913.0 0.0002556 375.10483 3796.84204
3948.0 0.0002533 374.93060 3813.77002
2575.0 0.000388 374.75693 2756.18262
1936.0 0.000517 374.58380 2145.89966
2232.0 0.000448 374.41129 2287.56274
2748.0 0.000364 374.23923 2756.37256
2764.0 0.000362 374.06787 2768.90137
1901.0 0.000526 373.89706 1916.82703
1102.0 0.000907 373.72668 1196.09875
883.0 0.001133 373.55698 956.33441
880.0 0.001136 373.38788 954.17877
867.0 0.001153 373.21915 957.84399
749.0 0.001335 373.05121 788.59674
610.0 0.001639 372.88373 600.55463
490.0 0.002041 372.71698 512.63062
446.0 0.002242 372.55060 477.42755
440.0 0.002273 372.38486 457.25168
435.0 0.002299 372.21976 444.39212
430.0 0.002326 372.05515 434.89511
390.0 0.002564 371.89111 427.60007
380.0 0.002632 371.72775 421.86478
388.0 0.002577 371.56491 417.31931
387.0 0.002584 371.40268 404.55225
390.0 0.002564 371.24091 402.48325
390.0 0.002564 371.07986 404.17233
406.0 0.002463 370.91931 405.32095
414.0 0.002415 370.75937 409.74753
393.0 0.002545 370.60004 413.25925
401.0 0.002494 370.44128 426.35632
409.0 0.002445 370.28305 445.45908
454.0 0.002203 370.12549 470.79755
496.0 0.002016 369.96841 506.48947
525.0 0.001905 369.81198 566.74103
541.0 0.001848 369.65622 627.21075
547.0 0.001828 369.50098 604.48553
488.0 0.002049 369.34631 516.80695
468.0 0.002137 369.19223 477.06143
499.0 0.002004 369.03876 485.60522
483.0 0.002070 368.88583 505.52963
446.0 0.002242 368.73361 484.47220
433.0 0.002309 368.58194 434.18286
429.0 0.002331 368.43076 407.45776
387.0 0.002584 368.28033 399.14789
419.0 0.002387 368.13037 398.08582
420.0 0.002381 367.98105 399.60382
427.0 0.002342 367.83234 403.09534
456.0 0.002193 367.68417 408.89368
452.0 0.002212 367.53668 418.36975
472.0 0.002119 367.38971 437.87027
503.0 0.001988 367.24347 474.24860
592.0 0.001689 367.09772 538.64166
651.0 0.001536 366.95248 637.42188
732.0 0.001366 366.80807 772.65588
926.0 0.001080 366.66409 961.84955
1269.0 0.000788 366.52081 1231.49121
1878.0 0.000532 366.37808 1650.05298
2424.0 0.000413 366.23596 2210.96802
2642.0 0.000379 366.09439 2456.63477
1862.0 0.000537 365.95352 1840.88281
1231.0 0.000812 365.81326 1270.54468
1142.0 0.000876 365.67352 1180.43298
1422.0 0.000703 365.53436 1345.99084
1412.0 0.000708 365.39594 1403.12805
1080.0 0.000926 365.25803 1035.93567
638.0 0.001567 365.12079 676.16199
522.0 0.001916 364.98413 525.91125
445.0 0.002247 364.84802 475.99420
433.0 0.002309 364.71262 455.02371
459.0 0.002179 364.57776 444.58194
440.0 0.002273 364.44351 441.00116
446.0 0.002242 364.30991 441.67664
481.0 0.002079 364.17685 449.82114
500.0 0.002000 364.04440 466.25693
563.0 0.001776 363.91266 500.79095
576.0 0.001736 363.78146 557.55951
671.0 0.001490 363.65091 645.12073
798.0 0.001253 363.52094 768.91650
939.0 0.001065 363.39154 953.89471
1275.0 0.000784 363.26279 1242.36169
1694.0 0.000590 363.13474 1673.01599
2023.0 0.000494 363.00720 2114.34741
2033.0 0.000492 362.88028 2122.92261
1902.0 0.000526 362.75406 1917.78552
2124.0 0.000471 362.62833 2124.12817
2541.0 0.000394 362.50327 2541.42065
2462.0 0.000406 362.37885 2437.25610
1799.0 0.000556 362.25504 1790.60742
1322.0 0.000756 362.13177 1296.71826
1199.0 0.000834 362.00919 1209.50720
1268.0 0.000789 361.88721 1299.14111
1222.0 0.000818 361.76587 1188.27954
953.0 0.001049 361.64508 904.74316
778.0 0.001285 361.52499 792.62219
813.0 0.001230 361.40546 837.01965
1001.0 0.000999 361.28650 973.06799
1282.0 0.000780 361.16830 1216.85046
1691.0 0.000591 361.05063 1586.49292
1914.0 0.000522 360.93350 1881.95056
1562.0 0.000640 360.81705 1654.47717
1232.0 0.000812 360.70120 1303.43225
1231.0 0.000812 360.58600 1301.45850
1644.0 0.000608 360.47141 1575.29614
2114.0 0.000473 360.35748 1974.76526
2382.0 0.000420 360.24411 2187.55591
1984.0 0.000504 360.13138 1960.41870
1306.0 0.000766 360.01932 1351.72888
949.0 0.001054 359.90768 986.31781
911.0 0.001098 359.79684 948.41431
1125.0 0.000889 359.68655 1055.59863
1071.0 0.000934 359.57700 1067.31177
801.0 0.001248 359.46786 806.48279
547.0 0.001828 359.35941 572.42999
452.0 0.002212 359.25171 475.92160
388.0 0.002577 359.14447 441.01871
435.0 0.002299 359.03796 424.03253
367.0 0.002725 358.93201 411.56577
372.0 0.002688 358.82666 403.99847
393.0 0.002545 358.72192 399.63937
402.0 0.002488 358.61783 396.79764
371.0 0.002695 358.51437 395.21082
395.0 0.002532 358.41153 393.78882
414.0 0.002415 358.30923 394.68576
441.0 0.002268 358.20761 396.94965
447.0 0.002237 358.10660 401.00003
431.0 0.002320 358.00623 408.04269
441.0 0.002268 357.90643 421.73923
486.0 0.002058 357.80731 450.42667
541.0 0.001848 357.70877 500.77341
586.0 0.001706 357.61087 582.43384
699.0 0.001431 357.51361 694.48944
863.0 0.001159 357.41693 854.14233
1116.0 0.000896 357.32077 1091.99365
1457.0 0.000686 357.22537 1454.76636
1849.0 0.000541 357.13049 1857.45325
1817.0 0.000550 357.03629 1815.93286
1254.0 0.000797 356.94272 1265.03284
912.0 0.001096 356.84967 954.44580
948.0 0.001055 356.75726 961.92987
1067.0 0.000937 356.66553 1103.83276
1077.0 0.000929 356.57440 1109.51978
841.0 0.001189 356.48383 809.51733
581.0 0.001721 356.39389 557.88965
448.0 0.002232 356.30457 456.07217
431.0 0.002320 356.21582 419.84451
456.0 0.002193 356.12784 402.33707
439.0 0.002278 356.04041 391.55447
405.0 0.002469 355.95346 384.25601
400.0 0.002500 355.86725 379.04019
374.0 0.002674 355.78159 375.15311
366.0 0.002732 355.69662 373.66782
394.0 0.002538 355.61215 371.40622
388.0 0.002577 355.52841 369.60995
368.0 0.002717 355.44525 368.16580
365.0 0.002740 355.36261 366.99341
374.0 0.002674 355.28070 366.77142
389.0 0.002571 355.19931 366.04169
374.0 0.002674 355.11862 365.46573
358.0 0.002793 355.03848 365.02429
378.0 0.002646 354.95895 364.70419
391.0 0.002558 354.88004 372.22385
378.0 0.002646 354.80176 372.64197
373.0 0.002681 354.72406 373.22583
387.0 0.002584 354.64691 373.98880
358.0 0.002793 354.57043 374.95224
359.0 0.002786 354.49463 376.14493
371.0 0.002695 354.41934 379.61871
405.0 0.002469 354.34464 381.79684
391.0 0.002558 354.27060 384.39471
392.0 0.002551 354.19717 387.52859
410.0 0.002439 354.12427 391.36258
418.0 0.002392 354.05209 395.14252
427.0 0.002342 353.98047 401.35532
452.0 0.002212 353.90936 409.74799
463.0 0.002160 353.83896 422.57809
482.0 0.002075 353.76917 445.41318
504.0 0.001984 353.69992 485.74197
583.0 0.001715 353.63123 546.72394
651.0 0.001536 353.56326 635.85217
740.0 0.001351 353.49576 756.91138
942.0 0.001062 353.42899 934.35767
1255.0 0.000797 353.36279 1206.53381
1715.0 0.000583 353.29718 1511.93750
1713.0 0.000584 353.23212 1522.61169
1330.0 0.000752 353.16766 1179.66968
1115.0 0.000897 353.10385 1040.62708
1300.0 0.000769 353.04065 1208.21289
1632.0 0.000613 352.97797 1577.26318
2090.0 0.000478 352.91592 2026.33630
2348.0 0.000426 352.85440 2390.27856
3079.0 0.0003248 352.79361 3020.13428
4374.0 0.0002286 352.73331 4212.00342
5692.0 0.0001757 352.67365 5691.33545
5647.0 0.0001771 352.61453 5870.27051
3808.0 0.0002626 352.55612 3929.23950
2357.0 0.000424 352.49820 2593.23755
2326.0 0.000430 352.44089 2457.04858
2875.0 0.0003478 352.38409 2941.48486
3101.0 0.0003225 352.32803 3247.98901
2392.0 0.000418 352.27246 2409.23169
1314.0 0.000761 352.21756 1334.29761
758.0 0.001319 352.16318 830.00183
594.0 0.001684 352.10944 660.02515
547.0 0.001828 352.05624 597.72009
548.0 0.001825 352.00360 576.03400
571.0 0.001751 351.95163 578.66010
590.0 0.001695 351.90012 606.54510
643.0 0.001555 351.84930 667.84772
718.0 0.001393 351.79910 748.23407
739.0 0.001353 351.74933 763.06610
696.0 0.001437 351.70026 697.48376
674.0 0.001484 351.65173 689.78320
741.0 0.001350 351.60379 771.06976
927.0 0.001079 351.55643 928.57477
1099.0 0.000910 351.50964 1120.58374
1117.0 0.000895 351.46341 1165.53442
934.0 0.001071 351.41776 984.03400
844.0 0.001185 351.37271 878.83673
906.0 0.001104 351.32822 957.97894
1210.0 0.000826 351.28433 1180.64429
1582.0 0.000632 351.24103 1479.43994
1667.0 0.000600 351.19827 1581.02258
1231.0 0.000812 351.15604 1232.68689
817.0 0.001224 351.11441 848.92328
728.0 0.001374 351.07336 727.67975
754.0 0.001326 351.03287 769.26788
899.0 0.001112 350.99298 853.65399
854.0 0.001171 350.95367 806.50519
636.0 0.001572 350.91486 605.65088
439.0 0.002278 350.87659 467.64926
413.0 0.002421 350.83896 415.62289
403.0 0.002481 350.80197 395.46588
360.0 0.002778 350.76541 384.71155
353.0 0.002833 350.72946 377.75241
349.0 0.002865 350.69406 372.87640
355.0 0.002817 350.65930 369.28964
344.0 0.002907 350.62500 366.55066
386.0 0.002591 350.59125 364.39780
379.0 0.002639 350.55811 362.66705
365.0 0.002740 350.52548 360.84100
369.0 0.002710 350.49350 359.68460
347.0 0.002882 350.46207 358.71008
344.0 0.002907 350.43106 358.15384
326.0 0.003067 350.40070 357.45627
366.0 0.002732 350.37091 356.85410
365.0 0.002740 350.34161 355.27896
372.0 0.002688 350.31290 354.88718
331.0 0.003021 350.28476 354.54602
350.0 0.002857 350.25717 354.38892
338.0 0.002959 350.23007 354.13867
339.0 0.002950 350.20361 353.48367
346.0 0.002890 350.17758 351.91583
345.0 0.002899 350.15216 351.87338
343.0 0.002915 350.12732 351.84824
331.0 0.003021 350.10300 351.84094
370.0 0.002703 350.07919 351.85278
382.0 0.002618 350.05600 351.88541
364.0 0.002747 350.03320 351.26285
359.0 0.002786 350.01111 351.38824
358.0 0.002793 349.98941 351.54330
341.0 0.002933 349.96835 351.73639
354.0 0.002825 349.94778 351.97928
385.0 0.002597 349.92780 352.98068
385.0 0.002597 349.90826 353.42847
358.0 0.002793 349.88937 354.01373
343.0 0.002915 349.87091 354.80438
339.0 0.002950 349.85303 355.93625
365.0 0.002740 349.83569 357.77338
375.0 0.002667 349.81888 361.62323
367.0 0.002725 349.80255 368.39609
386.0 0.002591 349.78677 379.28366
410.0 0.002439 349.77151 395.88620
431.0 0.002320 349.75677 419.08743
456.0 0.002193 349.74265 455.54913
524.0 0.001908 349.72897 507.30154
605.0 0.001653 349.71582 555.74738
583.0 0.001715 349.70322 533.86395
499.0 0.002004 349.69113 461.70761
449.0 0.002227 349.67950 427.62891
449.0 0.002227 349.66846 432.04684
447.0 0.002237 349.65793 452.69992
463.0 0.002160 349.64783 462.67599
452.0 0.002212 349.63831 430.99069
401.0 0.002494 349.62930 395.18234
393.0 0.002545 349.62082 379.93729
374.0 0.002674 349.61282 376.65060
383.0 0.002611 349.60538 377.88858
366.0 0.002732 349.59839 383.04407
420.0 0.002381 349.59189 394.91766
467.0 0.002141 349.58597 416.65134
465.0 0.002151 349.58054 449.82538
487.0 0.002053 349.57559 499.97018
558.0 0.001792 349.57120 571.65723
671.0 0.001490 349.56726 679.84839
862.0 0.001160 349.56378 816.35016
897.0 0.001115 349.56088 860.60309
752.0 0.001330 349.55847 711.60693
579.0 0.001727 349.55652 587.87878
608.0 0.001645 349.55505 580.50690
667.0 0.001499 349.55411 653.39874
772.0 0.001295 349.55365 760.55554
819.0 0.001221 349.55368 828.68091
830.0 0.001205 349.55429 859.14514
933.0 0.001072 349.55521 1001.45264
1201.0 0.000833 349.55676 1267.47632
1449.0 0.000690 349.55878 1498.17664
1393.0 0.000718 349.56125 1318.81323
983.0 0.001017 349.56424 944.10382
748.0 0.001337 349.56766 799.83771
840.0 0.001190 349.57166 856.21295
1050.0 0.000952 349.57602 1014.64862
1138.0 0.000879 349.58093 1120.87769
1037.0 0.000964 349.58633 982.15094
779.0 0.001284 349.59222 731.04358
593.0 0.001686 349.59851 554.94037
512.0 0.001953 349.60535 489.06512
508.0 0.001969 349.61273 482.21771
526.0 0.001901 349.62039 503.07898
524.0 0.001908 349.62863 503.85355
473.0 0.002114 349.63736 455.99796
424.0 0.002358 349.64648 409.84012
387.0 0.002584 349.65616 388.50299
399.0 0.002506 349.66626 380.03479
394.0 0.002538 349.67685 378.05777
385.0 0.002597 349.68784 375.61069
379.0 0.002639 349.69940 373.37732
372.0 0.002688 349.71136 372.57846
394.0 0.002538 349.72379 372.27774
396.0 0.002525 349.73666 372.39676
395.0 0.002532 349.75003 372.90054
394.0 0.002538 349.76382 373.78452
400.0 0.002500 349.77811 374.71237
383.0 0.002611 349.79279 377.25015
405.0 0.002469 349.80798 379.58746
387.0 0.002584 349.82355 382.57663
404.0 0.002475 349.83963 386.39185
363.0 0.002755 349.85617 389.67883
432.0 0.002315 349.87311 396.53705
460.0 0.002174 349.89050 405.15353
493.0 0.002028 349.90833 416.93732
507.0 0.001972 349.92664 433.95853
582.0 0.001718 349.94540 461.71072
623.0 0.001605 349.96457 513.76831
737.0 0.001357 349.98422 618.11810
873.0 0.001145 350.00427 786.93750
1098.0 0.000911 350.02478 1053.91797
1507.0 0.000664 350.04575 1426.26904
2224.0 0.000450 350.06708 2008.61426
3214.0 0.0003111 350.08893 2803.56592
3796.0 0.0002634 350.11108 3377.09521
2975.0 0.0003361 350.13382 2760.12524
1725.0 0.000580 350.15683 1754.67480
1329.0 0.000752 350.18033 1363.22522
1431.0 0.000699 350.20428 1460.56396
1861.0 0.000537 350.22870 1771.15356
2028.0 0.000493 350.25345 1904.38989
1438.0 0.000695 350.27872 1424.40186
981.0 0.001019 350.30435 887.05487
683.0 0.001464 350.33041 648.11328
625.0 0.001600 350.35693 583.36127
624.0 0.001603 350.38379 586.10693
648.0 0.001543 350.41104 625.26373
741.0 0.001350 350.43875 705.77081
919.0 0.001088 350.46692 830.39941
1051.0 0.000951 350.49545 945.44788
982.0 0.001018 350.52441 881.18463
769.0 0.001300 350.55377 695.00519
643.0 0.001555 350.58347 605.74866
658.0 0.001520 350.61365 613.41101
747.0 0.001339 350.64420 669.48871
802.0 0.001247 350.67526 717.78851
774.0 0.001292 350.70657 671.91547
708.0 0.001412 350.73843 586.20770
670.0 0.001493 350.77057 557.17419
723.0 0.001383 350.80316 578.36328
807.0 0.001239 350.83615 646.40271
924.0 0.001082 350.86942 794.98993
1153.0 0.000867 350.90329 1066.44214
1514.0 0.000661 350.93744 1491.64709
2063.0 0.000485 350.97186 2127.08105
3126.0 0.0003199 351.00687 3081.82300
4822.0 0.0002074 351.04214 4459.77686
6255.0 0.0001599 351.07788 5795.86816
5622.0 0.0001779 351.11395 5330.99512
3493.0 0.0002863 351.15042 3348.96045
2206.0 0.000453 351.18732 2280.12891
2172.0 0.000460 351.22452 2245.95972
2707.0 0.000369 351.26218 2744.15601
3273.0 0.0003055 351.30008 3234.87622
2953.0 0.0003386 351.33847 2759.51050
1895.0 0.000528 351.37717 1649.41626
1097.0 0.000912 351.41626 1009.83356
789.0 0.001267 351.45572 802.40216
795.0 0.001258 351.49567 776.45514
861.0 0.001161 351.53583 839.01636
1039.0 0.000962 351.57639 972.71216
1248.0 0.000801 351.61731 1211.89880
1677.0 0.000596 351.65863 1542.16956
1899.0 0.000527 351.70032 1754.33386
1594.0 0.000627 351.74237 1526.82483
1293.0 0.000773 351.78473 1266.03943
1307.0 0.000765 351.82755 1251.32361
1569.0 0.000637 351.87061 1478.89636
2068.0 0.000484 351.91400 1846.48608
2189.0 0.000457 351.95789 1973.89478
1601.0 0.000625 352.00208 1501.09851
1068.0 0.000936 352.04657 1036.69666
927.0 0.001079 352.09146 860.36017
900.0 0.001111 352.13669 871.54364
1073.0 0.000932 352.18222 961.39777
1134.0 0.000882 352.22806 977.95105
994.0 0.001006 352.27438 828.09552
823.0 0.001215 352.32098 715.74646
812.0 0.001232 352.36789 749.81989
972.0 0.001029 352.41519 898.37152
1213.0 0.000824 352.46274 1166.50488
1595.0 0.000627 352.51071 1599.81055
2295.0 0.000436 352.55899 2251.48804
3038.0 0.0003292 352.60760 3055.74048
3455.0 0.0002894 352.65652 3524.11768
3300.0 0.0003030 352.70581 3424.75391
3087.0 0.0003239 352.75537 3270.00293
3058.0 0.0003270 352.80533 3221.51904
2630.0 0.000380 352.85553 2743.45532
2196.0 0.000455 352.90610 2368.16602
2033.0 0.000492 352.95703 2218.27441
1870.0 0.000535 353.00821 1995.99377
1665.0 0.000601 353.05975 1792.62646
1551.0 0.000645 353.11163 1630.76624
1221.0 0.000819 353.16382 1219.90771
861.0 0.001161 353.21628 830.66187
673.0 0.001486 353.26910 656.31763
646.0 0.001548 353.32217 617.23553
683.0 0.001464 353.37561 645.23279
755.0 0.001325 353.42935 724.25470
910.0 0.001099 353.48331 866.65894
1147.0 0.000872 353.53766 1092.87866
1480.0 0.000676 353.59241 1402.90015
1652.0 0.000605 353.64731 1613.30908
1432.0 0.000698 353.70255 1372.22693
1047.0 0.000955 353.75812 978.76630
889.0 0.001125 353.81393 823.40906
881.0 0.001135 353.87009 871.05817
1022.0 0.000978 353.92645 1030.16724
1165.0 0.000858 353.98322 1186.03638
1146.0 0.000873 354.04022 1152.64502
1066.0 0.000938 354.09750 1072.30457
1110.0 0.000901 354.15509 1122.56799
1124.0 0.000890 354.21298 1124.19128
895.0 0.001117 354.27118 897.45709
749.0 0.001335 354.32965 711.17999
729.0 0.001372 354.38837 672.12982
787.0 0.001271 354.44739 734.96100
920.0 0.001087 354.50665 859.85004
1014.0 0.000986 354.56628 979.97070
1034.0 0.000967 354.62607 1026.04895
1080.0 0.000926 354.68622 1144.98645
1461.0 0.000684 354.74664 1452.83704
1939.0 0.000516 354.80731 1888.12146
2214.0 0.000452 354.86823 2089.32837
1689.0 0.000592 354.92944 1651.39709
1237.0 0.000808 354.99088 1216.66992
1183.0 0.000845 355.05267 1171.72339
1500.0 0.000667 355.11469 1421.27747
2013.0 0.000497 355.17694 1879.71948
2653.0 0.000377 355.23944 2386.16577
3303.0 0.0003028 355.30228 2674.38086
3181.0 0.0003144 355.36523 2605.75757
2301.0 0.000435 355.42859 1903.10571
1389.0 0.000720 355.49216 1241.70801
1123.0 0.000890 355.55603 1026.07874
1156.0 0.000865 355.62003 1086.81409
1439.0 0.000695 355.68439 1285.08350
1676.0 0.000597 355.74896 1398.44604
1390.0 0.000719 355.81378 1125.76221
890.0 0.001124 355.87881 752.02802
575.0 0.001739 355.94406 559.20715
509.0 0.001965 356.00970 486.48044
475.0 0.002105 356.07541 455.61957
430.0 0.002326 356.14145 440.72714
443.0 0.002257 356.20773 435.22647
475.0 0.002105 356.27420 440.43289
461.0 0.002169 356.34100 460.15027
482.0 0.002075 356.40790 495.39581
528.0 0.001894 356.47513 557.41101
647.0 0.001546 356.54251 648.59851
791.0 0.001264 356.61011 780.27374
877.0 0.001140 356.67801 878.51147
794.0 0.001259 356.74615 789.71246
646.0 0.001548 356.81451 610.30206
555.0 0.001802 356.88303 530.69257
506.0 0.001976 356.95181 532.47516
556.0 0.001799 357.02084 579.89703
622.0 0.001608 357.09006 627.79224
604.0 0.001656 357.15945 596.11731
503.0 0.001988 357.22916 494.95352
442.0 0.002262 357.29901 431.60663
419.0 0.002387 357.36908 409.41220
396.0 0.002525 357.43930 404.85184
399.0 0.002506 357.50983 416.17572
455.0 0.002198 357.58047 438.54721
465.0 0.002151 357.65137 478.59720
533.0 0.001876 357.72250 537.50549
664.0 0.001506 357.79382 619.12390
658.0 0.001520 357.86536 669.86957
564.0 0.001773 357.93701 602.53845
517.0 0.001934 358.00888 498.38962
459.0 0.002179 358.08102 456.03262
454.0 0.002203 358.15329 460.32776
507.0 0.001972 358.22580 490.43268
494.0 0.002024 358.29849 518.19171
508.0 0.001969 358.37134 494.37933
453.0 0.002208 358.44443 432.74994
372.0 0.002688 358.51767 394.35220
358.0 0.002793 358.59109 378.97855
355.0 0.002817 358.66467 372.82492
372.0 0.002688 358.73846 369.56686
377.0 0.002653 358.81247 366.66467
403.0 0.002481 358.88657 365.29068
352.0 0.002841 358.96097 364.31152
360.0 0.002778 359.03543 363.59091
399.0 0.002506 359.11011 363.04752
341.0 0.002933 359.18503 362.63043
399.0 0.002506 359.26001 361.88873
345.0 0.002899 359.33524 361.66202
333.0 0.003003 359.41061 361.48724
353.0 0.002833 359.48615 361.35309
330.0 0.003030 359.56183 361.25128
359.0 0.002786 359.63770 361.29678
350.0 0.002857 359.71368 361.25070
352.0 0.002841 359.78992 361.38852
344.0 0.002907 359.86624 361.38773
361.0 0.002770 359.94275 361.40213
392.0 0.002551 360.01941 361.43021
385.0 0.002597 360.09622 360.95953
332.0 0.003012 360.17322 361.10739
338.0 0.002959 360.25031 361.20615
354.0 0.002825 360.32758 361.40112
339.0 0.002950 360.40500 361.52838
352.0 0.002841 360.48260 361.67081
345.0 0.002899 360.56024 361.83191
346.0 0.002890 360.63815 361.77542
372.0 0.002688 360.71613 362.01523
368.0 0.002717 360.79425 362.32687
337.0 0.002967 360.87256 362.78177
362.0 0.002762 360.95096 363.46063
373.0 0.002681 361.02951 364.42532
381.0 0.002625 361.10822 365.85648
371.0 0.002695 361.18701 367.85019
359.0 0.002786 361.26596 370.21561
375.0 0.002667 361.34506 371.57153
380.0 0.002632 361.42426 369.97403
361.0 0.002770 361.50366 368.72830
356.0 0.002809 361.58307 369.30969
375.0 0.002667 361.66269 371.49100
387.0 0.002584 361.74237 375.63037
397.0 0.002519 361.82214 382.29181
411.0 0.002433 361.90216 391.87869
404.0 0.002475 361.98218 408.03348
443.0 0.002257 362.06241 433.44073
467.0 0.002141 362.14267 470.60065
528.0 0.001894 362.22308 504.95242
601.0 0.001664 362.30365 514.98334
515.0 0.001942 362.38425 510.83017
449.0 0.002227 362.46506 475.08829
427.0 0.002342 362.54587 441.01880
435.0 0.002299 362.62683 434.98700
475.0 0.002105 362.70792 445.24973
441.0 0.002268 362.78903 451.89523
475.0 0.002105 362.87033 447.79785
430.0 0.002326 362.95175 435.05023
393.0 0.002545 363.03320 410.37015
369.0 0.002710 363.11475 395.32794
382.0 0.002618 363.19644 390.07980
371.0 0.002695 363.27820 389.34015
366.0 0.002732 363.36008 390.61185
363.0 0.002755 363.44193 393.64124
376.0 0.002660 363.52405 399.51547
446.0 0.002242 363.60611 410.38419
394.0 0.002538 363.68835 427.72684
436.0 0.002294 363.77063 455.35919
504.0 0.001984 363.85300 495.57330
537.0 0.001862 363.93549 550.90369
592.0 0.001689 364.01807 593.61072
620.0 0.001613 364.10065 567.80481
540.0 0.001852 364.18338 512.39667
478.0 0.002092 364.26608 493.33072
525.0 0.001905 364.34897 510.84344
589.0 0.001698 364.43188 553.39899
662.0 0.001511 364.51489 617.08936
730.0 0.001370 364.59793 692.95966
829.0 0.001206 364.68112 801.10767
1052.0 0.000951 364.76422 1013.80847
1389.0 0.000720 364.84756 1401.59424
2035.0 0.000491 364.93088 2005.06763
2937.0 0.0003405 365.01434 2861.31763
3678.0 0.0002719 365.09778 3559.72437
3236.0 0.0003090 365.18124 3132.43433
1924.0 0.000520 365.26489 1981.12476
1210.0 0.000826 365.34851 1361.79736
1143.0 0.000875 365.43216 1305.96240
1445.0 0.000692 365.51593 1550.72620
1854.0 0.000539 365.59973 1918.14636
1949.0 0.000513 365.68359 1998.13611
1496.0 0.000668 365.76755 1448.38367
907.0 0.001103 365.85150 904.16492
658.0 0.001520 365.93546 646.71515
533.0 0.001876 366.01950 550.04333
509.0 0.001965 366.10367 509.18210
515.0 0.001942 366.18774 489.80215
483.0 0.002070 366.27194 486.52472
486.0 0.002058 366.35617 497.57504
544.0 0.001838 366.44043 532.86060
609.0 0.001642 366.52472 597.29547
736.0 0.001359 366.60901 709.48456
920.0 0.001087 366.69339 875.97498
1245.0 0.000803 366.77771 1081.88867
1326.0 0.000754 366.86224 1161.06299
1030.0 0.000971 366.94666 941.09308
738.0 0.001355 367.03119 706.99988
650.0 0.001538 367.11569 624.31158
672.0 0.001488 367.20026 647.45258
763.0 0.001311 367.28479 727.42255
869.0 0.001151 367.36942 809.23462
852.0 0.001174 367.45404 776.76245
707.0 0.001414 367.53867 636.32727
607.0 0.001647 367.62326 539.54907
587.0 0.001704 367.70798 513.95349
567.0 0.001764 367.79266 524.83838
623.0 0.001605 367.87738 565.63898
738.0 0.001355 367.96210 658.06250
888.0 0.001126 368.04681 839.15753
1147.0 0.000872 368.13153 1136.40063
1683.0 0.000594 368.21637 1622.02490
2278.0 0.000439 368.30109 2330.19312
3198.0 0.0003127 368.38586 3137.24609
3380.0 0.0002959 368.47067 3303.50537
2474.0 0.000404 368.55542 2351.94116
1433.0 0.000698 368.64020 1532.53821
1139.0 0.000878 368.72498 1315.28333
1343.0 0.000745 368.80978 1489.78357
1711.0 0.000584 368.89456 1845.59778
1948.0 0.000513 368.97928 2084.59180
1809.0 0.000553 369.06409 1797.92456
1178.0 0.000849 369.14890 1174.16516
770.0 0.001299 369.23361 791.86261
606.0 0.001650 369.31839 652.32062
575.0 0.001739 369.40311 616.06006
555.0 0.001802 369.48785 591.64618
536.0 0.001866 369.57257 542.13989
478.0 0.002092 369.65732 509.07413
481.0 0.002079 369.74194 510.30945
529.0 0.001890 369.82666 539.42834
590.0 0.001695 369.91129 585.34491
637.0 0.001570 369.99588 608.81207
581.0 0.001721 370.08057 558.16333
482.0 0.002075 370.16513 489.10345
433.0 0.002309 370.24976 458.41180
439.0 0.002278 370.33429 458.31296
452.0 0.002212 370.41882 475.19659
500.0 0.002000 370.50330 497.25650
476.0 0.002101 370.58774 499.02139
424.0 0.002358 370.67212 464.29306
408.0 0.002451 370.75662 434.57007
403.0 0.002481 370.84097 423.76883
401.0 0.002494 370.92532 425.58777
415.0 0.002410 371.00961 430.46405
469.0 0.002132 371.09393 449.81314
491.0 0.002037 371.17816 480.03058
539.0 0.001855 371.26233 519.18109
573.0 0.001745 371.34659 543.53876
534.0 0.001873 371.43060 518.38635
511.0 0.001957 371.51474 482.77130
525.0 0.001905 371.59872 473.48111
537.0 0.001862 371.68271 493.63699
591.0 0.001692 371.76666 539.95990
662.0 0.001511 371.85056 623.67780
754.0 0.001326 371.93439 747.69031
943.0 0.001060 372.01819 914.23572
1246.0 0.000803 372.10187 1220.97852
1758.0 0.000569 372.18564 1643.63416
2293.0 0.000436 372.26917 2040.49780
2116.0 0.000473 372.35278 1968.14661
1626.0 0.000615 372.43631 1607.51160
1402.0 0.000713 372.51971 1479.19153
1318.0 0.000759 372.60321 1397.54565
1237.0 0.000808 372.68655 1270.54749
1297.0 0.000771 372.76981 1286.99976
1375.0 0.000727 372.85300 1357.10779
1271.0 0.000787 372.93622 1232.23230
1093.0 0.000915 373.01932 1075.68921
995.0 0.001005 373.10223 1059.35303
1012.0 0.000988 373.18521 1059.04907
1059.0 0.000944 373.26813 1051.50989
1068.0 0.000936 373.35095 1036.46228
887.0 0.001127 373.43369 860.94946
620.0 0.001613 373.51636 661.83105
521.0 0.001919 373.59897 572.58295
556.0 0.001799 373.68152 567.74310
595.0 0.001681 373.76395 610.12585
656.0 0.001524 373.84628 669.97394
640.0 0.001563 373.92859 678.29559
617.0 0.001621 374.01077 584.80426
498.0 0.002008 374.09296 492.57819
432.0 0.002315 374.17502 447.76132
413.0 0.002421 374.25693 430.40826
395.0 0.002532 374.33884 423.01682
377.0 0.002653 374.42062 419.35565
416.0 0.002404 374.50229 418.00955
432.0 0.002315 374.58389 418.33490
446.0 0.002242 374.66553 420.21021
427.0 0.002342 374.74689 421.08780
453.0 0.002208 374.82819 427.03882
454.0 0.002203 374.90945 437.25159
465.0 0.002151 374.99069 452.81534
510.0 0.001961 375.07172 480.42950
565.0 0.001770 375.15265 533.46167
632.0 0.001582 375.23352 618.45868
804.0 0.001244 375.31424 761.54242
1057.0 0.000946 375.39496 981.05737
1277.0 0.000783 375.47549 1251.85510
1417.0 0.000706 375.55594 1401.92627
1473.0 0.000679 375.63635 1421.27649
1626.0 0.000615 375.71661 1602.63574
1961.0 0.000510 375.79681 1895.09485
1993.0 0.000502 375.87680 1913.75598
1636.0 0.000611 375.95676 1528.81519
1254.0 0.000797 376.03653 1223.39343
1034.0 0.000967 376.11627 1073.16736
995.0 0.001005 376.19589 998.86041
1031.0 0.000970 376.27536 1051.70435
1104.0 0.000906 376.35471 1149.62732
1073.0 0.000932 376.43390 1075.54028
882.0 0.001134 376.51306 810.73364
616.0 0.001623 376.59213 606.47974
535.0 0.001869 376.67108 516.17908
506.0 0.001976 376.74985 483.99118
506.0 0.001976 376.82852 471.51538
482.0 0.002075 376.90707 461.88611
491.0 0.002037 376.98547 457.04282
477.0 0.002096 377.06378 467.43823
512.0 0.001953 377.14191 501.07416
589.0 0.001698 377.22003 562.02368
616.0 0.001623 377.29788 667.35638
744.0 0.001344 377.37567 816.41339
943.0 0.001060 377.45337 962.86890
899.0 0.001112 377.53085 942.72595
682.0 0.001466 377.60831 734.21405
563.0 0.001776 377.68558 581.95636
529.0 0.001890 377.76266 536.96259
545.0 0.001835 377.83969 565.03046
589.0 0.001698 377.91656 625.96576
596.0 0.001678 377.99323 687.92163
609.0 0.001642 378.06982 667.69843
572.0 0.001748 378.14630 554.95001
470.0 0.002128 378.22263 471.96359
424.0 0.002358 378.29877 433.46109
416.0 0.002404 378.37479 421.17581
418.0 0.002392 378.45068 414.17422
413.0 0.002421 378.52643 410.78464
397.0 0.002519 378.60205 410.82260
381.0 0.002625 378.67749 409.92075
420.0 0.002381 378.75278 410.15891
420.0 0.002381 378.82794 410.15622
401.0 0.002494 378.90289 411.72980
439.0 0.002278 378.97778 413.91620
436.0 0.002294 379.05243 416.76895
455.0 0.002198 379.12704 420.39102
470.0 0.002128 379.20139 424.91135
441.0 0.002268 379.27563 430.63452
440.0 0.002273 379.34970 437.88022
460.0 0.002174 379.42361 447.18365
488.0 0.002049 379.49744 459.37570
509.0 0.001965 379.57101 475.80096
530.0 0.001887 379.64447 498.90366
573.0 0.001745 379.71780 534.19934
649.0 0.001541 379.79089 594.84259
774.0 0.001292 379.86389 712.54083
1027.0 0.000974 379.93668 925.24103
1387.0 0.000721 380.00931 1272.29919
1892.0 0.000529 380.08173 1861.13171
2613.0 0.000383 380.15411 2631.47144
3230.0 0.0003096 380.22623 3263.52905
3246.0 0.0003081 380.29819 3221.65698
3131.0 0.0003194 380.37003 3043.85327
3068.0 0.0003259 380.44162 3073.49292
2621.0 0.000382 380.51306 2629.02954
2061.0 0.000485 380.58435 2064.34863
1878.0 0.000532 380.65555 1946.90002
1958.0 0.000511 380.72641 2054.73926
1859.0 0.000538 380.79715 1942.99084
1713.0 0.000584 380.86777 1776.18347
1633.0 0.000612 380.93814 1716.01404
1410.0 0.000709 381.00842 1408.26648
989.0 0.001011 381.07852 968.88629
698.0 0.001433 381.14838 705.70502
590.0 0.001695 381.21805 591.76678
543.0 0.001842 381.28760 542.16650
494.0 0.002024 381.35690 519.50671
487.0 0.002053 381.42606 504.18387
476.0 0.002101 381.49503 495.53931
479.0 0.002088 381.56384 491.80075
492.0 0.002033 381.63235 492.22968
481.0 0.002079 381.70084 496.76547
461.0 0.002169 381.76907 505.97122
501.0 0.001996 381.83707 523.01886
559.0 0.001789 381.90485 547.59052
613.0 0.001631 381.97256 587.50787
745.0 0.001342 382.03998 661.35162
794.0 0.001259 382.10727 810.74438
1151.0 0.000869 382.17435 1098.60645
1603.0 0.000624 382.24118 1571.75159
2188.0 0.000457 382.30789 2363.20215
3216.0 0.0003109 382.37442 3367.41187
3923.0 0.0002549 382.44067 4100.52881
3380.0 0.0002959 382.50681 3467.77173
2027.0 0.000493 382.57272 2154.67822
1305.0 0.000766 382.63840 1441.18225
1161.0 0.000861 382.70386 1315.34839
1480.0 0.000676 382.76923 1548.46301
1858.0 0.000538 382.83429 1974.27014
2153.0 0.000464 382.89923 2347.02100
2031.0 0.000492 382.96387 2102.50537
1405.0 0.000712 383.02838 1413.84790
988.0 0.001012 383.09265 973.17950
784.0 0.001276 383.15665 836.08966
814.0 0.001229 383.22052 889.81415
990.0 0.001010 383.28427 1085.54199
1319.0 0.000758 383.34766 1455.79504
1792.0 0.000558 383.41089 2000.61426
2343.0 0.000427 383.47403 2514.97827
2364.0 0.000423 383.53677 2394.67676
1688.0 0.000592 383.59940 1640.66394
1044.0 0.000958 383.66177 1109.39587
883.0 0.001133 383.72397 959.12207
931.0 0.001074 383.78598 1050.60437
1138.0 0.000879 383.84769 1301.45227
1447.0 0.000691 383.90924 1597.32947
1556.0 0.000643 383.97058 1645.36975
1309.0 0.000764 384.03171 1274.70203
889.0 0.001125 384.09259 878.16333
625.0 0.001600 384.15323 665.24994
525.0 0.001905 384.21375 585.53644
524.0 0.001908 384.27390 566.43390
551.0 0.001815 384.33389 573.16095
592.0 0.001689 384.39374 611.29761
648.0 0.001543 384.45331 664.65741
701.0 0.001427 384.51266 730.53009
861.0 0.001161 384.57178 860.15118
1083.0 0.000923 384.63068 1102.03345
1316.0 0.000760 384.68930 1379.30164
1467.0 0.000682 384.74777 1449.45532
1215.0 0.000823 384.80603 1120.43945
853.0 0.001172 384.86404 792.97589
657.0 0.001522 384.92178 659.74847
605.0 0.001653 384.97931 662.20660
725.0 0.001379 385.03668 751.09381
856.0 0.001168 385.09372 877.71808
908.0 0.001101 385.15054 943.82001
832.0 0.001202 385.20718 808.66443
609.0 0.001642 385.26352 615.07983
478.0 0.002092 385.31967 501.18100
459.0 0.002179 385.37558 455.55972
382.0 0.002618 385.43127 436.34628
420.0 0.002381 385.48672 426.77167
436.0 0.002294 385.54193 421.84460
416.0 0.002404 385.59686 421.28125
414.0 0.002415 385.65161 422.74487
447.0 0.002237 385.70615 423.25647
465.0 0.002151 385.76044 422.59888
402.0 0.002488 385.81439 421.43890
450.0 0.002222 385.86819 426.36035
499.0 0.002004 385.92172 440.36975
485.0 0.002062 385.97507 459.94135
480.0 0.002083 386.02805 472.24347
476.0 0.002101 386.08090 460.36847
412.0 0.002427 386.13342 436.67081
433.0 0.002309 386.18573 422.42078
431.0 0.002320 386.23785 418.80994
405.0 0.002469 386.28964 422.90121
415.0 0.002410 386.34128 431.73602
422.0 0.002370 386.39261 438.26364
451.0 0.002217 386.44376 437.46979
434.0 0.002304 386.49463 428.51431
394.0 0.002538 386.54520 426.56329
412.0 0.002427 386.59552 436.77341
414.0 0.002415 386.64563 456.88947
439.0 0.002278 386.69547 493.20639
517.0 0.001934 386.74515 544.08203
526.0 0.001901 386.79453 596.87280
546.0 0.001832 386.84354 627.61652
655.0 0.001527 386.89236 649.65240
711.0 0.001406 386.94101 652.43787
633.0 0.001580 386.98926 600.30438
551.0 0.001815 387.03741 565.13049
549.0 0.001821 387.08524 590.85699
625.0 0.001600 387.13281 667.28693
741.0 0.001350 387.18015 779.29846
876.0 0.001142 387.22720 895.05737
926.0 0.001080 387.27402 931.63483
835.0 0.001198 387.32056 797.79144
705.0 0.001418 387.36682 654.68549
667.0 0.001499 387.41290 611.06775
684.0 0.001462 387.45862 661.85529
796.0 0.001256 387.50418 804.21844
1001.0 0.000999 387.54944 1042.60620
1265.0 0.000791 387.59439 1373.74194
1606.0 0.000623 387.63916 1655.92627
1582.0 0.000632 387.68362 1651.43408
1203.0 0.000831 387.72787 1245.78821
859.0 0.001164 387.77176 880.05859
741.0 0.001350 387.81543 740.05054
752.0 0.001330 387.85892 761.99432
838.0 0.001193 387.90207 903.42352
1117.0 0.000895 387.94492 1135.11609
1405.0 0.000712 387.98749 1377.85010
1515.0 0.000660 388.02988 1482.16309
1479.0 0.000676 388.07196 1497.80444
1376.0 0.000727 388.11383 1401.98999
1120.0 0.000893 388.15536 1125.64978
924.0 0.001082 388.19662 964.48962
1037.0 0.000964 388.23764 1010.67883
1187.0 0.000842 388.27841 1154.89783
1299.0 0.000770 388.31888 1215.93359
1170.0 0.000855 388.35907 1126.10925
980.0 0.001020 388.39905 1027.70532
868.0 0.001152 388.43863 871.06750
745.0 0.001342 388.47809 725.76447
669.0 0.001495 388.51721 686.21350
702.0 0.001425 388.55606 716.35699
718.0 0.001393 388.59467 737.16571
743.0 0.001346 388.63297 661.52106
584.0 0.001712 388.67099 559.97693
494.0 0.002024 388.70877 503.85788
504.0 0.001984 388.74625 487.49149
489.0 0.002045 388.78345 496.88684
565.0 0.001770 388.82037 531.92438
623.0 0.001605 388.85703 598.69916
693.0 0.001443 388.89340 706.87286
833.0 0.001200 388.92947 835.01172
869.0 0.001151 388.96530 891.85236
818.0 0.001222 389.00089 798.95093
766.0 0.001305 389.03616 718.24524
821.0 0.001218 389.07117 754.20123
970.0 0.001031 389.10596 881.46631
1164.0 0.000859 389.14029 1008.47742
1124.0 0.000890 389.17447 990.05084
955.0 0.001047 389.20831 865.97815
809.0 0.001236 389.24197 735.02527
645.0 0.001550 389.27524 627.35205
584.0 0.001712 389.30832 589.75629
597.0 0.001675 389.34106 616.19189
700.0 0.001429 389.37357 667.18323
749.0 0.001335 389.40567 675.73956
656.0 0.001524 389.43768 604.55646
587.0 0.001704 389.46927 541.33521
540.0 0.001852 389.50061 533.35699
535.0 0.001869 389.53165 573.60974
627.0 0.001595 389.56241 653.89050
753.0 0.001328 389.59286 782.21857
834.0 0.001199 389.62311 884.87885
805.0 0.001242 389.65305 876.23541
779.0 0.001284 389.68271 822.99872
817.0 0.001224 389.71198 877.55969
931.0 0.001074 389.74109 1051.17615
1041.0 0.000961 389.76984 1168.00549
941.0 0.001063 389.79837 1071.05945
800.0 0.001250 389.82654 892.80878
729.0 0.001372 389.85449 778.12738
650.0 0.001538 389.88205 689.14551
589.0 0.001698 389.90942 651.82434
627.0 0.001595 389.93649 689.64447
684.0 0.001462 389.96317 756.46851
717.0 0.001395 389.98969 750.88617
577.0 0.001733 390.01584 635.79047
505.0 0.001980 390.04181 532.64996
481.0 0.002079 390.06735 483.80978
431.0 0.002320 390.09265 472.33273
447.0 0.002237 390.11774 482.47357
503.0 0.001988 390.14243 508.58167
559.0 0.001789 390.16684 554.48657
613.0 0.001631 390.19101 605.40430
576.0 0.001736 390.21487 617.60052
577.0 0.001733 390.23843 581.47955
579.0 0.001727 390.26175 574.41034
616.0 0.001623 390.28470 637.52930
726.0 0.001377 390.30737 768.50916
964.0 0.001037 390.32977 982.04327
1202.0 0.000832 390.35190 1180.20801
1209.0 0.000827 390.37375 1157.48364
916.0 0.001092 390.39523 894.06213
663.0 0.001508 390.41647 675.27161
528.0 0.001894 390.43735 589.50800
567.0 0.001764 390.45804 594.62531
659.0 0.001517 390.47833 653.73047
741.0 0.001350 390.49835 753.73883
868.0 0.001152 390.51816 818.01398
785.0 0.001274 390.53760 772.12622
737.0 0.001357 390.55673 696.02814
721.0 0.001387 390.57562 712.94861
810.0 0.001235 390.59418 829.19989
947.0 0.001056 390.61243 1017.87567
1029.0 0.000972 390.63040 1107.36853
916.0 0.001092 390.64807 947.56720
694.0 0.001441 390.66556 709.27930
568.0 0.001761 390.68253 583.08728
521.0 0.001919 390.69937 555.23004
548.0 0.001825 390.71585 585.10992
642.0 0.001558 390.73203 657.93634
741.0 0.001350 390.74792 743.92554
738.0 0.001355 390.76352 750.84131
610.0 0.001639 390.77890 638.35413
513.0 0.001949 390.79379 527.72540
449.0 0.002227 390.80850 471.21292
416.0 0.002404 390.82291 448.34290
432.0 0.002315 390.83704 442.96185
443.0 0.002257 390.85080 438.91434
429.0 0.002331 390.86435 437.64758
418.0 0.002392 390.87750 438.43387
424.0 0.002358 390.89047 439.50302
405.0 0.002469 390.90311 444.31110
406.0 0.002463 390.91541 452.95578
448.0 0.002232 390.92740 464.06406
480.0 0.002083 390.93912 483.15717
512.0 0.001953 390.95047 512.08270
580.0 0.001724 390.96158 567.97528
691.0 0.001447 390.97241 681.01306
831.0 0.001203 390.98294 894.15460
1163.0 0.000860 390.99310 1222.94702
1576.0 0.000635 391.00305 1700.81677
2034.0 0.000492 391.01263 2038.04712
1884.0 0.000531 391.02191 1824.28101
1245.0 0.000803 391.03098 1249.36365
897.0 0.001115 391.03970 879.64453
731.0 0.001368 391.04810 767.05640
735.0 0.001361 391.05615 815.20990
967.0 0.001034 391.06400 964.11224
1139.0 0.000878 391.07144 1189.82654
1321.0 0.000757 391.07864 1304.36279
1094.0 0.000914 391.08554 1127.13867
909.0 0.001100 391.09213 852.78131
750.0 0.001333 391.09842 704.81592
716.0 0.001397 391.10440 676.21802
776.0 0.001289 391.11011 736.76746
965.0 0.001036 391.11551 906.87640
1167.0 0.000857 391.12061 1233.72559
1688.0 0.000592 391.12534 1740.82690
2486.0 0.000402 391.12979 2420.96924
3009.0 0.0003323 391.13403 2767.39648
2449.0 0.000408 391.13785 2311.43555
1719.0 0.000582 391.14151 1626.33264
1336.0 0.000749 391.14471 1340.71753
1436.0 0.000696 391.14771 1440.86304
1725.0 0.000580 391.15039 1695.00952
1877.0 0.000533 391.15274 1873.99536
1916.0 0.000522 391.15482 1992.67786
2062.0 0.000485 391.15652 2023.91492
1882.0 0.000531 391.15802 1824.11011
1729.0 0.000578 391.15915 1728.29822
1814.0 0.000551 391.16003 1828.71814
1764.0 0.000567 391.16055 1794.93140
1451.0 0.000689 391.16080 1474.23718
1113.0 0.000898 391.16071 1124.01184
895.0 0.001117 391.16040 890.36310
836.0 0.001196 391.15967 825.94214
905.0 0.001105 391.15875 895.38989
1051.0 0.000951 391.15747 1084.78931
1312.0 0.000762 391.15588 1322.19519
1518.0 0.000659 391.15399 1481.28638
1634.0 0.000612 391.15186 1558.23206
1575.0 0.000635 391.14935 1507.51538
1301.0 0.000769 391.14661 1220.97571
1027.0 0.000974 391.14349 960.90314
955.0 0.001047 391.14008 910.04926
1121.0 0.000892 391.13644 1076.18298
1483.0 0.000674 391.13239 1439.46167
2018.0 0.000496 391.12814 2012.95483
2558.0 0.000391 391.12350 2547.77417
2508.0 0.000399 391.11862 2455.77173
1877.0 0.000533 391.11343 1726.30737
1204.0 0.000831 391.10788 1144.75818
931.0 0.001074 391.10211 918.30493
883.0 0.001133 391.09595 932.81836
1006.0 0.000994 391.08951 1068.57959
1227.0 0.000815 391.08286 1265.48328
1330.0 0.000752 391.07590 1393.02795
1252.0 0.000799 391.06854 1257.08997
926.0 0.001080 391.06085 925.03009
716.0 0.001397 391.05292 690.21777
557.0 0.001795 391.04477 587.77344
506.0 0.001976 391.03622 554.56708
516.0 0.001938 391.02740 542.04327
492.0 0.002033 391.01828 518.39990
436.0 0.002294 391.00873 484.89658
423.0 0.002364 390.99899 462.70084
412.0 0.002427 390.98904 448.91019
430.0 0.002326 390.97867 441.77203
454.0 0.002203 390.96805 437.81879
426.0 0.002347 390.95712 434.62701
451.0 0.002217 390.94586 433.78983
391.0 0.002558 390.93430 434.33405
419.0 0.002387 390.92249 434.16464
427.0 0.002342 390.91040 438.61813
436.0 0.002294 390.89786 443.30518
437.0 0.002288 390.88510 450.32144
463.0 0.002160 390.87210 460.89230
501.0 0.001996 390.85883 478.53696
557.0 0.001795 390.84509 509.17957
588.0 0.001701 390.83121 566.51068
747.0 0.001339 390.81696 691.19989
958.0 0.001044 390.80237 903.12549
1314.0 0.000761 390.78757 1219.84045
1696.0 0.000590 390.77240 1549.17786
1731.0 0.000578 390.75693 1568.70239
1317.0 0.000759 390.74124 1189.61401
869.0 0.001151 390.72519 842.77087
669.0 0.001495 390.70883 687.33118
645.0 0.001550 390.69220 675.37524
698.0 0.001433 390.67529 753.66547
909.0 0.001100 390.65802 902.17554
1127.0 0.000887 390.64044 1072.21326
1233.0 0.000811 390.62265 1108.31421
1110.0 0.000901 390.60449 973.71954
969.0 0.001032 390.58606 912.94519
1060.0 0.000943 390.56738 1053.22742
1353.0 0.000739 390.54837 1384.79321
1822.0 0.000549 390.52899 1864.82104
2161.0 0.000463 390.50943 2132.53906
1902.0 0.000526 390.48947 1804.50708
1322.0 0.000756 390.46924 1242.56702
937.0 0.001067 390.44876 928.18866
877.0 0.001140 390.42798 864.97815
1011.0 0.000989 390.40689 952.28638
1126.0 0.000888 390.38544 1106.57190
1282.0 0.000780 390.36374 1305.62769
1426.0 0.000701 390.34180 1433.88904
1382.0 0.000724 390.31955 1323.48450
1176.0 0.000850 390.29691 1127.49146
1088.0 0.000919 390.27405 1094.29700
1173.0 0.000853 390.25085 1148.30054
1248.0 0.000801 390.22739 1157.82251
1228.0 0.000814 390.20364 1174.86023
1239.0 0.000807 390.17963 1163.72949
1087.0 0.000920 390.15521 1008.27148
814.0 0.001229 390.13058 809.30328
723.0 0.001383 390.10571 718.67932
690.0 0.001449 390.08044 730.73792
785.0 0.001274 390.05496 773.50531
770.0 0.001299 390.02914 789.49750
817.0 0.001224 390.00299 823.21075
877.0 0.001140 389.97656 886.81708
933.0 0.001072 389.94995 913.87616
893.0 0.001120 389.92291 922.74670
891.0 0.001122 389.89575 906.25153
741.0 0.001350 389.86813 781.52344
617.0 0.001621 389.84030 629.45154
465.0 0.002151 389.81210 543.76721
523.0 0.001912 389.78372 513.21350
518.0 0.001931 389.75500 524.20483
547.0 0.001828 389.72598 561.92670
591.0 0.001692 389.69675 621.25269
670.0 0.001493 389.66708 664.20050
639.0 0.001565 389.63715 645.12659
616.0 0.001623 389.60699 610.60767
655.0 0.001527 389.57657 642.79694
798.0 0.001253 389.54575 769.43951
950.0 0.001053 389.51474 992.41748
1179.0 0.000848 389.48346 1273.76868
1288.0 0.000776 389.45187 1379.92603
1082.0 0.000924 389.41992 1131.91724
769.0 0.001300 389.38776 811.22675
623.0 0.001605 389.35535 637.33521
552.0 0.001812 389.32248 589.94147
550.0 0.001818 389.28949 625.67889
686.0 0.001458 389.25620 716.16650
794.0 0.001259 389.22250 842.71283
885.0 0.001130 389.18860 909.32458
807.0 0.001239 389.15448 805.65161
637.0 0.001570 389.11993 630.53162
491.0 0.002037 389.08517 519.06183
446.0 0.002242 389.05014 468.31860
433.0 0.002309 389.01492 448.14761
435.0 0.002299 388.97925 438.22336
414.0 0.002415 388.94336 429.99805
396.0 0.002525 388.90720 426.09375
410.0 0.002439 388.87076 421.39618
418.0 0.002392 388.83405 418.99780
429.0 0.002331 388.79700 418.17334
422.0 0.002370 388.75970 418.54214
427.0 0.002342 388.72211 420.11694
397.0 0.002519 388.68427 423.30008
400.0 0.002500 388.64615 429.23935
439.0 0.002278 388.60770 440.30185
449.0 0.002227 388.56900 465.18524
498.0 0.002008 388.53000 506.28925
552.0 0.001812 388.49081 572.80371
630.0 0.001587 388.45120 654.41125
710.0 0.001408 388.41141 720.38379
751.0 0.001332 388.37128 736.52039
724.0 0.001381 388.33096 706.05957
678.0 0.001475 388.29034 684.11328
644.0 0.001553 388.24942 653.99866
608.0 0.001645 388.20822 596.22211
545.0 0.001835 388.16678 564.79822
581.0 0.001721 388.12500 574.90076
587.0 0.001704 388.08295 601.10352
629.0 0.001590 388.04068 614.81549
637.0 0.001570 387.99808 606.72601
594.0 0.001684 387.95523 600.60852
579.0 0.001727 387.91211 599.59784
567.0 0.001764 387.86877 588.03833
626.0 0.001597 387.82507 591.40680
718.0 0.001393 387.78113 644.58807
807.0 0.001239 387.73694 786.10651
1110.0 0.000901 387.69238 1082.25476
1501.0 0.000666 387.64764 1578.89050
2140.0 0.000467 387.60266 2261.13892
2780.0 0.000360 387.55734 2744.90942
2482.0 0.000403 387.51178 2424.97144
1559.0 0.000641 387.46594 1613.62500
959.0 0.001043 387.41989 1060.72559
825.0 0.001212 387.37347 843.04419
774.0 0.001292 387.32681 845.47540
931.0 0.001074 387.27994 1002.42566
1163.0 0.000860 387.23273 1282.46899
1445.0 0.000692 387.18533 1577.02161
1570.0 0.000637 387.13760 1555.21082
1203.0 0.000831 387.08966 1165.74817
801.0 0.001248 387.04135 812.71881
588.0 0.001701 386.99289 628.93018
501.0 0.001996 386.94409 552.98279
495.0 0.002020 386.89508 525.26532
506.0 0.001976 386.84576 525.20264
518.0 0.001931 386.79620 554.29437
546.0 0.001832 386.74634 608.17291
611.0 0.001637 386.69626 679.70294
660.0 0.001515 386.64590 713.46210
636.0 0.001572 386.59531 672.46277
620.0 0.001613 386.54440 633.15350
648.0 0.001543 386.49329 649.09705
689.0 0.001451 386.44189 691.62616
682.0 0.001466 386.39020 688.22412
637.0 0.001570 386.33829 635.60736
597.0 0.001675 386.28613 608.59241
607.0 0.001647 386.23361 608.17194
581.0 0.001721 386.18100 591.76141
559.0 0.001789 386.12808 564.95465
567.0 0.001764 386.07480 559.22406
598.0 0.001672 386.02127 585.27704
589.0 0.001698 385.96762 604.64355
597.0 0.001675 385.91367 594.59100
644.0 0.001553 385.85941 590.00641
682.0 0.001466 385.80490 628.46014
804.0 0.001244 385.75018 739.79578
1050.0 0.000952 385.69513 986.21448
1499.0 0.000667 385.63992 1444.37622
2258.0 0.000443 385.58441 2124.13184
2970.0 0.0003367 385.52869 2831.07886
2929.0 0.0003414 385.47266 2876.76758
2110.0 0.000474 385.41632 2080.27051
1318.0 0.000759 385.35980 1318.81201
867.0 0.001153 385.30313 940.01093
816.0 0.001225 385.24615 845.82379
840.0 0.001190 385.18878 939.70496
1123.0 0.000890 385.13123 1182.93347
1568.0 0.000638 385.07352 1529.17419
1793.0 0.000558 385.01550 1726.59253
1510.0 0.000662 384.95724 1472.02502
1011.0 0.000989 384.89871 1018.63916
682.0 0.001466 384.84003 719.27728
493.0 0.002028 384.78098 577.85052
482.0 0.002075 384.72177 514.99219
429.0 0.002331 384.66226 482.99857
427.0 0.002342 384.60248 463.37180
443.0 0.002257 384.54254 450.26724
432.0 0.002315 384.48233 441.02560
431.0 0.002320 384.42184 434.98499
394.0 0.002538 384.36115 431.27554
423.0 0.002364 384.30017 429.87173
418.0 0.002392 384.23898 431.13382
421.0 0.002375 384.17755 436.90500
452.0 0.002212 384.11584 456.45477
493.0 0.002028 384.05399 491.79996
532.0 0.001880 383.99182 554.50555
646.0 0.001548 383.92941 641.84094
804.0 0.001244 383.86679 709.47638
766.0 0.001305 383.80396 678.98334
619.0 0.001616 383.74081 567.96643
505.0 0.001980 383.67749 491.62808
478.0 0.002092 383.61386 460.61636
453.0 0.002208 383.55002 457.03772
436.0 0.002294 383.48596 474.12787
473.0 0.002114 383.42172 508.42276
546.0 0.001832 383.35718 551.20490
584.0 0.001712 383.29239 565.84070
543.0 0.001842 383.22745 528.45789
473.0 0.002114 383.16223 479.45880
444.0 0.002252 383.09677 453.87207
454.0 0.002203 383.03113 447.77850
451.0 0.002217 382.96515 454.95410
467.0 0.002141 382.89902 473.67407
481.0 0.002079 382.83258 502.41531
517.0 0.001934 382.76602 531.42084
534.0 0.001873 382.69922 536.86993
541.0 0.001848 382.63214 518.04193
518.0 0.001931 382.56488 508.88989
525.0 0.001905 382.49734 518.45490
596.0 0.001678 382.42953 548.86383
659.0 0.001517 382.36163 609.68628
787.0 0.001271 382.29346 729.85931
974.0 0.001027 382.22504 963.71106
1375.0 0.000727 382.15640 1356.01685
1920.0 0.000521 382.08755 1885.86157
2305.0 0.000434 382.01843 2331.85376
2245.0 0.000445 381.94910 2258.44702
1860.0 0.000538 381.87961 1850.25281
1779.0 0.000562 381.80981 1717.37549
1946.0 0.000514 381.73984 1923.39185
2115.0 0.000473 381.66971 2111.67139
1984.0 0.000504 381.59921 1925.03442
1663.0 0.000601 381.52863 1650.12195
1591.0 0.000629 381.45776 1608.87488
1558.0 0.000642 381.38672 1620.81921
1404.0 0.000712 381.31543 1442.44873
1301.0 0.000769 381.24396 1272.76013
1315.0 0.000760 381.17221 1313.24670
1407.0 0.000711 381.10025 1538.65454
1715.0 0.000583 381.02811 1753.32654
1746.0 0.000573 380.95575 1772.17261
1672.0 0.000598 380.88315 1723.28772
1348.0 0.000742 380.81042 1391.93140
967.0 0.001034 380.73743 1005.49445
806.0 0.001241 380.66412 787.60535
676.0 0.001479 380.59076 732.53101
760.0 0.001316 380.51709 797.90985
952.0 0.001050 380.44330 945.48828
1159.0 0.000863 380.36920 1125.63538
1291.0 0.000775 380.29498 1201.01794
1164.0 0.000859 380.22049 1108.92102
878.0 0.001139 380.14581 869.15735
715.0 0.001399 380.07095 671.48956
612.0 0.001634 379.99582 573.58057
530.0 0.001887 379.92056 548.17529
521.0 0.001919 379.84500 563.52271
600.0 0.001667 379.76932 589.00275
635.0 0.001575 379.69345 606.11755
569.0 0.001757 379.61734 562.93591
525.0 0.001905 379.54099 505.00400
483.0 0.002070 379.46448 471.79691
457.0 0.002188 379.38770 458.85107
471.0 0.002123 379.31082 468.87906
485.0 0.002062 379.23370 500.17102
510.0 0.001961 379.15640 568.54504
631.0 0.001585 379.07889 686.43060
760.0 0.001316 379.00113 820.08588
840.0 0.001190 378.92322 916.68243
782.0 0.001279 378.84515 822.59119
637.0 0.001570 378.76685 648.39862
516.0 0.001938 378.68835 536.25623
462.0 0.002165 378.60965 491.39505
446.0 0.002242 378.53073 491.47189
476.0 0.002101 378.45166 525.37762
557.0 0.001795 378.37238 588.07330
633.0 0.001580 378.29291 663.10364
702.0 0.001425 378.21323 719.27997
696.0 0.001437 378.13333 700.10382
712.0 0.001404 378.05334 677.75293
775.0 0.001290 377.97311 685.48737
746.0 0.001340 377.89261 656.94165
637.0 0.001570 377.81201 571.31189
539.0 0.001855 377.73132 502.26706
494.0 0.002024 377.65027 469.52466
471.0 0.002123 377.56915 462.87555
463.0 0.002160 377.48770 474.17731
518.0 0.001931 377.40622 501.86462
541.0 0.001848 377.32446 538.50348
574.0 0.001742 377.24258 574.05750
640.0 0.001563 377.16043 578.76837
637.0 0.001570 377.07813 567.50092
634.0 0.001577 376.99567 593.08423
716.0 0.001397 376.91306 690.77588
936.0 0.001068 376.83023 891.34802
1302.0 0.000768 376.74725 1178.00427
1741.0 0.000574 376.66400 1499.90820
1829.0 0.000547 376.58075 1678.29150
1772.0 0.000564 376.49710 1647.48560
1672.0 0.000598 376.41339 1672.04211
1597.0 0.000626 376.32956 1674.31213
1267.0 0.000789 376.24542 1361.73621
1030.0 0.000971 376.16116 1042.89392
938.0 0.001066 376.07678 925.77429
937.0 0.001067 375.99219 963.66364
1146.0 0.000873 375.90738 1070.51025
1204.0 0.000831 375.82242 1116.74658
1164.0 0.000859 375.73730 1098.24841
1129.0 0.000886 375.65201 1139.41846
1130.0 0.000885 375.56662 1164.81152
1164.0 0.000859 375.48099 1032.71240
963.0 0.001038 375.39514 866.67548
740.0 0.001351 375.30917 699.47766
565.0 0.001770 375.22299 581.35553
519.0 0.001927 375.13687 525.12982
525.0 0.001905 375.05029 511.58508
517.0 0.001934 374.96362 521.27063
531.0 0.001883 374.87680 540.99304
536.0 0.001866 374.78989 548.76294
610.0 0.001639 374.70279 550.11542
585.0 0.001709 374.61545 537.80231
500.0 0.002000 374.52795 497.05685
470.0 0.002128 374.44037 461.02020
456.0 0.002193 374.35260 444.97241
464.0 0.002155 374.26468 443.66147
455.0 0.002198 374.17657 448.81473
470.0 0.002128 374.08826 451.25015
466.0 0.002146 373.99985 445.52197
440.0 0.002273 373.91132 438.86295
455.0 0.002198 373.82257 439.46344
474.0 0.002110 373.73367 449.57874
484.0 0.002066 373.64465 471.63007
540.0 0.001852 373.55536 524.76385
655.0 0.001527 373.46606 626.93494
792.0 0.001263 373.37653 775.84943
924.0 0.001082 373.28693 923.49390
981.0 0.001019 373.19702 966.19727
859.0 0.001164 373.10709 814.89990
703.0 0.001422 373.01700 663.34259
640.0 0.001563 372.92673 601.35236
663.0 0.001508 372.83633 628.63544
783.0 0.001277 372.74573 758.35052
991.0 0.001009 372.65500 1016.52216
1327.0 0.000754 372.56418 1352.80688
1576.0 0.000635 372.47311 1639.36182
1537.0 0.000651 372.38199 1558.70020
1175.0 0.000851 372.29062 1146.05420
835.0 0.001198 372.19922 823.35028
651.0 0.001536 372.10764 683.37646
651.0 0.001536 372.01590 675.90790
729.0 0.001372 371.92398 753.19910
909.0 0.001100 371.83197 887.47302
998.0 0.001002 371.73984 1001.56854
1001.0 0.000999 371.64749 1051.54175
973.0 0.001028 371.55508 967.14105
782.0 0.001279 371.46249 784.72229
642.0 0.001558 371.36978 640.15430
550.0 0.001818 371.27686 561.52350
548.0 0.001825 371.18393 539.59662
563.0 0.001776 371.09079 551.27466
602.0 0.001661 370.99750 578.13641
611.0 0.001637 370.90405 599.30273
674.0 0.001484 370.81052 626.53583
717.0 0.001395 370.71686 689.54272
832.0 0.001202 370.62314 775.98535
860.0 0.001163 370.52917 834.67566
894.0 0.001119 370.43503 856.62634
864.0 0.001157 370.34088 917.40460
934.0 0.001071 370.24658 994.78363
871.0 0.001148 370.15207 941.18042
749.0 0.001335 370.05756 775.22528
628.0 0.001592 369.96274 671.66797
693.0 0.001443 369.86795 663.14636
728.0 0.001374 369.77292 730.54517
810.0 0.001235 369.67786 860.07587
1009.0 0.000991 369.58267 1045.32031
1241.0 0.000806 369.48734 1272.99609
1349.0 0.000741 369.39178 1428.32751
1276.0 0.000784 369.29623 1254.38574
921.0 0.001086 369.20053 916.65625
645.0 0.001550 369.10468 685.45160
538.0 0.001859 369.00873 580.64160
537.0 0.001862 368.91263 555.88708
536.0 0.001866 368.81644 585.61688
593.0 0.001686 368.72012 664.64478
713.0 0.001403 368.62369 769.13776
805.0 0.001242 368.52713 856.64807
856.0 0.001168 368.43045 845.25433
817.0 0.001224 368.33371 825.85803
879.0 0.001138 368.23682 926.76019
1105.0 0.000905 368.13974 1112.83704
1240.0 0.000806 368.04260 1263.99194
1186.0 0.000843 367.94531 1152.24182
961.0 0.001041 367.84802 885.32733
727.0 0.001376 367.75055 713.85876
637.0 0.001570 367.65302 656.57410
623.0 0.001605 367.55530 657.28857
660.0 0.001515 367.45749 658.77673
637.0 0.001570 367.35956 685.55927
732.0 0.001366 367.26151 756.27893
832.0 0.001202 367.16345 828.91974
777.0 0.001287 367.06519 792.01416
671.0 0.001490 366.96686 655.12506
562.0 0.001779 366.86844 554.49115
511.0 0.001957 366.76993 511.91446
483.0 0.002070 366.67123 498.90256
444.0 0.002252 366.57245 479.13089
403.0 0.002481 366.47357 447.31308
432.0 0.002315 366.37469 426.17838
424.0 0.002358 366.27557 418.92511
392.0 0.002551 366.17645 424.38257
421.0 0.002375 366.07718 444.24213
485.0 0.002062 365.97775 478.82193
487.0 0.002053 365.87833 515.58038
521.0 0.001919 365.77881 530.90002
526.0 0.001901 365.67917 501.13354
499.0 0.002004 365.57938 452.16272
414.0 0.002415 365.47958 420.46582
409.0 0.002445 365.37961 406.62051
378.0 0.002646 365.27957 404.55685
389.0 0.002571 365.17953 411.44070
402.0 0.002488 365.07922 424.72501
433.0 0.002309 364.97894 443.94623
434.0 0.002304 364.87854 455.98221
469.0 0.002132 364.77808 447.67487
438.0 0.002283 364.67746 425.04105
393.0 0.002545 364.57678 408.18814
405.0 0.002469 364.47598 401.59772
407.0 0.002457 364.37524 401.31046
405.0 0.002469 364.27426 405.06268
415.0 0.002410 364.17325 411.91052
443.0 0.002257 364.07211 425.37262
444.0 0.002252 363.97092 451.32465
514.0 0.001946 363.86969 505.76468
601.0 0.001664 363.76837 612.10748
714.0 0.001401 363.66687 779.93237
898.0 0.001114 363.56540 960.81763
1014.0 0.000986 363.46381 1049.61926
928.0 0.001078 363.36209 926.18219
780.0 0.001282 363.26035 767.37256
642.0 0.001558 363.15848 678.14307
585.0 0.001709 363.05661 618.44781
616.0 0.001623 362.95453 582.38458
608.0 0.001645 362.85251 587.85187
600.0 0.001667 362.75037 633.33557
673.0 0.001486 362.64813 708.65747
735.0 0.001361 362.54587 771.92853
706.0 0.001416 362.44342 735.52246
624.0 0.001603 362.34100 640.93787
540.0 0.001852 362.23853 578.19623
548.0 0.001825 362.13593 547.71765
566.0 0.001767 362.03323 539.74628
559.0 0.001789 361.93045 572.50311
633.0 0.001580 361.82779 649.17181
728.0 0.001374 361.72485 744.27252
738.0 0.001355 361.62192 800.75641
692.0 0.001445 361.51886 723.16595
563.0 0.001776 361.41583 591.59790
460.0 0.002174 361.31262 502.81842
443.0 0.002257 361.20947 461.98273
439.0 0.002278 361.10617 452.41751
430.0 0.002326 361.00284 465.95959
464.0 0.002155 360.89944 502.46707
547.0 0.001828 360.79602 555.46863
571.0 0.001751 360.69250 602.10651
598.0 0.001672 360.58887 597.91534
545.0 0.001835 360.48532 550.28308
505.0 0.001980 360.38156 527.04449
562.0 0.001779 360.27780 551.10559
640.0 0.001563 360.17401 615.28137
670.0 0.001493 360.07007 703.16876
803.0 0.001245 359.96609 778.17419
812.0 0.001232 359.86218 836.96222
874.0 0.001144 359.75815 893.45001
886.0 0.001129 359.65408 908.25549
922.0 0.001085 359.54987 940.44067
984.0 0.001016 359.44562 990.02820
949.0 0.001054 359.34137 937.27997
843.0 0.001186 359.23703 800.29468
689.0 0.001451 359.13272 720.14783
720.0 0.001389 359.02829 710.92462
787.0 0.001271 358.92380 735.12079
795.0 0.001258 358.81931 780.66998
863.0 0.001159 358.71472 818.75067
996.0 0.001004 358.61011 877.67798
1138.0 0.000879 358.50543 1027.59302
1355.0 0.000738 358.40076 1241.49963
1583.0 0.000632 358.29602 1415.79163
1642.0 0.000609 358.19119 1480.10144
1540.0 0.000649 358.08640 1361.46387
1297.0 0.000771 357.98148 1222.84644
1099.0 0.000910 357.87653 1037.71423
858.0 0.001166 357.77155 825.04675
656.0 0.001524 357.66660 691.80023
683.0 0.001464 357.56155 658.61029
725.0 0.001379 357.45645 713.65662
869.0 0.001151 357.35129 821.84778
963.0 0.001038 357.24612 932.52612
999.0 0.001001 357.14087 959.77789
990.0 0.001010 357.03571 947.13098
987.0 0.001013 356.93039 958.01721
926.0 0.001080 356.82507 961.57837
869.0 0.001151 356.71967 961.56311
789.0 0.001267 356.61429 927.82495
722.0 0.001385 356.50891 804.57019
695.0 0.001439 356.40344 689.11450
659.0 0.001517 356.29800 661.74646
717.0 0.001395 356.19244 723.15442
796.0 0.001256 356.08685 830.66107
852.0 0.001174 355.98132 911.19757
851.0 0.001175 355.87573 886.63672
757.0 0.001321 355.77005 818.86713
708.0 0.001412 355.66434 770.92084
677.0 0.001477 355.55869 719.80463
643.0 0.001555 355.45297 663.04730
642.0 0.001558 355.34723 660.45575
745.0 0.001342 355.24142 748.43805
912.0 0.001096 355.13556 950.69910
1192.0 0.000839 355.02979 1260.72168
1451.0 0.000689 354.92398 1604.13184
1650.0 0.000606 354.81805 1814.85205
1803.0 0.000555 354.71216 1816.71851
1587.0 0.000630 354.60626 1564.98315
1178.0 0.000849 354.50034 1178.60376
876.0 0.001142 354.39438 865.19891
657.0 0.001522 354.28842 703.39600
628.0 0.001592 354.18243 665.79266
658.0 0.001520 354.07635 723.31824
762.0 0.001312 353.97037 851.41327
937.0 0.001067 353.86432 1003.64783
1008.0 0.000992 353.75821 1086.42883
1048.0 0.000954 353.65210 1054.07556
921.0 0.001086 353.54602 894.25806
744.0 0.001344 353.43997 708.40851
592.0 0.001689 353.33377 580.98853
513.0 0.001949 353.22766 523.22815
506.0 0.001976 353.12155 518.44531
514.0 0.001946 353.01532 561.23254
665.0 0.001504 352.90921 647.10699
710.0 0.001408 352.80304 739.56860
736.0 0.001359 352.69681 767.98145
653.0 0.001531 352.59061 671.95825
536.0 0.001866 352.48447 557.05487
484.0 0.002066 352.37817 488.24396
480.0 0.002083 352.27200 460.66150
467.0 0.002141 352.16574 461.64392
521.0 0.001919 352.05948 489.28232
566.0 0.001767 351.95331 556.50067
656.0 0.001524 351.84702 675.88690
832.0 0.001202 351.74084 832.09894
986.0 0.001014 351.63449 945.93707
1005.0 0.000995 351.52826 934.34796
828.0 0.001208 351.42200 775.57617
616.0 0.001623 351.31573 606.07837
479.0 0.002088 351.20956 503.22861
425.0 0.002353 351.10333 456.86832
422.0 0.002370 350.99707 443.92310
431.0 0.002320 350.89075 453.99554
478.0 0.002092 350.78455 489.58838
554.0 0.001805 350.67831 546.95245
625.0 0.001600 350.57211 599.37665
620.0 0.001613 350.46579 597.30322
568.0 0.001761 350.35959 532.18402
477.0 0.002096 350.25333 473.68045
411.0 0.002433 350.14716 449.85315
438.0 0.002283 350.04095 461.95795
493.0 0.002028 349.93472 512.95392
581.0 0.001721 349.82852 598.81482
668.0 0.001497 349.72232 683.88770
660.0 0.001515 349.61618 698.21130
585.0 0.001709 349.51004 603.99658
486.0 0.002058 349.40384 502.33148
440.0 0.002273 349.29764 442.08777
418.0 0.002392 349.19156 416.18530
388.0 0.002577 349.08551 410.88058
405.0 0.002469 348.97934 421.69229
437.0 0.002288 348.87323 451.16669
458.0 0.002183 348.76715 495.19446
516.0 0.001938 348.66116 532.40723
507.0 0.001972 348.55515 523.69287
496.0 0.002016 348.44904 470.89560
399.0 0.002506 348.34302 424.51172
407.0 0.002457 348.23706 399.16956
363.0 0.002755 348.13107 388.09891
366.0 0.002732 348.02509 384.04807
371.0 0.002695 347.91916 383.27121
393.0 0.002545 347.81323 384.57047
383.0 0.002611 347.70734 387.78030
418.0 0.002392 347.60144 393.41742
414.0 0.002415 347.49561 402.08206
389.0 0.002571 347.38980 415.93829
425.0 0.002353 347.28394 440.76578
503.0 0.001988 347.17816 491.77521
622.0 0.001608 347.07248 593.58734
722.0 0.001385 346.96677 768.18304
950.0 0.001053 346.86099 983.54034
1165.0 0.000858 346.75531 1133.58569
1048.0 0.000954 346.64963 1081.58850
895.0 0.001117 346.54407 934.91125
772.0 0.001295 346.43845 844.81525
768.0 0.001302 346.33292 775.19666
690.0 0.001449 346.22736 666.38965
584.0 0.001712 346.12180 585.98199
552.0 0.001812 346.01633 575.87946
608.0 0.001645 345.91095 633.71979
677.0 0.001477 345.80554 721.84991
738.0 0.001355 345.70013 773.63031
720.0 0.001389 345.59479 724.86310
651.0 0.001536 345.48950 648.35065
627.0 0.001595 345.38419 602.47656
606.0 0.001650 345.27896 559.54108
500.0 0.002000 345.17377 496.61249
446.0 0.002242 345.06854 445.62662
417.0 0.002398 344.96344 416.54916
423.0 0.002364 344.85840 403.19690
382.0 0.002618 344.75330 398.88876
364.0 0.002747 344.64825 401.80872
393.0 0.002545 344.54324 413.35968
452.0 0.002212 344.43839 441.18372
509.0 0.001965 344.33347 494.58032
546.0 0.001832 344.22864 565.91443
574.0 0.001742 344.12378 618.85278
585.0 0.001709 344.01898 595.98969
506.0 0.001976 343.91428 517.52887
455.0 0.002198 343.80963 455.48511
441.0 0.002268 343.70496 424.68893
407.0 0.002457 343.60034 417.89349
429.0 0.002331 343.49579 423.38068
455.0 0.002198 343.39127 439.37448
443.0 0.002257 343.28687 467.25714
443.0 0.002257 343.18237 504.85327
553.0 0.001808 343.07806 535.62415
567.0 0.001764 342.97372 533.58728
531.0 0.001883 342.86945 518.79797
572.0 0.001748 342.76526 539.11584
622.0 0.001608 342.66104 627.22913
789.0 0.001267 342.55685 805.54358
1002.0 0.000998 342.45285 1036.98547
1086.0 0.000921 342.34882 1196.31836
1038.0 0.000963 342.24490 1102.08069
834.0 0.001199 342.14099 852.42236
662.0 0.001511 342.03708 667.57355
615.0 0.001626 341.93332 581.64276
617.0 0.001621 341.82959 561.76282
596.0 0.001678 341.72589 584.75555
723.0 0.001383 341.62222 666.22778
843.0 0.001186 341.51868 847.68274
1127.0 0.000887 341.41510 1145.69531
1360.0 0.000735 341.31158 1476.69092
1664.0 0.000601 341.20825 1628.48022
1366.0 0.000732 341.10489 1455.13745
1052.0 0.000951 341.00159 1102.32629
785.0 0.001274 340.89838 845.97363
701.0 0.001427 340.79517 715.92438
634.0 0.001577 340.69208 641.94165
562.0 0.001779 340.58899 597.08527
614.0 0.001629 340.48599 603.73547
649.0 0.001541 340.38306 677.34027
746.0 0.001340 340.28021 804.84412
863.0 0.001159 340.17743 921.19690
934.0 0.001071 340.07468 919.94135
784.0 0.001276 339.97195 803.29285
680.0 0.001471 339.86932 692.25836
612.0 0.001634 339.76682 634.97992
592.0 0.001689 339.66437 625.40973
668.0 0.001497 339.56195 671.55640
814.0 0.001229 339.45963 817.65546
1039.0 0.000962 339.35736 1101.69592
1377.0 0.000726 339.25507 1468.68396
1662.0 0.000602 339.15305 1720.68896
1548.0 0.000646 339.05090 1593.00183
1215.0 0.000823 338.94885 1239.73926
920.0 0.001087 338.84692 916.83600
717.0 0.001395 338.74509 716.29901
637.0 0.001570 338.64331 630.61951
634.0 0.001577 338.54156 628.67749
705.0 0.001418 338.43988 705.30219
816.0 0.001225 338.33832 867.46014
1026.0 0.000975 338.23685 1075.17310
1150.0 0.000870 338.13541 1207.45203
1116.0 0.000896 338.03415 1124.21045
974.0 0.001027 337.93280 926.02521
787.0 0.001271 337.83154 765.93445
690.0 0.001449 337.73050 697.16663
711.0 0.001406 337.62943 725.07935
866.0 0.001155 337.52847 837.01245
1013.0 0.000987 337.42761 995.74902
1186.0 0.000843 337.32672 1134.54407
1329.0 0.000752 337.22601 1232.07922
1481.0 0.000675 337.12537 1406.44604
1822.0 0.000549 337.02481 1833.61780
2431.0 0.000411 336.92426 2505.80591
3033.0 0.0003297 336.82385 3049.73633
2859.0 0.0003498 336.72357 2863.89453
2140.0 0.000467 336.62326 2086.34058
1419.0 0.000705 336.52307 1460.17712
1087.0 0.000920 336.42297 1155.81763
1039.0 0.000962 336.32300 1045.08020
983.0 0.001017 336.22305 989.91876
984.0 0.001016 336.12326 991.36334
1095.0 0.000913 336.02356 1137.44971
1283.0 0.000779 335.92383 1435.04871
1580.0 0.000633 335.82425 1712.73511
1688.0 0.000592 335.72470 1669.39893
1328.0 0.000753 335.62527 1273.87451
941.0 0.001063 335.52600 901.92413
703.0 0.001422 335.42673 681.46912
611.0 0.001637 335.32755 574.92755
532.0 0.001880 335.22852 518.76660
473.0 0.002114 335.12967 476.80106
451.0 0.002217 335.03067 448.41125
440.0 0.002273 334.93188 429.19424
390.0 0.002564 334.83316 416.03809
441.0 0.002268 334.73459 406.35904
456.0 0.002193 334.63605 400.40765
412.0 0.002427 334.53763 395.98712
416.0 0.002404 334.43930 393.24780
429.0 0.002331 334.34100 392.06702
439.0 0.002278 334.24292 392.59668
397.0 0.002519 334.14484 394.95255
432.0 0.002315 334.04684 399.43304
449.0 0.002227 333.94901 409.53506
503.0 0.001988 333.85123 429.91809
547.0 0.001828 333.75363 471.57367
621.0 0.001610 333.65594 550.29633
731.0 0.001368 333.55844 669.29645
869.0 0.001151 333.46109 790.05219
883.0 0.001133 333.36380 833.51172
837.0 0.001195 333.26657 779.31287
772.0 0.001295 333.16953 707.76520
681.0 0.001468 333.07248 634.59290
650.0 0.001538 332.97562 585.52942
610.0 0.001639 332.87881 571.94971
589.0 0.001698 332.78204 570.84265
608.0 0.001645 332.68549 593.52112
687.0 0.001456 332.58905 663.84747
818.0 0.001222 332.49258 776.75494
934.0 0.001071 332.39633 888.52905
971.0 0.001030 332.30005 952.03076
954.0 0.001048 332.20401 958.06299
862.0 0.001160 332.10803 859.87671
732.0 0.001366 332.01215 729.83618
684.0 0.001462 331.91638 665.43610
717.0 0.001395 331.82068 683.75677
824.0 0.001214 331.72510 803.76416
1038.0 0.000963 331.62961 1053.23462
1345.0 0.000743 331.53424 1379.74585
1535.0 0.000651 331.43900 1587.84497
1365.0 0.000733 331.34387 1451.36768
1031.0 0.000970 331.24893 1136.08643
797.0 0.001255 331.15387 862.84271
667.0 0.001499 331.05905 671.03833
573.0 0.001745 330.96436 567.75659
542.0 0.001845 330.86972 533.58099
545.0 0.001835 330.77518 558.76532
617.0 0.001621 330.68079 649.14563
765.0 0.001307 330.58652 790.76172
871.0 0.001148 330.49237 908.63434
861.0 0.001161 330.39832 879.44012
714.0 0.001401 330.30438 713.11609
568.0 0.001761 330.21048 562.48608
466.0 0.002146 330.11676 475.20062
425.0 0.002353 330.02304 434.83292
411.0 0.002433 329.92963 411.00964
439.0 0.002278 329.83624 392.85181
417.0 0.002398 329.74298 380.55322
386.0 0.002591 329.64978 372.73050
358.0 0.002793 329.55676 367.90051
364.0 0.002747 329.46384 364.00946
383.0 0.002611 329.37094 362.20837
401.0 0.002494 329.27826 363.65390
418.0 0.002392 329.18567 369.93164
404.0 0.002475 329.09320 382.59189
428.0 0.002336 329.00082 399.50473
462.0 0.002165 328.90860 408.82513
415.0 0.002410 328.81644 405.81122
412.0 0.002427 328.72446 395.28888
437.0 0.002288 328.63260 379.17505
386.0 0.002591 328.54074 365.79919
402.0 0.002488 328.44916 358.12036
393.0 0.002545 328.35764 354.61841
370.0 0.002703 328.26620 355.36194
369.0 0.002710 328.17484 359.16187
382.0 0.002618 328.08368 366.46106
399.0 0.002506 327.99268 374.82083
414.0 0.002415 327.90173 378.54611
412.0 0.002427 327.81091 377.58057
396.0 0.002525 327.72021 373.22665
396.0 0.002525 327.62967 366.84082
401.0 0.002494 327.53915 365.56720
393.0 0.002545 327.44882 367.83820
371.0 0.002695 327.35867 373.95694
393.0 0.002545 327.26852 384.47510
425.0 0.002353 327.17862 404.30847
445.0 0.002247 327.08881 440.87616
505.0 0.001980 326.99899 512.22656
632.0 0.001582 326.90945 630.10773
735.0 0.001361 326.81998 775.68109
796.0 0.001256 326.73068 833.05835
775.0 0.001290 326.64148 735.71143
681.0 0.001468 326.55243 620.59259
597.0 0.001675 326.46344 572.46539
624.0 0.001603 326.37457 614.42706
712.0 0.001404 326.28589 766.10590
861.0 0.001161 326.19736 1027.83826
1106.0 0.000904 326.10889 1280.46411
1238.0 0.000808 326.02051 1259.53552
1110.0 0.000901 325.93231 1053.41931
948.0 0.001055 325.84421 884.45837
775.0 0.001290 325.75632 740.13867
638.0 0.001567 325.66855 616.87024
560.0 0.001786 325.58084 543.77319
567.0 0.001764 325.49326 525.78015
590.0 0.001695 325.40588 566.06226
614.0 0.001629 325.31860 674.68127
743.0 0.001346 325.23145 839.56775
917.0 0.001091 325.14438 955.13855
978.0 0.001022 325.05753 917.88098
888.0 0.001126 324.97070 788.43237
754.0 0.001326 324.88419 667.34668
713.0 0.001403 324.79767 624.07947
638.0 0.001567 324.71121 658.76648
678.0 0.001475 324.62503 721.61267
742.0 0.001348 324.53897 739.10211
775.0 0.001290 324.45303 714.97113
695.0 0.001439 324.36719 651.84534
636.0 0.001572 324.28143 588.48346
581.0 0.001721 324.19592 562.52722
611.0 0.001637 324.11044 558.21332
598.0 0.001672 324.02518 543.23560
583.0 0.001715 323.94000 539.46753
618.0 0.001618 323.85495 573.37506
671.0 0.001490 323.77005 656.52789
796.0 0.001256 323.68533 786.99182
917.0 0.001091 323.60077 975.31744
1205.0 0.000830 323.51624 1222.56055
1401.0 0.000714 323.43192 1380.77344
1442.0 0.000693 323.34766 1327.22327
1340.0 0.000746 323.26367 1214.00574
1193.0 0.000838 323.17972 1061.45532
972.0 0.001029 323.09592 849.63531
802.0 0.001247 323.01227 682.80933
634.0 0.001577 322.92871 595.74408
600.0 0.001667 322.84534 577.96423
607.0 0.001647 322.76221 621.92688
676.0 0.001479 322.67905 727.42035
845.0 0.001183 322.59610 867.39294
978.0 0.001022 322.51321 949.31653
1011.0 0.000989 322.43054 958.78461
1072.0 0.000933 322.34805 992.41620
1120.0 0.000893 322.26569 1078.41492
1188.0 0.000842 322.18335 1272.09216
1403.0 0.000713 322.10126 1555.79224
1543.0 0.000648 322.01926 1627.65759
1400.0 0.000714 321.93750 1352.33569
1131.0 0.000884 321.85574 1063.16687
963.0 0.001038 321.77420 945.10870
988.0 0.001012 321.69281 1047.75159
1242.0 0.000805 321.61157 1397.03638
1709.0 0.000585 321.53049 1952.13391
2221.0 0.000450 321.44946 2375.57788
2305.0 0.000434 321.36865 2215.86890
1969.0 0.000508 321.28790 1821.44702
1603.0 0.000624 321.20740 1562.91052
1360.0 0.000735 321.12698 1351.67371
1213.0 0.000824 321.04678 1170.24902
1212.0 0.000825 320.96664 1147.58801
1262.0 0.000792 320.88663 1294.09656
1438.0 0.000695 320.80679 1457.74744
1559.0 0.000641 320.72717 1501.35400
1522.0 0.000657 320.64758 1548.75403
1544.0 0.000648 320.56824 1507.71094
1394.0 0.000717 320.48898 1228.19885
1026.0 0.000975 320.40988 920.39386
859.0 0.001164 320.33093 728.99951
781.0 0.001280 320.25211 658.72589
742.0 0.001348 320.17346 682.53217
816.0 0.001225 320.09491 763.35413
860.0 0.001163 320.01660 851.31201
869.0 0.001151 319.93835 876.58075
957.0 0.001045 319.86035 818.16272
810.0 0.001235 319.78241 734.51202
730.0 0.001370 319.70459 623.81793
566.0 0.001767 319.62698 524.08612
481.0 0.002079 319.54947 461.82870
452.0 0.002212 319.47223 432.46271
440.0 0.002273 319.39502 425.06451
444.0 0.002252 319.31793 429.71494
452.0 0.002212 319.24109 432.57840
448.0 0.002232 319.16434 428.60394
417.0 0.002398 319.08783 433.88791
453.0 0.002208 319.01135 450.75421
463.0 0.002160 318.93509 454.98904
474.0 0.002110 318.85892 427.08319
445.0 0.002247 318.78293 395.45450
404.0 0.002475 318.70712 373.68018
387.0 0.002584 318.63138 361.76123
412.0 0.002427 318.55588 355.82922
398.0 0.002513 318.48047 352.82703
399.0 0.002506 318.40533 351.29147
409.0 0.002445 318.33014 347.89313
383.0 0.002611 318.25528 347.88223
374.0 0.002674 318.18048 348.93802
358.0 0.002793 318.10583 350.68845
374.0 0.002674 318.03143 352.42972
386.0 0.002591 317.95706 356.29532
368.0 0.002717 317.88290 361.81552
388.0 0.002577 317.80890 370.02020
402.0 0.002488 317.73499 383.33701
405.0 0.002469 317.66132 406.98474
451.0 0.002217 317.58768 448.08670
529.0 0.001890 317.51434 514.14563
606.0 0.001650 317.44110 598.48285
688.0 0.001453 317.36798 668.96924
753.0 0.001328 317.29504 749.11932
856.0 0.001168 317.22226 885.71906
1020.0 0.000980 317.14960 1024.62622
1163.0 0.000860 317.07712 1114.64258
1236.0 0.000809 317.00479 1143.09326
1185.0 0.000844 316.93262 997.39941
985.0 0.001015 316.86057 785.85052
783.0 0.001277 316.78870 652.09253
655.0 0.001527 316.71701 615.05060
661.0 0.001513 316.64539 638.64832
660.0 0.001515 316.57410 656.47034
672.0 0.001488 316.50275 657.41058
683.0 0.001464 316.43170 685.99170
755.0 0.001325 316.36069 725.71564
814.0 0.001229 316.28992 753.24615
818.0 0.001222 316.21933 755.21381
801.0 0.001248 316.14877 674.88824
698.0 0.001433 316.07855 571.04236
570.0 0.001754 316.00836 511.50891
569.0 0.001757 315.93823 501.97379
570.0 0.001754 315.86850 511.90735
584.0 0.001712 315.79880 492.23425
500.0 0.002000 315.72925 444.68213
448.0 0.002232 315.65979 402.80386
394.0 0.002538 315.59064 376.89694
390.0 0.002564 315.52151 363.64578
416.0 0.002404 315.45267 357.93478
383.0 0.002611 315.38388 356.72556
422.0 0.002370 315.31531 359.01590
418.0 0.002392 315.24680 365.63855
408.0 0.002451 315.17856 376.99826
442.0 0.002262 315.11047 386.19888
419.0 0.002387 315.04245 381.51993
430.0 0.002326 314.97464 369.40701
401.0 0.002494 314.90698 360.69287
386.0 0.002591 314.83951 357.68649
386.0 0.002591 314.77216 359.55087
423.0 0.002364 314.70493 365.35416
429.0 0.002331 314.63794 375.20880
439.0 0.002278 314.57104 392.28705
438.0 0.002283 314.50436 425.78525
495.0 0.002020 314.43774 493.46326
622.0 0.001608 314.37134 624.32086
704.0 0.001420 314.30508 829.10217
876.0 0.001142 314.23904 1032.46509
976.0 0.001025 314.17316 1026.79199
821.0 0.001218 314.10739 821.18182
670.0 0.001493 314.04178 623.49518
490.0 0.002041 313.97623 502.35156
444.0 0.002252 313.91104 445.84000
465.0 0.002151 313.84589 430.10815
480.0 0.002083 313.78094 444.71188
506.0 0.001976 313.71609 491.13113
566.0 0.001767 313.65140 572.42865
634.0 0.001577 313.58694 668.55310
665.0 0.001504 313.52261 744.00720
670.0 0.001493 313.45844 724.09717
649.0 0.001541 313.39444 606.80981
547.0 0.001828 313.33054 494.25992
477.0 0.002096 313.26682 423.23581
432.0 0.002315 313.20331 386.81271
389.0 0.002571 313.13995 371.31876
395.0 0.002532 313.07669 368.17068
399.0 0.002506 313.01361 373.70016
422.0 0.002370 312.95071 383.11697
427.0 0.002342 312.88800 383.71967
415.0 0.002410 312.82538 370.72809
401.0 0.002494 312.76297 356.06982
384.0 0.002604 312.70065 346.36725
383.0 0.002611 312.63855 341.46829
366.0 0.002732 312.57663 339.64444
364.0 0.002747 312.51480 339.52130
336.0 0.002976 312.45319 340.74146
347.0 0.002882 312.39175 343.24823
361.0 0.002770 312.33041 347.33578
389.0 0.002571 312.26926 353.92807
387.0 0.002584 312.20825 364.93173
396.0 0.002525 312.14737 382.99725
391.0 0.002558 312.08679 413.30615
416.0 0.002404 312.02621 463.20184
570.0 0.001754 311.96594 547.37506
667.0 0.001499 311.90570 689.37201
785.0 0.001274 311.84561 871.57159
935.0 0.001070 311.78577 954.26038
892.0 0.001121 311.72614 827.63483
669.0 0.001495 311.66647 640.61432
542.0 0.001845 311.60715 507.64011
451.0 0.002217 311.54785 437.30008
418.0 0.002392 311.48877 407.92850
360.0 0.002778 311.42993 402.27615
438.0 0.002283 311.37115 413.36038
470.0 0.002128 311.31253 442.97113
504.0 0.001984 311.25409 501.06512
558.0 0.001792 311.19583 586.34052
583.0 0.001715 311.13770 644.34955
612.0 0.001634 311.07974 600.23352
590.0 0.001695 311.02194 505.48431
500.0 0.002000 310.96429 431.46176
427.0 0.002342 310.90683 390.45053
365.0 0.002740 310.84952 371.81433
380.0 0.002632 310.79239 362.31064
363.0 0.002755 310.73532 354.27319
367.0 0.002725 310.67853 348.08551
366.0 0.002732 310.62186 345.08701
373.0 0.002681 310.56528 345.75522
398.0 0.002513 310.50894 350.99472
389.0 0.002571 310.45276 364.71362
407.0 0.002457 310.39670 392.51324
471.0 0.002123 310.34079 437.07806
548.0 0.001825 310.28510 483.82028
598.0 0.001672 310.22958 489.64133
547.0 0.001828 310.17410 450.67233
444.0 0.002252 310.11884 408.99951
420.0 0.002381 310.06378 382.19528
429.0 0.002331 310.00882 370.87238
421.0 0.002375 309.95413 373.30588
419.0 0.002387 309.89951 386.16940
448.0 0.002232 309.84503 406.13068
476.0 0.002101 309.79071 436.29868
489.0 0.002045 309.73663 480.79831
532.0 0.001880 309.68268 516.31128
560.0 0.001786 309.62881 506.31757
557.0 0.001795 309.57516 461.75052
487.0 0.002053 309.52164 419.71014
444.0 0.002252 309.46832 398.71719
440.0 0.002273 309.41516 398.43475
453.0 0.002208 309.36212 422.39624
457.0 0.002188 309.30927 480.46753
538.0 0.001859 309.25656 582.12762
651.0 0.001536 309.20407 711.28204
715.0 0.001399 309.15161 783.31842
679.0 0.001473 309.09946 719.17474
627.0 0.001595 309.04733 593.21069
485.0 0.002062 308.99539 489.41495
443.0 0.002257 308.94370 426.38654
425.0 0.002353 308.89212 396.85199
413.0 0.002421 308.84070 387.35349
416.0 0.002404 308.78937 392.46414
432.0 0.002315 308.73828 415.38766
428.0 0.002336 308.68729 463.95117
515.0 0.001942 308.63651 540.54065
590.0 0.001695 308.58585 616.88879
580.0 0.001724 308.53537 632.14520
598.0 0.001672 308.48499 594.43317
540.0 0.001852 308.43494 542.70697
499.0 0.002004 308.38489 498.88733
479.0 0.002088 308.33496 478.39047
472.0 0.002119 308.28525 461.54630
424.0 0.002358 308.23575 434.54758
414.0 0.002415 308.18640 411.90463
410.0 0.002439 308.13715 402.64746
404.0 0.002475 308.08810 408.24899
466.0 0.002146 308.03915 426.76331
439.0 0.002278 307.99039 457.63635
532.0 0.001880 307.94180 507.43848
582.0 0.001718 307.89334 588.84668
714.0 0.001401 307.84506 711.75604
850.0 0.001176 307.79691 864.31128
940.0 0.001064 307.74893 943.09680
895.0 0.001117 307.70114 859.84344
768.0 0.001302 307.65344 697.66119
628.0 0.001592 307.60593 565.01764
518.0 0.001931 307.55856 488.82169
455.0 0.002198 307.51135 455.92554
478.0 0.002092 307.46436 449.84839
472.0 0.002119 307.41748 463.97391
519.0 0.001927 307.37073 502.11246
588.0 0.001701 307.32416 574.61572
693.0 0.001443 307.27777 690.29877
830.0 0.001205 307.23148 832.92712
984.0 0.001016 307.18533 962.34521
1114.0 0.000898 307.13934 1098.33252
1314.0 0.000761 307.09360 1314.13037
1559.0 0.000641 307.04794 1570.20496
1632.0 0.000613 307.00244 1647.10693
1565.0 0.000639 306.95712 1560.32654
1446.0 0.000692 306.91193 1415.13831
1211.0 0.000826 306.86688 1152.87402
926.0 0.001080 306.82205 882.30164
705.0 0.001418 306.77728 704.62213
626.0 0.001597 306.73276 622.78467
611.0 0.001637 306.68832 616.14056
671.0 0.001490 306.64407 668.48639
738.0 0.001355 306.59991 776.96350
878.0 0.001139 306.55600 938.01831
1044.0 0.000958 306.51224 1081.58740
1133.0 0.000883 306.46854 1143.85913
1194.0 0.000838 306.42505 1214.13416
1298.0 0.000770 306.38174 1298.22998
1346.0 0.000743 306.33847 1315.26538
1235.0 0.000810 306.29544 1170.65295
1009.0 0.000991 306.25259 925.41992
756.0 0.001323 306.20981 732.02466
650.0 0.001538 306.16730 620.79474
552.0 0.001812 306.12488 559.36804
549.0 0.001821 306.08261 531.40503
544.0 0.001838 306.04044 544.97821
565.0 0.001770 305.99841 611.23706
713.0 0.001403 305.95660 727.77081
848.0 0.001179 305.91492 849.68640
885.0 0.001130 305.87344 908.83856
885.0 0.001130 305.83203 878.64929
805.0 0.001242 305.79080 750.31958
698.0 0.001433 305.74969 610.63330
531.0 0.001883 305.70883 517.22852
485.0 0.002062 305.66809 465.44757
415.0 0.002410 305.62741 435.73132
436.0 0.002294 305.58688 423.56030
415.0 0.002410 305.54660 431.57706
413.0 0.002421 305.50644 460.32770
471.0 0.002123 305.46637 497.40344
484.0 0.002066 305.42651 510.14682
452.0 0.002212 305.38678 484.77438
453.0 0.002208 305.34720 448.20309
455.0 0.002198 305.30783 422.86606
432.0 0.002315 305.26859 424.83408
431.0 0.002320 305.22937 460.15540
482.0 0.002075 305.19043 535.42810
573.0 0.001745 305.15149 645.39966
627.0 0.001595 305.11282 725.59644
618.0 0.001618 305.07431 685.10449
589.0 0.001698 305.03595 575.72308
496.0 0.002016 304.99765 484.78165
442.0 0.002262 304.95950 432.18225
422.0 0.002370 304.92157 404.35580
406.0 0.002463 304.88382 392.61581
420.0 0.002381 304.84610 394.48712
440.0 0.002273 304.80859 412.90909
493.0 0.002028 304.77118 446.05948
539.0 0.001855 304.73401 489.51895
550.0 0.001818 304.69696 535.41211
523.0 0.001912 304.66000 555.96240
493.0 0.002028 304.62311 520.33441
486.0 0.002058 304.58655 466.90887
471.0 0.002123 304.55005 428.75009
446.0 0.002242 304.51364 414.95636
491.0 0.002037 304.47748 425.55399
519.0 0.001927 304.44138 461.95129
561.0 0.001783 304.40543 516.95166
605.0 0.001653 304.36969 553.91919
593.0 0.001686 304.33405 533.79437
564.0 0.001773 304.29858 487.54767
520.0 0.001923 304.26318 454.72784
482.0 0.002075 304.22800 446.71860
520.0 0.001923 304.19299 469.64566
565.0 0.001770 304.15796 523.14423
616.0 0.001623 304.12320 587.28772
660.0 0.001515 304.08853 606.38330
599.0 0.001669 304.05408 565.60657
532.0 0.001880 304.01971 526.11688
507.0 0.001972 303.98553 516.43958
490.0 0.002041 303.95142 522.45581
525.0 0.001905 303.91748 533.71875
570.0 0.001754 303.88367 569.13983
624.0 0.001603 303.85007 626.14246
687.0 0.001456 303.81656 653.36230
654.0 0.001529 303.78320 626.81519
658.0 0.001520 303.74997 606.37689
567.0 0.001764 303.71683 624.48846
675.0 0.001481 303.68393 663.53308
696.0 0.001437 303.65109 711.86224
792.0 0.001263 303.61835 752.38739
799.0 0.001252 303.58585 736.34204
692.0 0.001445 303.55350 681.93732
687.0 0.001456 303.52109 666.89752
664.0 0.001506 303.48904 733.81165
763.0 0.001311 303.45709 862.15649
891.0 0.001122 303.42529 939.53131
843.0 0.001186 303.39352 854.24780
738.0 0.001355 303.36194 697.67413
566.0 0.001767 303.33051 582.53442
503.0 0.001988 303.29919 534.60730
512.0 0.001953 303.26804 536.79755
513.0 0.001949 303.23703 549.30634
517.0 0.001934 303.20605 534.18256
493.0 0.002028 303.17535 499.75864
486.0 0.002058 303.14481 482.40100
499.0 0.002004 303.11429 500.88202
513.0 0.001949 303.08392 546.99438
549.0 0.001821 303.05374 575.28339
539.0 0.001855 303.02368 538.70203
461.0 0.002169 302.99365 473.16220
419.0 0.002387 302.96384 422.82721
388.0 0.002577 302.93417 396.61978
392.0 0.002551 302.90460 391.77835
403.0 0.002481 302.87524 403.19598
433.0 0.002309 302.84598 423.93835
433.0 0.002309 302.81677 441.17712
435.0 0.002299 302.78775 449.09167
457.0 0.002188 302.75885 461.53067
486.0 0.002058 302.73019 490.94653
569.0 0.001757 302.70148 527.79712
597.0 0.001675 302.67300 569.17035
608.0 0.001645 302.64462 639.91089
713.0 0.001403 302.61636 724.55231
735.0 0.001361 302.58832 737.26984
664.0 0.001506 302.56036 653.12006
566.0 0.001767 302.53253 550.85712
476.0 0.002101 302.50476 480.56143
442.0 0.002262 302.47726 441.62204
400.0 0.002500 302.44983 420.96136
398.0 0.002513 302.42242 414.28079
416.0 0.002404 302.39526 422.20746
416.0 0.002404 302.36823 436.43311
445.0 0.002247 302.34128 455.30585
512.0 0.001953 302.31445 491.17535
515.0 0.001942 302.28781 536.71143
528.0 0.001894 302.26117 548.49988
480.0 0.002083 302.23480 509.26874
462.0 0.002165 302.20850 449.64734
398.0 0.002513 302.18231 399.09973
371.0 0.002695 302.15625 366.78146
374.0 0.002674 302.13034 349.17303
290.0 0.003448 302.10452 340.14938
301.0 0.003322 302.07889 335.99387
300.0 0.003333 302.05334 334.37433
317.0 0.003155 302.02795 334.93390
316.0 0.003165 302.00262 338.49033
338.0 0.002959 301.97748 344.75467
341.0 0.002933 301.95239 354.01712
325.0 0.003077 301.92752 365.86487
388.0 0.002577 301.90271 379.23468
359.0 0.002786 301.87805 402.07999
415.0 0.002410 301.85342 443.47247
462.0 0.002165 301.82904 499.59088
496.0 0.002016 301.80472 547.34064
532.0 0.001880 301.78058 554.63770
461.0 0.002169 301.75644 514.70593
433.0 0.002309 301.73254 474.49179
440.0 0.002273 301.70862 465.68198
453.0 0.002208 301.68497 487.23154
499.0 0.002004 301.66138 513.08301
485.0 0.002062 301.63797 504.18033
465.0 0.002151 301.61456 472.77991
429.0 0.002331 301.59131 450.17789
419.0 0.002387 301.56821 446.53372
437.0 0.002288 301.54526 464.21365
476.0 0.002101 301.52237 492.36176
472.0 0.002119 301.49963 516.06726
485.0 0.002062 301.47702 529.07593
503.0 0.001988 301.45450 553.16486
530.0 0.001887 301.43210 603.32922
586.0 0.001706 301.40979 658.23090
658.0 0.001520 301.38766 702.23157
685.0 0.001460 301.36560 749.23700
704.0 0.001420 301.34369 782.67358
690.0 0.001449 301.32181 736.36627
596.0 0.001678 301.30014 620.70496
496.0 0.002016 301.27859 516.09241
416.0 0.002404 301.25714 450.69611
380.0 0.002632 301.23569 421.92764
364.0 0.002747 301.21451 419.14432
383.0 0.002611 301.19333 434.27399
402.0 0.002488 301.17233 463.08508
446.0 0.002242 301.15146 494.48734
499.0 0.002004 301.13071 519.92010
488.0 0.002049 301.10999 554.73639
520.0 0.001923 301.08948 606.90155
598.0 0.001672 301.06903 650.50024
632.0 0.001582 301.04865 674.29272
614.0 0.001629 301.02841 682.58337
622.0 0.001608 301.00830 632.68378
496.0 0.002016 300.98834 540.40900
443.0 0.002257 300.96844 461.26315
378.0 0.002646 300.94867 412.15549
362.0 0.002762 300.92896 388.52875
341.0 0.002933 300.90942 382.35046
347.0 0.002882 300.88998 389.36118
424.0 0.002358 300.87057 408.65063
431.0 0.002320 300.85138 444.13596
502.0 0.001992 300.83231 498.46576
503.0 0.001988 300.81326 555.19647
548.0 0.001825 300.79431 588.98535
572.0 0.001748 300.77551 591.78009
479.0 0.002088 300.75684 569.39307
479.0 0.002088 300.73825 530.66748
409.0 0.002445 300.71973 475.37643
387.0 0.002584 300.70139 426.81882
356.0 0.002809 300.68307 397.20956
366.0 0.002732 300.66492 382.44125
377.0 0.002653 300.64685 376.07278
371.0 0.002695 300.62894 377.95062
389.0 0.002571 300.61108 388.92194
382.0 0.002618 300.59335 401.51495
394.0 0.002538 300.57571 405.12778
380.0 0.002632 300.55814 406.85638
400.0 0.002500 300.54068 417.40613
398.0 0.002513 300.52338 436.38162
423.0 0.002364 300.50613 457.84641
453.0 0.002208 300.48892 494.92642
511.0 0.001957 300.47195 553.38806
547.0 0.001828 300.45502 596.23676
499.0 0.002004 300.43814 566.85852
457.0 0.002188 300.42145 492.58121
403.0 0.002481 300.40482 427.87106
357.0 0.002801 300.38834 388.40594
350.0 0.002857 300.37192 368.49399
369.0 0.002710 300.35562 357.61389
345.0 0.002899 300.33926 350.71466
324.0 0.003086 300.32318 350.21176
338.0 0.002959 300.30719 358.21732
372.0 0.002688 300.29132 378.97546
398.0 0.002513 300.27542 412.05566
425.0 0.002353 300.25970 446.00943
426.0 0.002347 300.24399 453.00879
409.0 0.002445 300.22845 431.50986
391.0 0.002558 300.21304 414.00620
376.0 0.002660 300.19766 418.40005
379.0 0.002639 300.18243 442.86935
414.0 0.002415 300.16727 464.52661
454.0 0.002203 300.15219 452.66385
417.0 0.002398 300.13721 419.09760
372.0 0.002688 300.12231 388.35376
334.0 0.002994 300.10760 364.42050
316.0 0.003165 300.09293 346.96646
318.0 0.003145 300.07822 337.30634
307.0 0.003257 300.06378 333.56335
299.0 0.003344 300.04935 335.40506
317.0 0.003155 300.03503 341.09717
359.0 0.002786 300.02078 349.41812
326.0 0.003067 300.00662 361.94354
343.0 0.002915 299.99261 376.10257
333.0 0.003003 299.97873 378.81320
348.0 0.002874 299.96484 365.76205
312.0 0.003205 299.95102 349.91373
313.0 0.003195 299.93735 337.01071
323.0 0.003096 299.92377 327.01825
326.0 0.003067 299.91025 320.15973
323.0 0.003096 299.89682 316.66986
353.0 0.002833 299.88348 315.22205
291.0 0.003436 299.87024 315.07779
289.0 0.003460 299.85712 314.41437
307.0 0.003257 299.84406 312.05869
279.0 0.00358 299.83112 310.23697
297.0 0.003367 299.81821 309.03021
309.0 0.003236 299.80539 308.52725
290.0 0.003448 299.79266 308.54544
292.0 0.003425 299.78000 309.04291
304.0 0.003289 299.76746 310.24780
293.0 0.003413 299.75500 312.64319
341.0 0.002933 299.74258 317.08054
336.0 0.002976 299.73035 324.19974
323.0 0.003096 299.71808 333.26138
349.0 0.002865 299.70596 339.57343
331.0 0.003021 299.69397 337.10709
323.0 0.003096 299.68195 330.22150
317.0 0.003155 299.67007 324.71439
323.0 0.003096 299.65829 322.45670
324.0 0.003086 299.64655 323.35693
345.0 0.002899 299.63492 327.36420
354.0 0.002825 299.62335 335.67059
357.0 0.002801 299.61191 351.22803
391.0 0.002558 299.60049 379.86130
422.0 0.002370 299.58920 426.53241
497.0 0.002012 299.57797 488.83820
554.0 0.001805 299.56677 545.77887
568.0 0.001761 299.55566 576.87793
533.0 0.001876 299.54474 572.70160
491.0 0.002037 299.53378 519.59991
452.0 0.002212 299.52292 449.68365
392.0 0.002551 299.51218 395.90118
345.0 0.002899 299.50146 363.49225
330.0 0.003030 299.49084 347.57245
318.0 0.003145 299.48026 342.46750
326.0 0.003067 299.46988 346.10947
352.0 0.002841 299.45941 358.80185
362.0 0.002762 299.44913 381.22299
401.0 0.002494 299.43890 408.63333
434.0 0.002304 299.42877 429.26260
410.0 0.002439 299.41867 438.22394
393.0 0.002545 299.40860 428.00681
389.0 0.002571 299.39868 397.00851
370.0 0.002703 299.38879 364.94998
351.0 0.002849 299.37906 342.48483
283.0 0.00353 299.36926 329.76974
309.0 0.003236 299.35962 324.41571
332.0 0.003012 299.35007 323.84793
320.0 0.003125 299.34055 326.38150
323.0 0.003096 299.33112 329.77570
322.0 0.003106 299.32178 330.06396
319.0 0.003135 299.31250 326.90674
314.0 0.003185 299.30319 324.14255
333.0 0.003003 299.29401 323.04050
324.0 0.003086 299.28491 321.45352
307.0 0.003257 299.27591 318.44797
311.0 0.003215 299.26691 315.15207
317.0 0.003155 299.25803 313.07361
279.0 0.00358 299.24924 312.46008
303.0 0.003300 299.24048 313.37280
315.0 0.003175 299.23175 315.67880
347.0 0.002882 299.22314 319.11533
342.0 0.002924 299.21463 322.68069
322.0 0.003106 299.20615 325.01239
293.0 0.003413 299.19766 327.75568
308.0 0.003247 299.18936 334.45175
354.0 0.002825 299.18100 347.85129
390.0 0.002564 299.17282 368.96530
426.0 0.002347 299.16461 395.74631
392.0 0.002551 299.15652 415.91647
417.0 0.002398 299.14844 411.72980
401.0 0.002494 299.14050 393.98755
386.0 0.002591 299.13257 380.94009
349.0 0.002865 299.12469 373.98547
372.0 0.002688 299.11688 367.28137
380.0 0.002632 299.10919 362.54715
378.0 0.002646 299.10153 361.02545
372.0 0.002688 299.09390 357.57739
373.0 0.002681 299.08630 352.92517
370.0 0.002703 299.07883 353.61035
361.0 0.002770 299.07135 363.13980
346.0 0.002890 299.06409 380.83237
355.0 0.002817 299.05667 398.08185
410.0 0.002439 299.04944 407.71420
441.0 0.002268 299.04227 412.39398
429.0 0.002331 299.03510 415.13260
411.0 0.002433 299.02798 419.44153
415.0 0.002410 299.02103 433.40717
431.0 0.002320 299.01395 466.43701
476.0 0.002101 299.00711 511.66177
498.0 0.002008 299.00021 534.09271
467.0 0.002141 298.99341 506.62665
438.0 0.002283 298.98663 457.82794
405.0 0.002469 298.97995 421.46274
396.0 0.002525 298.97330 408.76260
388.0 0.002577 298.96674 416.26645
431.0 0.002320 298.96017 441.20291
447.0 0.002237 298.95370 479.14896
469.0 0.002132 298.94727 512.09137
476.0 0.002101 298.94089 510.22675
430.0 0.002326 298.93457 480.52182
439.0 0.002278 298.92825 457.73679
406.0 0.002463 298.92203 451.24570
397.0 0.002519 298.91586 444.00342
389.0 0.002571 298.90970 421.31628
384.0 0.002604 298.90366 394.67566
371.0 0.002695 298.89764 376.77328
346.0 0.002890 298.89169 371.36630
380.0 0.002632 298.88571 376.97125
416.0 0.002404 298.87985 394.28790
419.0 0.002387 298.87399 425.15161
444.0 0.002252 298.86823 462.16702
478.0 0.002092 298.86243 486.63391
460.0 0.002174 298.85678 486.55487
467.0 0.002141 298.85120 460.97992
426.0 0.002347 298.84558 430.49103
389.0 0.002571 298.84000 415.13663
397.0 0.002519 298.83453 417.55591
403.0 0.002481 298.82904 427.96429
411.0 0.002433 298.82364 433.71811
429.0 0.002331 298.81824 442.92920
461.0 0.002169 298.81290 469.86005
470.0 0.002128 298.80768 516.92334
526.0 0.001901 298.80240 563.02228
537.0 0.001862 298.79718 569.88776
503.0 0.001988 298.79202 535.38940
446.0 0.002242 298.78696 490.88205
415.0 0.002410 298.78183 450.76389
403.0 0.002481 298.77682 424.27444
404.0 0.002475 298.77182 415.00079
401.0 0.002494 298.76691 416.24823
392.0 0.002551 298.76199 421.72058
396.0 0.002525 298.75711 430.56519
427.0 0.002342 298.75223 455.71692
499.0 0.002004 298.74750 511.49057
585.0 0.001709 298.74274 605.40295
683.0 0.001464 298.73801 717.45691
726.0 0.001377 298.73337 779.50262
698.0 0.001433 298.72876 726.50177
575.0 0.001739 298.72415 608.84430
482.0 0.002075 298.71960 505.09738
439.0 0.002278 298.71512 438.17749
418.0 0.002392 298.71054 401.89682
396.0 0.002525 298.70612 382.93488
359.0 0.002786 298.70169 372.94800
357.0 0.002801 298.69736 371.13983
397.0 0.002519 298.69299 381.31134
396.0 0.002525 298.68866 405.85696
412.0 0.002427 298.68442 448.25769
473.0 0.002114 298.68011 501.43420
531.0 0.001883 298.67593 536.89343
517.0 0.001934 298.67178 522.34229
478.0 0.002092 298.66763 474.17441
429.0 0.002331 298.66348 427.88242
390.0 0.002564 298.65942 398.95261
375.0 0.002667 298.65536 389.32773
387.0 0.002584 298.65140 398.10391
416.0 0.002404 298.64731 426.52448
455.0 0.002198 298.64337 475.73508
514.0 0.001946 298.63950 538.17151
566.0 0.001767 298.63562 597.46503
540.0 0.001852 298.63171 629.58215
506.0 0.001976 298.62793 601.53906
495.0 0.002020 298.62405 529.64539
448.0 0.002232 298.62027 460.76108
367.0 0.002725 298.61655 413.16913
348.0 0.002874 298.61288 386.28778
380.0 0.002632 298.60916 374.56006
352.0 0.002841 298.60547 374.04605
409.0 0.002445 298.60181 381.82394
411.0 0.002433 298.59824 400.03970
481.0 0.002079 298.59464 432.88681
449.0 0.002227 298.59106 483.15802
554.0 0.001805 298.58752 551.04230
623.0 0.001605 298.58398 633.61407
729.0 0.001372 298.58051 712.03021
779.0 0.001284 298.57706 756.97827
788.0 0.001269 298.57364 723.38855
701.0 0.001427 298.57022 620.16217
548.0 0.001825 298.56680 517.40442
429.0 0.002331 298.56345 445.72470
410.0 0.002439 298.56009 405.13895
398.0 0.002513 298.55676 385.78021
349.0 0.002865 298.55347 379.84158
377.0 0.002653 298.55020 384.73361
430.0 0.002326 298.54694 403.82001
470.0 0.002128 298.54367 445.82465
518.0 0.001931 298.54041 521.39130
609.0 0.001642 298.53726 632.56848
716.0 0.001397 298.53406 749.05908
826.0 0.001211 298.53088 785.89001
759.0 0.001318 298.52774 703.90808
596.0 0.001678 298.52460 582.53619
474.0 0.002110 298.52148 483.16077
411.0 0.002433 298.51840 419.10278
389.0 0.002571 298.51532 383.61154
368.0 0.002717 298.51233 365.87582
385.0 0.002597 298.50925 358.35175
353.0 0.002833 298.50623 358.12271
355.0 0.002817 298.50317 366.17453
381.0 0.002625 298.50018 384.75656
410.0 0.002439 298.49719 415.76068
450.0 0.002222 298.49429 453.87897
457.0 0.002188 298.49133 476.72366
439.0 0.002278 298.48840 463.98352
422.0 0.002370 298.48550 432.08228
398.0 0.002513 298.48264 406.31909
403.0 0.002481 298.47968 398.37732
417.0 0.002398 298.47678 413.35989
473.0 0.002114 298.47394 453.30960
542.0 0.001845 298.47113 513.41083
565.0 0.001770 298.46826 568.45966
561.0 0.001783 298.46539 569.76636
502.0 0.001992 298.46262 517.13586
420.0 0.002381 298.45984 458.11069
417.0 0.002398 298.45700 419.49768
413.0 0.002421 298.45425 405.87256
412.0 0.002427 298.45145 418.78799
440.0 0.002273 298.44867 453.57715
475.0 0.002105 298.44592 499.72214
525.0 0.001905 298.44321 531.04742
536.0 0.001866 298.44046 520.54083
493.0 0.002028 298.43771 492.72116
507.0 0.001972 298.43500 478.63483
459.0 0.002179 298.43228 481.34174
474.0 0.002110 298.42960 478.24927
463.0 0.002160 298.42688 451.93253
409.0 0.002445 298.42419 418.83398
381.0 0.002625 298.42151 395.84909
381.0 0.002625 298.41873 388.62335
415.0 0.002410 298.41614 398.33243
455.0 0.002198 298.41345 431.22333
457.0 0.002188 298.41083 485.18787
564.0 0.001773 298.40814 549.59821
571.0 0.001751 298.40552 596.46704
598.0 0.001672 298.40283 591.81488
566.0 0.001767 298.40018 538.17230
457.0 0.002188 298.39755 477.45847
377.0 0.002653 298.39496 437.56601
410.0 0.002439 298.39224 425.53012
467.0 0.002141 298.38962 441.45596
467.0 0.002141 298.38705 482.66605
531.0 0.001883 298.38437 538.43707
625.0 0.001600 298.38174 576.88232
627.0 0.001595 298.37912 569.42780
554.0 0.001805 298.37650 542.70099
533.0 0.001876 298.37387 531.54608
542.0 0.001845 298.37125 536.70001
558.0 0.001792 298.36859 535.65088
560.0 0.001786 298.36597 516.25323
496.0 0.002016 298.36334 494.15640
520.0 0.001923 298.36075 490.85934
534.0 0.001873 298.35809 510.59689
510.0 0.001961 298.35547 535.97418
537.0 0.001862 298.35278 544.40192
532.0 0.001880 298.35016 544.05438
515.0 0.001942 298.34753 550.05414
573.0 0.001745 298.34491 556.45612
627.0 0.001595 298.34225 570.12744
689.0 0.001451 298.33957 617.99188
770.0 0.001299 298.33691 710.26544
832.0 0.001202 298.33426 821.53687
871.0 0.001148 298.33160 874.53546
821.0 0.001218 298.32898 814.50720
695.0 0.001439 298.32626 703.89258
615.0 0.001626 298.32361 614.57452
572.0 0.001748 298.32092 564.76453
538.0 0.001859 298.31824 540.27087
550.0 0.001818 298.31555 529.29596
575.0 0.001739 298.31284 542.94067
611.0 0.001637 298.31015 601.11816
711.0 0.001406 298.30740 728.40045
934.0 0.001071 298.30469 943.94861
1249.0 0.000801 298.30194 1230.40784
1431.0 0.000699 298.29916 1471.74158
1457.0 0.000686 298.29645 1481.01160
1255.0 0.000797 298.29370 1260.66345
1023.0 0.000978 298.29092 977.27753
757.0 0.001321 298.28815 746.69452
593.0 0.001686 298.28537 597.21039
504.0 0.001984 298.28253 514.33221
458.0 0.002183 298.27975 473.25134
454.0 0.002203 298.27692 458.83533
453.0 0.002208 298.27414 465.50629
459.0 0.002179 298.27124 498.90335
546.0 0.001832 298.26843 566.92462
655.0 0.001527 298.26559 671.89844
787.0 0.001271 298.26266 789.36694
792.0 0.001263 298.25983 843.31256
744.0 0.001344 298.25687 777.94916
654.0 0.001529 298.25394 657.82001
566.0 0.001767 298.25107 553.22583
486.0 0.002058 298.24817 484.33087
464.0 0.002155 298.24521 447.42389
390.0 0.002564 298.24222 432.81329
435.0 0.002299 298.23923 431.59296
417.0 0.002398 298.23627 441.28595
449.0 0.002227 298.23325 464.00677
497.0 0.002012 298.23013 507.15060
611.0 0.001637 298.22717 586.05060
768.0 0.001302 298.22412 723.43396
955.0 0.001047 298.22104 939.73627
1229.0 0.000814 298.21790 1226.59436
1527.0 0.000655 298.21481 1520.19556
1650.0 0.000606 298.21170 1690.68469
1534.0 0.000652 298.20859 1593.28735
1230.0 0.000813 298.20544 1289.32947
883.0 0.001133 298.20221 978.84802
696.0 0.001437 298.19907 759.23999
571.0 0.001751 298.19586 636.06598
558.0 0.001792 298.19260 584.47650
558.0 0.001792 298.18936 575.33435
606.0 0.001650 298.18607 583.09137
614.0 0.001629 298.18283 601.40863
640.0 0.001563 298.17947 650.57263
698.0 0.001433 298.17624 747.35907
833.0 0.001200 298.17285 883.63806
969.0 0.001032 298.16946 1020.80005
990.0 0.001010 298.16611 1085.15405
999.0 0.001001 298.16266 1022.39203
893.0 0.001120 298.15927 890.33453
784.0 0.001276 298.15576 778.17267
726.0 0.001377 298.15228 720.80200
691.0 0.001447 298.14880 708.52856
735.0 0.001361 298.14529 711.82202
726.0 0.001377 298.14172 690.75879
679.0 0.001473 298.13821 631.62329
621.0 0.001610 298.13455 568.29016
530.0 0.001887 298.13101 528.86017
517.0 0.001934 298.12738 527.55090
574.0 0.001742 298.12372 572.43787
690.0 0.001449 298.12006 665.80255
820.0 0.001220 298.11633 793.77588
870.0 0.001149 298.11267 898.26215
836.0 0.001196 298.10886 893.47144
754.0 0.001326 298.10507 799.31732
712.0 0.001404 298.10126 702.73547
626.0 0.001597 298.09741 642.85297
596.0 0.001678 298.09357 617.07159
625.0 0.001600 298.08969 610.20685
672.0 0.001488 298.08582 624.56396
682.0 0.001466 298.08188 672.50293
730.0 0.001370 298.07791 740.61188
816.0 0.001225 298.07394 777.38544
732.0 0.001366 298.06989 757.60052
709.0 0.001410 298.06589 731.56390
724.0 0.001381 298.06180 735.03979
689.0 0.001451 298.05771 739.24426
662.0 0.001511 298.05356 689.49170
560.0 0.001786 298.04941 598.46625
547.0 0.001828 298.04523 514.35803
475.0 0.002105 298.04108 457.21204
434.0 0.002304 298.03677 428.24780
451.0 0.002217 298.03256 423.82202
462.0 0.002165 298.02829 440.17755
471.0 0.002123 298.02399 472.47308
490.0 0.002041 298.01947 506.46796
535.0 0.001869 298.01511 515.69012
476.0 0.002101 298.01071 488.68729
463.0 0.002160 298.00629 451.61176
445.0 0.002247 298.00177 424.50427
428.0 0.002336 297.99725 407.64542
399.0 0.002506 297.99271 392.81531
395.0 0.002532 297.98816 377.57278
374.0 0.002674 297.98352 365.72116
367.0 0.002725 297.97888 358.58566
394.0 0.002538 297.97418 355.96442
395.0 0.002532 297.96948 357.50671
365.0 0.002740 297.96472 363.46835
338.0 0.002959 297.95993 375.09753
380.0 0.002632 297.95517 393.87692
433.0 0.002309 297.95032 421.21860
456.0 0.002193 297.94553 451.97168
471.0 0.002123 297.94052 475.76175
506.0 0.001976 297.93561 493.39169
585.0 0.001709 297.93060 522.94629
605.0 0.001653 297.92560 576.85999
690.0 0.001449 297.92062 653.55029
798.0 0.001253 297.91550 750.81293
916.0 0.001092 297.91040 881.37048
1072.0 0.000933 297.90524 1022.97400
1110.0 0.000901 297.90005 1090.69336
1023.0 0.000978 297.89481 1043.77502
923.0 0.001083 297.88959 925.99475
795.0 0.001258 297.88428 785.03375
676.0 0.001479 297.87891 664.93384
575.0 0.001739 297.87354 582.25635
518.0 0.001931 297.86816 530.71014
510.0 0.001961 297.86270 503.12653
504.0 0.001984 297.85724 498.25827
510.0 0.001961 297.85172 516.36536
562.0 0.001779 297.84619 553.09387
597.0 0.001675 297.84055 606.26202
676.0 0.001479 297.83496 685.07947
807.0 0.001239 297.82928 788.52478
933.0 0.001072 297.82355 886.13770
999.0 0.001001 297.81781 963.23029
1042.0 0.000960 297.81207 1030.06860
1010.0 0.000990 297.80618 1061.68542
965.0 0.001036 297.80038 996.15564
770.0 0.001299 297.79437 837.81677
612.0 0.001634 297.78854 672.84589
519.0 0.001927 297.78253 549.54340
454.0 0.002203 297.77649 471.55759
418.0 0.002392 297.77048 427.36139
407.0 0.002457 297.76431 404.13754
395.0 0.002532 297.75818 393.47046
389.0 0.002571 297.75204 392.12100
379.0 0.002639 297.74579 401.79895
403.0 0.002481 297.73953 426.77048
453.0 0.002208 297.73318 471.41013
526.0 0.001901 297.72687 532.34949
577.0 0.001733 297.72049 589.84534
591.0 0.001692 297.71402 603.89069
564.0 0.001773 297.70755 563.82214
479.0 0.002088 297.70108 509.54840
475.0 0.002105 297.69446 467.43124
442.0 0.002262 297.68790 437.18146
383.0 0.002611 297.68118 410.65036
381.0 0.002625 297.67459 386.70023
346.0 0.002890 297.66782 368.99942
351.0 0.002849 297.66104 358.25104
333.0 0.003003 297.65424 353.25845
351.0 0.002849 297.64743 354.21008
371.0 0.002695 297.64050 360.36465
391.0 0.002558 297.63351 368.66840
401.0 0.002494 297.62656 372.57898
389.0 0.002571 297.61948 368.55530
368.0 0.002717 297.61246 362.48300
383.0 0.002611 297.60529 359.08554
407.0 0.002457 297.59814 359.43484
412.0 0.002427 297.59094 361.05246
396.0 0.002525 297.58365 360.83215
394.0 0.002538 297.57639 359.36652
379.0 0.002639 297.56903 358.68552
372.0 0.002688 297.56158 361.69501
382.0 0.002618 297.55417 371.32507
388.0 0.002577 297.54669 389.52454
415.0 0.002410 297.53915 412.47601
449.0 0.002227 297.53159 426.11047
431.0 0.002320 297.52399 417.58026
379.0 0.002639 297.51630 394.03735
351.0 0.002849 297.50858 369.89935
344.0 0.002907 297.50085 351.88522
345.0 0.002899 297.49301 341.03537
340.0 0.002941 297.48520 336.11951
330.0 0.003030 297.47723 335.82532
333.0 0.003003 297.46933 339.04251
379.0 0.002639 297.46130 344.87897
370.0 0.002703 297.45328 353.66473
369.0 0.002710 297.44516 366.78818
422.0 0.002370 297.43701 384.97141
467.0 0.002141 297.42883 411.69858
475.0 0.002105 297.42059 445.89816
494.0 0.002024 297.41229 485.08691
495.0 0.002020 297.40402 523.74237
617.0 0.001621 297.39557 546.58850
574.0 0.001742 297.38718 534.59045
515.0 0.001942 297.37869 505.94754
450.0 0.002222 297.37018 485.84958
485.0 0.002062 297.36166 476.37680
485.0 0.002062 297.35300 470.73880
499.0 0.002004 297.34430 471.15225
546.0 0.001832 297.33560 474.11740
465.0 0.002151 297.32681 465.04327
467.0 0.002141 297.31799 442.30014
403.0 0.002481 297.30911 422.25784
393.0 0.002545 297.30020 414.24188
419.0 0.002387 297.29123 423.29236
484.0 0.002066 297.28220 448.20068
542.0 0.001845 297.27313 478.80978
545.0 0.001835 297.26407 499.52701
529.0 0.001890 297.25482 509.48862
518.0 0.001931 297.24567 525.20349
533.0 0.001876 297.23633 550.60590
539.0 0.001855 297.22702 567.61694
567.0 0.001764 297.21762 565.42767
579.0 0.001727 297.20825 563.41248
603.0 0.001658 297.19873 576.20807
606.0 0.001650 297.18924 598.72839
614.0 0.001629 297.17966 610.00360
564.0 0.001773 297.17007 580.80176
516.0 0.001938 297.16037 520.31433
469.0 0.002132 297.15063 462.79611
416.0 0.002404 297.14087 423.63574
421.0 0.002375 297.13104 403.39386
433.0 0.002309 297.12112 397.02332
406.0 0.002463 297.11121 400.33395
380.0 0.002632 297.10123 411.01389
418.0 0.002392 297.09116 423.06549
421.0 0.002375 297.08102 427.36575
408.0 0.002451 297.07089 426.11945
430.0 0.002326 297.06073 430.60468
459.0 0.002179 297.05051 444.86801
490.0 0.002041 297.04016 462.93564
472.0 0.002119 297.02982 468.14291
451.0 0.002217 297.01947 452.65866
447.0 0.002237 297.00897 431.86649
411.0 0.002433 296.99847 420.71329
410.0 0.002439 296.98795 424.57047
488.0 0.002049 296.97723 443.23264
505.0 0.001980 296.96658 471.68582
539.0 0.001855 296.95590 500.83212
571.0 0.001751 296.94507 532.49609
648.0 0.001543 296.93430 589.35083
773.0 0.001294 296.92340 691.84265
916.0 0.001092 296.91251 839.29865
1060.0 0.000943 296.90146 989.88556
1086.0 0.000921 296.89041 1059.61755
1021.0 0.000979 296.87933 996.51373
852.0 0.001174 296.86819 850.17346
670.0 0.001493 296.85696 701.55127
562.0 0.001779 296.84573 591.68646
536.0 0.001866 296.83444 527.57672
499.0 0.002004 296.82300 502.71149
551.0 0.001815 296.81165 510.62265
573.0 0.001745 296.80014 547.40839
661.0 0.001513 296.78860 613.86267
764.0 0.001309 296.77701 714.72272
887.0 0.001127 296.76541 846.72888
999.0 0.001001 296.75372 964.53564
987.0 0.001013 296.74194 1006.73157
927.0 0.001079 296.73016 973.47528
826.0 0.001211 296.71832 885.45496
719.0 0.001391 296.70642 761.91846
592.0 0.001689 296.69449 642.36334
529.0 0.001890 296.68246 554.28156
512.0 0.001953 296.67035 502.95203
489.0 0.002045 296.65826 480.92554
483.0 0.002070 296.64606 476.00177
482.0 0.002075 296.63382 475.44031
471.0 0.002123 296.62155 477.20926
516.0 0.001938 296.60922 490.35287
531.0 0.001883 296.59680 519.01379
563.0 0.001776 296.58432 552.45807
557.0 0.001795 296.57184 558.22449
506.0 0.001976 296.55927 520.35809
477.0 0.002096 296.54663 464.75348
419.0 0.002387 296.53394 416.97150
402.0 0.002488 296.52127 384.41263
370.0 0.002703 296.50842 366.14377
384.0 0.002604 296.49561 358.73669
371.0 0.002695 296.48264 358.68185
388.0 0.002577 296.46976 362.79895
380.0 0.002632 296.45679 366.19540
363.0 0.002755 296.44366 364.44159
361.0 0.002770 296.43057 357.80518
376.0 0.002660 296.41739 349.70496
382.0 0.002618 296.40421 343.41110
363.0 0.002755 296.39087 339.58017
332.0 0.003012 296.37750 338.15213
370.0 0.002703 296.36420 338.32373
379.0 0.002639 296.35071 339.09033
353.0 0.002833 296.33722 339.03049
361.0 0.002770 296.32367 339.33481
383.0 0.002611 296.31003 342.22446
396.0 0.002525 296.29645 350.01434
401.0 0.002494 296.28262 364.71774
411.0 0.002433 296.26886 387.09805
426.0 0.002347 296.25500 414.01132
464.0 0.002155 296.24112 434.81369
450.0 0.002222 296.22720 434.02451
395.0 0.002532 296.21326 417.79089
402.0 0.002488 296.19916 401.51416
382.0 0.002618 296.18500 394.16086
396.0 0.002525 296.17084 399.87848
431.0 0.002320 296.15668 420.70090
472.0 0.002119 296.14230 458.40799
517.0 0.001934 296.12799 513.23157
579.0 0.001727 296.11365 580.39984
618.0 0.001618 296.09918 651.55811
749.0 0.001335 296.08469 730.83691
847.0 0.001181 296.07013 821.89893
931.0 0.001074 296.05548 884.45111
941.0 0.001063 296.04080 861.32819
842.0 0.001188 296.02609 772.76483
713.0 0.001403 296.01135 667.57214
568.0 0.001761 295.99646 570.42102
475.0 0.002105 295.98163 495.25128
414.0 0.002415 295.96661 447.05615
430.0 0.002326 295.95166 423.11081
405.0 0.002469 295.93661 419.26157
441.0 0.002268 295.92148 432.69824
486.0 0.002058 295.90634 460.20868
514.0 0.001946 295.89111 495.96191
554.0 0.001805 295.87579 532.49438
555.0 0.001802 295.86053 571.67517
639.0 0.001565 295.84509 613.52643
660.0 0.001515 295.82965 635.00293
636.0 0.001572 295.81418 615.90063
583.0 0.001715 295.79865 576.38293
595.0 0.001681 295.78302 540.19324
584.0 0.001712 295.76730 507.23169
461.0 0.002169 295.75156 468.77628
442.0 0.002262 295.73584 429.05875
444.0 0.002252 295.71997 397.41962
386.0 0.002591 295.70407 377.03033
381.0 0.002625 295.68817 367.02863
405.0 0.002469 295.67218 365.49481
396.0 0.002525 295.65610 371.13867
414.0 0.002415 295.64005 383.64786
450.0 0.002222 295.62390 404.63455
505.0 0.001980 295.60767 434.70624
518.0 0.001931 295.59134 469.42133
529.0 0.001890 295.57507 495.44830
517.0 0.001934 295.55862 495.36594
487.0 0.002053 295.54224 473.94144
448.0 0.002232 295.52576 447.78006
438.0 0.002283 295.50922 421.54944
424.0 0.002358 295.49261 397.34216
388.0 0.002577 295.47598 378.34152
382.0 0.002618 295.45926 367.13022
383.0 0.002611 295.44244 364.76163
366.0 0.002732 295.42569 372.10074
395.0 0.002532 295.40881 392.05408
450.0 0.002222 295.39188 426.28561
480.0 0.002083 295.37491 472.75394
533.0 0.001876 295.35785 518.61945
578.0 0.001730 295.34076 540.50848
549.0 0.001821 295.32364 530.05731
487.0 0.002053 295.30643 495.61554
446.0 0.002242 295.28922 450.41818
423.0 0.002364 295.27188 409.93753
389.0 0.002571 295.25455 381.47852
363.0 0.002755 295.23715 362.87436
359.0 0.002786 295.21964 352.60638
364.0 0.002747 295.20221 348.07040
369.0 0.002710 295.18460 348.39343
363.0 0.002755 295.16699 354.33698
355.0 0.002817 295.14929 366.35934
380.0 0.002632 295.13156 384.62167
435.0 0.002299 295.11374 406.49100
445.0 0.002247 295.09592 427.04318
434.0 0.002304 295.07806 438.32425
492.0 0.002033 295.06009 441.67303
483.0 0.002070 295.04211 447.94638
515.0 0.001942 295.02408 461.93381
496.0 0.002016 295.00598 478.73096
527.0 0.001898 294.98788 484.57370
502.0 0.001992 294.96954 476.55728
468.0 0.002137 294.95132 474.03094
503.0 0.001988 294.93307 494.10876
580.0 0.001724 294.91464 544.32587
656.0 0.001524 294.89627 619.45709
708.0 0.001412 294.87778 692.96118
742.0 0.001348 294.85925 722.02533
723.0 0.001383 294.84070 698.37634
608.0 0.001645 294.82208 639.77295
562.0 0.001779 294.80334 564.94525
515.0 0.001942 294.78467 499.35739
482.0 0.002075 294.76587 457.09790
429.0 0.002331 294.74710 437.64301
399.0 0.002506 294.72815 433.05447
453.0 0.002208 294.70926 431.48721
458.0 0.002183 294.69028 426.65988
441.0 0.002268 294.67120 425.46640
440.0 0.002273 294.65219 437.53940
457.0 0.002188 294.63300 468.00909
510.0 0.001961 294.61377 516.54279
567.0 0.001764 294.59457 570.74707
580.0 0.001724 294.57529 604.83417
612.0 0.001634 294.55600 608.30762
629.0 0.001590 294.53659 599.23480
609.0 0.001642 294.51712 598.36334
626.0 0.001597 294.49759 623.51062
694.0 0.001441 294.47809 676.33551
726.0 0.001377 294.45856 727.94202
742.0 0.001348 294.43884 734.30847
674.0 0.001484 294.41916 678.97174
556.0 0.001799 294.39948 590.02954
472.0 0.002119 294.37964 506.67285
416.0 0.002404 294.35983 446.71671
387.0 0.002584 294.33990 410.45663
369.0 0.002710 294.31995 393.04233
377.0 0.002653 294.29999 387.70190
380.0 0.002632 294.27997 388.11951
392.0 0.002551 294.25989 390.38766
373.0 0.002681 294.23978 396.32056
402.0 0.002488 294.21957 413.02054
470.0 0.002128 294.19934 446.30026
531.0 0.001883 294.17905 497.14246
541.0 0.001848 294.15875 557.60645
615.0 0.001626 294.13840 606.94867
644.0 0.001553 294.11801 626.66406
594.0 0.001684 294.09744 608.68274
501.0 0.001996 294.07697 556.68842
459.0 0.002179 294.05646 492.46854
412.0 0.002427 294.03580 436.86963
370.0 0.002703 294.01514 396.81372
359.0 0.002786 293.99435 370.56415
367.0 0.002725 293.97363 355.79605
344.0 0.002907 293.95285 348.81360
324.0 0.003086 293.93207 346.58130
344.0 0.002907 293.91113 345.67969
354.0 0.002825 293.89023 344.57202
393.0 0.002545 293.86920 345.02460
372.0 0.002688 293.84818 349.79794
357.0 0.002801 293.82703 359.98291
364.0 0.002747 293.80600 374.99088
366.0 0.002732 293.78479 387.83408
392.0 0.002551 293.76358 388.81436
378.0 0.002646 293.74228 376.40759
347.0 0.002882 293.72101 359.95374
340.0 0.002941 293.69971 345.94781
324.0 0.003086 293.67825 336.02872
324.0 0.003086 293.65683 330.05826
361.0 0.002770 293.63538 326.62079
342.0 0.002924 293.61380 325.36481
347.0 0.002882 293.59225 324.73334
331.0 0.003021 293.57062 323.82504
304.0 0.003289 293.54895 322.44620
334.0 0.002994 293.52725 321.43845
334.0 0.002994 293.50552 321.19708
301.0 0.003322 293.48380 322.42755
343.0 0.002915 293.46191 325.14960
355.0 0.002817 293.44003 330.14685
343.0 0.002915 293.41812 338.61081
377.0 0.002653 293.39612 352.65115
413.0 0.002421 293.37411 374.01498
463.0 0.002160 293.35202 403.83981
525.0 0.001905 293.32999 438.65164
524.0 0.001908 293.30783 466.04999
535.0 0.001869 293.28568 475.79184
532.0 0.001880 293.26343 471.88879
501.0 0.001996 293.24115 461.17590
488.0 0.002049 293.21884 451.30472
497.0 0.002012 293.19659 454.26797
532.0 0.001880 293.17416 476.71512
537.0 0.001862 293.15173 515.49469
583.0 0.001715 293.12924 554.20215
599.0 0.001669 293.10678 568.14117
546.0 0.001832 293.08423 558.10376
528.0 0.001894 293.06158 551.41357
559.0 0.001789 293.03900 565.95447
630.0 0.001587 293.01633 600.23895
641.0 0.001560 292.99362 632.89349
591.0 0.001692 292.97089 638.56866
560.0 0.001786 292.94806 606.83783
530.0 0.001887 292.92526 556.85608
524.0 0.001908 292.90237 511.92984
467.0 0.002141 292.87949 482.97714
475.0 0.002105 292.85657 475.20413
512.0 0.001953 292.83353 490.47076
552.0 0.001812 292.81058 522.63092
604.0 0.001656 292.78754 552.65570
575.0 0.001739 292.76440 557.32990
503.0 0.001988 292.74127 534.04932
536.0 0.001866 292.71814 503.56454
530.0 0.001887 292.69485 484.80386
473.0 0.002114 292.67160 481.58081
483.0 0.002070 292.64838 485.28146
460.0 0.002174 292.62503 482.80048
456.0 0.002193 292.60165 466.75977
421.0 0.002375 292.57831 441.29300
406.0 0.002463 292.55490 419.01822
414.0 0.002415 292.53137 408.91580
456.0 0.002193 292.50793 415.05716
429.0 0.002331 292.48438 439.23615
485.0 0.002062 292.46082 480.52231
549.0 0.001821 292.43719 531.31110
570.0 0.001754 292.41351 573.95166
626.0 0.001597 292.38989 597.08752
633.0 0.001580 292.36618 597.73846
543.0 0.001842 292.34244 566.99908
502.0 0.001992 292.31866 513.43536
440.0 0.002273 292.29480 460.08881
397.0 0.002519 292.27100 418.47803
366.0 0.002732 292.24710 390.35913
369.0 0.002710 292.22321 374.19202
350.0 0.002857 292.19928 367.31049
345.0 0.002899 292.17526 367.96762
392.0 0.002551 292.15128 376.27097
429.0 0.002331 292.12717 394.40723
467.0 0.002141 292.10312 426.71866
470.0 0.002128 292.07901 477.22977
536.0 0.001866 292.05496 545.80554
647.0 0.001546 292.03070 623.77399
750.0 0.001333 292.00656 690.18536
730.0 0.001370 291.98236 708.93774
677.0 0.001477 291.95807 667.33179
582.0 0.001718 291.93378 601.77429
544.0 0.001838 291.90945 549.20514
499.0 0.002004 291.88504 522.15466
497.0 0.002012 291.86066 517.48212
542.0 0.001845 291.83630 530.49994
581.0 0.001721 291.81180 556.25098
611.0 0.001637 291.78735 585.19183
624.0 0.001603 291.76282 600.69598
606.0 0.001650 291.73831 586.60229
530.0 0.001887 291.71375 552.02063
512.0 0.001953 291.68912 518.67603
472.0 0.002119 291.66452 502.49039
497.0 0.002012 291.63989 506.11084
516.0 0.001938 291.61530 518.66443
518.0 0.001931 291.59052 522.85767
525.0 0.001905 291.56580 516.13361
496.0 0.002016 291.54105 514.01868
518.0 0.001931 291.51630 527.54645
590.0 0.001695 291.49155 552.68170
604.0 0.001656 291.46664 569.34119
567.0 0.001764 291.44180 561.96234
542.0 0.001845 291.41687 540.37067
517.0 0.001934 291.39197 518.32788
469.0 0.002132 291.36707 495.40521
462.0 0.002165 291.34207 465.21243
409.0 0.002445 291.31708 431.19717
407.0 0.002457 291.29214 400.60666
379.0 0.002639 291.26709 378.54285
362.0 0.002762 291.24197 366.99228
385.0 0.002597 291.21689 363.24054
372.0 0.002688 291.19180 365.68222
389.0 0.002571 291.16675 372.24408
366.0 0.002732 291.14148 382.15991
411.0 0.002433 291.11630 396.05969
429.0 0.002331 291.09109 411.49124
456.0 0.002193 291.06592 420.78320
458.0 0.002183 291.04065 415.67841
433.0 0.002309 291.01544 398.64755
428.0 0.002336 290.99011 376.85849
376.0 0.002660 290.96481 356.84598
345.0 0.002899 290.93945 342.06873
330.0 0.003030 290.91409 333.26389
345.0 0.002899 290.88873 329.54208
355.0 0.002817 290.86337 330.75851
357.0 0.002801 290.83789 336.85706
355.0 0.002817 290.81253 346.24701
383.0 0.002611 290.78711 356.51965
379.0 0.002639 290.76154 362.15472
382.0 0.002618 290.73615 358.46234
346.0 0.002890 290.71060 349.45453
348.0 0.002874 290.68506 339.67526
347.0 0.002882 290.65958 333.79095
329.0 0.003040 290.63397 330.74524
347.0 0.002882 290.60843 328.14642
356.0 0.002809 290.58276 324.50555
335.0 0.002985 290.55719 320.33450
309.0 0.003236 290.53149 317.02228
305.0 0.003279 290.50586 315.25439
325.0 0.003077 290.48022 315.11981
335.0 0.002985 290.45450 316.61087
323.0 0.003096 290.42883 320.46964
325.0 0.003077 290.40320 326.49496
341.0 0.002933 290.37744 333.63937
362.0 0.002762 290.35162 339.56619
360.0 0.002778 290.32584 341.16870
355.0 0.002817 290.30008 339.11169
339.0 0.002950 290.27429 335.70645
334.0 0.002994 290.24850 333.57831
338.0 0.002959 290.22269 334.56393
369.0 0.002710 290.19687 339.44016
389.0 0.002571 290.17102 348.10248
394.0 0.002538 290.14517 360.50797
397.0 0.002519 290.11923 374.12888
385.0 0.002597 290.09341 386.91312
381.0 0.002625 290.06747 400.65405
407.0 0.002457 290.04160 417.72925
424.0 0.002358 290.01572 441.82562
463.0 0.002160 289.98978 478.08942
548.0 0.001825 289.96384 528.63373
624.0 0.001603 289.93790 590.31305
664.0 0.001506 289.91190 663.17963
735.0 0.001361 289.88593 747.04968
795.0 0.001258 289.85992 815.84589
801.0 0.001248 289.83398 818.07544
706.0 0.001416 289.80798 743.72394
580.0 0.001724 289.78195 640.32025
480.0 0.002083 289.75598 549.25494
443.0 0.002257 289.72989 484.82986
398.0 0.002513 289.70389 445.86087
410.0 0.002439 289.67780 425.90100
363.0 0.002755 289.65179 419.78595
473.0 0.002114 289.62570 425.45697
423.0 0.002364 289.59964 442.20227
468.0 0.002137 289.57361 471.10080
529.0 0.001890 289.54755 510.71390
545.0 0.001835 289.52142 552.05908
544.0 0.001838 289.49536 585.99884
568.0 0.001761 289.46921 616.73950
605.0 0.001653 289.44308 646.47742
609.0 0.001642 289.41702 660.04425
612.0 0.001634 289.39090 650.24286
586.0 0.001706 289.36481 638.91394
641.0 0.001560 289.33865 647.77612
658.0 0.001520 289.31256 674.99463
695.0 0.001439 289.28638 692.11084
646.0 0.001548 289.26028 668.11963
603.0 0.001658 289.23413 612.86407
538.0 0.001859 289.20798 558.17877
491.0 0.002037 289.18182 521.83557
457.0 0.002188 289.15570 502.27814
450.0 0.002222 289.12952 489.60117
478.0 0.002092 289.10339 477.89709
473.0 0.002114 289.07727 467.90262
493.0 0.002028 289.05118 463.13498
492.0 0.002033 289.02493 468.84021
516.0 0.001938 288.99884 485.04642
525.0 0.001905 288.97272 503.76611
493.0 0.002028 288.94650 516.57574
506.0 0.001976 288.92038 528.76660
538.0 0.001859 288.89423 548.27881
563.0 0.001776 288.86804 567.73920
560.0 0.001786 288.84192 567.33673
526.0 0.001901 288.81580 543.53357
510.0 0.001961 288.78964 516.75903
516.0 0.001938 288.76343 504.85712
518.0 0.001931 288.73730 512.55817
525.0 0.001905 288.71124 532.48541
550.0 0.001818 288.68506 551.07959
549.0 0.001821 288.65891 555.60156
531.0 0.001883 288.63278 540.30841
479.0 0.002088 288.60669 515.31714
468.0 0.002137 288.58054 497.55975
464.0 0.002155 288.55444 492.30524
495.0 0.002020 288.52838 493.75467
515.0 0.001942 288.50220 492.67117
462.0 0.002165 288.47607 480.38156
434.0 0.002304 288.45007 457.15723
391.0 0.002558 288.42395 430.48306
379.0 0.002639 288.39786 406.88818
378.0 0.002646 288.37183 390.40121
379.0 0.002639 288.34573 384.35641
376.0 0.002660 288.31973 388.73526
394.0 0.002538 288.29358 402.03302
448.0 0.002232 288.26758 419.01093
413.0 0.002421 288.24155 430.92859
394.0 0.002538 288.21552 430.02762
434.0 0.002304 288.18951 417.23444
398.0 0.002513 288.16351 403.46918
422.0 0.002370 288.13748 398.08536
371.0 0.002695 288.11151 405.08670
453.0 0.002208 288.08551 423.44528
431.0 0.002320 288.05954 446.65060
482.0 0.002075 288.03363 465.67343
463.0 0.002160 288.00769 470.53040
451.0 0.002217 287.98172 455.84579
447.0 0.002237 287.95575 429.56610
405.0 0.002469 287.92987 405.41614
380.0 0.002632 287.90399 392.97430
417.0 0.002398 287.87811 393.90402
430.0 0.002326 287.85220 407.58987
472.0 0.002119 287.82632 429.98444
526.0 0.001901 287.80057 454.78183
506.0 0.001976 287.77469 474.13605
503.0 0.001988 287.74887 476.97498
478.0 0.002092 287.72308 458.03268
452.0 0.002212 287.69730 429.30963
402.0 0.002488 287.67148 405.01846
376.0 0.002660 287.64569 391.35553
383.0 0.002611 287.62000 388.42099
382.0 0.002618 287.59427 391.61597
389.0 0.002571 287.56857 393.04248
382.0 0.002618 287.54291 389.84454
399.0 0.002506 287.51715 386.30588
396.0 0.002525 287.49152 388.70874
404.0 0.002475 287.46588 397.67468
415.0 0.002410 287.44025 410.05966
426.0 0.002347 287.41464 422.93567
459.0 0.002179 287.38910 435.31729
472.0 0.002119 287.36346 443.83459
441.0 0.002268 287.33795 441.92380
410.0 0.002439 287.31244 427.45493
397.0 0.002519 287.28693 404.54883
407.0 0.002457 287.26138 382.42508
403.0 0.002481 287.23593 366.08463
366.0 0.002732 287.21051 356.21878
349.0 0.002865 287.18509 351.44363
349.0 0.002865 287.15964 350.76083
345.0 0.002899 287.13431 354.07339
357.0 0.002801 287.10898 362.51385
391.0 0.002558 287.08359 376.37817
401.0 0.002494 287.05826 397.49496
414.0 0.002415 287.03302 428.27652
462.0 0.002165 287.00769 468.99905
499.0 0.002004 286.98245 516.55225
620.0 0.001613 286.95724 560.87933
610.0 0.001639 286.93201 581.15106
544.0 0.001838 286.90683 571.24292
526.0 0.001901 286.88168 553.36340
478.0 0.002092 286.85657 548.29053
512.0 0.001953 286.83145 559.58008
564.0 0.001773 286.80637 574.82660
526.0 0.001901 286.78137 580.01068
519.0 0.001927 286.75635 571.05200
486.0 0.002058 286.73138 555.69702
484.0 0.002066 286.70639 543.50366
508.0 0.001969 286.68143 533.85602
477.0 0.002096 286.65652 523.28754
478.0 0.002092 286.63162 507.99124
474.0 0.002110 286.60678 490.51450
477.0 0.002096 286.58194 480.26602
468.0 0.002137 286.55713 482.09988
442.0 0.002262 286.53241 491.63422
497.0 0.002012 286.50763 499.25217
498.0 0.002008 286.48294 504.50986
541.0 0.001848 286.45828 517.58191
572.0 0.001748 286.43359 541.69086
625.0 0.001600 286.40900 566.09869
603.0 0.001658 286.38437 570.09686
532.0 0.001880 286.35989 548.20074
468.0 0.002137 286.33530 513.31708
459.0 0.002179 286.31085 479.76581
450.0 0.002222 286.28638 454.18750
448.0 0.002232 286.26202 435.60809
417.0 0.002398 286.23758 420.08032
388.0 0.002577 286.21320 403.85269
383.0 0.002611 286.18893 387.01019
372.0 0.002688 286.16461 373.71976
355.0 0.002817 286.14035 367.21091
350.0 0.002857 286.11615 369.32904
382.0 0.002618 286.09198 380.62396
438.0 0.002283 286.06790 400.94946
481.0 0.002079 286.04373 427.60699
474.0 0.002110 286.01965 452.11270
451.0 0.002217 285.99561 460.71002
449.0 0.002227 285.97156 446.93436
409.0 0.002445 285.94763 420.30817
365.0 0.002740 285.92368 394.02457
343.0 0.002915 285.89981 375.23105
343.0 0.002915 285.87595 365.75693
394.0 0.002538 285.85214 366.45789
404.0 0.002475 285.82831 378.55289
438.0 0.002283 285.80469 403.92038
495.0 0.002020 285.78091 445.06299
568.0 0.001761 285.75729 501.66489
631.0 0.001585 285.73361 566.01727
700.0 0.001429 285.71008 616.61438
675.0 0.001481 285.68652 627.69110
577.0 0.001733 285.66302 598.21716
497.0 0.002012 285.63959 552.54865
493.0 0.002028 285.61618 509.07465
461.0 0.002169 285.59274 474.90192
450.0 0.002222 285.56949 453.24307
444.0 0.002252 285.54620 445.28671
436.0 0.002294 285.52295 447.23123
433.0 0.002309 285.49976 447.59317
426.0 0.002347 285.47659 436.97379
406.0 0.002463 285.45349 418.81744
392.0 0.002551 285.43039 402.47729
386.0 0.002591 285.40738 394.92181
374.0 0.002674 285.38443 399.59839
422.0 0.002370 285.36145 416.54742
482.0 0.002075 285.33856 440.60721
503.0 0.001988 285.31573 460.12717
466.0 0.002146 285.29297 461.15393
446.0 0.002242 285.27014 441.89014
410.0 0.002439 285.24750 414.32993
387.0 0.002584 285.22488 389.18481
373.0 0.002681 285.20221 372.04480
385.0 0.002597 285.17966 364.32028
389.0 0.002571 285.15714 365.14450
383.0 0.002611 285.13464 370.38226
378.0 0.002646 285.11224 373.23965
370.0 0.002703 285.08990 368.81723
351.0 0.002849 285.06757 359.39368
330.0 0.003030 285.04529 350.25650
324.0 0.003086 285.02304 344.54620
319.0 0.003135 285.00089 343.32114
328.0 0.003049 284.97882 345.09415
325.0 0.003077 284.95670 345.93408
335.0 0.002985 284.93475 343.02908
334.0 0.002994 284.91272 338.14386
311.0 0.003215 284.89081 334.48093
313.0 0.003195 284.86893 333.39084
326.0 0.003067 284.84714 333.59000
306.0 0.003268 284.82541 333.37769
333.0 0.003003 284.80368 332.64005
320.0 0.003125 284.78204 334.49506
343.0 0.002915 284.76044 340.82394
368.0 0.002717 284.73886 352.80325
377.0 0.002653 284.71741 370.74017
404.0 0.002475 284.69595 392.75000
402.0 0.002488 284.67459 412.20465
401.0 0.002494 284.65326 419.58344
414.0 0.002415 284.63205 413.11188
406.0 0.002463 284.61075 398.25241
400.0 0.002500 284.58960 379.64725
358.0 0.002793 284.56857 360.83777
329.0 0.003040 284.54742 344.90308
324.0 0.003086 284.52646 333.44882
321.0 0.003115 284.50555 326.76895
299.0 0.003344 284.48465 323.96002
296.0 0.003378 284.46390 323.35260
332.0 0.003012 284.44312 323.95911
359.0 0.002786 284.42239 327.38446
347.0 0.002882 284.40179 334.94519
322.0 0.003106 284.38123 347.02734
345.0 0.002899 284.36066 361.84848
365.0 0.002740 284.34018 375.45966
386.0 0.002591 284.31982 381.91663
368.0 0.002717 284.29944 378.87646
367.0 0.002725 284.27921 367.79626
365.0 0.002740 284.25897 352.95941
302.0 0.003311 284.23886 337.88385
322.0 0.003106 284.21878 324.97372
304.0 0.003289 284.19873 315.36441
314.0 0.003185 284.17871 308.81711
339.0 0.002950 284.15884 304.78726
314.0 0.003185 284.13895 302.82654
358.0 0.002793 284.11914 302.40323
276.0 0.00362 284.09946 303.25378
300.0 0.003333 284.07980 305.33588
335.0 0.002985 284.06021 308.99042
319.0 0.003135 284.04077 314.51395
323.0 0.003096 284.02124 321.70700
342.0 0.002924 284.00186 329.91455
360.0 0.002778 283.98248 338.11005
358.0 0.002793 283.96326 346.73724
367.0 0.002725 283.94406 356.88959
386.0 0.002591 283.92493 366.21127
365.0 0.002740 283.90585 368.68558
378.0 0.002646 283.88684 361.58783
384.0 0.002604 283.86789 350.03555
319.0 0.003135 283.84903 340.20618
311.0 0.003215 283.83032 335.69708
341.0 0.002933 283.81155 337.78897
340.0 0.002941 283.79285 346.26193
386.0 0.002591 283.77429 359.41479
392.0 0.002551 283.75580 372.12054
401.0 0.002494 283.73734 376.80988
375.0 0.002667 283.71890 369.83966
352.0 0.002841 283.70056 356.72516
321.0 0.003115 283.68237 344.51166
292.0 0.003425 283.66415 337.00089
319.0 0.003135 283.64609 334.47388
329.0 0.003040 283.62808 336.09265
309.0 0.003236 283.61005 340.55109
323.0 0.003096 283.59216 344.14523
332.0 0.003012 283.57437 343.49109
328.0 0.003049 283.55664 339.72650
326.0 0.003067 283.53891 336.62857
332.0 0.003012 283.52136 337.37143
339.0 0.002950 283.50388 344.13290
361.0 0.002770 283.48639 358.71835
378.0 0.002646 283.46896 381.58350
420.0 0.002381 283.45172 411.83920
460.0 0.002174 283.43442 444.00830
473.0 0.002114 283.41727 467.89151
472.0 0.002119 283.40024 474.76749
457.0 0.002188 283.38327 468.26984
445.0 0.002247 283.36621 461.05167
436.0 0.002294 283.34940 459.56552
413.0 0.002421 283.33264 459.28763
433.0 0.002309 283.31592 448.44223
418.0 0.002392 283.29926 424.34235
360.0 0.002778 283.28275 395.78052
365.0 0.002740 283.26620 371.15234
335.0 0.002985 283.24988 353.66626
324.0 0.003086 283.23349 343.77499
327.0 0.003058 283.21732 341.18005
331.0 0.003021 283.20111 345.64990
363.0 0.002755 283.18500 357.38467
391.0 0.002558 283.16901 376.18262
430.0 0.002326 283.15308 400.75323
416.0 0.002404 283.13724 425.92963
438.0 0.002283 283.12143 442.63025
428.0 0.002336 283.10574 445.52567
437.0 0.002288 283.09018 439.32062
433.0 0.002309 283.07465 430.60706
396.0 0.002525 283.05917 422.29898
411.0 0.002433 283.04376 413.59192
396.0 0.002525 283.02850 401.77240
375.0 0.002667 283.01331 388.61093
394.0 0.002538 282.99814 379.19379
377.0 0.002653 282.98312 375.39166
397.0 0.002519 282.96814 375.58957
362.0 0.002762 282.95328 376.13626
372.0 0.002688 282.93848 375.16379
399.0 0.002506 282.92380 375.08408
393.0 0.002545 282.90915 378.90369
390.0 0.002564 282.89459 386.75891
398.0 0.002513 282.88013 396.66345
383.0 0.002611 282.86578 406.44241
418.0 0.002392 282.85144 417.55609
440.0 0.002273 282.83725 434.08481
464.0 0.002155 282.82312 459.15930
487.0 0.002053 282.80902 491.27325
509.0 0.001965 282.79510 522.47803
521.0 0.001919 282.78125 538.56580
512.0 0.001953 282.76752 531.77698
506.0 0.001976 282.75378 512.83051
439.0 0.002278 282.74011 496.38931
478.0 0.002092 282.72665 487.74152
510.0 0.001961 282.71323 485.77469
495.0 0.002020 282.69986 486.77573
510.0 0.001961 282.68655 485.41605
492.0 0.002033 282.67340 476.66266
437.0 0.002288 282.66031 462.08823
415.0 0.002410 282.64734 450.45947
441.0 0.002268 282.63440 447.95285
438.0 0.002283 282.62155 458.56534
471.0 0.002123 282.60886 482.35214
523.0 0.001912 282.59619 514.17419
569.0 0.001757 282.58371 543.32117
587.0 0.001704 282.57123 559.17261
558.0 0.001792 282.55881 558.62616
542.0 0.001845 282.54651 545.66943
514.0 0.001946 282.53439 528.09198
492.0 0.002033 282.52222 516.06616
533.0 0.001876 282.51022 514.25867
524.0 0.001908 282.49829 516.54669
519.0 0.001927 282.48645 511.38837
484.0 0.002066 282.47473 494.90387
448.0 0.002232 282.46307 473.08121
435.0 0.002299 282.45157 451.41980
395.0 0.002532 282.44003 434.31808
448.0 0.002232 282.42865 426.03156
426.0 0.002347 282.41739 426.98624
435.0 0.002299 282.40625 433.43866
449.0 0.002227 282.39514 440.73087
424.0 0.002358 282.38416 445.14105
464.0 0.002155 282.37326 441.61884
427.0 0.002342 282.36246 427.46667
408.0 0.002451 282.35168 406.68533
409.0 0.002445 282.34109 387.07910
361.0 0.002770 282.33054 373.83957
349.0 0.002865 282.32016 368.41980
396.0 0.002525 282.30984 368.87726
368.0 0.002717 282.29953 370.48950
380.0 0.002632 282.28940 367.23636
379.0 0.002639 282.27942 358.05481
335.0 0.002985 282.26941 347.15900
346.0 0.002890 282.25958 338.65613
337.0 0.002967 282.24979 334.22705
349.0 0.002865 282.24023 333.88693
356.0 0.002809 282.23059 336.14713
345.0 0.002899 282.22113 338.42221
330.0 0.003030 282.21173 338.72888
360.0 0.002778 282.20251 336.79446
350.0 0.002857 282.19333 332.12476
329.0 0.003040 282.18427 325.93414
309.0 0.003236 282.17529 320.31332
292.0 0.003425 282.16638 316.64694
307.0 0.003257 282.15759 315.15735
314.0 0.003185 282.14893 315.46371
321.0 0.003115 282.14038 316.22910
311.0 0.003215 282.13184 316.13528
318.0 0.003145 282.12347 315.17886
331.0 0.003021 282.11523 314.47592
342.0 0.002924 282.10706 315.05627
334.0 0.002994 282.09891 317.28900
315.0 0.003175 282.09100 321.02899
317.0 0.003155 282.08310 326.01517
338.0 0.002959 282.07532 332.88675
377.0 0.002653 282.06769 343.02927
373.0 0.002681 282.06006 356.58859
378.0 0.002646 282.05258 371.76532
391.0 0.002558 282.04520 383.56247
371.0 0.002695 282.03796 386.10913
371.0 0.002695 282.03076 380.48331
380.0 0.002632 282.02374 373.22769
364.0 0.002747 282.01669 370.40787
365.0 0.002740 282.00989 373.29254
391.0 0.002558 282.00308 380.93185
382.0 0.002618 281.99646 391.46320
385.0 0.002597 281.98990 406.14810
456.0 0.002193 281.98346 426.51230
482.0 0.002075 281.97711 449.92764
478.0 0.002092 281.97086 468.07059
482.0 0.002075 281.96478 474.34589
506.0 0.001976 281.95874 470.98035
487.0 0.002053 281.95276 461.78647
485.0 0.002062 281.94696 446.59720
475.0 0.002105 281.94128 426.94440
411.0 0.002433 281.93567 408.40613
384.0 0.002604 281.93018 393.62155
353.0 0.002833 281.92471 380.43585
339.0 0.002950 281.91943 367.75897
370.0 0.002703 281.91425 356.84259
336.0 0.002976 281.90915 349.94443
344.0 0.002907 281.90421 347.94278
352.0 0.002841 281.89935 350.40652
347.0 0.002882 281.89456 356.95685
376.0 0.002660 281.88992 368.12128
395.0 0.002532 281.88531 384.83090
400.0 0.002500 281.88092 405.81699
421.0 0.002375 281.87662 425.67444
431.0 0.002320 281.87234 436.50070
426.0 0.002347 281.86823 434.89505
391.0 0.002558 281.86423 424.37234
390.0 0.002564 281.86029 409.52554
408.0 0.002451 281.85657 392.98505
380.0 0.002632 281.85284 378.05676
385.0 0.002597 281.84930 366.78302
355.0 0.002817 281.84573 358.65335
334.0 0.002994 281.84241 351.52283
333.0 0.003003 281.83920 344.08286
334.0 0.002994 281.83609 337.64844
302.0 0.003311 281.83301 333.95740
340.0 0.002941 281.83008 334.04553
336.0 0.002976 281.82727 338.17209
363.0 0.002755 281.82458 346.37009
357.0 0.002801 281.82199 358.40598
361.0 0.002770 281.81958 374.80737
392.0 0.002551 281.81714 395.83441
409.0 0.002445 281.81488 418.67075
425.0 0.002353 281.81274 435.43604
430.0 0.002326 281.81067 436.80560
392.0 0.002551 281.80875 421.72052
372.0 0.002688 281.80692 399.55457
372.0 0.002688 281.80521 379.17670
367.0 0.002725 281.80359 364.56201
349.0 0.002865 281.80212 356.16962
333.0 0.003003 281.80075 352.48370
351.0 0.002849 281.79953 351.53601
384.0 0.002604 281.79837 352.46149
371.0 0.002695 281.79730 354.87216
345.0 0.002899 281.79642 358.06802
334.0 0.002994 281.79562 362.63361
366.0 0.002732 281.79492 370.99557
407.0 0.002457 281.79428 385.28183
427.0 0.002342 281.79385 405.05493
432.0 0.002315 281.79352 427.91516
461.0 0.002169 281.79321 447.69754
474.0 0.002110 281.79309 458.36560
475.0 0.002105 281.79306 459.34616
469.0 0.002132 281.79321 455.68289
473.0 0.002114 281.79333 453.54001
500.0 0.002000 281.79373 457.38989
490.0 0.002041 281.79422 465.24814
457.0 0.002188 281.79471 470.71884
480.0 0.002083 281.79544 470.51016
489.0 0.002045 281.79617 467.18762
463.0 0.002160 281.79703 460.45380
411.0 0.002433 281.79803 448.50024
446.0 0.002242 281.79919 432.58408
390.0 0.002564 281.80048 414.08002
366.0 0.002732 281.80179 395.58850
345.0 0.002899 281.80322 380.94489
367.0 0.002725 281.80484 372.71222
363.0 0.002755 281.80658 370.25519
350.0 0.002857 281.80838 370.85629
324.0 0.003086 281.81030 370.50815
365.0 0.002740 281.81232 368.33014
346.0 0.002890 281.81451 367.26547
361.0 0.002770 281.81683 370.67801
386.0 0.002591 281.81915 379.56250
407.0 0.002457 281.82169 392.00647
406.0 0.002463 281.82440 402.76215
409.0 0.002445 281.82709 406.70041
376.0 0.002660 281.82999 403.74664
360.0 0.002778 281.83295 397.65326
391.0 0.002558 281.83603 389.73010
366.0 0.002732 281.83923 381.23749
358.0 0.002793 281.84259 374.39047
374.0 0.002674 281.84607 370.29196
396.0 0.002525 281.84958 370.33426
411.0 0.002433 281.85327 375.25616
443.0 0.002257 281.85712 383.51199
480.0 0.002083 281.86099 389.99927
436.0 0.002294 281.86505 388.88156
386.0 0.002591 281.86914 379.80142
351.0 0.002849 281.87344 368.70316
363.0 0.002755 281.87781 361.03479
330.0 0.003030 281.88235 359.41232
348.0 0.002874 281.88699 364.16959
376.0 0.002660 281.89175 373.62827
411.0 0.002433 281.89655 383.52881
407.0 0.002457 281.90161 388.11691
396.0 0.002525 281.90665 384.18039
388.0 0.002577 281.91190 374.49771
375.0 0.002667 281.91727 364.82745
352.0 0.002841 281.92270 359.29123
337.0 0.002967 281.92822 359.95572
367.0 0.002725 281.93393 366.56155
410.0 0.002439 281.93973 377.23611
415.0 0.002410 281.94568 388.02090
393.0 0.002545 281.95178 394.91074
400.0 0.002500 281.95795 396.67822
359.0 0.002786 281.96417 394.74023
367.0 0.002725 281.97061 393.04645
414.0 0.002415 281.97714 396.73694
424.0 0.002358 281.98380 409.33185
449.0 0.002227 281.99054 431.73013
485.0 0.002062 281.99741 462.50723
508.0 0.001969 282.00446 498.75693
531.0 0.001883 282.01157 532.06781
551.0 0.001815 282.01883 550.13824
523.0 0.001912 282.02625 547.06085
501.0 0.001996 282.03372 534.68182
514.0 0.001946 282.04132 527.94183
567.0 0.001764 282.04904 533.71997
584.0 0.001712 282.05688 548.23322
591.0 0.001692 282.06488 560.15686
533.0 0.001876 282.07294 561.57617
550.0 0.001818 282.08112 557.87134
581.0 0.001721 282.08951 560.71936
621.0 0.001610 282.09787 575.74097
618.0 0.001618 282.10660 598.74823
622.0 0.001608 282.11520 614.36383
624.0 0.001603 282.12402 605.63556
559.0 0.001789 282.13297 573.88611
526.0 0.001901 282.14206 536.36871
510.0 0.001961 282.15121 506.63931
476.0 0.002101 282.16049 489.69687
451.0 0.002217 282.16992 482.84750
471.0 0.002123 282.17944 479.24899
496.0 0.002016 282.18909 474.05939
480.0 0.002083 282.19888 467.26587
458.0 0.002183 282.20880 460.44064
434.0 0.002304 282.21884 454.99243
425.0 0.002353 282.22894 451.25955
402.0 0.002488 282.23917 446.09320
410.0 0.002439 282.24960 437.28476
395.0 0.002532 282.26013 428.85672
411.0 0.002433 282.27075 426.52258
423.0 0.002364 282.28152 431.99374
417.0 0.002398 282.29233 442.01007
460.0 0.002174 282.30338 447.79535
446.0 0.002242 282.31448 440.67978
426.0 0.002347 282.32574 421.19601
383.0 0.002611 282.33710 397.89322
383.0 0.002611 282.34854 377.94357
375.0 0.002667 282.36017 364.23038
363.0 0.002755 282.37192 356.68591
370.0 0.002703 282.38370 353.73129
362.0 0.002762 282.39572 352.29596
346.0 0.002890 282.40781 349.74817
357.0 0.002801 282.41998 344.94003
356.0 0.002809 282.43231 338.76068
351.0 0.002849 282.44482 333.27972
335.0 0.002985 282.45740 330.09656
323.0 0.003096 282.47012 329.77332
342.0 0.002924 282.48288 331.94846
344.0 0.002907 282.49588 335.46930
341.0 0.002933 282.50891 338.16861
328.0 0.003049 282.52219 338.03979
305.0 0.003279 282.53537 335.53571
291.0 0.003436 282.54883 332.95792
317.0 0.003155 282.56232 331.92096
337.0 0.002967 282.57605 332.88290
350.0 0.002857 282.58994 335.26907
339.0 0.002950 282.60376 338.32922
319.0 0.003135 282.61780 341.95706
334.0 0.002994 282.63202 346.99255
367.0 0.002725 282.64630 354.72345
389.0 0.002571 282.66071 366.91644
406.0 0.002463 282.67520 385.60562
442.0 0.002262 282.68985 412.14047
447.0 0.002237 282.70465 445.83527
501.0 0.001996 282.71954 483.71027
492.0 0.002033 282.73453 518.66821
504.0 0.001984 282.74966 539.51868
470.0 0.002128 282.76492 541.33936
475.0 0.002105 282.78033 533.27081
542.0 0.001845 282.79581 525.05713
539.0 0.001855 282.81143 517.57703
581.0 0.001721 282.82721 504.68555
475.0 0.002105 282.84305 482.40903
481.0 0.002079 282.85907 457.24716
426.0 0.002347 282.87518 436.67279
451.0 0.002217 282.89142 423.94131
426.0 0.002347 282.90771 417.57516
393.0 0.002545 282.92426 413.09576
387.0 0.002584 282.94080 405.79520
425.0 0.002353 282.95758 396.93680
357.0 0.002801 282.97440 390.74512
396.0 0.002525 282.99130 390.59143
405.0 0.002469 283.00842 397.32361
411.0 0.002433 283.02560 409.59995
397.0 0.002519 283.04303 423.92844
466.0 0.002146 283.06042 434.14456
435.0 0.002299 283.07797 435.61044
418.0 0.002392 283.09573 431.10245
427.0 0.002342 283.11346 425.84644
457.0 0.002188 283.13147 421.38925
410.0 0.002439 283.14954 414.75964
418.0 0.002392 283.16766 402.97464
411.0 0.002433 283.18600 388.56134
389.0 0.002571 283.20444 376.36166
368.0 0.002717 283.22296 369.44019
376.0 0.002660 283.24170 368.29385
377.0 0.002653 283.26038 371.17627
382.0 0.002618 283.27930 374.90686
386.0 0.002591 283.29840 377.95123
401.0 0.002494 283.31747 379.73172
412.0 0.002427 283.33673 378.66589
397.0 0.002519 283.35617 373.49811
372.0 0.002688 283.37567 364.53638
353.0 0.002833 283.39529 353.66321
345.0 0.002899 283.41504 342.48389
327.0 0.003058 283.43494 332.68823
310.0 0.003226 283.45493 324.94138
310.0 0.003226 283.47504 319.27771
323.0 0.003096 283.49527 315.08365
345.0 0.002899 283.51559 311.75571
318.0 0.003145 283.53613 308.90756
314.0 0.003185 283.55670 306.69336
308.0 0.003247 283.57742 305.38483
310.0 0.003226 283.59824 305.20483
324.0 0.003086 283.61917 306.30481
327.0 0.003058 283.64029 308.89560
336.0 0.002976 283.66144 313.00360
352.0 0.002841 283.68274 318.55466
350.0 0.002857 283.70422 325.08850
353.0 0.002833 283.72583 331.46173
349.0 0.002865 283.74747 336.10767
360.0 0.002778 283.76923 338.53888
367.0 0.002725 283.79117 339.32733
310.0 0.003226 283.81320 339.28864
339.0 0.002950 283.83539 338.42249
357.0 0.002801 283.85760 335.64243
335.0 0.002985 283.88007 330.18454
297.0 0.003367 283.90256 323.42010
325.0 0.003077 283.92514 317.28134
304.0 0.003289 283.94800 312.78015
292.0 0.003425 283.97079 310.25488
314.0 0.003185 283.99380 310.08170
340.0 0.002941 284.01688 311.47034
323.0 0.003096 284.04010 315.40683
312.0 0.003205 284.06345 321.68869
334.0 0.002994 284.08691 329.83527
350.0 0.002857 284.11050 339.87738
346.0 0.002890 284.13422 350.66629
380.0 0.002632 284.15799 360.37381
386.0 0.002591 284.18201 366.12057
360.0 0.002778 284.20602 365.79895
371.0 0.002695 284.23019 360.44327
384.0 0.002604 284.25446 352.67480
361.0 0.002770 284.27884 344.74338
328.0 0.003049 284.30344 337.47815
334.0 0.002994 284.32806 330.77881
344.0 0.002907 284.35284 324.62955
303.0 0.003300 284.37769 319.65707
283.0 0.00353 284.40268 316.41364
301.0 0.003322 284.42786 315.32016
339.0 0.002950 284.45300 316.21872
356.0 0.002809 284.47836 319.55420
344.0 0.002907 284.50378 325.64484
346.0 0.002890 284.52948 334.41083
361.0 0.002770 284.55508 345.60660
390.0 0.002564 284.58093 358.15433
428.0 0.002336 284.60681 369.24515
412.0 0.002427 284.63293 375.94748
386.0 0.002591 284.65906 377.44476
396.0 0.002525 284.68536 374.60425
385.0 0.002597 284.71179 369.43332
363.0 0.002755 284.73822 364.49432
365.0 0.002740 284.76492 362.45419
358.0 0.002793 284.79156 365.64334
359.0 0.002786 284.81851 375.83130
386.0 0.002591 284.84543 395.45438
444.0 0.002252 284.87256 425.96234
502.0 0.001992 284.89969 467.87677
565.0 0.001770 284.92703 518.71222
623.0 0.001605 284.95447 572.24225
660.0 0.001515 284.98206 616.75336
670.0 0.001493 285.00967 637.28943
639.0 0.001565 285.03748 626.09949
567.0 0.001764 285.06537 590.85699
529.0 0.001890 285.09338 544.89008
457.0 0.002188 285.12149 498.46921
417.0 0.002398 285.14969 457.71506
390.0 0.002564 285.17810 425.32422
386.0 0.002591 285.20648 401.11707
373.0 0.002681 285.23511 384.61856
333.0 0.003003 285.26385 374.39627
344.0 0.002907 285.29257 368.75961
354.0 0.002825 285.32156 367.06650
389.0 0.002571 285.35062 370.06921
344.0 0.002907 285.37973 378.54211
394.0 0.002538 285.40887 392.98660
392.0 0.002551 285.43829 412.71713
416.0 0.002404 285.46774 435.81506
470.0 0.002128 285.49738 459.96667
455.0 0.002198 285.52704 483.29031
471.0 0.002123 285.55682 501.95209
485.0 0.002062 285.58679 509.76208
456.0 0.002193 285.61679 503.87726
447.0 0.002237 285.64694 489.36212
465.0 0.002151 285.67722 474.14713
452.0 0.002212 285.70767 464.61090
441.0 0.002268 285.73810 464.21942
476.0 0.002101 285.76871 472.66269
492.0 0.002033 285.79944 485.28146
486.0 0.002058 285.83029 492.27936
469.0 0.002132 285.86121 484.48273
428.0 0.002336 285.89218 462.30933
424.0 0.002358 285.92334 434.65213
359.0 0.002786 285.95459 409.65402
356.0 0.002809 285.98596 391.38528
357.0 0.002801 286.01743 380.72739
351.0 0.002849 286.04898 376.33679
347.0 0.002882 286.08075 376.37192
354.0 0.002825 286.11252 379.26056
374.0 0.002674 286.14438 384.31158
394.0 0.002538 286.17648 391.24036
384.0 0.002604 286.20859 400.55838
396.0 0.002525 286.24078 414.40921
448.0 0.002232 286.27316 434.63559
496.0 0.002016 286.30566 461.59561
553.0 0.001808 286.33817 492.43640
553.0 0.001808 286.37088 522.30219
532.0 0.001880 286.40369 547.17688
579.0 0.001727 286.43649 561.79462
586.0 0.001706 286.46954 560.15039
534.0 0.001873 286.50269 540.29071
498.0 0.002008 286.53580 509.48096
481.0 0.002079 286.56912 479.08755
435.0 0.002299 286.60257 456.30853
394.0 0.002538 286.63611 442.61078
402.0 0.002488 286.66974 435.55255
410.0 0.002439 286.70349 431.24341
407.0 0.002457 286.73730 429.72562
392.0 0.002551 286.77130 433.51016
447.0 0.002237 286.80536 443.98550
480.0 0.002083 286.83960 459.38165
489.0 0.002045 286.87369 474.48169
469.0 0.002132 286.90811 482.33408
463.0 0.002160 286.94263 479.70697
446.0 0.002242 286.97726 470.78107
434.0 0.002304 287.01190 461.68918
451.0 0.002217 287.04663 454.51035
470.0 0.002128 287.08160 448.92990
450.0 0.002222 287.11661 444.29239
453.0 0.002208 287.15170 439.73447
384.0 0.002604 287.18692 436.00314
402.0 0.002488 287.22226 436.67285
451.0 0.002217 287.25769 446.05609
527.0 0.001898 287.29318 466.11398
590.0 0.001695 287.32880 495.28738
618.0 0.001618 287.36453 526.95410
640.0 0.001563 287.40030 548.62646
570.0 0.001754 287.43625 548.91467
524.0 0.001908 287.47229 529.39807
476.0 0.002101 287.50845 502.52399
428.0 0.002336 287.54471 478.90228
455.0 0.002198 287.58096 461.61804
429.0 0.002331 287.61740 447.60367
441.0 0.002268 287.65390 431.90176
416.0 0.002404 287.69058 412.80191
366.0 0.002732 287.72736 392.70959
338.0 0.002959 287.76413 374.53708
323.0 0.003096 287.80112 360.05338
339.0 0.002950 287.83817 349.83597
343.0 0.002915 287.87531 344.01395
334.0 0.002994 287.91254 342.52301
341.0 0.002933 287.94986 345.30276
363.0 0.002755 287.98730 352.52234
376.0 0.002660 288.02481 364.24774
386.0 0.002591 288.06250 379.87485
389.0 0.002571 288.10025 398.40302
437.0 0.002288 288.13806 415.76163
451.0 0.002217 288.17603 426.57849
470.0 0.002128 288.21402 428.98669
464.0 0.002155 288.25217 427.31030
455.0 0.002198 288.29044 427.07147
454.0 0.002203 288.32874 430.11481
434.0 0.002304 288.36710 433.34760
420.0 0.002381 288.40558 431.32452
412.0 0.002427 288.44424 421.69907
395.0 0.002532 288.48291 407.94452
387.0 0.002584 288.52170 395.44232
379.0 0.002639 288.56061 387.84976
362.0 0.002762 288.59958 386.52094
387.0 0.002584 288.63873 391.14426
415.0 0.002410 288.67789 399.83749
417.0 0.002398 288.71719 410.16165
454.0 0.002203 288.75656 420.96738
485.0 0.002062 288.79605 431.54123
490.0 0.002041 288.83560 439.68164
474.0 0.002110 288.87524 440.35001
438.0 0.002283 288.91498 431.93457
412.0 0.002427 288.95490 418.92953
421.0 0.002375 288.99481 407.85910
377.0 0.002653 289.03485 403.16296
384.0 0.002604 289.07492 406.29565
422.0 0.002370 289.11511 416.02603
456.0 0.002193 289.15552 428.67538
430.0 0.002326 289.19592 437.20264
431.0 0.002320 289.23642 435.77994
396.0 0.002525 289.27698 425.07425
390.0 0.002564 289.31766 411.09195
371.0 0.002695 289.35843 399.65451
387.0 0.002584 289.39926 394.92145
371.0 0.002695 289.44025 398.01025
394.0 0.002538 289.48132 408.34085
427.0 0.002342 289.52240 423.38660
431.0 0.002320 289.56366 438.97980
444.0 0.002252 289.60498 449.88708
432.0 0.002315 289.64645 452.70889
428.0 0.002336 289.68793 447.53073
404.0 0.002475 289.72940 436.77667
410.0 0.002439 289.77115 423.64896
407.0 0.002457 289.81287 411.92123
395.0 0.002532 289.85480 404.41669
378.0 0.002646 289.89673 402.18552
414.0 0.002415 289.93872 403.30243
395.0 0.002532 289.98087 404.65182
370.0 0.002703 290.02307 401.90622
383.0 0.002611 290.06537 393.63235
327.0 0.003058 290.10773 381.22119
334.0 0.002994 290.15021 367.41766
349.0 0.002865 290.19275 354.72040
345.0 0.002899 290.23535 345.34027
343.0 0.002915 290.27814 339.84607
346.0 0.002890 290.32086 338.23187
349.0 0.002865 290.36380 339.87628
333.0 0.003003 290.40689 343.58701
334.0 0.002994 290.44986 347.21796
330.0 0.003030 290.49310 348.30917
334.0 0.002994 290.53629 345.87924
328.0 0.003049 290.57962 341.44617
313.0 0.003195 290.62302 337.14838
328.0 0.003049 290.66650 334.18210
333.0 0.003003 290.71017 332.86484
341.0 0.002933 290.75375 333.39325
345.0 0.002899 290.79749 335.12885
346.0 0.002890 290.84137 337.53711
338.0 0.002959 290.88522 339.16022
332.0 0.003012 290.92926 339.45056
330.0 0.003030 290.97330 339.48386
351.0 0.002849 291.01740 340.81482
362.0 0.002762 291.06168 344.14487
396.0 0.002525 291.10602 348.62701
411.0 0.002433 291.15045 352.55606
377.0 0.002653 291.19489 353.02591
347.0 0.002882 291.23941 348.79095
353.0 0.002833 291.28409 341.54538
320.0 0.003125 291.32886 333.66675
316.0 0.003165 291.37369 326.80240
314.0 0.003185 291.41861 321.80154
312.0 0.003205 291.46353 318.98654
322.0 0.003106 291.50861 318.14182
344.0 0.002907 291.55365 318.90482
314.0 0.003185 291.59891 320.63297
331.0 0.003021 291.64423 322.58548
331.0 0.003021 291.68961 325.16922
334.0 0.002994 291.73505 328.51709
339.0 0.002950 291.78052 332.98630
359.0 0.002786 291.82617 337.84082
350.0 0.002857 291.87183 341.51297
395.0 0.002532 291.91748 342.46786
359.0 0.002786 291.96332 340.98199
321.0 0.003115 292.00928 338.73871
324.0 0.003086 292.05533 336.60989
318.0 0.003145 292.10138 335.04965
286.0 0.003497 292.14743 332.30133
351.0 0.002849 292.19373 328.03702
317.0 0.003155 292.23999 323.00549
315.0 0.003175 292.28632 318.16672
301.0 0.003322 292.33282 314.19589
313.0 0.003195 292.37927 311.33490
341.0 0.002933 292.42590 309.69559
308.0 0.003247 292.47253 309.09744
299.0 0.003344 292.51929 309.37115
314.0 0.003185 292.56610 309.96637
305.0 0.003279 292.61298 310.85385
325.0 0.003077 292.65994 311.99908
329.0 0.003040 292.70691 313.47763
312.0 0.003205 292.75409 315.42023
326.0 0.003067 292.80130 317.50143
336.0 0.002976 292.84845 318.78592
329.0 0.003040 292.89578 318.49783
288.0 0.003472 292.94315 316.60849
318.0 0.003145 292.99069 313.89215
308.0 0.003247 293.03818 311.44440
292.0 0.003425 293.08572 309.57184
309.0 0.003236 293.13342 308.55237
301.0 0.003322 293.18118 308.16425
287.0 0.003484 293.22903 308.51477
280.0 0.00357 293.27689 309.62415
302.0 0.003311 293.32480 311.62115
326.0 0.003067 293.37286 314.47537
335.0 0.002985 293.42096 318.65887
328.0 0.003049 293.46918 324.08801
350.0 0.002857 293.51743 331.18130
364.0 0.002747 293.56564 339.98807
352.0 0.002841 293.61407 350.64514
380.0 0.002632 293.66248 363.32840
400.0 0.002500 293.71106 378.79541
410.0 0.002439 293.75958 397.29218
450.0 0.002222 293.80820 417.30698
477.0 0.002096 293.85690 434.28030
444.0 0.002252 293.90564 441.83337
428.0 0.002336 293.95453 436.27249
419.0 0.002387 294.00342 420.70999
415.0 0.002410 294.05237 402.39893
387.0 0.002584 294.10141 386.75888
343.0 0.002915 294.15057 376.47427
350.0 0.002857 294.19977 371.83405
340.0 0.002941 294.24899 371.87164
345.0 0.002899 294.29822 373.82559
355.0 0.002817 294.34760 374.23447
389.0 0.002571 294.39700 371.15381
376.0 0.002660 294.44656 365.80176
330.0 0.003030 294.49615 361.01413
351.0 0.002849 294.54572 358.60123
356.0 0.002809 294.59537 359.40634
390.0 0.002564 294.64517 363.19312
361.0 0.002770 294.69504 369.02472
387.0 0.002584 294.74490 376.01819
389.0 0.002571 294.79474 382.93213
380.0 0.002632 294.84476 389.76837
392.0 0.002551 294.89484 395.60562
402.0 0.002488 294.94501 398.41235
371.0 0.002695 294.99512 396.20535
374.0 0.002674 295.04535 390.06085
376.0 0.002660 295.09567 383.53430
358.0 0.002793 295.14600 380.40787
360.0 0.002778 295.19653 383.11288
395.0 0.002532 295.24698 392.65536
425.0 0.002353 295.29745 408.91055
479.0 0.002088 295.34811 429.91855
461.0 0.002169 295.39874 451.07108
509.0 0.001965 295.44946 465.28366
490.0 0.002041 295.50034 466.13562
420.0 0.002381 295.55112 453.69794
426.0 0.002347 295.60199 434.37665
393.0 0.002545 295.65295 414.92252
380.0 0.002632 295.70407 398.74182
356.0 0.002809 295.75513 386.57849
412.0 0.002427 295.80621 377.58340
368.0 0.002717 295.85739 370.79718
408.0 0.002451 295.90866 365.82852
392.0 0.002551 295.95996 363.38571
395.0 0.002532 296.01135 364.00018
383.0 0.002611 296.06268 367.62827
389.0 0.002571 296.11420 373.85284
404.0 0.002475 296.16571 381.58624
422.0 0.002370 296.21732 389.81509
436.0 0.002294 296.26895 398.27533
440.0 0.002273 296.32059 406.61792
469.0 0.002132 296.37238 414.50888
445.0 0.002247 296.42413 421.69125
432.0 0.002315 296.47604 429.28125
435.0 0.002299 296.52798 438.21191
442.0 0.002262 296.57986 447.52087
462.0 0.002165 296.63199 455.84537
488.0 0.002049 296.68399 463.62781
502.0 0.001992 296.73615 471.62811
478.0 0.002092 296.78830 478.42389
482.0 0.002075 296.84052 480.29654
497.0 0.002012 296.89279 474.54776
454.0 0.002203 296.94513 460.60406
431.0 0.002320 296.99759 442.12283
418.0 0.002392 297.04999 424.80289
406.0 0.002463 297.10245 412.55365
387.0 0.002584 297.15500 406.58221
406.0 0.002463 297.20758 405.64542
410.0 0.002439 297.26028 407.12415
413.0 0.002421 297.31296 406.86438
412.0 0.002427 297.36566 402.89362
418.0 0.002392 297.41849 395.99936
393.0 0.002545 297.47137 387.90656
391.0 0.002558 297.52426 379.79868
370.0 0.002703 297.57718 372.50928
373.0 0.002681 297.63016 367.32693
339.0 0.002950 297.68326 365.43750
367.0 0.002725 297.73633 367.38217
377.0 0.002653 297.78943 373.39630
382.0 0.002618 297.84268 382.65027
415.0 0.002410 297.89587 393.54117
363.0 0.002755 297.94922 404.05280
376.0 0.002660 298.00253 412.41864
457.0 0.002188 298.05594 418.43219
427.0 0.002342 298.10938 423.66730
460.0 0.002174 298.16281 430.71753
447.0 0.002237 298.21634 441.81314
476.0 0.002101 298.26987 456.07590
521.0 0.001919 298.32352 468.94537
473.0 0.002114 298.37726 473.13058
423.0 0.002364 298.43088 464.41333
425.0 0.002353 298.48471 445.19675
425.0 0.002353 298.53848 421.50076
416.0 0.002404 298.59244 398.46133
363.0 0.002755 298.64621 379.02267
356.0 0.002809 298.70016 363.95178
350.0 0.002857 298.75421 352.70895
339.0 0.002950 298.80817 344.57068
301.0 0.003322 298.86224 338.55325
331.0 0.003021 298.91638 334.88138
353.0 0.002833 298.97046 332.98352
345.0 0.002899 299.02475 332.40591
334.0 0.002994 299.07895 332.82196
314.0 0.003185 299.13330 334.30353
328.0 0.003049 299.18765 337.01184
354.0 0.002825 299.24197 341.55035
364.0 0.002747 299.29642 348.36591
375.0 0.002667 299.35086 357.58807
376.0 0.002660 299.40549 369.28821
393.0 0.002545 299.45996 382.34894
410.0 0.002439 299.51450 394.46216
402.0 0.002488 299.56924 402.61749
398.0 0.002513 299.62378 405.44284
401.0 0.002494 299.67859 404.82578
435.0 0.002299 299.73334 403.98294
426.0 0.002347 299.78806 405.18686
431.0 0.002320 299.84302 408.94308
429.0 0.002331 299.89789 413.15695
442.0 0.002262 299.95279 414.39386
452.0 0.002212 300.00772 410.37540
409.0 0.002445 300.06274 403.43454
362.0 0.002762 300.11780 397.37479
375.0 0.002667 300.17285 395.08722
394.0 0.002538 300.22803 397.57312
415.0 0.002410 300.28320 403.85172
422.0 0.002370 300.33835 411.10986
412.0 0.002427 300.39362 414.53540
364.0 0.002747 300.44891 410.80511
354.0 0.002825 300.50424 400.59537
359.0 0.002786 300.55966 387.88675
364.0 0.002747 300.61499 376.46875
364.0 0.002747 300.67044 368.37442
362.0 0.002762 300.72592 364.49011
330.0 0.003030 300.78146 364.77597
379.0 0.002639 300.83701 369.08533
350.0 0.002857 300.89255 376.65335
390.0 0.002564 300.94821 386.44702
406.0 0.002463 301.00385 396.93497
392.0 0.002551 301.05960 405.85880
397.0 0.002519 301.11536 410.92114
430.0 0.002326 301.17099 410.59030
446.0 0.002242 301.22696 404.97821
419.0 0.002387 301.28268 396.45947
380.0 0.002632 301.33865 388.02966
376.0 0.002660 301.39459 382.23477
385.0 0.002597 301.45047 380.01422
395.0 0.002532 301.50650 381.11569
397.0 0.002519 301.56256 384.48364
377.0 0.002653 301.61865 388.43799
400.0 0.002500 301.67471 391.03952
378.0 0.002646 301.73080 392.12170
370.0 0.002703 301.78702 393.01004
377.0 0.002653 301.84323 394.30200
398.0 0.002513 301.89948 394.72003
369.0 0.002710 301.95575 392.97510
394.0 0.002538 302.01193 388.35498
360.0 0.002778 302.06842 382.77014
374.0 0.002674 302.12473 378.13702
368.0 0.002717 302.18124 375.51947
362.0 0.002762 302.23767 374.74991
362.0 0.002762 302.29407 375.10117
377.0 0.002653 302.35068 376.14325
403.0 0.002481 302.40717 378.28354
394.0 0.002538 302.46387 382.43491
387.0 0.002584 302.52045 389.49997
400.0 0.002500 302.57706 400.02081
423.0 0.002364 302.63373 413.39838
443.0 0.002257 302.69040 427.50327
439.0 0.002278 302.74722 438.63007
445.0 0.002247 302.80405 443.52441
439.0 0.002278 302.86084 442.31390
422.0 0.002370 302.91769 437.57892
415.0 0.002410 302.97455 431.89749
424.0 0.002358 303.03149 426.66974
410.0 0.002439 303.08847 423.57523
395.0 0.002532 303.14542 422.73587
408.0 0.002451 303.20245 422.82889
408.0 0.002451 303.25946 422.51447
427.0 0.002342 303.31659 422.38385
438.0 0.002283 303.37369 424.34079
424.0 0.002358 303.43079 429.34515
423.0 0.002364 303.48807 437.80701
442.0 0.002262 303.54517 449.91107
469.0 0.002132 303.60248 465.13626
494.0 0.002024 303.65979 481.88214
523.0 0.001912 303.71692 496.86838
512.0 0.001953 303.77426 507.05484
543.0 0.001842 303.83163 510.56314
556.0 0.001799 303.88907 508.37973
521.0 0.001919 303.94650 502.75900
501.0 0.001996 304.00394 493.83911
474.0 0.002110 304.06146 480.24664
428.0 0.002336 304.11893 462.42087
436.0 0.002294 304.17648 443.48184
412.0 0.002427 304.23404 425.53381
365.0 0.002740 304.29163 409.56491
364.0 0.002747 304.34927 396.24478
404.0 0.002475 304.40695 386.10703
343.0 0.002915 304.46466 379.22446
361.0 0.002770 304.52246 375.10553
358.0 0.002793 304.58011 373.20364
402.0 0.002488 304.63794 373.60712
389.0 0.002571 304.69571 376.44281
373.0 0.002681 304.75360 381.56406
373.0 0.002681 304.81152 389.03580
441.0 0.002268 304.86938 398.71194
425.0 0.002353 304.92731 410.15402
403.0 0.002481 304.98529 421.84106
469.0 0.002132 305.04327 432.02231
454.0 0.002203 305.10132 439.00339
459.0 0.002179 305.15930 441.48773
474.0 0.002110 305.21741 439.20425
469.0 0.002132 305.27551 432.33624
437.0 0.002288 305.33371 422.18860
414.0 0.002415 305.39185 410.71176
371.0 0.002695 305.44998 400.31223
335.0 0.002985 305.50830 392.35547
379.0 0.002639 305.56647 387.60867
410.0 0.002439 305.62485 386.44092
409.0 0.002445 305.68317 389.18777
413.0 0.002421 305.74139 395.14795
396.0 0.002525 305.79987 402.61902
400.0 0.002500 305.85828 408.24805
397.0 0.002519 305.91669 408.41605
386.0 0.002591 305.97519 402.09579
353.0 0.002833 306.03357 391.74399
353.0 0.002833 306.09213 380.82236
372.0 0.002688 306.15070 371.57196
357.0 0.002801 306.20932 364.89038
351.0 0.002849 306.26788 360.79639
359.0 0.002786 306.32645 359.06299
359.0 0.002786 306.38519 359.40091
361.0 0.002770 306.44379 361.57727
365.0 0.002740 306.50262 365.18192
391.0 0.002558 306.56134 369.74667
398.0 0.002513 306.62006 374.82294
421.0 0.002375 306.67889 380.87100
437.0 0.002288 306.73770 388.09854
436.0 0.002294 306.79657 395.35104
412.0 0.002427 306.85547 400.56680
407.0 0.002457 306.91434 401.82559
402.0 0.002488 306.97336 399.37408
401.0 0.002494 307.03232 395.49847
408.0 0.002451 307.09134 392.29108
387.0 0.002584 307.15039 390.66040
404.0 0.002475 307.20941 389.24036
409.0 0.002445 307.26849 386.58255
386.0 0.002591 307.32758 382.84946
370.0 0.002703 307.38678 379.60529
371.0 0.002695 307.44601 378.84531
379.0 0.002639 307.50513 382.11038
392.0 0.002551 307.56442 390.49112
409.0 0.002445 307.62369 404.43201
464.0 0.002155 307.68295 423.98938
482.0 0.002075 307.74231 447.98441
470.0 0.002128 307.80161 473.46100
574.0 0.001742 307.86102 495.33893
559.0 0.001789 307.92035 507.78995
546.0 0.001832 307.97980 508.67267
493.0 0.002028 308.03931 500.24237
497.0 0.002012 308.09879 485.99115
456.0 0.002193 308.15833 469.11703
477.0 0.002096 308.21786 451.35654
412.0 0.002427 308.27747 433.28119
388.0 0.002577 308.33710 414.87976
373.0 0.002681 308.39670 397.46426
365.0 0.002740 308.45639 382.10931
350.0 0.002857 308.51605 369.87222
313.0 0.003195 308.57581 360.69000
334.0 0.002994 308.63556 354.35419
336.0 0.002976 308.69534 350.69592
347.0 0.002882 308.75516 349.45468
358.0 0.002793 308.81503 350.64139
365.0 0.002740 308.87491 354.30118
352.0 0.002841 308.93478 360.81738
351.0 0.002849 308.99475 369.60144
375.0 0.002667 309.05475 380.80249
382.0 0.002618 309.11472 393.64789
422.0 0.002370 309.17471 406.72308
456.0 0.002193 309.23483 417.79083
437.0 0.002288 309.29480 424.41821
396.0 0.002525 309.35498 425.70648
390.0 0.002564 309.41516 422.92871
426.0 0.002347 309.47537 418.09683
432.0 0.002315 309.53561 413.12054
421.0 0.002375 309.59573 409.45358
429.0 0.002331 309.65607 407.72681
443.0 0.002257 309.71637 407.79846
430.0 0.002326 309.77670 409.23514
428.0 0.002336 309.83713 411.20889
441.0 0.002268 309.89749 413.60245
443.0 0.002257 309.95792 416.48596
427.0 0.002342 310.01837 419.54037
427.0 0.002342 310.07889 420.74457
404.0 0.002475 310.13937 417.67722
391.0 0.002558 310.19989 409.51849
406.0 0.002463 310.26053 398.20313
352.0 0.002841 310.32123 386.54959
355.0 0.002817 310.38181 376.43713
354.0 0.002825 310.44250 368.41559
333.0 0.003003 310.50320 362.48813
350.0 0.002857 310.56400 358.26761
347.0 0.002882 310.62482 355.51257
342.0 0.002924 310.68558 354.21091
379.0 0.002639 310.74646 354.46301
363.0 0.002755 310.80731 356.22241
330.0 0.003030 310.86823 359.78494
406.0 0.002463 310.92920 364.96277
377.0 0.002653 310.99017 371.58237
391.0 0.002558 311.05127 379.31583
400.0 0.002500 311.11224 387.93671
465.0 0.002151 311.17331 397.56030
428.0 0.002336 311.23447 408.30295
436.0 0.002294 311.29559 420.60092
457.0 0.002188 311.35678 434.79184
486.0 0.002058 311.41797 451.17679
476.0 0.002101 311.47931 469.84543
548.0 0.001825 311.54062 489.76447
556.0 0.001799 311.60196 510.09604
580.0 0.001724 311.66333 530.44458
666.0 0.001502 311.72461 551.53192
636.0 0.001572 311.78613 574.85986
671.0 0.001490 311.84756 602.53473
764.0 0.001309 311.90915 635.14453
782.0 0.001279 311.97070 668.18677
772.0 0.001295 312.03223 690.90393
767.0 0.001304 312.09390 691.29810
666.0 0.001502 312.15549 665.26349
582.0 0.001718 312.21729 621.66785
522.0 0.001916 312.27902 573.49872
499.0 0.002004 312.34070 530.07935
497.0 0.002012 312.40256 495.60367
475.0 0.002105 312.46436 471.07343
454.0 0.002203 312.52625 455.12766
464.0 0.002155 312.58823 445.22238
461.0 0.002169 312.65015 438.26126
428.0 0.002336 312.71216 432.67896
391.0 0.002558 312.77417 427.82095
391.0 0.002558 312.83630 424.29385
414.0 0.002415 312.89838 423.34549
440.0 0.002273 312.96060 425.73932
445.0 0.002247 313.02274 431.70615
432.0 0.002315 313.08499 441.02988
461.0 0.002169 313.14728 453.49338
522.0 0.001916 313.20963 469.01523
548.0 0.001825 313.27194 488.39215
553.0 0.001808 313.33438 512.93085
584.0 0.001712 313.39673 542.62506
641.0 0.001560 313.45935 574.81427
663.0 0.001508 313.52185 603.91553
706.0 0.001416 313.58438 624.65527
691.0 0.001447 313.64703 636.17859
703.0 0.001422 313.70963 640.88336
673.0 0.001486 313.77243 641.59235
640.0 0.001563 313.83511 639.32654
632.0 0.001582 313.89786 631.89355
617.0 0.001621 313.96069 615.25037
569.0 0.001757 314.02356 588.08154
523.0 0.001912 314.08655 553.45782
476.0 0.002101 314.14944 516.35864
438.0 0.002283 314.21240 481.13309
424.0 0.002358 314.27551 450.31638
380.0 0.002632 314.33859 425.30743
374.0 0.002674 314.40179 406.33261
392.0 0.002551 314.46497 392.82886
361.0 0.002770 314.52808 383.82013
364.0 0.002747 314.59143 378.36426
383.0 0.002611 314.65479 375.32205
393.0 0.002545 314.71817 374.12839
360.0 0.002778 314.78165 374.73193
343.0 0.002915 314.84503 377.33905
379.0 0.002639 314.90857 382.42245
397.0 0.002519 314.97208 390.15427
400.0 0.002500 315.03577 400.66898
388.0 0.002577 315.09952 413.85498
426.0 0.002347 315.16312 428.77682
440.0 0.002273 315.22684 444.24658
479.0 0.002088 315.29071 458.39655
484.0 0.002066 315.35461 469.72998
495.0 0.002020 315.41855 475.55383
494.0 0.002024 315.48242 473.12769
455.0 0.002198 315.54651 462.12439
435.0 0.002299 315.61053 445.36761
386.0 0.002591 315.67465 426.61441
383.0 0.002611 315.73886 408.86990
374.0 0.002674 315.80304 393.89966
372.0 0.002688 315.86737 382.43155
389.0 0.002571 315.93164 374.58954
360.0 0.002778 315.99606 370.06735
377.0 0.002653 316.06058 368.42203
374.0 0.002674 316.12500 369.18643
388.0 0.002577 316.18954 371.99286
392.0 0.002551 316.25409 376.65573
398.0 0.002513 316.31888 383.36383
405.0 0.002469 316.38358 392.32065
407.0 0.002457 316.44824 403.39044
423.0 0.002364 316.51309 416.00360
469.0 0.002132 316.57800 429.46542
500.0 0.002000 316.64297 443.69446
512.0 0.001953 316.70795 458.05789
515.0 0.001942 316.77292 471.41037
504.0 0.001984 316.83817 483.07413
518.0 0.001931 316.90329 493.17395
535.0 0.001869 316.96857 503.07910
536.0 0.001866 317.03381 513.52869
555.0 0.001802 317.09912 524.09656
554.0 0.001805 317.16458 532.82947
526.0 0.001901 317.23001 535.47089
502.0 0.001992 317.29559 528.11725
473.0 0.002114 317.36124 509.75168
444.0 0.002252 317.42679 484.22626
412.0 0.002427 317.49252 457.00256
359.0 0.002786 317.55829 432.38647
376.0 0.002660 317.62421 412.39764
364.0 0.002747 317.69009 397.32758
344.0 0.002907 317.75601 387.07895
367.0 0.002725 317.82205 380.84811
377.0 0.002653 317.88818 378.17120
372.0 0.002688 317.95435 378.32629
396.0 0.002525 318.02060 380.75705
390.0 0.002564 318.08688 384.71542
426.0 0.002347 318.15320 389.50589
418.0 0.002392 318.21967 394.76181
412.0 0.002427 318.28616 400.11255
417.0 0.002398 318.35281 405.02457
418.0 0.002392 318.41934 409.23199
402.0 0.002488 318.48611 412.63171
391.0 0.002558 318.55286 416.16452
430.0 0.002326 318.61972 420.50388
425.0 0.002353 318.68661 425.70480
453.0 0.002208 318.75351 430.74200
435.0 0.002299 318.82068 433.91766
430.0 0.002326 318.88770 432.65613
422.0 0.002370 318.95499 425.78949
359.0 0.002786 319.02219 414.43472
385.0 0.002597 319.08954 401.43204
331.0 0.003021 319.15695 389.01883
370.0 0.002703 319.22437 378.34274
375.0 0.002667 319.29199 370.55893
341.0 0.002933 319.35968 365.28180
363.0 0.002755 319.42731 362.48807
380.0 0.002632 319.49512 361.83740
366.0 0.002732 319.56293 363.30707
370.0 0.002703 319.63092 366.72412
351.0 0.002849 319.69894 372.33002
379.0 0.002639 319.76700 380.11685
409.0 0.002445 319.83521 390.32349
414.0 0.002415 319.90338 402.94235
432.0 0.002315 319.97180 417.55246
454.0 0.002203 320.04019 432.97174
471.0 0.002123 320.10855 447.95630
483.0 0.002070 320.17725 462.00894
495.0 0.002020 320.24579 475.52573
508.0 0.001969 320.31461 488.03323
525.0 0.001905 320.38342 497.23468
496.0 0.002016 320.45227 500.78137
488.0 0.002049 320.52124 499.03885
484.0 0.002066 320.59030 494.06909
473.0 0.002114 320.65942 486.95020
462.0 0.002165 320.72873 476.69302
441.0 0.002268 320.79794 462.24802
415.0 0.002410 320.86740 444.48651
377.0 0.002653 320.93686 426.35651
368.0 0.002717 321.00644 409.62802
377.0 0.002653 321.07611 395.70718
372.0 0.002688 321.14575 385.08688
376.0 0.002660 321.21567 377.64377
376.0 0.002660 321.28555 373.36380
366.0 0.002732 321.35562 371.81314
377.0 0.002653 321.42566 372.89609
361.0 0.002770 321.49573 376.42493
358.0 0.002793 321.56613 382.39108
422.0 0.002370 321.63644 390.69431
419.0 0.002387 321.70700 401.01566
445.0 0.002247 321.77753 412.73245
449.0 0.002227 321.84805 425.43860
476.0 0.002101 321.91888 439.02802
499.0 0.002004 321.98969 453.14401
464.0 0.002155 322.06067 466.43774
492.0 0.002033 322.13165 476.33493
466.0 0.002146 322.20273 480.89755
476.0 0.002101 322.27396 479.43869
474.0 0.002110 322.34521 473.16431
466.0 0.002146 322.41672 463.98846
458.0 0.002183 322.48819 453.26160
389.0 0.002571 322.55972 442.14529
411.0 0.002433 322.63150 432.25235
415.0 0.002410 322.70325 425.21887
419.0 0.002387 322.77518 422.21356
399.0 0.002506 322.84717 423.21014
431.0 0.002320 322.91922 428.52753
455.0 0.002198 322.99152 437.12778
449.0 0.002227 323.06372 447.65915
486.0 0.002058 323.13629 458.16031
483.0 0.002070 323.20877 467.21066
486.0 0.002058 323.28128 474.65424
467.0 0.002141 323.35403 480.97156
481.0 0.002079 323.42682 486.00003
534.0 0.001873 323.49985 488.55875
491.0 0.002037 323.57291 487.84525
483.0 0.002070 323.64600 484.45218
477.0 0.002096 323.71924 480.13446
482.0 0.002075 323.79260 476.80017
498.0 0.002008 323.86612 475.31494
514.0 0.001946 323.93970 474.99588
501.0 0.001996 324.01331 473.21729
473.0 0.002114 324.08719 467.16934
453.0 0.002208 324.16104 456.07825
414.0 0.002415 324.23514 442.10089
401.0 0.002494 324.30927 428.25562
396.0 0.002525 324.38345 416.75748
390.0 0.002564 324.45789 408.79965
410.0 0.002439 324.53223 404.82413
383.0 0.002611 324.60699 404.99719
389.0 0.002571 324.68164 409.15549
430.0 0.002326 324.75641 417.16641
444.0 0.002252 324.83139 428.58728
453.0 0.002208 324.90643 442.55640
484.0 0.002066 324.98166 458.28339
496.0 0.002016 325.05692 475.40881
504.0 0.001984 325.13229 494.26474
570.0 0.001754 325.20786 515.04395
616.0 0.001623 325.28348 536.45599
627.0 0.001595 325.35938 555.58447
645.0 0.001550 325.43524 569.15332
639.0 0.001565 325.51120 575.09473
646.0 0.001548 325.58737 572.31500
625.0 0.001600 325.66357 560.46588
558.0 0.001792 325.74005 541.05029
486.0 0.002058 325.81659 517.40796
434.0 0.002304 325.89313 493.04877
457.0 0.002188 325.96991 469.63742
441.0 0.002268 326.04678 448.17142
437.0 0.002288 326.12387 429.61359
399.0 0.002506 326.20105 414.89539
385.0 0.002597 326.27820 404.52045
363.0 0.002755 326.35565 398.57999
380.0 0.002632 326.43320 396.83316
377.0 0.002653 326.51093 399.58151
387.0 0.002584 326.58878 406.37576
435.0 0.002299 326.66660 417.24069
456.0 0.002193 326.74469 431.41199
504.0 0.001984 326.82285 447.55716
522.0 0.001916 326.90118 463.27158
518.0 0.001931 326.97968 475.30695
504.0 0.001984 327.05826 481.38437
502.0 0.001992 327.13702 481.75626
534.0 0.001873 327.21585 478.65207
492.0 0.002033 327.29495 474.10837
502.0 0.001992 327.37405 468.86945
470.0 0.002128 327.45331 462.77237
461.0 0.002169 327.53284 455.19247
426.0 0.002347 327.61240 445.34384
446.0 0.002242 327.69211 433.12997
427.0 0.002342 327.77191 419.68228
391.0 0.002558 327.85184 406.76151
387.0 0.002584 327.93204 395.44009
364.0 0.002747 328.01221 386.21783
366.0 0.002732 328.09274 379.04388
331.0 0.003021 328.17331 373.58960
363.0 0.002755 328.25394 369.48303
384.0 0.002604 328.33487 366.69669
362.0 0.002762 328.41586 365.37125
344.0 0.002907 328.49701 365.55127
343.0 0.002915 328.57837 367.26715
385.0 0.002597 328.65973 370.67227
370.0 0.002703 328.74136 375.50076
378.0 0.002646 328.82306 381.23831
389.0 0.002571 328.90506 386.93173
380.0 0.002632 328.98703 391.07065
375.0 0.002667 329.06912 392.21048
363.0 0.002755 329.15161 390.03098
369.0 0.002710 329.23410 385.68747
395.0 0.002532 329.31677 380.62488
382.0 0.002618 329.39966 376.27396
356.0 0.002809 329.48251 373.13663
371.0 0.002695 329.56564 371.12576
362.0 0.002762 329.64893 370.10025
355.0 0.002817 329.73242 369.21527
372.0 0.002688 329.81598 367.95938
338.0 0.002959 329.89966 366.12051
341.0 0.002933 329.98370 364.16193
330.0 0.003030 330.06772 362.55869
319.0 0.003135 330.15201 361.59848
353.0 0.002833 330.23642 361.44757
354.0 0.002825 330.32095 362.10757
349.0 0.002865 330.40567 363.76819
348.0 0.002874 330.49057 366.45282
347.0 0.002882 330.57565 369.97931
359.0 0.002786 330.66086 374.35007
368.0 0.002717 330.74609 378.57593
376.0 0.002660 330.83176 382.06268
366.0 0.002732 330.91745 384.36713
385.0 0.002597 331.00345 385.25967
369.0 0.002710 331.08948 384.42615
347.0 0.002882 331.17560 381.58865
371.0 0.002695 331.26205 377.05698
302.0 0.003311 331.34857 371.90433
319.0 0.003135 331.43536 366.79391
348.0 0.002874 331.52225 362.59085
328.0 0.003049 331.60922 359.49304
366.0 0.002732 331.69656 357.43472
328.0 0.003049 331.78397 356.30157
368.0 0.002717 331.87155 355.50311
318.0 0.003145 331.95935 354.88794
352.0 0.002841 332.04721 353.93100
324.0 0.003086 332.13541 352.96136
343.0 0.002915 332.22363 351.94916
331.0 0.003021 332.31216 351.28372
342.0 0.002924 332.40082 351.04178
345.0 0.002899 332.48956 351.32468
365.0 0.002740 332.57864 352.21921
361.0 0.002770 332.66785 353.79489
359.0 0.002786 332.75723 356.02768
375.0 0.002667 332.84677 358.96414
352.0 0.002841 332.93646 362.35895
398.0 0.002513 333.02646 366.01041
363.0 0.002755 333.11652 369.61325
365.0 0.002740 333.20688 373.21320
357.0 0.002801 333.29736 376.85370
371.0 0.002695 333.38794 380.50156
387.0 0.002584 333.47879 384.18411
389.0 0.002571 333.56982 388.04922
389.0 0.002571 333.66107 392.23553
406.0 0.002463 333.75256 396.69119
410.0 0.002439 333.84402 400.34213
400.0 0.002500 333.93582 403.15842
435.0 0.002299 334.02783 404.74017
435.0 0.002299 334.11996 404.75766
408.0 0.002451 334.21240 403.36856
382.0 0.002618 334.30490 400.73346
388.0 0.002577 334.39764 397.61206
394.0 0.002538 334.49051 394.14536
388.0 0.002577 334.58374 390.62167
382.0 0.002618 334.67703 387.16498
385.0 0.002597 334.77057 384.15259
380.0 0.002632 334.86429 381.99069
371.0 0.002695 334.95819 381.06161
385.0 0.002597 335.05240 381.39465
407.0 0.002457 335.14667 382.56992
382.0 0.002618 335.24109 383.74994
380.0 0.002632 335.33585 384.00601
386.0 0.002591 335.43069 382.82159
379.0 0.002639 335.52594 380.39752
363.0 0.002755 335.62115 377.48416
351.0 0.002849 335.71658 374.72363
327.0 0.003058 335.81241 372.77591
346.0 0.002890 335.90823 372.00031
365.0 0.002740 336.00446 372.49506
356.0 0.002809 336.10077 374.10910
375.0 0.002667 336.19724 376.53720
414.0 0.002415 336.29404 379.15482
434.0 0.002304 336.39087 381.82956
375.0 0.002667 336.48816 384.38156
381.0 0.002625 336.58548 386.73288
396.0 0.002525 336.68292 388.99438
405.0 0.002469 336.78082 391.37979
393.0 0.002545 336.87869 394.12326
421.0 0.002375 336.97693 397.38412
411.0 0.002433 337.07541 400.86960
380.0 0.002632 337.17389 404.10315
397.0 0.002519 337.27283 406.70993
436.0 0.002294 337.37173 408.70389
405.0 0.002469 337.47110 410.28043
418.0 0.002392 337.57056 411.54346
405.0 0.002469 337.67014 412.20090
387.0 0.002584 337.77005 412.12677
400.0 0.002500 337.87015 411.78091
405.0 0.002469 337.97046 411.77539
420.0 0.002381 338.07108 412.83310
428.0 0.002336 338.17169 415.35883
440.0 0.002273 338.27267 419.63333
491.0 0.002037 338.37390 425.15298
514.0 0.001946 338.47534 430.97641
496.0 0.002016 338.57693 435.48514
479.0 0.002088 338.67874 438.25534
495.0 0.002020 338.78088 439.76163
508.0 0.001969 338.88306 440.79272
485.0 0.002062 338.98566 441.44153
460.0 0.002174 339.08835 440.78873
477.0 0.002096 339.19119 437.91556
436.0 0.002294 339.29440 433.06268
430.0 0.002326 339.39780 427.74756
410.0 0.002439 339.50146 423.63348
385.0 0.002597 339.60529 421.88333
405.0 0.002469 339.70926 422.69766
429.0 0.002331 339.81366 425.61539
463.0 0.002160 339.91809 429.64667
483.0 0.002070 340.02292 433.48785
465.0 0.002151 340.12793 435.74710
445.0 0.002247 340.23294 434.97174
433.0 0.002309 340.33844 430.91330
414.0 0.002415 340.44403 424.46054
427.0 0.002342 340.54999 417.13675
438.0 0.002283 340.65610 410.41733
395.0 0.002532 340.76230 405.32208
395.0 0.002532 340.86899 402.41531
418.0 0.002392 340.97571 401.84171
428.0 0.002336 341.08273 403.41205
432.0 0.002315 341.19012 406.66656
428.0 0.002336 341.29742 411.02182
446.0 0.002242 341.40518 415.88815
440.0 0.002273 341.51312 421.36716
454.0 0.002203 341.62137 427.87369
469.0 0.002132 341.72989 435.44089
473.0 0.002114 341.83838 443.28247
450.0 0.002222 341.94724 449.99182
442.0 0.002262 342.05640 453.87271
460.0 0.002174 342.16577 453.54645
437.0 0.002288 342.27548 448.88452
449.0 0.002227 342.38516 441.32040
450.0 0.002222 342.49521 432.81912
421.0 0.002375 342.60553 425.23087
418.0 0.002392 342.71606 419.51010
406.0 0.002463 342.82690 415.97745
411.0 0.002433 342.93777 413.79739
416.0 0.002404 343.04913 412.44083
387.0 0.002584 343.16058 411.18732
398.0 0.002513 343.27240 409.60556
401.0 0.002494 343.38434 407.72894
419.0 0.002387 343.49643 405.59808
376.0 0.002660 343.60892 403.34143
378.0 0.002646 343.72159 401.50394
381.0 0.002625 343.83456 400.53680
425.0 0.002353 343.94778 400.63913
428.0 0.002336 344.06107 401.50272
402.0 0.002488 344.17474 402.49384
406.0 0.002463 344.28857 402.87805
404.0 0.002475 344.40286 402.45493
373.0 0.002681 344.51718 401.58844
393.0 0.002545 344.63171 401.09454
385.0 0.002597 344.74667 401.49463
399.0 0.002506 344.86163 402.92023
400.0 0.002500 344.97711 405.02966
403.0 0.002481 345.09277 406.98111
440.0 0.002273 345.20840 407.90100
374.0 0.002674 345.32455 407.37332
362.0 0.002762 345.44083 405.96146
402.0 0.002488 345.55743 404.44995
403.0 0.002481 345.67429 404.01804
372.0 0.002688 345.79123 405.55096
378.0 0.002646 345.90860 409.65530
418.0 0.002392 346.02612 416.71750
422.0 0.002370 346.14395 426.62604
436.0 0.002294 346.26205 439.20505
460.0 0.002174 346.38025 453.47675
464.0 0.002155 346.49875 467.90189
499.0 0.002004 346.61749 480.41275
512.0 0.001953 346.73660 489.23676
474.0 0.002110 346.85596 493.09793
459.0 0.002179 346.97534 491.62640
443.0 0.002257 347.09509 485.81851
438.0 0.002283 347.21512 477.60800
454.0 0.002203 347.33539 469.36624
467.0 0.002141 347.45599 462.31619
451.0 0.002217 347.57660 456.96158
439.0 0.002278 347.69769 453.19269
434.0 0.002304 347.81882 450.19089
436.0 0.002294 347.94040 446.62958
438.0 0.002283 348.06219 441.48322
449.0 0.002227 348.18405 434.73639
434.0 0.002304 348.30637 427.73495
418.0 0.002392 348.42880 421.62344
421.0 0.002375 348.55161 417.28104
429.0 0.002331 348.67456 415.19196
465.0 0.002151 348.79764 415.68539
444.0 0.002252 348.92123 418.64355
412.0 0.002427 349.04498 423.88641
426.0 0.002347 349.16901 431.22626
446.0 0.002242 349.29318 439.94312
477.0 0.002096 349.41748 449.47324
494.0 0.002024 349.54230 459.19431
505.0 0.001980 349.66724 468.00357
489.0 0.002045 349.79251 474.76022
540.0 0.001852 349.91794 478.61539
479.0 0.002088 350.04358 479.20773
428.0 0.002336 350.16959 476.78476
465.0 0.002151 350.29575 471.49689
482.0 0.002075 350.42233 463.68692
407.0 0.002457 350.54898 454.27496
400.0 0.002500 350.67575 444.75909
429.0 0.002331 350.80304 436.31772
411.0 0.002433 350.93045 429.64755
411.0 0.002433 351.05814 424.75064
400.0 0.002500 351.18619 421.07217
404.0 0.002475 351.31415 417.85925
409.0 0.002445 351.44269 414.47165
375.0 0.002667 351.57120 410.71677
379.0 0.002639 351.70023 407.31168
388.0 0.002577 351.82938 404.77533
409.0 0.002445 351.95868 403.54718
384.0 0.002604 352.08844 404.04962
386.0 0.002591 352.21826 406.36246
409.0 0.002445 352.34842 410.48422
420.0 0.002381 352.47888 416.09073
410.0 0.002439 352.60938 422.80258
463.0 0.002160 352.74023 429.72107
430.0 0.002326 352.87140 435.83063
430.0 0.002326 353.00278 440.10696
442.0 0.002262 353.13434 442.13898
423.0 0.002364 353.26608 441.97156
411.0 0.002433 353.39825 440.40375
434.0 0.002304 353.53049 438.73538
408.0 0.002451 353.66321 438.19620
386.0 0.002591 353.79593 439.56143
411.0 0.002433 353.92886 443.29016
443.0 0.002257 354.06216 449.55325
472.0 0.002119 354.19565 458.23172
504.0 0.001984 354.32947 469.14554
523.0 0.001912 354.46347 481.41373
547.0 0.001828 354.59760 494.00421
593.0 0.001686 354.73215 506.20010
607.0 0.001647 354.86676 517.19611
567.0 0.001764 355.00183 525.58661
575.0 0.001739 355.13696 528.95673
544.0 0.001838 355.27228 525.03802
526.0 0.001901 355.40802 513.80731
487.0 0.002053 355.54379 497.93246
472.0 0.002119 355.68002 480.73764
447.0 0.002237 355.81638 465.02045
406.0 0.002463 355.95279 452.10275
429.0 0.002331 356.08972 442.67435
407.0 0.002457 356.22665 436.79892
392.0 0.002551 356.36407 434.12744
428.0 0.002336 356.50159 434.04553
435.0 0.002299 356.63916 435.70062
425.0 0.002353 356.77722 438.42325
443.0 0.002257 356.91534 441.87537
443.0 0.002257 357.05383 446.50580
467.0 0.002141 357.19257 453.16580
500.0 0.002000 357.33124 462.46564
529.0 0.001890 357.47037 474.43347
542.0 0.001845 357.60965 488.39548
544.0 0.001838 357.74936 503.10028
564.0 0.001773 357.88910 516.16498
581.0 0.001721 358.02893 525.36023
611.0 0.001637 358.16919 529.05994
508.0 0.001969 358.30963 527.50702
526.0 0.001901 358.45032 521.99884
534.0 0.001873 358.59122 514.60120
542.0 0.001845 358.73218 506.84094
481.0 0.002079 358.87363 498.95020
519.0 0.001927 359.01498 490.21802
471.0 0.002123 359.15686 479.94852
451.0 0.002217 359.29880 468.49051
464.0 0.002155 359.44080 457.11206
406.0 0.002463 359.58322 447.07858
418.0 0.002392 359.72580 439.25204
414.0 0.002415 359.86871 433.74185
423.0 0.002364 360.01166 430.29880
436.0 0.002294 360.15469 428.39404
429.0 0.002331 360.29819 427.27710
412.0 0.002427 360.44174 426.20517
408.0 0.002451 360.58569 425.07510
393.0 0.002545 360.72964 423.86688
423.0 0.002364 360.87375 423.04581
399.0 0.002506 361.01825 423.22290
392.0 0.002551 361.16281 424.85342
408.0 0.002451 361.30783 428.28940
430.0 0.002326 361.45279 433.38159
439.0 0.002278 361.59781 439.83444
452.0 0.002212 361.74341 446.89380
488.0 0.002049 361.88889 453.40366
495.0 0.002020 362.03476 458.26233
513.0 0.001949 362.18073 461.04065
503.0 0.001988 362.32672 461.81924
467.0 0.002141 362.47321 461.35547
445.0 0.002247 362.61969 460.73596
476.0 0.002101 362.76660 460.87381
499.0 0.002004 362.91351 462.50803
515.0 0.001942 363.06046 465.72052
538.0 0.001859 363.20776 469.92944
509.0 0.001965 363.35513 474.14536
507.0 0.001972 363.50290 477.54959
552.0 0.001812 363.65079 479.66068
518.0 0.001931 363.79861 480.13553
528.0 0.001894 363.94687 478.58368
495.0 0.002020 364.09518 474.79871
464.0 0.002155 364.24374 469.50836
463.0 0.002160 364.39246 463.34589
456.0 0.002193 364.54117 457.19101
425.0 0.002353 364.69031 451.34064
421.0 0.002375 364.83939 445.88855
403.0 0.002481 364.98880 440.75735
380.0 0.002632 365.13831 436.05634
420.0 0.002381 365.28781 431.86432
403.0 0.002481 365.43777 428.20047
396.0 0.002525 365.58759 425.25684
419.0 0.002387 365.73788 423.35501
403.0 0.002481 365.88815 422.87698
410.0 0.002439 366.03836 424.07797
420.0 0.002381 366.18906 427.04163
411.0 0.002433 366.33975 431.64999
438.0 0.002283 366.49069 437.65591
489.0 0.002045 366.64172 444.77609
441.0 0.002268 366.79266 452.88379
482.0 0.002075 366.94409 461.80710
439.0 0.002278 367.09534 471.15390
513.0 0.001949 367.24710 480.20200
501.0 0.001996 367.39877 487.92300
547.0 0.001828 367.55042 493.50854
518.0 0.001931 367.70245 495.99911
507.0 0.001972 367.85446 495.15747
529.0 0.001890 368.00674 491.15314
509.0 0.001965 368.15906 484.76443
473.0 0.002114 368.31134 477.13275
472.0 0.002119 368.46402 469.39233
474.0 0.002110 368.61661 462.83447
471.0 0.002123 368.76950 458.13416
443.0 0.002257 368.92242 455.30640
448.0 0.002232 369.07520 453.82156
432.0 0.002315 369.22842 453.82590
430.0 0.002326 369.38156 454.72665
463.0 0.002160 369.53494 456.57605
446.0 0.002242 369.68848 459.50803
467.0 0.002141 369.84183 463.67215
487.0 0.002053 369.99545 468.58615
490.0 0.002041 370.14917 473.65714
491.0 0.002037 370.30304 477.84979
479.0 0.002088 370.45694 480.21268
489.0 0.002045 370.61069 480.64856
484.0 0.002066 370.76477 479.96323
478.0 0.002092 370.91888 479.28082
451.0 0.002217 371.07312 479.47327
471.0 0.002123 371.22748 480.84991
498.0 0.002008 371.38165 483.22183
474.0 0.002110 371.53613 485.47803
478.0 0.002092 371.69058 486.16333
486.0 0.002058 371.84521 484.08438
460.0 0.002174 371.99976 479.06558
444.0 0.002252 372.15424 471.61227
450.0 0.002222 372.30911 462.82388
456.0 0.002193 372.46384 453.76208
445.0 0.002247 372.61874 445.39413
450.0 0.002222 372.77356 438.63986
424.0 0.002358 372.92825 433.86520
410.0 0.002439 373.08331 431.10495
423.0 0.002364 373.23822 430.26035
411.0 . . .
loop_
_refln_index_h
_refln_index_k
_refln_index_l
_pd_refln_wavelength_id
_refln_observed_status
_refln_F_squared_meas
_refln_F_squared_calc
_refln_phase_calc
_refln_d_spacing
_gsas_i100_meas
0 2 0 1 o 41262.51 37355.25 0.00 6.67390 13.89
0 2 0 2 o 41518.91 37355.25 0.00 6.67390 6.96
1 1 1 1 o 20065.244 19688.244 0.00 6.05277 18.57
1 1 1 2 o 19703.824 19688.244 0.00 6.05277 9.06
2 0 0 1 o 985.556 1369.161 180.00 4.82266 0.00
2 0 0 2 o 985.556 1369.161 180.00 4.82266 0.00
0 0 2 1 o 37497.93 41384.13 0.00 4.78173 3.87
0 0 2 2 o 38450.21 41384.13 0.00 4.78173 2.00
1 2 1 1 o 4777.933 5031.073 0.00 4.76007 1.45
1 2 1 2 o 4633.514 5031.073 0.00 4.76007 0.67
2 1 0 1 o 164810.64 164338.77 180.00 4.53568 38.56
2 1 0 2 o 161888.33 164338.77 180.00 4.53568 18.78
1 0 2 1 o 230179.53 234183.22 0.00 4.28416 47.79
1 0 2 2 o 227650.88 234183.22 0.00 4.28416 23.47
2 1 1 1 o 123222.24 115764.70 0.00 4.09814 48.44
2 1 1 2 o 120561.38 115764.70 0.00 4.09814 23.50
1 1 2 1 o 120858.86 118113.84 0.00 4.07919 46.65
1 1 2 2 o 118955.78 118113.84 0.00 4.07919 22.79
0 3 1 1 o 454045.9 467224.2 180.00 4.03406 100.00
0 3 1 2 o 461503.2 467224.2 180.00 4.03406 50.70
2 2 0 1 o 88007.01 83462.13 180.00 3.90890 16.28
2 2 0 2 o 84371.52 83462.13 180.00 3.90890 7.71
0 2 2 1 o 50969.25 51385.67 0.00 3.88701 9.21
0 2 2 2 o 51324.29 51385.67 0.00 3.88701 4.62
1 3 1 1 o 82518.40 78454.49 180.00 3.72166 30.64
1 3 1 2 o 82126.45 78454.49 180.00 3.72166 15.16
2 2 1 1 o 193555.45 185969.38 180.00 3.61832 60.96
2 2 1 2 o 190776.64 185969.38 180.00 3.61832 29.83
1 2 2 1 o 467.057 430.455 0.00 3.60527 0.15
1 2 2 2 o 611.552 430.455 0.00 3.60527 0.10
2 0 2 1 o 156201.77 145412.95 180.00 3.39557 21.57
2 0 2 2 o 154218.45 145412.95 180.00 3.39557 10.58
0 4 0 1 o 145006.86 135699.88 180.00 3.33695 12.31
0 4 0 2 o 143036.28 135699.88 180.00 3.33695 6.04
2 1 2 1 o 14703.634 15237.858 180.00 3.29076 3.75
2 1 2 2 o 14534.827 15237.858 180.00 3.29076 1.84
2 3 0 1 o 40375.78 43379.64 180.00 3.27015 5.19
2 3 0 2 o 37444.85 43379.64 180.00 3.27015 2.36
0 1 3 1 o 146978.69 149468.41 180.00 3.10062 15.70
2 3 1 1 o 44258.50 44661.04 0.00 3.09426 10.36
0 1 3 2 o 148530.97 149468.41 180.00 3.10062 7.91
2 3 1 2 o 45832.66 44661.04 0.00 3.09426 5.37
1 3 2 1 o 27689.031 26943.934 0.00 3.08608 6.47
1 3 2 2 o 27482.830 26943.934 0.00 3.08608 3.19
2 2 2 1 o 59443.07 59189.79 180.00 3.02638 12.41
2 2 2 2 o 58689.28 59189.79 180.00 3.02638 6.08
1 4 1 1 o 17293.051 18240.539 180.00 2.99493 4.19
1 4 1 2 o 18684.514 18240.539 180.00 2.99493 2.28
3 1 1 1 o 64037.37 63480.55 0.00 2.97104 12.88
3 1 1 2 o 62274.64 63480.55 0.00 2.97104 6.21
1 1 3 1 o 759.582 1336.252 0.00 2.95185 0.10
1 1 3 2 o 328.590 1336.252 0.00 2.95185 0.00
3 2 1 1 o 33410.996 32693.744 180.00 2.77216 5.99
3 2 1 2 o 32854.699 32693.744 180.00 2.77216 2.92
1 2 3 1 o 118481.34 127689.32 0.00 2.75655 20.46
1 2 3 2 o 118013.96 127689.32 0.00 2.75655 10.13
2 4 0 1 o 98032.77 100875.72 180.00 2.74410 9.40
2 4 0 2 o 97489.07 100875.72 180.00 2.74410 4.65
0 4 2 1 o 27765.412 28827.035 0.00 2.73649 2.77
0 4 2 2 o 25953.018 28827.035 0.00 2.73649 1.28
2 3 2 1 o 3382.722 4258.543 180.00 2.69929 0.61
2 3 2 2 o 3876.855 4258.543 180.00 2.69929 0.35
3 0 2 1 o 92631.97 87109.75 0.00 2.66808 7.04
3 0 2 2 o 88683.75 87109.75 0.00 2.66808 3.32
2 4 1 1 o 25409.250 25328.688 0.00 2.63766 4.30
1 4 2 1 o 30028.686 30007.887 180.00 2.63259 5.01
2 4 1 2 o 25414.869 25328.688 0.00 2.63766 2.14
1 4 2 2 o 30215.781 30007.887 180.00 2.63259 2.51
3 1 2 1 o 30347.336 30026.486 180.00 2.61632 4.33
3 1 2 2 o 30670.469 30026.486 180.00 2.61632 2.18
2 1 3 1 o 30589.893 30067.166 0.00 2.60809 4.41
2 1 3 2 o 29695.018 30067.166 0.00 2.60809 2.12
0 3 3 1 o 12.136 14.373 180.00 2.59134 0.00
0 3 3 2 o 18.384 14.373 180.00 2.59134 0.00
0 5 1 1 o 60982.59 59544.73 180.00 2.57126 5.08
0 5 1 2 o 60666.09 59544.73 180.00 2.57126 2.51
3 3 1 1 o 27322.266 24832.520 180.00 2.51426 3.92
3 3 1 2 o 26108.756 24832.520 180.00 2.51426 1.85
1 3 3 1 o 127966.12 128254.30 180.00 2.50260 18.00
1 3 3 2 o 123789.56 128254.30 180.00 2.50260 8.60
1 5 1 1 o 5439.035 5757.043 180.00 2.48450 0.86
1 5 1 2 o 5547.054 5757.043 180.00 2.48450 0.44
3 2 2 1 o 14711.726 15281.365 180.00 2.47744 1.81
3 2 2 2 o 15319.122 15281.365 180.00 2.47744 0.95
2 2 3 1 o 24458.994 24393.152 0.00 2.47045 3.08
2 2 3 2 o 24485.418 24393.152 0.00 2.47045 1.53
4 0 0 1 o 28018.914 23735.758 180.00 2.41133 0.81
4 0 0 2 o 26488.375 23735.758 180.00 2.41133 0.38
0 0 4 1 o 57412.99 54406.73 180.00 2.39087 1.69
0 0 4 2 o 55445.04 54406.73 180.00 2.39087 0.81
2 4 2 1 o 29417.229 29613.490 180.00 2.38004 3.57
2 4 2 2 o 30646.709 29613.490 180.00 2.38004 1.87
4 1 0 1 o 14301.691 13418.771 180.00 2.37292 0.87
4 1 0 2 o 15363.959 13418.771 180.00 2.37292 0.47
2 5 0 1 o 164648.97 147757.52 0.00 2.33561 11.08
2 5 0 2 o 155947.50 147757.52 0.00 2.33561 5.16
1 0 4 1 o 37678.51 33336.270 0.00 2.32063 1.99
1 0 4 2 o 40010.99 33336.270 0.00 2.32063 1.07
4 1 1 1 o 173203.63 163905.16 180.00 2.30308 19.19
4 1 1 2 o 169752.02 163905.16 180.00 2.30308 9.32
3 3 2 1 o 32239.566 30065.918 180.00 2.28820 4.06
1 1 4 1 o 3619.484 3449.170 0.00 2.28634 0.34
2 3 3 1 o 30607.643 28339.352 0.00 2.28268 3.37
3 3 2 2 o 32839.602 30065.918 180.00 2.28820 2.06
1 1 4 2 o 3684.579 3449.170 0.00 2.28634 0.17
2 3 3 2 o 32227.145 28339.352 0.00 2.28268 1.79
2 5 1 1 o 38648.34 38270.43 0.00 2.26892 4.81
4 2 0 1 o 68812.88 69289.28 0.00 2.26784 3.60
1 5 2 1 o 53352.84 54899.32 180.00 2.26569 6.17
2 5 1 2 o 36473.09 38270.43 0.00 2.26892 2.23
4 2 0 2 o 65956.38 69289.28 0.00 2.26784 1.70
1 5 2 2 o 53242.61 54899.32 180.00 2.26569 3.06
0 2 4 1 o 65739.13 62439.43 0.00 2.25079 3.54
3 4 1 1 o 5113.385 4852.317 0.00 2.25029 0.60
0 2 4 2 o 63272.08 62439.43 0.00 2.25079 1.68
3 4 1 2 o 4899.281 4852.317 0.00 2.25029 0.28
1 4 3 1 o 18951.453 18759.318 180.00 2.24192 2.18
1 4 3 2 o 19867.576 18759.318 180.00 2.24192 1.14
3 1 3 1 o 57398.91 55791.97 0.00 2.23185 5.54
3 1 3 2 o 61325.61 55791.97 0.00 2.23185 3.00
0 6 0 1 o 233090.58 202665.23 0.00 2.22463 7.54
0 6 0 2 o 236812.44 202665.23 0.00 2.22463 3.82
4 2 1 1 o 15339.435 15155.159 180.00 2.20665 1.66
4 2 1 2 o 15159.545 15155.159 180.00 2.20665 0.82
1 2 4 1 o 10020.801 10165.457 0.00 2.19191 0.98
1 2 4 2 o 9656.203 10165.457 0.00 2.19191 0.47
4 0 2 1 o 17.227 62.162 180.00 2.15306 0.02
4 0 2 2 o 134.209 62.162 180.00 2.15306 0.01
3 2 3 1 o 4818.615 4602.781 180.00 2.14375 0.29
2 0 4 1 o 10515.515 10268.717 180.00 2.14208 0.37
3 2 3 2 o 4572.028 4602.781 180.00 2.14375 0.13
2 0 4 2 o 9883.438 10268.717 180.00 2.14208 0.17
4 1 2 1 o 5640.874 5613.256 180.00 2.12558 0.62
4 1 2 2 o 6136.138 5613.256 180.00 2.12558 0.34
4 3 0 1 o 1246.880 1173.019 180.00 2.12000 0.05
2 1 4 1 o 113522.70 112378.26 0.00 2.11502 10.70
4 3 0 2 o 1179.563 1173.019 180.00 2.12000 0.02
1 6 1 1 o 98.091 98.749 180.00 2.11409 0.01
2 1 4 2 o 108936.07 112378.26 0.00 2.11502 5.07
1 6 1 2 o 97.908 98.749 180.00 2.11409 0.00
2 5 2 1 o 24990.559 22176.002 0.00 2.09864 2.85
2 5 2 2 o 25386.273 22176.002 0.00 2.09864 1.44
3 4 2 1 o 107911.07 106098.75 180.00 2.08387 10.08
2 4 3 1 o 7024.287 7503.135 180.00 2.07970 0.67
3 4 2 2 o 100915.53 106098.75 180.00 2.08387 4.61
2 4 3 2 o 6789.198 7503.135 180.00 2.07970 0.32
4 3 1 1 o 6948.497 7045.679 0.00 2.06976 0.64
4 3 1 2 o 5985.654 7045.679 0.00 2.06976 0.27
1 3 4 1 o 5071.319 4634.584 0.00 2.05758 0.48
1 3 4 2 o 5199.938 4634.584 0.00 2.05758 0.24
4 2 2 1 o 59137.65 55680.00 0.00 2.04907 5.27
0 5 3 1 o 42781.85 42923.92 180.00 2.04669 2.21
4 2 2 2 o 55744.08 55680.00 0.00 2.04907 2.45
0 5 3 2 o 42129.83 42923.92 180.00 2.04669 1.08
2 2 4 1 o 20766.244 21017.598 180.00 2.03960 1.77
2 2 4 2 o 20068.508 21017.598 180.00 2.03960 0.85
2 6 0 1 o 45682.23 43262.34 180.00 2.02007 2.40
3 3 3 1 o 15684.349 15169.005 180.00 2.01759 1.22
0 6 2 1 o 74643.56 71776.45 0.00 2.01703 3.80
2 6 0 2 o 44207.98 43262.34 180.00 2.02007 1.15
3 3 3 2 o 15249.540 15169.005 180.00 2.01759 0.59
0 6 2 2 o 73059.23 71776.45 0.00 2.01703 1.84
3 5 1 1 o 612.195 502.723 180.00 2.00807 0.07
3 5 1 2 o 481.990 502.723 180.00 2.00807 0.03
1 5 3 1 o 20516.053 21623.295 180.00 2.00211 1.84
1 5 3 2 o 19417.428 21623.295 180.00 2.00211 0.85
2 6 1 1 o 78024.04 75754.05 0.00 1.97646 7.59
1 6 2 1 o 73629.21 72927.41 0.00 1.97432 7.09
2 6 1 2 o 73923.18 75754.05 0.00 1.97646 3.54
1 6 2 2 o 71142.31 72927.41 0.00 1.97432 3.39
4 4 0 1 o 290246.13 301485.59 0.00 1.95445 11.81
4 4 0 2 o 284427.94 301485.59 0.00 1.95445 5.73
0 4 4 1 o 170602.94 181394.34 0.00 1.94351 6.58
0 4 4 2 o 167829.31 181394.34 0.00 1.94351 3.21
4 3 2 1 o 6144.936 6641.805 180.00 1.93806 0.59
4 3 2 2 o 6037.886 6641.805 180.00 1.93806 0.29
2 3 4 1 o 42737.47 42890.72 0.00 1.93004 3.53
2 3 4 2 o 41099.78 42890.72 0.00 1.93004 1.68
3 0 4 1 o 1374.009 1062.932 180.00 1.91854 0.07
4 4 1 1 o 3355.073 2791.981 0.00 1.91487 0.29
3 0 4 2 o 1156.863 1062.932 180.00 1.91854 0.03
4 4 1 2 o 2462.168 2791.981 0.00 1.91487 0.10
1 4 4 1 o 3256.104 4305.177 0.00 1.90521 0.28
4 1 3 1 o 8513.497 8921.189 180.00 1.90347 0.65
1 4 4 2 o 3988.778 4305.177 0.00 1.90521 0.17
3 1 4 1 o 16178.825 16420.469 180.00 1.89902 1.28
4 1 3 2 o 8917.287 8921.189 180.00 1.90347 0.34
3 1 4 2 o 15904.387 16420.469 180.00 1.89902 0.63
0 1 5 1 o 108415.77 112357.33 180.00 1.89335 3.78
0 1 5 2 o 111137.20 112357.33 180.00 1.89335 1.94
3 5 2 1 o 35815.90 36073.75 0.00 1.88714 2.78
2 5 3 1 o 24998.059 24415.869 0.00 1.88404 1.93
3 5 2 2 o 36478.94 36073.75 0.00 1.88714 1.41
2 5 3 2 o 25167.912 24415.869 0.00 1.88404 0.97
3 4 3 1 o 18958.354 18344.979 0.00 1.87334 1.54
5 1 1 1 o 151.517 150.710 180.00 1.87228 0.00
0 7 1 1 o 39268.20 34067.582 0.00 1.87002 1.88
3 4 3 2 o 20911.133 18344.979 0.00 1.87334 0.86
5 1 1 2 o 151.734 150.710 180.00 1.87228 0.00
0 7 1 2 o 37567.76 34067.582 0.00 1.87002 0.89
2 6 2 1 o 17161.711 18452.352 180.00 1.86083 1.25
1 1 5 1 o 29217.336 33258.488 180.00 1.85790 1.92
2 6 2 2 o 16251.708 18452.352 180.00 1.86083 0.58
1 1 5 2 o 28625.871 33258.488 180.00 1.85790 0.93
4 2 3 1 o 7215.652 7740.426 0.00 1.84793 0.55
3 2 4 1 o 34283.527 34797.074 180.00 1.84386 2.41
4 2 3 2 o 7627.738 7740.426 0.00 1.84793 0.29
3 2 4 2 o 34946.375 34797.074 180.00 1.84386 1.23
1 7 1 1 o 25254.576 26847.654 0.00 1.83583 2.18
1 7 1 2 o 24639.541 26847.654 0.00 1.83583 1.05
5 2 1 1 o 76635.93 79064.20 180.00 1.81936 5.38
5 2 1 2 o 78221.30 79064.20 180.00 1.81936 2.74
4 4 2 1 o 109758.02 106046.23 0.00 1.80916 8.06
1 2 5 1 o 30478.834 30187.859 180.00 1.80615 2.33
4 4 2 2 o 106602.13 106046.23 0.00 1.80916 3.88
2 4 4 1 o 44061.01 44161.26 180.00 1.80263 3.42
1 2 5 2 o 30032.586 30187.859 180.00 1.80615 1.14
2 4 4 2 o 44738.35 44161.26 180.00 1.80263 1.73
3 6 1 1 o 37801.64 36154.64 0.00 1.79682 3.16
1 6 3 1 o 77055.52 75191.05 180.00 1.79255 6.12
3 6 1 2 o 37134.57 36154.64 0.00 1.79682 1.54
4 5 0 1 o 8523.521 8811.417 0.00 1.78942 0.28
5 0 2 1 o 6111.780 6349.353 180.00 1.78897 0.18
1 6 3 2 o 72220.67 75191.05 180.00 1.79255 2.83
4 5 0 2 o 7392.485 8811.417 0.00 1.78942 0.12
5 0 2 2 o 5104.383 6349.353 180.00 1.78897 0.07
5 1 2 1 o 70387.27 64915.75 180.00 1.77312 4.40
2 7 0 1 o 3540.608 3205.792 180.00 1.77325 0.16
5 1 2 2 o 68687.54 64915.75 180.00 1.77312 2.12
2 7 0 2 o 3405.553 3205.792 180.00 1.77325 0.08
4 3 3 1 o 93954.95 91842.83 180.00 1.76528 5.94
2 1 5 1 o 7388.693 7164.591 0.00 1.76240 0.45
3 3 4 1 o 1757.153 1716.623 180.00 1.76173 0.11
4 3 3 2 o 93827.88 91842.83 180.00 1.76528 2.95
4 5 1 1 o 20671.613 19920.137 180.00 1.75889 1.41
2 1 5 2 o 7511.419 7164.591 0.00 1.76240 0.23
3 3 4 2 o 1809.383 1716.623 180.00 1.76173 0.06
0 3 5 1 o 63645.18 60422.85 0.00 1.75720 2.07
4 5 1 2 o 19650.813 19920.137 180.00 1.75889 0.66
0 3 5 2 o 59426.74 60422.85 0.00 1.75720 0.95
1 5 4 1 o 19478.836 20418.477 180.00 1.75140 1.33
1 5 4 2 o 19689.506 20418.477 180.00 1.75140 0.67
2 7 1 1 o 44428.37 47249.74 0.00 1.74353 3.13
1 7 2 1 o 11.371 12.047 0.00 1.74207 0.00
5 3 1 1 o 1081.118 1186.119 0.00 1.74032 0.05
2 7 1 2 o 43672.97 47249.74 0.00 1.74353 1.52
1 7 2 2 o 11.179 12.047 0.00 1.74207 0.00
5 3 1 2 o 989.602 1186.119 0.00 1.74032 0.02
1 3 5 1 o 5791.057 6153.282 180.00 1.72875 0.33
5 2 2 1 o 11148.589 11458.389 0.00 1.72797 0.66
3 5 3 1 o 8478.353 8597.256 0.00 1.72654 0.63
1 3 5 2 o 6104.167 6153.282 180.00 1.72875 0.18
5 2 2 2 o 11555.477 11458.389 0.00 1.72797 0.34
3 5 3 2 o 8566.070 8597.256 0.00 1.72654 0.32
2 2 5 1 o 136044.98 138477.38 0.00 1.71804 8.02
2 2 5 2 o 130482.84 138477.38 0.00 1.71804 3.79
3 6 2 1 o 11976.109 13661.435 0.00 1.70862 0.73
2 6 3 1 o 12089.475 12430.161 180.00 1.70632 0.76
3 6 2 2 o 13414.111 13661.435 0.00 1.70862 0.42
2 6 3 2 o 12698.712 12430.161 180.00 1.70632 0.40
4 0 4 1 o 316082.75 308259.72 0.00 1.69779 9.29
4 0 4 2 o 299165.38 308259.72 0.00 1.69779 4.33
4 1 4 1 o 19101.877 17406.469 0.00 1.68422 1.20
4 1 4 2 o 16816.541 17406.469 0.00 1.68422 0.52
4 5 2 1 o 4443.882 4539.521 0.00 1.67591 0.31
4 5 2 2 o 4752.452 4539.521 0.00 1.67591 0.17
2 5 4 1 o 107490.35 106019.73 180.00 1.67072 6.40
0 8 0 1 o 273254.00 269877.34 0.00 1.66847 4.96
2 5 4 2 o 104922.55 106019.73 180.00 1.67072 3.09
4 4 3 1 o 119.802 120.983 180.00 1.66622 0.01
0 8 0 2 o 262518.91 269877.34 0.00 1.66847 2.36
3 4 4 1 o 60209.09 61872.47 180.00 1.66324 3.44
2 7 2 1 o 702.950 729.550 0.00 1.66261 0.06
4 4 3 2 o 118.143 120.983 180.00 1.66622 0.00
5 3 2 1 o 21544.480 21169.947 180.00 1.65982 1.21
3 4 4 2 o 64181.91 61872.47 180.00 1.66324 1.85
2 7 2 2 o 773.981 729.550 0.00 1.66261 0.03
5 3 2 2 o 21617.355 21169.947 180.00 1.65982 0.60
2 3 5 1 o 29169.439 32503.217 0.00 1.65102 1.59
2 3 5 2 o 30994.791 32503.217 0.00 1.65102 0.85
4 2 4 1 o 9266.638 8107.269 0.00 1.64538 0.54
5 4 1 1 o 8399.592 7326.836 0.00 1.64518 0.47
4 2 4 2 o 8950.935 8107.269 0.00 1.64538 0.26
5 4 1 2 o 8124.330 7326.836 0.00 1.64518 0.22
5 1 3 1 o 65517.84 59468.43 180.00 1.63793 3.71
0 7 3 1 o 125576.34 123651.75 180.00 1.63642 3.95
1 4 5 1 o 285.683 285.257 0.00 1.63540 0.01
4 6 0 1 o 1831.114 1817.082 180.00 1.63508 0.05
5 1 3 2 o 62304.11 59468.43 180.00 1.63793 1.74
0 7 3 2 o 130093.49 123651.75 180.00 1.63642 2.05
3 1 5 1 o 15692.090 14548.677 0.00 1.63148 0.87
1 4 5 2 o 301.962 285.257 0.00 1.63540 0.01
4 6 0 2 o 1939.460 1817.082 180.00 1.63508 0.03
0 6 4 1 o 7949.516 7691.359 180.00 1.62865 0.24
3 1 5 2 o 16216.855 14548.677 0.00 1.63148 0.45
0 6 4 2 o 8854.453 7691.359 180.00 1.62865 0.14
1 8 1 1 o 31491.869 29743.469 0.00 1.62029 2.12
3 7 1 1 o 58220.68 58336.75 0.00 1.61648 3.55
1 8 1 2 o 29667.025 29743.469 0.00 1.62029 0.98
1 7 3 2 o 12619.206 11985.746 0.00 1.61336 0.37
1 7 3 1 o 11827.514 11985.746 0.00 1.61336 0.68
6 0 0 1 o 81282.44 77692.97 180.00 1.60755 0.98
3 7 1 2 o 57758.50 58336.75 0.00 1.61648 1.75
4 6 1 2 o 4073.386 3859.146 0.00 1.61169 0.12
4 6 1 1 o 3847.108 3859.146 0.00 1.61169 0.22
1 6 4 1 o 32475.469 33844.266 0.00 1.60592 1.81
6 0 0 2 o 75292.20 77692.97 180.00 1.60755 0.44
5 2 3 1 o 54505.09 56500.95 180.00 1.60215 2.55
1 6 4 2 o 32581.225 33844.266 0.00 1.60592 0.90
5 2 3 2 o 52558.71 56500.95 180.00 1.60215 1.21
6 1 0 1 o 109913.70 110824.07 0.00 1.59602 2.87
3 2 5 1 o 1317.003 1341.184 180.00 1.59610 0.11
0 0 6 1 o 35838.07 37339.32 180.00 1.59391 0.48
6 1 0 2 o 107251.99 110824.07 0.00 1.59602 1.39
3 2 5 2 o 1267.357 1341.184 180.00 1.59610 0.05
0 0 6 2 o 32832.988 37339.32 180.00 1.59391 0.22
3 6 3 1 o 3238.227 3387.278 0.00 1.58669 0.11
4 3 4 1 o 7306.233 7429.332 0.00 1.58622 0.42
3 6 3 2 o 3084.747 3387.278 0.00 1.58669 0.05
4 3 4 2 o 6851.588 7429.332 0.00 1.58622 0.20
5 4 2 1 o 42487.79 44368.05 0.00 1.57668 2.16
2 8 0 1 o 2046.224 2090.570 180.00 1.57678 0.03
0 8 2 1 o 18547.787 19039.527 0.00 1.57533 0.46
6 1 1 1 o 3835.201 3881.704 0.00 1.57425 0.16
5 4 2 2 o 41796.59 44368.05 0.00 1.57668 1.05
1 0 6 1 o 3941.776 4221.463 180.00 1.57258 0.11
2 8 0 2 o 2033.523 2090.570 180.00 1.57678 0.01
0 8 2 2 o 18331.324 19039.527 0.00 1.57533 0.22
6 1 1 2 o 3781.684 3881.704 0.00 1.57425 0.08
2 4 5 1 o 25690.264 27830.025 180.00 1.56913 1.28
1 0 6 2 o 3776.213 4221.463 180.00 1.57258 0.05
2 4 5 2 o 25782.359 27830.025 180.00 1.56913 0.64
6 2 0 1 o 25027.877 25260.887 180.00 1.56285 0.61
1 1 6 1 o 24409.971 24829.928 180.00 1.56178 1.13
4 5 3 1 o 35254.17 35214.42 180.00 1.56039 1.79
6 2 0 2 o 25962.027 25260.887 180.00 1.56285 0.31
1 1 6 2 o 26477.625 24829.928 180.00 1.56178 0.62
3 5 4 1 o 4367.744 4105.969 0.00 1.55794 0.21
4 5 3 2 o 38889.63 35214.42 180.00 1.56039 1.00
2 8 1 1 o 52665.72 47868.13 180.00 1.55577 3.05
0 5 5 1 o 1380.338 1287.586 180.00 1.55481 0.03
1 8 2 1 o 33798.227 31534.402 0.00 1.55473 1.91
3 5 4 2 o 4287.208 4105.969 0.00 1.55794 0.10
2 8 1 2 o 49596.35 47868.13 180.00 1.55577 1.41
3 7 2 1 o 52.715 50.751 0.00 1.55136 0.00
0 5 5 2 o 1298.103 1287.586 180.00 1.55481 0.02
1 8 2 2 o 31667.633 31534.402 0.00 1.55473 0.88
0 2 6 1 o 14474.639 15054.166 0.00 1.55031 0.33
2 7 3 1 o 22917.262 24930.018 0.00 1.54964 1.26
5 3 3 1 o 5917.419 6329.151 0.00 1.54738 0.33
3 7 2 2 o 46.725 50.751 0.00 1.55136 0.00
4 6 2 1 o 19328.920 20653.658 0.00 1.54713 1.02
0 2 6 2 o 13961.761 15054.166 0.00 1.55031 0.15
2 7 3 2 o 22924.486 24930.018 0.00 1.54964 0.63
5 3 3 2 o 5909.222 6329.151 0.00 1.54738 0.16
4 6 2 2 o 19397.238 20653.658 0.00 1.54713 0.51
5 5 1 1 o 2489.836 2680.967 180.00 1.54307 0.15
2 6 4 1 o 29854.299 31690.898 180.00 1.54304 1.54
6 2 1 1 o 60704.20 63240.91 0.00 1.54239 2.80
3 3 5 1 o 25916.914 26669.154 0.00 1.54193 1.13
5 5 1 2 o 2423.226 2680.967 180.00 1.54307 0.07
2 6 4 2 o 29240.336 31690.898 180.00 1.54304 0.75
6 2 1 2 o 60657.20 63240.91 0.00 1.54239 1.39
3 3 5 2 o 26307.061 26669.154 0.00 1.54193 0.57
1 5 5 1 o 25351.980 26517.188 180.00 1.53499 1.30
1 5 5 2 o 27135.990 26517.188 180.00 1.53499 0.70
1 2 6 1 o 37824.98 36853.43 0.00 1.53066 1.72
1 2 6 2 o 37210.63 36853.43 0.00 1.53066 0.84
6 0 2 1 o 49547.27 53673.43 180.00 1.52375 1.14
6 0 2 2 o 48537.13 53673.43 180.00 1.52375 0.55
6 1 2 1 o 55.516 55.537 0.00 1.51392 0.00
2 0 6 1 o 28169.258 28986.002 180.00 1.51340 0.68
4 4 4 1 o 38514.75 39723.44 180.00 1.51319 1.92
6 3 0 1 o 42451.03 44109.79 0.00 1.51189 1.05
6 1 2 2 o 55.490 55.537 0.00 1.51392 0.00
2 0 6 2 o 27614.301 28986.002 180.00 1.51340 0.33
4 4 4 2 o 38189.96 39723.44 180.00 1.51319 0.94
6 3 0 2 o 45679.96 44109.79 0.00 1.51189 0.56
2 1 6 1 o 21363.916 22384.920 0.00 1.50376 0.89
5 0 4 1 o 1791.487 1815.358 0.00 1.50132 0.04
2 1 6 2 o 22217.758 22384.920 0.00 1.50376 0.46
5 0 4 2 o 1762.203 1815.358 0.00 1.50132 0.02
2 8 2 1 o 51694.93 53536.50 180.00 1.49746 2.91
4 7 0 1 o 3077.189 2859.796 180.00 1.49569 0.10
6 3 1 1 o 74669.20 76967.59 0.00 1.49335 3.26
2 8 2 2 o 52474.54 53536.50 180.00 1.49746 1.47
5 1 4 1 o 8600.383 9005.328 180.00 1.49191 0.36
4 7 0 2 o 2689.518 2859.796 180.00 1.49569 0.04
6 3 1 2 o 73512.14 76967.59 0.00 1.49335 1.59
4 1 5 1 o 6159.526 6394.037 0.00 1.48916 0.25
5 1 4 2 o 8620.425 9005.328 180.00 1.49191 0.18
5 5 2 1 o 93759.77 97056.41 0.00 1.48613 4.25
6 2 2 1 o 17018.707 17383.133 180.00 1.48552 0.69
4 1 5 2 o 6263.234 6394.037 0.00 1.48916 0.13
1 3 6 1 o 10278.292 10525.122 180.00 1.48269 0.46
5 5 2 2 o 95393.48 97056.41 0.00 1.48613 2.16
6 2 2 2 o 17449.213 17383.133 180.00 1.48552 0.36
2 5 5 1 o 22651.059 21943.977 0.00 1.47980 1.07
5 4 3 1 o 17761.945 17152.406 0.00 1.47936 0.79
1 3 6 2 o 10866.946 10525.122 180.00 1.48269 0.24
4 7 1 1 o 205486.50 205091.02 180.00 1.47772 9.97
2 5 5 2 o 21629.846 21943.977 0.00 1.47980 0.50
2 2 6 1 o 5735.211 5813.811 180.00 1.47592 0.24
5 4 3 2 o 16912.543 17152.406 0.00 1.47936 0.37
3 4 5 1 o 621.619 638.172 180.00 1.47460 0.03
4 7 1 2 o 203907.03 205091.02 180.00 1.47772 4.91
1 7 4 1 o 97.323 92.849 0.00 1.47327 0.01
2 2 6 2 o 6188.437 5813.811 180.00 1.47592 0.13
3 4 5 2 o 705.322 638.172 180.00 1.47460 0.02
1 7 4 2 o 127.423 92.849 0.00 1.47327 0.00
0 9 1 1 o 65312.50 55991.56 180.00 1.46557 1.74
5 2 4 1 o 17267.695 15176.392 0.00 1.46471 0.73
3 8 1 1 o 7693.299 6958.620 180.00 1.46349 0.37
4 2 5 1 o 7026.067 6623.188 0.00 1.46211 0.29
0 9 1 2 o 59267.44 55991.56 180.00 1.46557 0.77
5 2 4 2 o 15682.994 15176.392 0.00 1.46471 0.32
1 8 3 1 o 29837.510 28850.389 0.00 1.46118 1.42
3 8 1 2 o 7185.875 6958.620 180.00 1.46349 0.17
4 2 5 2 o 6534.488 6623.188 0.00 1.46211 0.13
3 7 3 1 o 91703.66 93374.20 0.00 1.45838 4.10
1 8 3 2 o 27922.762 28850.389 0.00 1.46118 0.65
4 6 3 1 o 340.903 341.942 180.00 1.45486 0.01
3 7 3 2 o 93253.16 93374.20 0.00 1.45838 2.08
3 6 4 1 o 1549.933 1377.407 180.00 1.45288 0.07
4 6 3 2 o 410.507 341.942 180.00 1.45486 0.01
3 6 4 2 o 2008.213 1377.407 180.00 1.45288 0.05
1 9 1 1 o 4260.399 3068.002 180.00 1.44894 0.22
6 4 0 1 o 6861.175 4578.385 180.00 1.44826 0.16
1 9 1 2 o 4372.729 3068.002 180.00 1.44894 0.11
6 4 0 2 o 6972.034 4578.385 180.00 1.44826 0.08
6 3 2 1 o 720.647 661.595 180.00 1.44155 0.05
5 6 1 1 o 36860.03 35516.12 0.00 1.44080 1.72
0 4 6 1 o 140396.20 144275.97 0.00 1.43826 3.12
6 3 2 2 o 658.547 661.595 180.00 1.44155 0.02
5 6 1 2 o 37474.63 35516.12 0.00 1.44080 0.87
0 4 6 2 o 146693.50 144275.97 0.00 1.43826 1.63
1 6 5 1 o 14717.803 13542.123 0.00 1.43421 0.75
2 3 6 1 o 2705.144 2599.388 0.00 1.43278 0.09
4 5 4 1 o 16841.609 16023.818 180.00 1.43261 0.78
6 4 1 1 o 17265.176 15967.870 180.00 1.43193 0.74
1 6 5 2 o 15548.036 13542.123 0.00 1.43421 0.40
2 3 6 2 o 2727.279 2599.388 0.00 1.43278 0.05
4 5 4 2 o 16843.158 16023.818 180.00 1.43261 0.39
6 4 1 2 o 16479.664 15967.870 180.00 1.43193 0.35
3 0 6 1 o 144359.70 137731.44 180.00 1.42805 2.84
6 1 3 1 o 43419.19 39018.83 0.00 1.42714 1.76
4 7 2 1 o 4794.048 4297.479 0.00 1.42748 0.27
3 0 6 2 o 139924.61 137731.44 180.00 1.42805 1.36
2 7 4 1 o 173.421 166.438 180.00 1.42427 0.01
6 1 3 2 o 39996.05 39018.83 0.00 1.42714 0.79
4 7 2 2 o 4473.370 4297.479 0.00 1.42748 0.13
5 3 4 1 o 223.273 225.051 180.00 1.42252 0.01
1 4 6 1 o 100891.14 102293.95 0.00 1.42253 4.09
2 7 4 2 o 156.212 166.438 180.00 1.42427 0.01
4 3 5 1 o 153360.92 155972.59 180.00 1.42013 6.02
3 1 6 1 o 16077.337 16133.325 0.00 1.41995 0.64
5 3 4 2 o 229.178 225.051 180.00 1.42252 0.00
1 4 6 2 o 105446.82 102293.95 0.00 1.42253 2.15
2 9 0 1 o 110448.59 107180.60 180.00 1.41757 2.64
4 3 5 2 o 167344.09 155972.59 180.00 1.42013 3.33
3 1 6 2 o 17615.811 16133.325 0.00 1.41995 0.35
3 8 2 1 o 8854.320 7910.247 0.00 1.41464 0.39
2 9 0 2 o 119476.93 107180.60 180.00 1.41757 1.45
2 8 3 1 o 18422.395 15818.489 0.00 1.41334 0.86
3 8 2 2 o 8963.590 7910.247 0.00 1.41464 0.20
2 8 3 2 o 19323.525 15818.489 0.00 1.41334 0.45
5 5 3 1 o 6.926 2.119 180.00 1.40380 0.00
6 2 3 1 o 17955.047 16633.918 180.00 1.40328 0.69
2 9 1 1 o 30897.531 28749.439 0.00 1.40225 1.48
1 9 2 1 o 59095.17 51613.18 0.00 1.40149 2.78
5 5 3 2 o 10.103 2.119 180.00 1.40380 0.00
6 2 3 2 o 18548.395 16633.918 180.00 1.40328 0.36
3 5 5 1 o 11963.923 10904.935 0.00 1.39972 0.44
2 9 1 2 o 32115.582 28749.439 0.00 1.40225 0.77
1 9 2 2 o 61915.04 51613.18 0.00 1.40149 1.46
3 2 6 1 o 11888.850 8916.672 180.00 1.39644 0.47
3 5 5 2 o 14298.587 10904.935 0.00 1.39972 0.28
5 6 2 1 o 513.003 323.730 180.00 1.39411 0.02
3 2 6 2 o 14304.691 8916.672 180.00 1.39644 0.29
5 6 2 2 o 439.443 323.730 180.00 1.39411 0.01
2 6 5 1 o 69466.27 68764.63 180.00 1.38889 2.84
6 4 2 1 o 10647.889 10216.582 180.00 1.38608 0.38
2 6 5 2 o 73035.20 68764.63 180.00 1.38889 1.50
6 4 2 2 o 14867.577 10216.582 180.00 1.38608 0.29
2 4 6 1 o 1701.613 1630.163 0.00 1.37827 0.11
6 5 0 1 o 125019.82 120951.67 180.00 1.37714 2.51
2 4 6 2 o 1792.708 1630.163 0.00 1.37827 0.06
6 5 0 2 o 131632.63 120951.67 180.00 1.37714 1.33
4 8 0 1 o 2069.615 1504.916 0.00 1.37205 0.06
5 4 4 1 o 24058.852 17719.340 0.00 1.36913 0.92
4 8 0 2 o 2433.379 1504.916 0.00 1.37205 0.04
0 8 4 1 o 953.292 486.177 0.00 1.36825 0.03
4 4 5 1 o 3241.063 2379.284 180.00 1.36700 0.13
6 3 3 1 o 13644.246 10955.379 0.00 1.36605 0.53
5 4 4 2 o 22171.752 17719.340 0.00 1.36913 0.41
0 8 4 2 o 812.204 486.177 0.00 1.36825 0.02
4 4 5 2 o 2437.650 2379.284 180.00 1.36700 0.05
6 5 1 1 o 41331.84 41546.44 0.00 1.36308 1.59
6 3 3 2 o 11183.234 10955.379 0.00 1.36605 0.21
6 5 1 2 o 40314.49 41546.44 0.00 1.36308 0.77
3 3 6 1 o 3898.878 4017.154 0.00 1.35973 0.14
0 1 7 1 o 1812.267 1829.453 180.00 1.35911 0.03
2 9 2 1 o 7422.673 7500.424 180.00 1.35911 0.34
4 8 1 1 o 6906.446 6814.654 180.00 1.35814 0.31
7 1 1 1 o 693.533 680.536 180.00 1.35676 0.01
3 3 6 2 o 4195.310 4017.154 0.00 1.35973 0.08
0 1 7 2 o 1877.384 1829.453 180.00 1.35911 0.02
2 9 2 2 o 7716.391 7500.424 180.00 1.35911 0.18
1 5 6 1 o 37909.22 36627.47 0.00 1.35496 1.42
4 8 1 2 o 7141.454 6814.654 180.00 1.35814 0.16
1 8 4 1 o 22795.596 21674.246 0.00 1.35468 0.92
4 7 3 1 o 116.985 104.442 0.00 1.35405 0.01
7 1 1 2 o 702.871 680.536 180.00 1.35676 0.01
3 7 4 1 o 262.604 246.972 0.00 1.35245 0.01
1 5 6 2 o 37408.70 36627.47 0.00 1.35496 0.69
5 1 5 1 o 9479.547 9333.315 180.00 1.35125 0.32
1 8 4 2 o 22048.424 21674.246 0.00 1.35468 0.44
4 7 3 2 o 105.848 104.442 0.00 1.35405 0.00
0 7 5 1 o 192466.14 190755.52 180.00 1.35040 3.80
4 6 4 1 o 73069.60 71729.45 0.00 1.34965 2.67
3 7 4 2 o 254.041 246.972 0.00 1.35245 0.01
5 1 5 2 o 9211.956 9333.315 180.00 1.35125 0.15
0 7 5 2 o 186680.95 190755.52 180.00 1.35040 1.82
4 6 4 2 o 72031.74 71729.45 0.00 1.34965 1.30
1 1 7 1 o 77211.62 75155.70 180.00 1.34581 2.67
0 9 3 1 o 11245.063 10931.688 180.00 1.34469 0.24
3 8 3 1 o 24309.996 24411.439 180.00 1.34308 1.02
5 7 1 1 o 7694.055 7579.007 180.00 1.34269 0.27
1 1 7 2 o 77410.18 75155.70 180.00 1.34581 1.33
0 9 3 2 o 11209.087 10931.688 180.00 1.34469 0.12
3 8 3 2 o 22534.004 24411.439 180.00 1.34308 0.46
5 7 1 2 o 7271.408 7579.007 180.00 1.34269 0.12
1 7 5 1 o 37095.97 40068.59 180.00 1.33736 1.43
7 2 1 1 o 2151.439 2013.041 0.00 1.33620 0.07
0 10 0 1 o 17394.031 15280.509 180.00 1.33478 0.19
6 0 4 1 o 129.327 115.761 0.00 1.33404 0.00
1 7 5 2 o 43183.73 40068.59 180.00 1.33736 0.85
3 9 1 1 o 993.496 854.328 0.00 1.33356 0.06
7 2 1 2 o 2395.776 2013.041 0.00 1.33620 0.04
1 9 3 1 o 22149.637 18219.805 180.00 1.33181 0.95
0 10 0 2 o 18523.029 15280.509 180.00 1.33478 0.10
5 2 5 1 o 2773.505 2326.247 0.00 1.33095 0.09
6 0 4 2 o 154.114 115.761 0.00 1.33404 0.00
3 9 1 2 o 1069.634 854.328 0.00 1.33356 0.03
4 0 6 1 o 66103.17 59712.79 0.00 1.32968 1.11
1 9 3 2 o 18314.879 18219.805 180.00 1.33181 0.38
5 2 5 2 o 2368.651 2326.247 0.00 1.33095 0.04
6 1 4 1 o 31806.602 30920.574 180.00 1.32743 1.02
4 0 6 2 o 60462.32 59712.79 0.00 1.32968 0.49
1 2 7 1 o 23749.189 23287.266 180.00 1.32575 0.69
5 6 3 1 o 21879.902 21408.656 0.00 1.32547 0.72
6 1 4 2 o 29709.980 30920.574 180.00 1.32743 0.46
7 0 2 1 o 106941.88 111144.73 180.00 1.32403 1.75
6 5 2 1 o 290.687 294.590 180.00 1.32335 0.00
4 1 6 1 o 122.541 124.385 0.00 1.32313 0.00
1 2 7 2 o 22129.004 23287.266 180.00 1.32575 0.31
5 6 3 2 o 20389.133 21408.656 0.00 1.32547 0.33
3 6 5 1 o 81.014 94.022 0.00 1.32205 0.01
7 0 2 2 o 106321.19 111144.73 180.00 1.32403 0.86
6 5 2 2 o 290.409 294.590 180.00 1.32335 0.00
4 1 6 2 o 122.999 124.385 0.00 1.32313 0.00
3 6 5 2 o 89.632 94.022 0.00 1.32205 0.00
6 4 3 1 o 6252.656 6381.661 0.00 1.31856 0.23
4 8 2 1 o 2369.230 2394.387 0.00 1.31883 0.06
7 1 2 1 o 11533.056 11417.528 0.00 1.31756 0.42
2 5 6 1 o 39186.17 39575.77 180.00 1.31655 1.38
2 8 4 1 o 8044.989 8111.354 180.00 1.31630 0.25
6 4 3 2 o 6055.204 6381.661 0.00 1.31856 0.11
4 8 2 2 o 2345.069 2394.387 0.00 1.31883 0.03
7 1 2 2 o 10567.093 11417.528 0.00 1.31756 0.19
2 5 6 2 o 37033.08 39575.77 180.00 1.31655 0.64
3 4 6 1 o 3380.185 3637.034 0.00 1.31288 0.12
2 8 4 2 o 7662.717 8111.354 180.00 1.31630 0.12
3 4 6 2 o 2707.317 3637.034 0.00 1.31288 0.05
1 10 1 1 o 545.065 646.375 0.00 1.30972 0.01
5 5 4 1 o 6453.534 7701.261 0.00 1.30858 0.19
6 2 4 1 o 17667.539 21081.746 180.00 1.30816 0.55
2 1 7 1 o 1471.088 1739.970 0.00 1.30815 0.04
4 5 5 1 o 16968.529 19078.367 180.00 1.30672 0.54
1 10 1 2 o 602.278 646.375 0.00 1.30972 0.01
0 3 7 1 o 3680.997 4177.615 180.00 1.30602 0.06
5 5 4 2 o 6770.106 7701.261 0.00 1.30858 0.10
6 2 4 2 o 18114.217 21081.746 180.00 1.30816 0.28
2 1 7 2 o 1505.548 1739.970 0.00 1.30815 0.02
5 7 2 1 o 1360.381 1656.241 180.00 1.30467 0.06
4 2 6 1 o 207.693 233.389 0.00 1.30405 0.00
7 3 1 1 o 19135.533 22099.475 0.00 1.30394 0.54
4 5 5 2 o 16582.098 19078.367 180.00 1.30672 0.26
6 6 0 1 o 70670.80 81551.77 180.00 1.30297 1.25
0 3 7 2 o 3622.572 4177.615 180.00 1.30602 0.03
5 7 2 2 o 1175.543 1656.241 180.00 1.30467 0.03
4 2 6 2 o 196.063 233.389 0.00 1.30405 0.00
7 3 1 2 o 17899.334 22099.475 0.00 1.30394 0.24
2 7 5 1 o 2070.621 2528.211 0.00 1.30038 0.07
6 6 0 2 o 67873.21 81551.77 180.00 1.30297 0.59
5 3 5 1 o 28028.344 32724.023 180.00 1.29905 0.94
7 2 2 1 o 63.606 72.609 0.00 1.29872 0.00
2 7 5 2 o 2121.128 2528.211 0.00 1.30038 0.03
3 9 2 1 o 11769.096 13237.092 180.00 1.29628 0.39
5 3 5 2 o 27646.854 32724.023 180.00 1.29905 0.46
7 2 2 2 o 61.606 72.609 0.00 1.29872 0.00
0 6 6 1 o 165.921 179.086 180.00 1.29567 0.00
2 9 3 1 o 11421.098 14029.315 0.00 1.29528 0.39
1 3 7 1 o 1711.640 2074.429 0.00 1.29421 0.06
3 9 2 2 o 11721.479 13237.092 180.00 1.29628 0.19
0 6 6 2 o 166.358 179.086 180.00 1.29567 0.00
2 9 3 2 o 11777.466 14029.315 0.00 1.29528 0.20
1 3 7 2 o 1711.218 2074.429 0.00 1.29421 0.03
6 6 1 1 o 26259.576 31571.932 180.00 1.29104 0.87
2 2 7 1 o 1037.871 1307.714 0.00 1.28970 0.05
6 6 1 2 o 26256.879 31571.932 180.00 1.29104 0.43
2 2 7 2 o 930.486 1307.714 0.00 1.28970 0.02
2 10 0 1 o 23594.045 29521.139 180.00 1.28642 0.41
0 10 2 1 o 3680.107 4962.428 0.00 1.28563 0.06
1 6 6 1 o 818.322 1375.485 0.00 1.28414 0.03
2 10 0 2 o 19561.834 29521.139 180.00 1.28642 0.16
0 10 2 2 o 3666.191 4962.428 0.00 1.28563 0.03
1 6 6 2 o 598.261 1375.485 0.00 1.28414 0.01
6 3 4 1 o 4660.494 4936.160 180.00 1.27784 0.12
6 3 4 2 o 4770.898 4936.160 180.00 1.27784 0.06
2 10 1 1 o 12339.212 12575.567 180.00 1.27493 0.49
4 3 6 1 o -2.069 0.120 180.00 1.27400 0.00
1 10 2 1 o 19559.941 21018.992 180.00 1.27436 0.76
2 10 1 2 o 10858.497 12575.567 180.00 1.27493 0.21
4 3 6 2 o -3.389 0.120 180.00 1.27400 0.00
1 10 2 2 o 18123.439 21018.992 180.00 1.27436 0.35
7 3 2 1 o 1941.805 2389.102 0.00 1.26903 0.06
4 7 4 1 o 810.350 1005.710 180.00 1.26801 0.04
7 3 2 2 o 2385.533 2389.102 0.00 1.26903 0.04
4 7 4 2 o 916.447 1005.710 180.00 1.26801 0.02
6 5 3 1 o 13525.182 13467.072 0.00 1.26422 0.43
4 9 0 1 o 7974.661 7874.063 180.00 1.26327 0.15
7 4 1 1 o 3813.544 3387.636 180.00 1.26245 0.14
6 5 3 2 o 12626.582 13467.072 0.00 1.26422 0.20
2 3 7 1 o 3821.968 3926.311 0.00 1.26062 0.12
4 8 3 1 o 2057.535 2133.748 0.00 1.26027 0.08
4 9 0 2 o 7531.925 7874.063 180.00 1.26327 0.07
7 4 1 2 o 2960.506 3387.636 180.00 1.26245 0.05
7 1 3 1 o 10891.121 12426.812 180.00 1.25917 0.35
3 5 6 1 o 9994.815 11192.341 180.00 1.25921 0.29
3 8 4 1 o 2193.739 2502.550 180.00 1.25898 0.08
5 4 5 1 o 1794.733 2069.612 180.00 1.25801 0.06
2 3 7 2 o 3386.100 3926.311 0.00 1.26062 0.05
6 6 2 1 o 18502.471 21492.689 180.00 1.25713 0.56
4 8 3 2 o 1805.518 2133.748 0.00 1.26027 0.03
7 1 3 2 o 10221.387 12426.812 180.00 1.25917 0.16
3 5 6 2 o 9455.011 11192.341 180.00 1.25921 0.13
3 8 4 2 o 2086.318 2502.550 180.00 1.25898 0.04
5 4 5 2 o 1908.280 2069.612 180.00 1.25801 0.03
6 6 2 2 o 20339.787 21492.689 180.00 1.25713 0.32
1 4 7 1 o 13040.892 13997.862 0.00 1.25362 0.42
4 9 1 1 o 7156.385 8083.449 180.00 1.25239 0.25
3 1 7 1 o 554.469 636.843 180.00 1.25185 0.02
2 6 6 1 o 7745.941 8764.276 180.00 1.25130 0.24
5 8 1 1 o 17787.787 20213.432 180.00 1.25110 0.59
1 4 7 2 o 12064.480 13997.862 0.00 1.25362 0.19
1 9 4 1 o 2576.187 2886.314 0.00 1.24968 0.07
4 9 1 2 o 7023.118 8083.449 180.00 1.25239 0.12
3 1 7 2 o 555.833 636.843 180.00 1.25185 0.01
2 6 6 2 o 8070.932 8764.276 180.00 1.25130 0.13
5 8 1 2 o 18715.451 20213.432 180.00 1.25110 0.31
5 7 3 1 o 42590.79 45977.04 180.00 1.24790 1.43
1 8 5 1 o 630.561 638.667 180.00 1.24678 0.02
1 9 4 2 o 2844.385 2886.314 0.00 1.24968 0.04
3 7 5 1 o 3573.628 3818.383 0.00 1.24504 0.12
5 7 3 2 o 43445.87 45977.04 180.00 1.24790 0.73
5 6 4 1 o 1593.511 1658.038 0.00 1.24445 0.04
1 8 5 2 o 601.970 638.667 180.00 1.24678 0.01
7 2 3 1 o 6468.475 7293.159 0.00 1.24269 0.20
4 6 5 1 o 3985.537 4440.385 180.00 1.24285 0.13
2 10 2 1 o 24796.455 28838.162 180.00 1.24225 0.91
3 7 5 2 o 3257.073 3818.383 0.00 1.24504 0.05
5 6 4 2 o 1457.638 1658.038 0.00 1.24445 0.02
3 9 3 1 o 277.951 283.540 180.00 1.24055 0.02
7 2 3 2 o 7443.470 7293.159 0.00 1.24269 0.12
4 6 5 2 o 4559.078 4440.385 180.00 1.24285 0.07
2 10 2 2 o 29554.938 28838.162 180.00 1.24225 0.56
6 4 4 1 o 52961.46 50363.80 180.00 1.23872 1.66
3 9 3 2 o 283.578 283.540 180.00 1.24055 0.01
6 4 4 2 o 51234.25 50363.80 180.00 1.23872 0.80
3 2 7 1 o 41726.38 40962.14 0.00 1.23565 1.33
4 4 6 1 o 2024.076 1992.796 180.00 1.23522 0.05
3 2 7 2 o 39003.96 40962.14 0.00 1.23565 0.61
4 4 6 2 o 1939.216 1992.796 180.00 1.23522 0.02
7 4 2 1 o 37167.82 37515.64 0.00 1.23069 1.11
6 7 0 1 o 1442.746 1503.724 180.00 1.22906 0.03
5 0 6 1 o 54899.03 55733.57 0.00 1.22874 0.80
7 4 2 2 o 37162.13 37515.64 0.00 1.23069 0.55
6 7 0 2 o 1506.664 1503.724 180.00 1.22906 0.02
5 0 6 2 o 55284.29 55733.57 0.00 1.22874 0.40
6 1 5 1 o 29024.561 29514.025 0.00 1.22543 0.85
5 1 6 1 o 34253.254 32868.285 0.00 1.22357 1.02
2 4 7 1 o 226.337 213.802 0.00 1.22301 0.01
6 1 5 2 o 31132.051 29514.025 0.00 1.22543 0.46
3 10 1 1 o 7320.544 6915.574 180.00 1.22265 0.30
4 9 2 1 o 521.047 511.540 180.00 1.22137 0.02
1 10 3 1 o 14946.936 14742.942 0.00 1.22130 0.59
5 1 6 2 o 33805.844 32868.285 0.00 1.22357 0.50
5 8 2 1 o 75.257 72.125 180.00 1.22017 0.00
2 4 7 2 o 230.468 213.802 0.00 1.22301 0.00
3 10 1 2 o 7315.975 6915.574 180.00 1.22265 0.15
2 9 4 1 o 65084.64 63132.64 0.00 1.21935 2.20
6 7 1 1 o 2310.424 2270.048 0.00 1.21904 0.07
0 5 7 1 o 2342.826 2345.714 180.00 1.21619 0.04
2 9 4 2 o 63012.84 63132.64 0.00 1.21935 1.05
6 7 1 2 o 2265.871 2270.048 0.00 1.21904 0.03
4 9 2 2 o 523.290 511.540 180.00 1.22137 0.01
1 10 3 2 o 15106.944 14742.942 0.00 1.22130 0.30
7 5 1 1 o 87.662 87.793 0.00 1.21451 0.00
5 8 2 2 o 72.361 72.125 180.00 1.22017 0.00
7 3 3 1 o 100700.75 100981.91 0.00 1.21660 2.99
2 8 5 1 o 45425.27 45544.84 0.00 1.21666 1.44
7 3 3 2 o 97331.89 100981.91 0.00 1.21660 1.43
2 8 5 2 o 43904.26 45544.84 0.00 1.21666 0.69
0 5 7 2 o 2290.634 2345.714 180.00 1.21619 0.02
1 7 6 1 o 111.468 114.601 180.00 1.21322 0.00
7 5 1 2 o 87.728 87.793 0.00 1.21451 0.00
5 5 5 1 o 21462.344 21586.203 180.00 1.21055 0.68
6 2 5 1 o 60109.77 61354.44 180.00 1.21023 1.70
1 7 6 2 o 111.997 114.601 180.00 1.21322 0.00
3 3 7 1 o 141011.86 145873.31 0.00 1.21000 4.11
5 2 6 1 o 12215.334 12602.553 0.00 1.20843 0.35
5 5 5 2 o 20656.467 21586.203 180.00 1.21055 0.32
6 2 5 2 o 58931.00 61354.44 180.00 1.21023 0.83
3 3 7 2 o 140996.81 145873.31 0.00 1.21000 2.04
1 5 7 1 o 6861.401 6952.380 180.00 1.20664 0.19
6 6 3 1 o 10052.835 9951.161 0.00 1.20611 0.31
8 0 0 1 o 141799.86 137150.17 0.00 1.20566 0.99
5 2 6 2 o 13151.507 12602.553 0.00 1.20843 0.19
1 5 7 2 o 6855.556 6952.380 180.00 1.20664 0.09
0 11 1 1 o 128421.12 129877.75 180.00 1.20379 2.30
6 6 3 2 o 9827.132 9951.161 0.00 1.20611 0.15
8 0 0 2 o 137796.72 137150.17 0.00 1.20566 0.48
3 6 6 1 o 54802.52 54526.68 180.00 1.20176 1.61
8 1 0 1 o 22840.686 23211.998 0.00 1.20078 0.34
0 11 1 2 o 127727.25 129877.75 180.00 1.20379 1.14
3 6 6 2 o 56626.98 54526.68 180.00 1.20176 0.84
8 1 0 2 o 25690.053 23211.998 0.00 1.20078 0.20
0 0 8 1 o 54619.45 52612.81 0.00 1.19543 0.40
1 11 1 1 o 16921.660 15860.327 180.00 1.19452 0.60
7 0 4 1 o 46097.76 44521.34 180.00 1.19383 0.64
3 10 2 1 o 63149.91 61313.84 180.00 1.19373 2.08
6 5 4 1 o 41413.18 40807.70 0.00 1.19333 1.15
2 10 3 1 o 4606.621 4563.131 0.00 1.19295 0.16
0 0 8 2 o 52797.23 52612.81 0.00 1.19543 0.19
8 1 1 1 o 939.284 935.699 180.00 1.19142 0.03
1 11 1 2 o 15913.865 15860.327 180.00 1.19452 0.28
7 0 4 2 o 44900.20 44521.34 180.00 1.19383 0.31
3 10 2 2 o 61798.60 61313.84 180.00 1.19373 1.01
6 5 4 2 o 40556.73 40807.70 0.00 1.19333 0.56
6 7 2 1 o 2260.697 2286.006 0.00 1.19037 0.09
4 5 6 1 o 775.986 788.144 180.00 1.19021 0.02
4 8 4 1 o 74838.51 77513.84 0.00 1.19002 2.37
2 10 3 2 o 4397.074 4563.131 0.00 1.19295 0.08
7 1 4 1 o 346.035 363.161 0.00 1.18908 0.01
8 1 1 2 o 892.526 935.699 180.00 1.19142 0.01
6 7 2 2 o 2133.737 2286.006 0.00 1.19037 0.04
4 5 6 2 o 761.332 788.144 180.00 1.19021 0.01
4 8 4 2 o 74503.62 77513.84 0.00 1.19002 1.17
8 2 0 1 o 4087.026 4230.609 0.00 1.18646 0.05
1 0 8 1 o 632.179 667.154 0.00 1.18636 0.01
7 1 4 2 o 347.173 363.161 0.00 1.18908 0.00
7 5 2 1 o 6464.928 6807.908 180.00 1.18615 0.18
6 3 5 1 o 619.197 659.514 180.00 1.18609 0.02
2 7 6 1 o 589.867 639.674 0.00 1.18541 0.02
5 3 6 1 o 8378.630 7204.167 0.00 1.18440 0.24
4 1 7 1 o 1427.108 1182.430 180.00 1.18399 0.04
8 2 0 2 o 5483.640 4230.609 0.00 1.18646 0.04
1 0 8 2 o 959.905 667.154 0.00 1.18636 0.01
7 5 2 2 o 9107.279 6807.908 180.00 1.18615 0.14
6 3 5 2 o 909.134 659.514 180.00 1.18609 0.01
7 4 3 1 o 2394.883 1917.358 180.00 1.18270 0.07
2 7 6 2 o 788.654 639.674 0.00 1.18541 0.01
1 1 8 1 o 16817.855 15882.653 180.00 1.18170 0.46
5 3 6 2 o 7454.704 7204.167 0.00 1.18440 0.10
4 1 7 2 o 1182.482 1182.430 180.00 1.18399 0.01
7 4 3 2 o 2218.820 1917.358 180.00 1.18270 0.03
5 7 4 1 o 42.967 34.312 0.00 1.17958 0.00
2 5 7 1 o 2277.995 1943.423 0.00 1.17927 0.07
1 1 8 2 o 18022.418 15882.653 180.00 1.18170 0.25
4 7 5 1 o 33056.090 30481.443 0.00 1.17822 0.99
8 2 1 1 o 12974.987 12242.506 0.00 1.17743 0.36
0 2 8 1 o 106.534 100.799 180.00 1.17671 0.00
3 4 7 1 o 5416.362 5048.643 180.00 1.17663 0.15
5 7 4 2 o 38.293 34.312 0.00 1.17958 0.00
2 11 0 1 o 23349.053 21532.979 0.00 1.17676 0.41
2 5 7 2 o 2037.019 1943.423 0.00 1.17927 0.03
7 2 4 1 o 4808.732 4459.686 180.00 1.17518 0.13
4 7 5 2 o 33088.863 30481.443 0.00 1.17822 0.50
8 2 1 2 o 12463.843 12242.506 0.00 1.17743 0.17
4 9 3 1 o 21584.496 21266.510 180.00 1.17442 0.67
0 2 8 2 o 102.521 100.799 180.00 1.17671 0.00
3 4 7 2 o 5166.100 5048.643 180.00 1.17663 0.07
2 11 0 2 o 22051.643 21532.979 0.00 1.17676 0.19
5 8 3 1 o 32677.154 32132.695 180.00 1.17335 0.99
3 9 4 1 o 4609.534 4529.470 180.00 1.17337 0.15
7 2 4 2 o 4655.859 4459.686 180.00 1.17518 0.06
0 9 5 1 o 169.573 165.535 180.00 1.17203 0.00
4 9 3 2 o 21045.885 21266.510 180.00 1.17442 0.32
3 8 5 1 o 1100.724 1084.407 0.00 1.17097 0.04
5 8 3 2 o 33298.324 32132.695 180.00 1.17335 0.50
4 2 7 1 o 117.929 112.852 180.00 1.17026 0.00
3 9 4 2 o 4697.029 4529.470 180.00 1.17337 0.07
8 0 2 1 o 33300.496 30149.594 0.00 1.16908 0.45
0 9 5 2 o 181.856 165.535 180.00 1.17203 0.00
1 2 8 1 o 30036.541 28059.102 0.00 1.16805 0.82
3 8 5 2 o 1170.572 1084.407 0.00 1.17097 0.02
2 11 1 1 o 11980.027 11286.052 0.00 1.16795 0.40
4 10 0 1 o 149474.09 142492.13 0.00 1.16780 2.40
4 2 7 2 o 115.637 112.852 180.00 1.17026 0.00
1 11 2 1 o 9493.853 9247.047 180.00 1.16751 0.31
5 9 1 1 o 1011.460 983.589 0.00 1.16698 0.04
8 0 2 2 o 31965.469 30149.594 0.00 1.16908 0.21
1 2 8 2 o 27953.910 28059.102 0.00 1.16805 0.37
0 10 4 1 o 130965.70 128148.55 0.00 1.16546 2.13
8 1 2 1 o 0.378 0.895 0.00 1.16462 0.00
2 11 1 2 o 11166.081 11286.052 0.00 1.16795 0.18
4 10 0 2 o 139742.80 142492.13 0.00 1.16780 1.10
1 11 2 2 o 9014.469 9247.047 180.00 1.16751 0.15
5 9 1 2 o 985.533 983.589 0.00 1.16698 0.02
8 3 0 1 o 13181.151 12819.245 0.00 1.16370 0.21
1 9 5 1 o 6171.363 5993.177 180.00 1.16347 0.18
7 6 1 1 o 1547.384 1484.415 180.00 1.16272 0.04
0 10 4 2 o 133966.19 128148.55 0.00 1.16546 1.09
8 1 2 2 o 3.256 0.895 0.00 1.16462 0.00
8 3 0 2 o 15558.414 12819.245 0.00 1.16370 0.12
1 9 5 2 o 7111.690 5993.177 180.00 1.16347 0.11
2 0 8 1 o 1334.646 988.881 0.00 1.16032 0.02
7 6 1 2 o 1953.638 1484.415 180.00 1.16272 0.03
5 6 5 1 o 884.306 684.573 180.00 1.15925 0.02
4 10 1 1 o 1579.171 1108.114 180.00 1.15919 0.06
6 8 0 1 o 41012.28 36314.85 180.00 1.15765 0.61
2 0 8 2 o 1113.882 988.881 0.00 1.16032 0.01
1 10 4 1 o 409.161 394.710 0.00 1.15704 0.01
5 6 5 2 o 702.607 684.573 180.00 1.15925 0.01
4 10 1 2 o 1150.086 1108.114 180.00 1.15919 0.02
2 1 8 1 o 14523.731 14114.862 180.00 1.15596 0.37
1 6 7 1 o 14017.491 13643.700 0.00 1.15581 0.35
8 3 1 1 o 91669.12 86916.86 180.00 1.15517 2.47
6 8 0 2 o 38139.09 36314.85 180.00 1.15765 0.28
6 4 5 1 o 12163.579 11715.274 0.00 1.15461 0.33
1 10 4 2 o 396.815 394.710 0.00 1.15704 0.01
2 1 8 2 o 14832.913 14114.862 180.00 1.15596 0.19
7 3 4 1 o 1317.181 1238.157 0.00 1.15304 0.04
5 4 6 1 o 1941.241 1836.934 0.00 1.15305 0.05
1 6 7 2 o 14313.666 13643.700 0.00 1.15581 0.18
8 3 1 2 o 93270.50 86916.86 180.00 1.15517 1.26
0 8 6 1 o 7616.201 7063.807 180.00 1.15252 0.14
6 4 5 2 o 13072.282 11715.274 0.00 1.15461 0.18
8 2 2 1 o 17687.203 15596.109 0.00 1.15154 0.49
7 3 4 2 o 1588.118 1238.157 0.00 1.15304 0.02
5 4 6 2 o 2299.500 1836.934 0.00 1.15305 0.03
3 10 3 1 o 584.419 512.891 180.00 1.14979 0.01
0 8 6 2 o 8984.843 7063.807 180.00 1.15252 0.08
6 8 1 1 o 29796.381 25662.225 0.00 1.14926 0.90
8 2 2 2 o 17422.600 15596.109 0.00 1.15154 0.24
4 3 7 1 o 2542.106 2262.224 180.00 1.14840 0.07
6 7 3 1 o 29008.346 27140.189 0.00 1.14678 0.83
3 10 3 2 o 535.089 512.891 180.00 1.14979 0.01
6 8 1 2 o 27188.982 25662.225 0.00 1.14926 0.40
1 3 8 1 o 4954.064 4684.844 180.00 1.14631 0.13
4 3 7 2 o 2465.503 2262.224 180.00 1.14840 0.03
1 8 6 1 o 1657.583 1525.076 0.00 1.14438 0.05
6 6 4 1 o 900.956 825.069 180.00 1.14410 0.02
6 7 3 2 o 30051.787 27140.189 0.00 1.14678 0.43
1 3 8 2 o 5312.412 4684.844 180.00 1.14631 0.07
2 2 8 1 o 289.328 262.624 180.00 1.14317 0.01
7 5 3 1 o 22731.043 20295.676 0.00 1.14301 0.67
3 7 6 1 o 23.115 19.459 180.00 1.14304 0.00
2 11 2 1 o 160.579 152.735 0.00 1.14267 0.00
5 9 2 1 o 51947.11 49701.78 180.00 1.14176 1.54
1 8 6 2 o 1582.152 1525.076 0.00 1.14438 0.02
4 6 6 1 o 28997.715 28214.793 0.00 1.14134 0.80
6 6 4 2 o 845.192 825.069 180.00 1.14410 0.01
2 2 8 2 o 267.733 262.624 180.00 1.14317 0.00
7 5 3 2 o 20964.629 20295.676 0.00 1.14301 0.30
3 7 6 2 o 20.394 19.459 180.00 1.14304 0.00
2 11 2 2 o 156.072 152.735 0.00 1.14267 0.00
5 9 2 2 o 49711.94 49701.78 180.00 1.14176 0.73
2 9 5 1 o 9116.299 9107.033 0.00 1.13888 0.27
4 6 6 2 o 28442.566 28214.793 0.00 1.14134 0.39
7 6 2 1 o 37247.29 37661.13 180.00 1.13776 0.99
3 5 7 1 o 38128.18 39338.47 0.00 1.13753 1.06
2 9 5 2 o 8521.315 9107.033 0.00 1.13888 0.12
7 6 2 2 o 37376.98 37661.13 180.00 1.13776 0.50
3 5 7 2 o 38420.03 39338.47 0.00 1.13753 0.53
4 10 2 1 o 25259.188 26477.113 0.00 1.13446 0.73
8 4 0 1 o 3231.482 3480.644 180.00 1.13392 0.04
0 11 3 1 o 0.946 1.130 180.00 1.13406 0.00
2 10 4 1 o 3022.899 2896.484 180.00 1.13285 0.08
6 0 6 1 o 326.655 316.381 180.00 1.13186 0.01
2 6 7 1 o 89.246 88.499 180.00 1.13169 0.00
4 10 2 2 o 26590.420 26477.113 0.00 1.13446 0.39
8 4 0 2 o 3524.784 3480.644 180.00 1.13392 0.02
0 11 3 2 o 1.133 1.130 180.00 1.13406 0.00
8 3 2 1 o 561.962 466.340 180.00 1.13069 0.02
2 10 4 2 o 3388.781 2896.484 180.00 1.13285 0.05
6 0 6 2 o 398.531 316.381 180.00 1.13186 0.00
2 6 7 2 o 116.812 88.499 180.00 1.13169 0.00
8 3 2 2 o 680.337 466.340 180.00 1.13069 0.01
6 1 6 1 o 26341.994 20495.236 180.00 1.12781 0.74
3 11 1 1 o 13040.260 10704.520 180.00 1.12736 0.43
8 4 1 1 o 2161.618 2067.067 180.00 1.12603 0.06
1 11 3 1 o 36341.75 33693.613 180.00 1.12630 1.11
0 4 8 1 o 35225.22 35053.836 180.00 1.12540 0.50
6 1 6 2 o 20217.664 20495.236 180.00 1.12781 0.27
6 8 2 1 o 26381.984 26637.850 180.00 1.12515 0.77
3 11 1 2 o 10703.767 10704.520 180.00 1.12736 0.17
7 4 4 1 o 0.370 0.212 180.00 1.12406 0.00
8 1 3 1 o 25274.672 24111.939 180.00 1.12370 0.63
8 4 1 2 o 2150.037 2067.067 180.00 1.12603 0.03
1 11 3 2 o 35231.55 33693.613 180.00 1.12630 0.53
2 3 8 1 o 3976.333 3932.872 180.00 1.12277 0.10
0 4 8 2 o 35069.922 35053.836 180.00 1.12540 0.25
6 8 2 2 o 26276.953 26637.850 180.00 1.12515 0.38
7 4 4 2 o 0.316 0.212 180.00 1.12406 0.00
8 1 3 2 o 24555.916 24111.939 180.00 1.12370 0.30
2 8 6 1 o 13789.182 13489.880 180.00 1.12096 0.43
3 0 8 1 o 80438.23 80981.12 180.00 1.12049 0.99
2 3 8 2 o 3731.914 3932.872 180.00 1.12277 0.04
4 4 7 1 o 28.852 31.681 180.00 1.11975 0.00
2 8 6 2 o 14095.820 13489.880 180.00 1.12096 0.22
1 4 8 1 o 53433.23 52058.91 0.00 1.11781 1.35
3 0 8 2 o 82775.55 80981.12 180.00 1.12049 0.51
6 5 5 1 o 2352.599 2321.238 0.00 1.11760 0.06
4 4 7 2 o 31.558 31.681 180.00 1.11975 0.00
4 9 4 1 o 7598.348 7608.914 0.00 1.11694 0.24
3 1 8 1 o 8405.080 8268.253 0.00 1.11656 0.21
5 5 6 1 o 34737.461 34173.785 180.00 1.11618 0.91
6 2 6 1 o 9423.543 9394.363 180.00 1.11592 0.25
5 8 4 1 o 2450.428 2429.277 0.00 1.11602 0.07
1 4 8 2 o 51645.46 52058.91 0.00 1.11781 0.65
6 5 5 2 o 2319.441 2321.238 0.00 1.11760 0.03
4 8 5 1 o 3155.137 3160.333 0.00 1.11487 0.09
7 1 5 1 o 32587.990 31782.734 0.00 1.11410 0.88
4 9 4 2 o 7803.830 7608.914 0.00 1.11694 0.12
3 1 8 2 o 8390.729 8268.253 0.00 1.11656 0.11
5 5 6 2 o 34158.695 34173.785 180.00 1.11618 0.44
6 2 6 2 o 9407.135 9394.363 180.00 1.11592 0.12
5 8 4 2 o 2426.792 2429.277 0.00 1.11602 0.03
8 2 3 1 o 2920.934 2683.674 180.00 1.11194 0.07
4 8 5 2 o 3422.158 3160.333 0.00 1.11487 0.05
0 12 0 1 o 3183.649 3011.167 0.00 1.11232 0.02
7 1 5 2 o 37480.14 31782.734 0.00 1.11410 0.52
5 1 7 1 o 7458.015 6082.980 180.00 1.11105 0.21
0 7 7 1 o 1007.665 849.257 180.00 1.11058 0.01
8 2 3 2 o 3181.636 2683.674 180.00 1.11194 0.04
7 7 1 1 o 12245.372 10368.104 180.00 1.10929 0.31
0 12 0 2 o 3542.222 3011.167 0.00 1.11232 0.01
5 1 7 2 o 7571.302 6082.980 180.00 1.11105 0.11
0 7 7 2 o 990.895 849.257 180.00 1.11058 0.01
7 7 1 2 o 12099.552 10368.104 180.00 1.10929 0.15
5 7 5 1 o 2536.741 2207.000 180.00 1.10628 0.06
3 2 8 1 o 7121.748 6316.763 180.00 1.10502 0.18
3 11 2 1 o 4464.398 4356.448 0.00 1.10457 0.13
2 11 3 1 o 16423.033 16332.123 0.00 1.10394 0.49
5 7 5 2 o 2181.140 2207.000 180.00 1.10628 0.02
8 4 2 1 o 5899.943 6118.009 0.00 1.10332 0.15
1 7 7 1 o 79382.27 82652.39 180.00 1.10329 2.08
5 9 3 1 o 7268.365 7802.209 180.00 1.10313 0.24
7 2 5 1 o 631.916 716.601 180.00 1.10264 0.02
3 2 8 2 o 5690.505 6316.763 180.00 1.10502 0.07
3 11 2 2 o 4112.661 4356.448 0.00 1.10457 0.06
3 9 5 1 o 14674.771 15484.444 0.00 1.10115 0.42
2 11 3 2 o 15580.603 16332.123 0.00 1.10394 0.23
8 4 2 2 o 5689.217 6118.009 0.00 1.10332 0.07
1 7 7 2 o 76864.26 82652.39 180.00 1.10329 1.00
5 9 3 2 o 7171.480 7802.209 180.00 1.10313 0.12
7 2 5 2 o 677.006 716.601 180.00 1.10264 0.01
5 2 7 1 o 58088.04 60898.76 0.00 1.09968 1.46
7 6 3 1 o 4445.396 4678.554 180.00 1.09952 0.12
8 5 0 1 o 26124.680 27572.648 180.00 1.09880 0.35
3 9 5 2 o 15342.098 15484.444 0.00 1.10115 0.22
1 12 1 1 o 18478.082 18305.014 180.00 1.09769 0.60
5 2 7 2 o 59566.69 60898.76 0.00 1.09968 0.75
6 3 6 1 o 8629.623 8841.158 180.00 1.09692 0.24
7 6 3 2 o 4574.864 4678.554 180.00 1.09952 0.06
4 10 3 1 o 241.122 245.546 0.00 1.09654 0.01
8 5 0 2 o 26989.742 27572.648 180.00 1.09880 0.18
2 4 8 1 o 8967.581 9245.595 180.00 1.09595 0.27
3 10 4 1 o 25257.287 26253.088 180.00 1.09569 0.71
1 12 1 2 o 17292.680 18305.014 180.00 1.09769 0.27
3 6 7 1 o 17993.574 19292.539 180.00 1.09464 0.50
6 3 6 2 o 7991.594 8841.158 180.00 1.09692 0.11
4 10 3 2 o 227.037 245.546 0.00 1.09654 0.00
8 3 3 1 o 225.899 231.392 180.00 1.09314 0.00
2 4 8 2 o 8904.486 9245.595 180.00 1.09595 0.13
6 7 4 1 o 2433.229 2518.695 180.00 1.09309 0.08
3 10 4 2 o 25659.387 26253.088 180.00 1.09569 0.36
3 6 7 2 o 19505.227 19292.539 180.00 1.09464 0.27
8 5 1 1 o 25498.209 25041.445 180.00 1.09162 0.65
4 7 6 1 o 162.098 139.368 0.00 1.09068 0.01
8 3 3 2 o 255.505 231.392 180.00 1.09314 0.00
6 7 4 2 o 2916.494 2518.695 180.00 1.09309 0.05
5 10 1 1 o 5668.001 5021.745 180.00 1.09048 0.18
6 9 0 1 o 59039.25 53726.59 0.00 1.09005 0.84
7 5 4 1 o 1074.878 1006.681 180.00 1.08982 0.03
8 5 1 2 o 25058.709 25041.445 180.00 1.09162 0.32
6 8 3 1 o 8232.670 7906.614 180.00 1.08812 0.23
4 7 6 2 o 149.023 139.368 0.00 1.09068 0.00
5 10 1 2 o 5275.638 5021.745 180.00 1.09048 0.08
7 7 2 1 o 136.119 128.068 180.00 1.08756 0.00
1 10 5 1 o 7233.377 6833.306 180.00 1.08762 0.26
6 9 0 2 o 56200.40 53726.59 0.00 1.09005 0.40
7 5 4 2 o 1062.866 1006.681 180.00 1.08982 0.01
3 3 8 1 o 1969.672 1881.108 0.00 1.08656 0.05
4 5 7 1 o 2064.600 2061.792 180.00 1.08589 0.05
6 8 3 2 o 7859.021 7906.614 180.00 1.08812 0.11
7 7 2 2 o 123.887 128.068 180.00 1.08756 0.00
3 8 6 1 o 41685.75 42530.33 180.00 1.08492 1.10
1 10 5 2 o 6671.971 6833.306 180.00 1.08762 0.12
7 3 5 1 o 98.944 100.333 0.00 1.08430 0.00
1 5 8 1 o 19660.512 21753.445 0.00 1.08412 0.48
3 3 8 2 o 1684.720 1881.108 0.00 1.08656 0.02
4 11 0 1 o 2884.886 3283.428 0.00 1.08393 0.05
2 12 0 1 o 29119.795 32970.434 180.00 1.08386 0.47
4 5 7 2 o 1848.723 2061.792 180.00 1.08589 0.02
0 12 2 1 o 18681.113 21172.039 0.00 1.08339 0.30
6 9 1 1 o 17503.424 19176.295 0.00 1.08304 0.46
2 7 7 1 o 1183.731 1224.231 0.00 1.08225 0.03
3 8 6 2 o 41049.32 42530.33 180.00 1.08492 0.54
7 3 5 2 o 100.595 100.333 0.00 1.08430 0.00
5 3 7 1 o 32896.906 32524.078 180.00 1.08148 0.76
1 5 8 2 o 21993.561 21753.445 0.00 1.08412 0.28
4 11 0 2 o 3267.238 3283.428 0.00 1.08393 0.03
2 12 0 2 o 32612.586 32970.434 180.00 1.08386 0.27
0 12 2 2 o 20601.584 21172.039 0.00 1.08339 0.17
6 9 1 2 o 18660.385 19176.295 0.00 1.08304 0.25
2 7 7 2 o 1233.460 1224.231 0.00 1.08225 0.02
5 3 7 2 o 32786.496 32524.078 180.00 1.08148 0.38
1 9 6 1 o 17724.352 17275.246 180.00 1.07895 0.47
6 6 5 1 o 29254.098 27732.189 0.00 1.07685 0.75
4 11 1 1 o 2517.934 2304.475 0.00 1.07703 0.08
8 0 4 1 o 8493.919 8489.587 180.00 1.07653 0.10
2 12 1 1 o 33281.691 30930.201 0.00 1.07697 0.99
1 12 2 1 o 702.740 692.458 0.00 1.07662 0.02
1 9 6 2 o 16940.900 17275.246 180.00 1.07895 0.22
5 6 6 1 o 21474.352 22305.451 0.00 1.07558 0.52
1 11 4 1 o 1987.633 2074.161 180.00 1.07531 0.06
6 6 5 2 o 28655.908 27732.189 0.00 1.07685 0.36
4 11 1 2 o 2381.195 2304.475 0.00 1.07703 0.04
8 0 4 2 o 8736.509 8489.587 180.00 1.07653 0.05
2 12 1 2 o 31950.188 30930.201 0.00 1.07697 0.47
1 12 2 2 o 715.485 692.458 0.00 1.07662 0.01
8 1 4 1 o 2752.038 2732.049 180.00 1.07305 0.05
5 6 6 2 o 22019.047 22305.451 0.00 1.07558 0.27
1 11 4 2 o 1899.053 2074.161 180.00 1.07531 0.03
6 4 6 1 o 7472.560 8928.311 180.00 1.07188 0.16
4 0 8 1 o 9247.288 10765.668 180.00 1.07104 0.09
8 5 2 1 o 16.929 17.158 180.00 1.07089 0.00
8 1 4 2 o 2650.099 2732.049 180.00 1.07305 0.02
5 10 2 1 o 19111.365 19448.328 0.00 1.06981 0.53
6 4 6 2 o 8588.302 8928.311 180.00 1.07188 0.10
3 11 3 1 o 6276.264 6411.824 180.00 1.06948 0.16
4 0 8 2 o 9888.761 10765.668 180.00 1.07104 0.05
8 4 3 1 o 134.563 142.884 0.00 1.06835 0.00
8 5 2 2 o 17.060 17.158 180.00 1.07089 0.00
4 1 8 1 o 0.134 1.512 0.00 1.06761 0.00
2 10 5 1 o 8051.372 8298.311 0.00 1.06745 0.22
5 10 2 2 o 18984.666 19448.328 0.00 1.06981 0.26
3 11 3 2 o 6399.610 6411.824 180.00 1.06948 0.08
8 4 3 2 o 178.457 142.884 0.00 1.06835 0.00
4 1 8 2 o 10.509 1.512 0.00 1.06761 0.00
2 10 5 2 o 9670.184 8298.311 0.00 1.06745 0.14
2 5 8 1 o 18345.803 16866.611 0.00 1.06414 0.44
8 2 4 1 o 17846.479 17883.680 0.00 1.06279 0.42
6 9 2 1 o 1044.684 1047.464 0.00 1.06279 0.02
3 4 8 1 o 322.343 387.920 0.00 1.06220 0.01
9 1 1 1 o 272.465 388.072 0.00 1.06166 0.01
2 5 8 2 o 14096.712 16866.611 0.00 1.06414 0.15
8 2 4 2 o 17408.525 17883.680 0.00 1.06279 0.20
7 4 5 1 o 425.667 441.421 0.00 1.06009 0.01
6 9 2 2 o 1023.830 1047.464 0.00 1.06279 0.01
8 6 0 1 o 52431.96 54298.61 0.00 1.06000 0.63
3 4 8 2 o 360.109 387.920 0.00 1.06220 0.00
0 1 9 1 o 14744.904 16216.880 0.00 1.05926 0.16
9 1 1 2 o 322.975 388.072 0.00 1.06166 0.01
2 9 6 1 o 18218.400 20142.078 0.00 1.05925 0.47
4 2 8 1 o 3526.733 3583.232 0.00 1.05751 0.09
7 4 5 2 o 432.950 441.421 0.00 1.06009 0.01
5 4 7 1 o 8986.031 9138.999 180.00 1.05746 0.21
8 6 0 2 o 53245.94 54298.61 0.00 1.06000 0.32
4 11 2 1 o 587.725 614.099 180.00 1.05711 0.03
2 12 2 1 o 5825.598 5972.650 180.00 1.05705 0.14
0 1 9 2 o 15839.907 16216.880 0.00 1.05926 0.09
2 9 6 2 o 19649.299 20142.078 0.00 1.05925 0.26
7 8 1 1 o 1594.919 1566.147 0.00 1.05594 0.04
2 11 4 1 o 7996.450 7840.821 180.00 1.05580 0.21
8 6 1 1 o 5579.875 5743.597 180.00 1.05355 0.14
7 8 1 2 o 1541.426 1566.147 0.00 1.05594 0.02
5 8 5 1 o 4687.065 4768.029 0.00 1.05334 0.13
5 9 4 1 o 7027.699 6982.506 180.00 1.05509 0.18
4 2 8 2 o 3569.969 3583.232 0.00 1.05751 0.04
0 6 8 1 o 11145.216 11244.948 0.00 1.05303 0.13
1 1 9 1 o 18703.283 18951.217 180.00 1.05293 0.43
2 11 4 2 o 7772.140 7840.821 180.00 1.05580 0.10
5 4 7 2 o 9088.644 9138.999 180.00 1.05746 0.11
5 9 4 2 o 6766.601 6982.506 180.00 1.05509 0.09
4 11 2 2 o 600.735 614.099 180.00 1.05711 0.01
2 12 2 2 o 5891.305 5972.650 180.00 1.05705 0.07
7 7 3 1 o 25597.697 26490.756 180.00 1.05402 0.66
4 9 5 1 o 16137.341 16615.988 180.00 1.05411 0.42
7 6 4 1 o 17286.469 17354.215 180.00 1.05193 0.42
9 2 1 1 o 22578.982 22543.820 0.00 1.05173 0.54
7 7 3 2 o 26399.818 26490.756 180.00 1.05402 0.34
4 9 5 2 o 16602.135 16615.988 180.00 1.05411 0.21
8 6 1 2 o 5689.888 5743.597 180.00 1.05355 0.07
5 8 5 2 o 4689.830 4768.029 0.00 1.05334 0.07
1 8 7 1 o 25151.934 25526.566 180.00 1.05076 0.66
0 6 8 2 o 10955.808 11244.948 0.00 1.05303 0.06
1 1 9 2 o 18417.107 18951.217 180.00 1.05293 0.21
3 7 7 1 o 9775.863 9792.204 180.00 1.04971 0.26
7 6 4 2 o 17550.561 17354.215 180.00 1.05193 0.21
9 2 1 2 o 22935.145 22543.820 0.00 1.05173 0.27
4 10 4 1 o 6971.283 6892.904 180.00 1.04932 0.17
4 6 7 1 o 29.415 27.880 180.00 1.04840 0.00
1 8 7 2 o 26923.182 25526.566 180.00 1.05076 0.36
3 7 7 2 o 10723.911 9792.204 180.00 1.04971 0.14
1 6 8 1 o 1917.854 1804.101 0.00 1.04681 0.05
4 10 4 2 o 7218.313 6892.904 180.00 1.04932 0.09
8 3 4 1 o 32.999 33.093 180.00 1.04634 0.00
9 0 2 1 o 7273.280 6987.971 0.00 1.04576 0.09
4 6 7 2 o 28.806 27.880 180.00 1.04840 0.00
3 12 1 1 o 2865.197 2611.790 0.00 1.04489 0.07
1 6 8 2 o 1922.889 1804.101 0.00 1.04681 0.02
8 3 4 2 o 33.131 33.093 180.00 1.04634 0.00
1 12 3 1 o 17590.443 16967.766 180.00 1.04405 0.47
9 0 2 2 o 7080.834 6987.971 0.00 1.04576 0.04
1 2 9 1 o 6032.036 5952.404 180.00 1.04323 0.17
9 1 2 1 o 30335.965 28690.496 0.00 1.04256 0.71
7 0 6 1 o 5577.087 5237.993 0.00 1.04239 0.06
6 5 6 1 o 21191.008 19847.834 0.00 1.04206 0.54
3 12 1 2 o 2758.180 2611.790 0.00 1.04489 0.03
6 8 4 1 o 179.968 175.511 180.00 1.04194 0.00
4 3 8 1 o 502.397 535.522 0.00 1.04129 0.02
1 12 3 2 o 16648.113 16967.766 180.00 1.04405 0.22
1 2 9 2 o 5782.139 5952.404 180.00 1.04323 0.08
9 1 2 2 o 27936.391 28690.496 0.00 1.04256 0.32
7 0 6 2 o 5065.900 5237.993 0.00 1.04239 0.03
4 8 6 1 o 13246.000 13659.940 0.00 1.03985 0.31
6 5 6 2 o 19158.750 19847.834 0.00 1.04206 0.24
7 1 6 1 o 1753.880 1802.095 180.00 1.03923 0.04
6 8 4 2 o 173.115 175.511 180.00 1.04194 0.00
8 5 3 1 o 6309.479 6677.278 180.00 1.03882 0.15
4 3 8 2 o 478.494 535.522 0.00 1.04129 0.01
6 1 7 1 o 1928.524 1999.900 0.00 1.03788 0.05
5 10 3 1 o 1700.934 1744.839 180.00 1.03784 0.03
4 8 6 2 o 12994.614 13659.940 0.00 1.03985 0.15
7 8 2 1 o 25206.809 26755.871 180.00 1.03714 0.62
7 1 6 2 o 1705.443 1802.095 180.00 1.03923 0.02
8 5 3 2 o 6548.394 6677.278 180.00 1.03882 0.08
3 10 5 1 o 483.758 493.401 180.00 1.03619 0.02
9 3 1 1 o 5240.625 5217.986 180.00 1.03577 0.14
6 1 7 2 o 2040.114 1999.900 0.00 1.03788 0.02
5 10 3 2 o 1774.816 1744.839 180.00 1.03784 0.02
8 6 2 1 o 22612.805 21625.037 0.00 1.03488 0.56
2 1 9 1 o 67.438 65.157 0.00 1.03459 0.00
7 8 2 2 o 28109.283 26755.871 180.00 1.03714 0.36
6 7 5 1 o 24662.381 23924.908 0.00 1.03399 0.60
0 3 9 1 o 37629.19 38353.26 180.00 1.03354 0.43
3 10 5 2 o 488.720 493.401 180.00 1.03619 0.01
9 3 1 2 o 4834.877 5217.986 180.00 1.03577 0.06
9 2 2 1 o 984.389 1062.599 0.00 1.03315 0.02
3 5 8 1 o 8406.024 9046.351 180.00 1.03317 0.20
5 7 6 1 o 1.108 1.752 180.00 1.03287 0.00
2 8 7 1 o 80.335 92.849 180.00 1.03254 0.00
8 6 2 2 o 19146.398 21625.037 0.00 1.03488 0.23
2 1 9 2 o 61.305 65.157 0.00 1.03459 0.00
6 7 5 2 o 23114.822 23924.908 0.00 1.03399 0.28
6 9 3 1 o 6306.350 6528.214 0.00 1.03142 0.16
7 5 5 1 o 911.001 929.963 0.00 1.03122 0.01
0 3 9 2 o 37188.54 38353.26 180.00 1.03354 0.21
9 2 2 2 o 1111.581 1062.599 0.00 1.03315 0.01
3 5 8 2 o 9414.745 9046.351 180.00 1.03317 0.11
5 7 6 2 o 2.576 1.752 180.00 1.03287 0.00
7 2 6 1 o 23622.629 20423.932 180.00 1.02991 0.57
2 8 7 2 o 111.236 92.849 180.00 1.03254 0.00
5 5 7 1 o 8071.500 7778.012 180.00 1.02880 0.17
6 9 3 2 o 6776.891 6528.214 0.00 1.03142 0.09
2 6 8 1 o 193.965 183.423 180.00 1.02879 0.01
7 5 5 2 o 953.327 929.963 0.00 1.03122 0.01
6 2 7 1 o 97.441 92.200 0.00 1.02860 0.00
3 9 6 1 o 9572.811 9133.909 0.00 1.02869 0.25
1 3 9 1 o 10986.960 10693.042 180.00 1.02766 0.27
7 2 6 2 o 20541.824 20423.932 180.00 1.02991 0.24
6 10 0 1 o 287.409 284.052 180.00 1.02693 0.00
3 12 2 1 o 4588.467 4482.916 180.00 1.02667 0.13
5 5 7 2 o 7837.885 7778.012 180.00 1.02880 0.08
2 6 8 2 o 185.432 183.423 180.00 1.02879 0.00
6 2 7 2 o 92.474 92.200 0.00 1.02860 0.00
3 9 6 2 o 9176.862 9133.909 0.00 1.02869 0.12
4 11 3 1 o 31560.340 31334.035 180.00 1.02623 0.85
2 12 3 1 o 7419.798 7384.849 180.00 1.02617 0.20
2 2 9 1 o 44694.35 43796.07 180.00 1.02539 1.03
3 11 4 1 o 702.072 689.147 0.00 1.02553 0.02
1 3 9 2 o 10939.488 10693.042 180.00 1.02766 0.13
8 4 4 1 o 58899.48 58277.86 0.00 1.02453 1.38
0 11 5 1 o 16893.281 16626.031 0.00 1.02463 0.23
6 10 0 2 o 284.675 284.052 180.00 1.02693 0.00
3 12 2 2 o 4432.793 4482.916 180.00 1.02667 0.06
4 11 3 2 o 30650.541 31334.035 180.00 1.02623 0.41
2 12 3 2 o 7225.542 7384.849 180.00 1.02617 0.10
0 10 6 1 o 21836.438 22573.293 0.00 1.02334 0.26
2 2 9 2 o 40532.33 43796.07 180.00 1.02539 0.45
3 11 4 2 o 642.992 689.147 0.00 1.02553 0.01
8 4 4 2 o 57337.32 58277.86 0.00 1.02453 0.67
0 11 5 2 o 16177.795 16626.031 0.00 1.02463 0.11
5 11 1 1 o 306.218 294.829 0.00 1.02125 0.01
6 10 1 1 o 4202.704 3938.085 0.00 1.02106 0.11
0 10 6 2 o 24179.227 22573.293 0.00 1.02334 0.15
0 13 1 1 o 36.400 34.015 0.00 1.02089 0.00
4 4 8 1 o 9036.709 9538.489 0.00 1.01980 0.17
8 7 0 1 o 1945.546 2127.239 180.00 1.01905 0.03
1 11 5 1 o 2217.429 2305.209 180.00 1.01890 0.06
5 11 1 2 o 290.700 294.829 0.00 1.02125 0.00
6 10 1 2 o 3972.814 3938.085 0.00 1.02106 0.05
9 3 2 1 o 5178.076 5075.517 0.00 1.01802 0.11
0 13 1 2 o 34.932 34.015 0.00 1.02089 0.00
1 10 6 1 o 43423.36 44215.80 0.00 1.01763 1.13
4 4 8 2 o 9487.693 9538.489 0.00 1.01980 0.09
8 1 5 1 o 37672.57 36689.75 180.00 1.01698 0.87
8 7 0 2 o 2209.648 2127.239 180.00 1.01905 0.02
5 0 8 1 o 35990.21 35811.20 0.00 1.01614 0.41
1 11 5 2 o 2348.099 2305.209 180.00 1.01890 0.03
9 3 2 2 o 5106.054 5075.517 0.00 1.01802 0.05
7 3 6 1 o 1130.755 1090.141 180.00 1.01491 0.03
1 10 6 2 o 45192.23 44215.80 0.00 1.01763 0.59
1 13 1 1 o 1313.272 1291.774 0.00 1.01522 0.04
9 4 1 1 o 3673.860 3485.565 180.00 1.01461 0.09
8 1 5 2 o 39034.67 36689.75 180.00 1.01698 0.46
6 3 7 1 o 870.780 805.858 0.00 1.01366 0.02
5 0 8 2 o 39083.94 35811.20 0.00 1.01614 0.23
8 7 1 1 o 1136.273 1031.186 0.00 1.01331 0.03
5 1 8 1 o 13543.816 12267.628 0.00 1.01321 0.31
9 1 3 1 o 5236.870 4755.912 180.00 1.01290 0.14
7 3 6 2 o 1212.412 1090.141 180.00 1.01491 0.02
1 13 1 2 o 1380.165 1291.774 0.00 1.01522 0.02
9 4 1 2 o 4158.557 3485.565 180.00 1.01461 0.05
7 7 4 1 o 38.942 29.388 0.00 1.01187 0.00
6 3 7 2 o 1074.460 805.858 0.00 1.01366 0.01
8 7 1 2 o 1334.810 1031.186 0.00 1.01331 0.02
5 1 8 2 o 15554.402 12267.628 0.00 1.01321 0.18
2 3 9 1 o 1320.529 1067.870 180.00 1.01059 0.03
9 1 3 2 o 5702.061 4755.912 180.00 1.01290 0.08
4 12 0 1 o 15702.880 14824.055 0.00 1.01003 0.20
7 7 4 2 o 30.604 29.388 0.00 1.01187 0.00
6 6 6 1 o 247.880 229.027 180.00 1.00879 0.01
4 7 7 1 o 1293.057 1191.990 180.00 1.00873 0.03
8 2 5 1 o 15473.887 14065.642 180.00 1.00824 0.37
0 12 4 1 o 4967.424 4644.889 0.00 1.00851 0.05
2 3 9 2 o 1175.376 1067.870 180.00 1.01059 0.01
7 8 3 1 o 3658.479 3322.374 0.00 1.00793 0.10
4 12 0 2 o 15537.925 14824.055 0.00 1.01003 0.10
1 7 8 1 o 3.292 3.106 0.00 1.00731 0.00
1 4 9 1 o 43.579 41.701 0.00 1.00698 0.00
6 6 6 2 o 275.633 229.027 180.00 1.00879 0.00
4 7 7 2 o 1440.932 1191.990 180.00 1.00873 0.02
3 1 9 1 o 12715.163 10471.342 0.00 1.00606 0.32
8 6 3 1 o 1266.963 1099.689 0.00 1.00585 0.03
8 2 5 2 o 16067.865 14065.642 180.00 1.00824 0.19
0 12 4 2 o 5343.749 4644.889 0.00 1.00851 0.03
7 8 3 2 o 3574.670 3322.374 0.00 1.00793 0.05
1 7 8 2 o 3.473 3.106 0.00 1.00731 0.00
0 9 7 1 o 1292.707 1238.813 180.00 1.00484 0.02
5 2 8 1 o 8996.796 8558.954 0.00 1.00456 0.21
1 4 9 2 o 42.900 41.701 0.00 1.00698 0.00
9 2 3 1 o 35646.03 34817.758 0.00 1.00427 0.81
4 12 1 1 o 3205.329 3061.539 0.00 1.00445 0.09
3 8 7 1 o 7988.823 7926.357 0.00 1.00417 0.19
5 11 2 1 o 10101.644 9929.288 0.00 1.00422 0.27
2 13 0 1 o 29221.082 28615.205 0.00 1.00425 0.42
6 10 2 1 o 6790.477 6903.935 180.00 1.00403 0.17
7 9 1 1 o 9156.045 9661.326 0.00 1.00389 0.27
3 1 9 2 o 9450.538 10471.342 0.00 1.00606 0.11
8 6 3 2 o 984.765 1099.689 0.00 1.00585 0.01
1 12 4 1 o 2871.391 3238.091 0.00 1.00305 0.07
0 9 7 2 o 1139.174 1238.813 180.00 1.00484 0.01
5 2 8 2 o 7861.938 8558.954 0.00 1.00456 0.09
2 11 5 1 o 7412.616 8054.946 0.00 1.00226 0.19
9 2 3 2 o 31811.297 34817.758 0.00 1.00427 0.35
4 12 1 2 o 2793.766 3061.539 0.00 1.00445 0.04
3 8 7 2 o 7253.482 7926.357 0.00 1.00417 0.08
5 11 2 2 o 9042.760 9929.288 0.00 1.00422 0.12
5 9 5 1 o 3076.610 3306.821 180.00 1.00165 0.06
2 13 0 2 o 26081.057 28615.205 0.00 1.00425 0.18
6 10 2 2 o 6306.787 6903.935 180.00 1.00403 0.08
7 9 1 2 o 8738.318 9661.326 0.00 1.00389 0.13
2 10 6 1 o 1942.833 2101.192 180.00 1.00106 0.05
3 6 8 1 o 37866.47 41348.79 180.00 1.00072 0.88
1 12 4 2 o 2922.409 3238.091 0.00 1.00305 0.04
2 11 5 2 o 7004.479 8054.946 0.00 1.00226 0.09
1 9 7 1 o 5534.176 6012.535 180.00 0.99943 0.14
5 9 5 2 o 3224.742 3306.821 180.00 1.00165 0.03
7 6 5 1 o 612.961 608.936 0.00 0.99895 0.02
8 5 4 1 o 6417.173 6405.930 0.00 0.99841 0.13
2 13 1 1 o 15686.021 15401.645 0.00 0.99875 0.45
2 10 6 2 o 2135.919 2101.192 180.00 1.00106 0.03
3 6 8 2 o 40806.47 41348.79 180.00 1.00072 0.48
1 13 2 1 o 11367.001 11279.872 180.00 0.99848 0.31
3 12 3 1 o 15506.228 15629.648 0.00 0.99831 0.45
9 4 2 1 o 31.400 33.147 0.00 0.99790 0.00
3 2 9 1 o 158.221 193.593 180.00 0.99760 0.01
5 10 4 1 o 12473.212 13624.127 0.00 0.99754 0.32
1 9 7 2 o 5739.482 6012.535 180.00 0.99943 0.08
5 6 7 1 o 28695.236 29799.971 180.00 0.99675 0.71
8 7 2 1 o 1066.971 1122.606 0.00 0.99667 0.04
4 10 5 1 o 293.272 302.873 0.00 0.99671 0.01
7 6 5 2 o 585.026 608.936 0.00 0.99895 0.01
8 5 4 2 o 6348.675 6405.930 0.00 0.99841 0.07
2 13 1 2 o 14998.758 15401.645 0.00 0.99875 0.21
1 13 2 2 o 11135.311 11279.872 180.00 0.99848 0.15
3 12 3 2 o 15552.742 15629.648 0.00 0.99831 0.22
9 4 2 2 o 34.834 33.147 0.00 0.99790 0.00
3 2 9 2 o 227.099 193.593 180.00 0.99760 0.01
7 4 6 1 o 59501.71 56306.84 180.00 0.99498 1.38
5 10 4 2 o 14634.553 13624.127 0.00 0.99754 0.20
5 6 7 2 o 28038.313 29799.971 180.00 0.99675 0.34
8 3 5 1 o 7183.883 7724.193 0.00 0.99415 0.16
8 7 2 2 o 1019.229 1122.606 0.00 0.99667 0.02
4 10 5 2 o 286.459 302.873 0.00 0.99671 0.00
4 5 8 1 o 690.145 744.454 0.00 0.99402 0.01
6 4 7 1 o 106.472 122.124 180.00 0.99380 0.00
7 4 6 2 o 60184.26 56306.84 180.00 0.99498 0.70
8 3 5 2 o 7742.609 7724.193 0.00 0.99415 0.09
6 9 4 1 o 24393.648 23971.574 180.00 0.99183 0.59
4 5 8 2 o 738.759 744.454 0.00 0.99402 0.01
6 4 7 2 o 120.256 122.124 180.00 0.99380 0.00
2 7 8 1 o 185.617 186.378 180.00 0.99122 0.01
2 4 9 1 o 11142.012 10658.653 0.00 0.99091 0.27
5 3 8 1 o 2991.921 2791.559 0.00 0.99063 0.07
9 3 3 1 o 3867.492 3672.133 180.00 0.99035 0.08
6 8 5 1 o 26457.611 24828.994 180.00 0.99038 0.66
4 9 6 1 o 111.739 111.146 0.00 0.99003 0.00
5 8 6 1 o 15957.960 16650.174 0.00 0.98939 0.38
6 9 4 2 o 22995.230 23971.574 180.00 0.99183 0.27
9 5 1 1 o 3209.318 3472.423 180.00 0.98922 0.09
2 7 8 2 o 166.475 186.378 180.00 0.99122 0.00
2 4 9 2 o 9861.137 10658.653 0.00 0.99091 0.11
5 3 8 2 o 2600.621 2791.559 0.00 0.99063 0.03
9 3 3 2 o 3423.068 3672.133 180.00 0.99035 0.03
4 12 2 1 o 16534.207 17923.922 0.00 0.98823 0.47
6 8 5 2 o 22876.744 24828.994 180.00 0.99038 0.27
7 9 2 1 o 2936.201 3189.479 0.00 0.98769 0.07
4 9 6 2 o 107.582 111.146 0.00 0.99003 0.00
0 5 9 1 o 1469.026 1625.349 180.00 0.98727 0.02
4 11 4 1 o 8.111 18.097 0.00 0.98721 0.00
2 12 4 1 o 9960.369 11281.906 180.00 0.98716 0.29
5 8 6 2 o 14702.441 16650.174 0.00 0.98939 0.17
9 5 1 2 o 2965.355 3472.423 180.00 0.98922 0.04
4 12 2 2 o 16055.661 17923.922 0.00 0.98823 0.23
7 9 2 2 o 3037.919 3189.479 0.00 0.98769 0.04
0 5 9 2 o 1681.917 1625.349 180.00 0.98727 0.01
4 11 4 2 o 22.351 18.097 0.00 0.98721 0.00
2 12 4 2 o 11914.317 11281.906 180.00 0.98716 0.18
3 3 9 1 o 16502.555 14372.443 0.00 0.98395 0.37
2 9 7 1 o 1581.853 1445.529 0.00 0.98371 0.04
2 13 2 1 o 2632.313 2347.452 0.00 0.98281 0.08
1 5 9 1 o 11453.416 10217.651 180.00 0.98214 0.28
3 3 9 2 o 13641.505 14372.443 0.00 0.98395 0.14
2 9 7 2 o 1392.729 1445.529 0.00 0.98371 0.02
2 13 2 2 o 2585.710 2347.452 0.00 0.98281 0.04
1 5 9 2 o 10272.380 10217.651 180.00 0.98214 0.12
9 0 4 1 o 9831.391 8865.622 0.00 0.97795 0.12
5 11 3 1 o 770.416 695.827 0.00 0.97763 0.02
6 10 3 1 o 741.185 694.973 180.00 0.97746 0.02
8 8 0 1 o 45897.11 44563.02 0.00 0.97722 0.56
0 13 3 1 o 27516.342 26263.705 180.00 0.97731 0.39
3 11 5 1 o 12568.123 13720.350 0.00 0.97626 0.32
9 0 4 2 o 8765.939 8865.622 0.00 0.97795 0.05
8 4 5 1 o 2536.634 2555.849 0.00 0.97540 0.06
9 1 4 1 o 3710.397 3741.120 0.00 0.97533 0.08
5 11 3 2 o 685.270 695.827 0.00 0.97763 0.01
3 10 6 1 o 1225.373 1248.729 0.00 0.97514 0.03
6 10 3 2 o 678.653 694.973 180.00 0.97746 0.01
8 8 0 2 o 42665.30 44563.02 0.00 0.97722 0.26
0 13 3 2 o 25270.559 26263.705 180.00 0.97731 0.18
9 5 2 1 o 39282.50 38165.15 180.00 0.97371 0.92
3 11 5 2 o 14195.006 13720.350 0.00 0.97626 0.19
6 7 6 1 o 1002.478 971.920 0.00 0.97330 0.04
8 4 5 2 o 2773.245 2555.849 0.00 0.97540 0.03
9 1 4 2 o 4107.998 3741.120 0.00 0.97533 0.05
3 13 1 1 o 4320.689 4049.890 0.00 0.97301 0.10
3 10 6 2 o 1431.050 1248.729 0.00 0.97514 0.02
8 8 1 1 o 6309.925 5341.850 0.00 0.97216 0.16
5 4 8 1 o 2221.073 1891.616 0.00 0.97207 0.05
1 13 3 1 o 1770.420 1480.061 0.00 0.97233 0.06
9 4 3 1 o 6582.434 5760.200 180.00 0.97180 0.15
0 8 8 1 o 15705.003 13638.595 0.00 0.97175 0.21
9 5 2 2 o 40891.79 38165.15 180.00 0.97371 0.48
7 5 6 1 o 2258.396 2154.000 0.00 0.97099 0.05
6 7 6 2 o 1033.908 971.920 0.00 0.97330 0.02
7 8 4 1 o 13527.697 12992.415 180.00 0.97089 0.33
8 7 3 1 o 27009.402 26406.523 180.00 0.97066 0.64
3 13 1 2 o 4115.771 4049.890 0.00 0.97301 0.05
6 5 7 1 o 603.870 595.495 0.00 0.96990 0.01
4 1 9 1 o 15045.512 14724.438 180.00 0.96981 0.34
8 8 1 2 o 5470.541 5341.850 0.00 0.97216 0.07
5 4 8 2 o 1943.606 1891.616 0.00 0.97207 0.02
1 13 3 2 o 1500.800 1480.061 0.00 0.97233 0.02
9 4 3 2 o 5889.657 5760.200 180.00 0.97180 0.07
0 8 8 2 o 13935.508 13638.595 0.00 0.97175 0.09
8 6 4 1 o 328.843 330.312 180.00 0.96903 0.01
7 5 6 2 o 2136.108 2154.000 0.00 0.97099 0.02
7 8 4 2 o 12920.546 12992.415 180.00 0.97089 0.16
6 11 0 1 o 4963.377 4986.668 180.00 0.96850 0.06
8 7 3 2 o 26693.844 26406.523 180.00 0.97066 0.32
4 8 7 1 o 0.605 0.576 0.00 0.96811 0.00
9 2 4 1 o 4688.622 4639.935 0.00 0.96761 0.11
7 1 7 1 o 38300.17 37945.04 0.00 0.96761 0.82
6 5 7 2 o 594.861 595.495 0.00 0.96990 0.01
4 1 9 2 o 14570.868 14724.438 180.00 0.96981 0.17
2 5 9 1 o 39.492 40.524 180.00 0.96721 0.00
1 8 8 1 o 1730.942 1834.707 0.00 0.96686 0.04
8 6 4 2 o 315.141 330.312 180.00 0.96903 0.00
3 7 8 1 o 35.223 34.521 0.00 0.96605 0.00
6 11 0 2 o 5032.467 4986.668 180.00 0.96850 0.03
3 4 9 1 o 260.751 245.648 180.00 0.96575 0.01
4 8 7 2 o 0.642 0.576 0.00 0.96811 0.00
9 2 4 2 o 4936.375 4639.935 0.00 0.96761 0.06
7 1 7 2 o 40199.26 37945.04 0.00 0.96761 0.44
4 6 8 1 o 4370.230 4102.926 180.00 0.96502 0.10
2 5 9 2 o 43.083 40.524 180.00 0.96721 0.00
10 0 0 1 o 280.424 268.145 0.00 0.96453 0.00
7 7 5 1 o 22635.129 21375.166 0.00 0.96445 0.58
1 8 8 2 o 1945.161 1834.707 0.00 0.96686 0.02
3 7 8 2 o 31.630 34.521 0.00 0.96605 0.00
6 11 1 1 o 22375.125 24445.510 0.00 0.96357 0.57
3 4 9 2 o 215.310 245.648 180.00 0.96575 0.00
4 12 3 1 o 516.654 566.094 180.00 0.96286 0.01
4 6 8 2 o 3847.840 4102.926 180.00 0.96502 0.04
5 7 7 1 o 435.705 456.008 180.00 0.96247 0.01
10 0 0 2 o 269.941 268.145 0.00 0.96453 0.00
7 9 3 1 o 4413.417 4486.203 0.00 0.96237 0.09
4 2 9 1 o 2766.099 2762.467 180.00 0.96222 0.06
10 1 0 1 o 10048.187 9843.411 180.00 0.96202 0.10
7 7 5 2 o 21782.555 21375.166 0.00 0.96445 0.28
3 12 4 1 o 5150.292 5189.691 180.00 0.96228 0.13
8 0 6 1 o 3187.933 3138.275 180.00 0.96156 0.04
6 11 1 2 o 23969.820 24445.510 0.00 0.96357 0.31
9 6 1 1 o 10182.837 10883.670 180.00 0.96062 0.24
1 11 6 1 o 4002.955 4274.990 0.00 0.96069 0.11
4 12 3 2 o 531.400 566.094 180.00 0.96286 0.01
7 2 7 1 o 2016.723 2085.866 180.00 0.96007 0.04
5 7 7 2 o 433.390 456.008 180.00 0.96247 0.01
7 9 3 2 o 4383.901 4486.203 0.00 0.96237 0.04
4 2 9 2 o 2736.069 2762.467 180.00 0.96222 0.03
9 6 1 2 o 10422.296 10883.670 180.00 0.96062 0.13
10 1 0 2 o 9915.839 9843.411 180.00 0.96202 0.05
3 12 4 2 o 5102.639 5189.691 180.00 0.96228 0.07
1 11 6 2 o 4080.141 4274.990 0.00 0.96069 0.05
3 13 2 1 o 6340.457 6608.853 0.00 0.95825 0.17
6 0 8 1 o 2578.437 2564.092 180.00 0.95927 0.03
7 2 7 2 o 2076.521 2085.866 180.00 0.96007 0.02
8 0 6 2 o 3144.734 3138.275 180.00 0.96156 0.02
8 1 6 1 o 8853.856 8926.482 180.00 0.95908 0.23
2 13 3 1 o 6095.871 6178.882 0.00 0.95784 0.17
3 9 7 1 o 15667.980 15754.592 0.00 0.95909 0.37
8 8 2 1 o 13724.069 13515.448 0.00 0.95744 0.33
10 1 1 1 o 31423.609 30662.855 0.00 0.95719 0.73
5 12 1 1 o 9218.582 9530.363 0.00 0.95875 0.23
6 0 8 2 o 2576.561 2564.092 180.00 0.95927 0.01
6 1 8 1 o 15422.781 15594.741 0.00 0.95680 0.38
8 1 6 2 o 8674.677 8926.482 180.00 0.95908 0.11
3 9 7 2 o 15425.729 15754.592 0.00 0.95909 0.18
1 12 5 1 o 180.057 180.929 0.00 0.95680 0.00
0 0 10 1 o 12414.376 13246.445 0.00 0.95635 0.06
5 12 1 2 o 8903.234 9530.363 0.00 0.95875 0.11
3 13 2 2 o 6275.664 6608.853 0.00 0.95825 0.09
9 3 4 1 o 1512.819 1440.749 0.00 0.95515 0.04
2 13 3 2 o 6274.737 6178.882 0.00 0.95784 0.09
8 8 2 2 o 14232.536 13515.448 0.00 0.95744 0.18
10 1 1 2 o 32545.406 30662.855 0.00 0.95719 0.38
10 2 0 1 o 24384.021 23202.602 180.00 0.95461 0.29
6 1 8 2 o 16039.759 15594.741 0.00 0.95680 0.20
1 12 5 2 o 183.134 180.929 0.00 0.95680 0.00
1 6 9 1 o 2402.049 2448.995 0.00 0.95414 0.07
0 0 10 2 o 13064.255 13246.445 0.00 0.95635 0.03
7 10 1 1 o 128.341 129.941 0.00 0.95393 0.00
0 14 0 1 o 79529.20 83503.48 0.00 0.95341 0.55
9 3 4 2 o 1397.522 1440.749 0.00 0.95515 0.02
8 5 5 1 o 983.647 1007.961 180.00 0.95277 0.02
2 8 8 1 o 563.533 551.216 0.00 0.95261 0.02
10 2 0 2 o 25842.629 23202.602 180.00 0.95461 0.16
5 10 5 1 o 4.100 0.803 180.00 0.95201 0.00
8 2 6 1 o 4840.999 4289.745 0.00 0.95173 0.11
1 6 9 2 o 2881.583 2448.995 0.00 0.95414 0.04
1 0 10 1 o 32900.668 29179.203 0.00 0.95168 0.39
7 10 1 2 o 142.502 129.941 0.00 0.95393 0.00
0 14 0 2 o 88467.15 83503.48 0.00 0.95341 0.32
8 5 5 2 o 1070.407 1007.961 180.00 0.95277 0.01
2 8 8 2 o 615.574 551.216 0.00 0.95261 0.01
10 2 1 1 o 12255.757 11537.443 180.00 0.94989 0.28
4 3 9 1 o 34883.813 32548.898 0.00 0.94996 0.82
1 10 7 1 o 192.336 190.146 180.00 0.95011 0.00
5 5 8 1 o 16789.406 16401.168 180.00 0.94967 0.39
6 2 8 1 o 70.086 71.496 0.00 0.94951 0.00
5 10 5 2 o 1.341 0.803 180.00 0.95201 0.00
9 5 3 1 o 618.287 631.503 180.00 0.94942 0.01
8 2 6 2 o 4106.329 4289.745 0.00 0.95173 0.04
1 0 10 2 o 27434.037 29179.203 0.00 0.95168 0.16
1 1 10 1 o 2990.903 3245.866 0.00 0.94927 0.07
6 11 2 1 o 2186.840 2468.715 180.00 0.94922 0.07
7 3 7 1 o 2875.475 2919.867 180.00 0.94789 0.05
10 2 1 2 o 11651.912 11537.443 180.00 0.94989 0.13
4 3 9 2 o 32761.734 32548.898 0.00 0.94996 0.38
1 10 7 2 o 190.005 190.146 180.00 0.95011 0.00
5 5 8 2 o 16865.996 16401.168 180.00 0.94967 0.19
6 2 8 2 o 76.965 71.496 0.00 0.94951 0.00
9 5 3 2 o 654.168 631.503 180.00 0.94942 0.00
6 9 5 1 o 2432.318 2273.857 0.00 0.94705 0.06
1 1 10 2 o 3507.496 3245.866 0.00 0.94927 0.04
6 11 2 2 o 2726.303 2468.715 180.00 0.94922 0.05
0 2 10 1 o 4762.520 4400.398 180.00 0.94668 0.06
2 11 6 1 o 6630.806 6085.077 180.00 0.94670 0.19
9 6 2 1 o 2011.290 1939.334 0.00 0.94641 0.04
5 9 6 1 o 20799.555 21063.361 0.00 0.94619 0.52
10 0 2 1 o 2602.786 2780.534 180.00 0.94549 0.03
7 3 7 2 o 2721.488 2919.867 180.00 0.94789 0.02
6 9 5 2 o 2553.923 2273.857 0.00 0.94705 0.03
4 13 0 1 o 654.798 595.656 0.00 0.94468 0.01
5 12 2 1 o 2850.384 2505.400 0.00 0.94461 0.08
0 2 10 2 o 5097.849 4400.398 180.00 0.94668 0.03
2 11 6 2 o 7111.586 6085.077 180.00 0.94670 0.10
9 6 2 2 o 2217.792 1939.334 0.00 0.94641 0.03
7 6 6 1 o 189.001 162.023 0.00 0.94391 0.00
1 14 1 1 o 2904.712 2403.780 0.00 0.94416 0.11
5 9 6 2 o 24466.107 21063.361 0.00 0.94619 0.32
3 5 9 1 o 8065.446 7036.933 0.00 0.94378 0.18
5 11 4 1 o 1868.558 1601.025 0.00 0.94373 0.05
6 10 4 1 o 22702.158 19527.840 180.00 0.94357 0.60
10 0 2 2 o 3087.954 2780.534 180.00 0.94549 0.02
10 1 2 1 o 2906.287 2551.492 180.00 0.94313 0.08
6 6 7 1 o 90.764 83.855 180.00 0.94290 0.00
4 11 5 1 o 61763.31 56365.49 180.00 0.94303 1.68
2 12 5 1 o 39165.92 36119.85 180.00 0.94298 1.08
10 3 0 1 o 1202.117 1183.287 180.00 0.94264 0.01
1 2 10 1 o 7587.059 7539.466 0.00 0.94215 0.18
4 13 0 2 o 601.081 595.656 0.00 0.94468 0.00
5 12 2 2 o 2531.807 2505.400 0.00 0.94461 0.03
4 10 6 1 o 5548.769 5543.403 180.00 0.94202 0.15
7 6 6 2 o 166.569 162.023 0.00 0.94391 0.00
1 14 1 2 o 2405.108 2403.780 0.00 0.94416 0.05
3 5 9 2 o 7343.030 7036.933 0.00 0.94378 0.08
5 11 4 2 o 1694.016 1601.025 0.00 0.94373 0.02
6 10 4 2 o 21106.762 19527.840 180.00 0.94357 0.27
10 1 2 2 o 2872.664 2551.492 180.00 0.94313 0.04
6 6 7 2 o 92.801 83.855 180.00 0.94290 0.00
4 11 5 2 o 62005.51 56365.49 180.00 0.94303 0.85
2 12 5 2 o 39545.62 36119.85 180.00 0.94298 0.55
10 3 0 2 o 1215.903 1183.287 180.00 0.94264 0.00
2 6 9 1 o 24232.480 22795.732 0.00 0.94043 0.59
8 3 6 1 o 4214.753 4533.224 180.00 0.93986 0.12
7 10 2 1 o 15996.790 16425.389 0.00 0.94001 0.40
4 13 1 1 o 35532.71 35722.36 180.00 0.94010 0.97
1 2 10 2 o 7059.742 7539.466 0.00 0.94215 0.08
4 10 6 2 o 5039.081 5543.403 180.00 0.94202 0.07
1 13 4 1 o 1923.880 2076.195 180.00 0.93895 0.05
9 4 4 1 o 1757.080 1841.486 0.00 0.93848 0.04
10 3 1 1 o 2.215 2.399 180.00 0.93809 0.00
2 0 10 1 o 283.150 285.281 0.00 0.93808 0.00
2 6 9 2 o 22349.637 22795.732 0.00 0.94043 0.27
6 3 8 1 o 6488.017 6627.795 0.00 0.93772 0.17
8 3 6 2 o 4345.718 4533.224 180.00 0.93986 0.06
7 10 2 2 o 16095.336 16425.389 0.00 0.94001 0.20
4 13 1 2 o 35245.44 35722.36 180.00 0.94010 0.48
8 7 4 1 o 1084.558 1148.607 180.00 0.93745 0.04
6 8 6 1 o 785.874 725.977 180.00 0.93667 0.02
2 10 7 1 o 17.416 15.833 180.00 0.93657 0.00
1 13 4 2 o 2231.979 2076.195 180.00 0.93895 0.03
10 2 2 1 o 9441.211 8439.306 180.00 0.93614 0.22
9 4 4 2 o 2046.840 1841.486 0.00 0.93848 0.02
10 3 1 2 o 3.615 2.399 180.00 0.93809 0.00
2 0 10 2 o 299.775 285.281 0.00 0.93808 0.00
2 1 10 1 o 24256.041 21735.404 180.00 0.93577 0.59
8 9 0 1 o 15055.499 13967.912 0.00 0.93553 0.20
6 3 8 2 o 6999.331 6627.795 0.00 0.93772 0.09
8 7 4 2 o 1105.142 1148.607 180.00 0.93745 0.02
2 14 0 1 o 9513.995 9285.501 180.00 0.93531 0.15
3 13 3 1 o 27340.188 28874.703 0.00 0.93507 0.79
0 14 2 1 o 23557.063 25383.113 0.00 0.93501 0.35
6 8 6 2 o 621.219 725.977 180.00 0.93667 0.01
8 8 3 1 o 853.785 954.996 180.00 0.93431 0.02
2 10 7 2 o 13.980 15.833 180.00 0.93657 0.00
10 2 2 2 o 8659.229 8439.306 180.00 0.93614 0.10
4 7 8 1 o 809.781 776.924 180.00 0.93382 0.03
4 4 9 1 o 428.091 413.740 0.00 0.93355 0.01
2 1 10 2 o 22380.764 21735.404 180.00 0.93577 0.27
8 9 0 2 o 13963.720 13967.912 0.00 0.93553 0.09
9 1 5 1 o 1573.290 1669.971 180.00 0.93266 0.02
2 14 0 2 o 9023.396 9285.501 180.00 0.93531 0.07
3 13 3 2 o 26874.594 28874.703 0.00 0.93507 0.39
0 14 2 2 o 23319.162 25383.113 0.00 0.93501 0.18
8 8 3 2 o 906.437 954.996 180.00 0.93431 0.01
7 4 7 1 o 572.190 567.220 0.00 0.93159 0.01
4 7 8 2 o 796.467 776.924 180.00 0.93382 0.01
4 4 9 2 o 431.344 413.740 0.00 0.93355 0.00
8 9 1 1 o 16718.955 15929.566 180.00 0.93109 0.42
1 3 10 1 o 1564.122 1556.153 0.00 0.93063 0.04
2 14 1 1 o 111.471 107.334 180.00 0.93087 0.00
9 1 5 2 o 1617.837 1669.971 180.00 0.93266 0.01
1 14 2 1 o 27641.711 27428.047 0.00 0.93065 0.81
4 12 4 1 o 541.496 554.450 0.00 0.93042 0.01
3 8 8 1 o 25268.977 27375.867 180.00 0.93019 0.60
7 9 4 1 o 533.653 597.847 0.00 0.92997 0.01
9 7 1 1 o 388.790 456.657 0.00 0.92983 0.01
7 4 7 2 o 552.053 567.220 0.00 0.93159 0.01
2 2 10 1 o 42.774 41.504 0.00 0.92895 0.00
8 9 1 2 o 17011.703 15929.566 180.00 0.93109 0.22
7 8 5 1 o 70.011 65.970 180.00 0.92877 0.00
5 1 9 1 o 3304.707 3155.567 180.00 0.92849 0.06
1 3 10 2 o 1617.783 1556.153 0.00 0.93063 0.02
2 14 1 2 o 114.681 107.334 180.00 0.93087 0.00
0 7 9 1 o 34886.980 34385.469 0.00 0.92821 0.42
1 14 2 2 o 28507.816 27428.047 0.00 0.93065 0.42
4 12 4 2 o 554.944 554.450 0.00 0.93042 0.00
3 8 8 2 o 26636.992 27375.867 180.00 0.93019 0.32
7 9 4 2 o 575.338 597.847 0.00 0.92997 0.01
9 7 1 2 o 437.736 456.657 0.00 0.92983 0.01
4 9 7 1 o 1122.169 1156.242 180.00 0.92753 0.03
8 6 5 1 o 6393.430 6302.535 0.00 0.92714 0.16
5 8 7 1 o 16269.660 15904.210 0.00 0.92700 0.39
10 4 0 1 o 40171.64 38958.71 180.00 0.92660 0.47
2 2 10 2 o 42.354 41.504 0.00 0.92895 0.00
6 11 3 1 o 3577.112 3465.569 0.00 0.92667 0.10
4 13 2 1 o 401.595 387.386 0.00 0.92677 0.01
7 8 5 2 o 67.837 65.970 180.00 0.92877 0.00
1 9 8 1 o 11181.051 10830.216 180.00 0.92642 0.28
5 1 9 2 o 3234.082 3155.567 180.00 0.92849 0.03
9 2 5 1 o 1031.395 1026.816 180.00 0.92590 0.02
0 7 9 2 o 34683.406 34385.469 0.00 0.92821 0.21
2 13 4 1 o 18904.990 18854.693 180.00 0.92589 0.54
4 9 7 2 o 1127.876 1156.242 180.00 0.92753 0.01
10 3 2 1 o 2308.691 2158.506 180.00 0.92484 0.07
8 6 5 2 o 6616.058 6302.535 0.00 0.92714 0.08
5 8 7 2 o 17042.115 15904.210 0.00 0.92700 0.21
3 11 6 1 o 1924.153 1783.151 180.00 0.92470 0.05
10 4 0 2 o 43184.18 38958.71 180.00 0.92660 0.26
5 6 8 1 o 22915.006 20615.277 0.00 0.92428 0.58
6 11 3 2 o 3860.111 3465.569 0.00 0.92667 0.05
4 13 2 2 o 436.926 387.386 0.00 0.92677 0.01
9 6 3 1 o 16302.104 15112.188 180.00 0.92405 0.39
1 9 8 2 o 11862.635 10830.216 180.00 0.92642 0.15
8 4 6 1 o 19249.898 18150.900 0.00 0.92397 0.46
1 7 9 1 o 11642.174 11062.969 180.00 0.92394 0.28
9 2 5 2 o 1005.957 1026.816 180.00 0.92590 0.01
2 13 4 2 o 18345.459 18854.693 180.00 0.92589 0.26
10 3 2 2 o 2361.878 2158.506 180.00 0.92484 0.04
10 4 1 1 o 3423.739 3141.811 0.00 0.92228 0.08
3 11 6 2 o 1942.178 1783.151 180.00 0.92470 0.03
5 12 3 1 o 28900.859 26476.959 0.00 0.92238 0.82
5 6 8 2 o 21773.680 20615.277 0.00 0.92428 0.27
6 4 8 1 o 110.253 108.453 0.00 0.92193 0.00
5 2 9 1 o 31.496 31.491 0.00 0.92182 0.00
9 6 3 2 o 15202.546 15112.188 180.00 0.92405 0.18
8 4 6 2 o 17880.764 18150.900 0.00 0.92397 0.21
1 7 9 2 o 10848.436 11062.969 180.00 0.92394 0.13
10 1 3 1 o 1846.770 2141.384 0.00 0.92100 0.04
3 12 5 1 o 755.675 875.161 180.00 0.92123 0.02
10 4 1 2 o 2702.616 3141.811 0.00 0.92228 0.03
5 12 3 2 o 22905.301 26476.959 0.00 0.92238 0.31
6 4 8 2 o 100.863 108.453 0.00 0.92193 0.00
5 2 9 2 o 31.432 31.491 0.00 0.92182 0.00
0 4 10 1 o 12071.889 15619.052 180.00 0.91934 0.11
10 1 3 2 o 1404.288 2141.384 0.00 0.92100 0.01
3 6 9 1 o 65.991 231.990 0.00 0.91885 0.01
3 12 5 2 o 524.402 875.161 180.00 0.92123 0.01
9 5 4 1 o 4594.284 6637.563 180.00 0.91827 0.10
8 9 2 1 o 53.308 61.692 0.00 0.91812 0.00
7 10 3 1 o 734.586 1168.325 0.00 0.91809 0.02
2 3 10 1 o 3848.831 6301.745 180.00 0.91790 0.08
2 14 2 1 o 2497.637 3634.792 180.00 0.91792 0.05
0 4 10 2 o 10353.806 15619.052 180.00 0.91934 0.04
9 7 2 1 o 4.260 5.511 0.00 0.91692 0.00
3 0 10 1 o 306.656 405.233 180.00 0.91665 0.00
3 6 9 2 o 141.783 231.990 0.00 0.91885 0.00
9 5 4 2 o 6562.214 6637.563 180.00 0.91827 0.08
8 9 2 2 o 61.121 61.692 0.00 0.91812 0.00
7 10 3 2 o 1136.388 1168.325 0.00 0.91809 0.02
2 3 10 2 o 6129.371 6301.745 180.00 0.91790 0.08
2 14 2 2 o 3552.182 3634.792 180.00 0.91792 0.04
1 4 10 1 o 1132.678 1114.192 0.00 0.91519 0.03
3 10 7 1 o 6300.297 6200.145 0.00 0.91525 0.20
9 3 5 1 o 9188.280 9027.375 180.00 0.91496 0.24
9 7 2 2 o 5.464 5.511 0.00 0.91692 0.00
7 7 6 1 o 82.075 83.634 180.00 0.91465 0.00
10 2 3 1 o 3677.739 3759.716 0.00 0.91449 0.09
6 12 0 1 o 6254.991 6320.517 180.00 0.91470 0.09
3 1 10 1 o 1562.038 1596.980 180.00 0.91450 0.04
3 0 10 2 o 395.410 405.233 180.00 0.91665 0.00
2 9 8 1 o 8371.354 8925.156 180.00 0.91386 0.19
6 7 7 1 o 1140.686 1279.760 0.00 0.91373 0.03
4 5 9 1 o 1227.003 1398.418 0.00 0.91366 0.03
1 4 10 2 o 1136.895 1114.192 0.00 0.91519 0.01
3 10 7 2 o 6211.382 6200.145 0.00 0.91525 0.10
9 3 5 2 o 9627.975 9027.375 180.00 0.91496 0.13
7 7 6 2 o 89.444 83.634 180.00 0.91465 0.00
10 2 3 2 o 3915.115 3759.716 0.00 0.91449 0.05
6 12 0 2 o 6682.139 6320.517 180.00 0.91470 0.05
3 1 10 2 o 1664.984 1596.980 180.00 0.91450 0.02
0 12 6 1 o 11304.164 10851.989 0.00 0.91216 0.18
7 5 7 1 o 7999.949 7708.772 0.00 0.91182 0.23
2 9 8 2 o 9451.336 8925.156 180.00 0.91386 0.12
6 7 7 2 o 1422.568 1279.760 0.00 0.91373 0.02
2 7 9 1 o 586.259 531.433 0.00 0.91148 0.01
4 5 9 2 o 1585.179 1398.418 0.00 0.91366 0.02
5 3 9 1 o 22058.217 17419.766 180.00 0.91102 0.59
6 12 1 1 o 21337.193 18261.441 180.00 0.91054 0.62
10 4 2 1 o 17962.627 16273.591 180.00 0.90968 0.47
0 12 6 2 o 11949.346 10851.989 0.00 0.91216 0.10
3 14 1 1 o 1352.741 1199.007 0.00 0.90992 0.06
7 5 7 2 o 8590.358 7708.772 0.00 0.91182 0.12
2 7 9 2 o 588.413 531.433 0.00 0.91148 0.01
1 14 3 1 o 691.554 594.092 180.00 0.90937 0.03
5 3 9 2 o 20133.688 17419.766 180.00 0.91102 0.27
3 2 10 1 o 13459.236 12797.209 180.00 0.90813 0.33
6 12 1 2 o 19819.766 18261.441 180.00 0.91054 0.28
1 12 6 1 o 9192.281 8774.966 0.00 0.90811 0.25
10 4 2 2 o 15548.110 16273.591 180.00 0.90968 0.20
3 14 1 2 o 1175.084 1199.007 0.00 0.90992 0.03
10 5 0 1 o 12484.354 13160.829 0.00 0.90714 0.14
0 11 7 1 o 644.407 678.195 180.00 0.90725 0.01
1 14 3 2 o 540.124 594.092 180.00 0.90937 0.01
7 11 1 1 o 9770.104 10174.486 0.00 0.90655 0.25
3 2 10 2 o 11515.709 12797.209 180.00 0.90813 0.14
1 12 6 2 o 7904.797 8774.966 0.00 0.90811 0.10
4 13 3 1 o 1356.972 1549.195 180.00 0.90575 0.04
3 13 4 1 o 427.844 464.336 0.00 0.90527 0.01
10 5 0 2 o 12504.464 13160.829 0.00 0.90714 0.07
0 11 7 2 o 640.876 678.195 180.00 0.90725 0.00
5 11 5 1 o 9719.520 10309.529 180.00 0.90491 0.27
8 5 6 1 o 6666.790 7160.980 0.00 0.90466 0.18
6 10 5 1 o 5153.284 5476.914 180.00 0.90477 0.14
8 8 4 1 o 117.734 125.182 180.00 0.90458 0.00
0 13 5 1 o 27192.980 28951.057 180.00 0.90465 0.37
7 11 1 2 o 9616.274 10174.486 0.00 0.90655 0.12
10 3 3 1 o 18436.039 18634.982 0.00 0.90394 0.45
5 10 6 1 o 549.452 562.144 0.00 0.90402 0.01
4 13 3 2 o 1658.875 1549.195 180.00 0.90575 0.03
10 5 1 1 o 4645.197 4321.171 0.00 0.90308 0.11
1 11 7 1 o 432.634 399.516 0.00 0.90327 0.01
2 4 10 1 o 1120.733 1005.770 0.00 0.90307 0.04
7 0 8 1 o 3000.755 2786.508 0.00 0.90297 0.04
3 13 4 2 o 494.937 464.336 0.00 0.90527 0.01
6 5 8 1 o 14937.877 14261.346 180.00 0.90275 0.39
5 11 5 2 o 10617.218 10309.529 180.00 0.90491 0.15
8 5 6 2 o 6850.441 7160.980 0.00 0.90466 0.09
6 10 5 2 o 5427.667 5476.914 180.00 0.90477 0.08
8 8 4 2 o 118.086 125.182 180.00 0.90458 0.00
0 13 5 2 o 27732.629 28951.057 180.00 0.90465 0.19
5 13 1 1 o 5189.901 5648.869 180.00 0.90232 0.17
8 1 7 1 o 967.672 1133.218 180.00 0.90193 0.02
10 3 3 2 o 15731.759 18634.982 0.00 0.90394 0.18
5 10 6 2 o 478.661 562.144 0.00 0.90402 0.01
4 8 8 1 o 627.066 681.476 180.00 0.90132 0.01
8 1 7 2 o 1243.626 1133.218 180.00 0.90193 0.02
6 9 6 1 o 14834.888 13637.785 180.00 0.89976 0.42
7 1 8 1 o 834.227 896.256 180.00 0.90091 0.02
10 5 1 2 o 4034.202 4321.171 0.00 0.90308 0.05
1 11 7 2 o 364.695 399.516 0.00 0.90327 0.00
2 4 10 2 o 903.920 1005.770 0.00 0.90307 0.02
7 0 8 2 o 2582.227 2786.508 0.00 0.90297 0.02
8 7 5 1 o 49222.48 46407.83 180.00 0.89937 1.28
6 5 8 2 o 13059.497 14261.346 180.00 0.90275 0.17
1 13 5 1 o 8971.308 9682.640 180.00 0.90070 0.26
9 4 5 1 o 453.142 488.472 0.00 0.90027 0.01
4 8 8 2 o 673.119 681.476 180.00 0.90132 0.01
7 1 8 2 o 843.382 896.256 180.00 0.90091 0.01
5 13 1 2 o 5480.895 5648.869 180.00 0.90232 0.09
6 12 2 1 o 4717.478 4699.950 180.00 0.89841 0.12
1 13 5 2 o 9517.341 9682.640 180.00 0.90070 0.14
9 4 5 2 o 539.721 488.472 0.00 0.90027 0.01
3 3 10 1 o 163.026 149.201 180.00 0.89780 0.00
9 8 1 1 o 6245.669 5664.462 0.00 0.89773 0.16
8 9 3 1 o 4930.968 4458.938 180.00 0.89767 0.14
3 14 2 1 o 14639.786 13123.188 0.00 0.89781 0.45
6 11 4 1 o 14545.259 13068.111 0.00 0.89765 0.46
6 9 6 2 o 14829.059 13637.785 180.00 0.89976 0.21
2 14 3 1 o 40.578 37.905 0.00 0.89748 0.00
8 7 5 2 o 46397.70 46407.83 180.00 0.89937 0.60
5 7 8 1 o 17.001 18.297 0.00 0.89676 0.00
9 7 3 1 o 848.436 937.211 180.00 0.89655 0.02
5 4 9 1 o 87.606 94.651 180.00 0.89652 0.00
1 5 10 1 o 5221.906 5757.699 180.00 0.89642 0.13
4 11 6 1 o 1299.605 1471.906 180.00 0.89631 0.05
2 12 6 1 o 105.031 106.492 180.00 0.89627 0.00
6 12 2 2 o 4307.274 4699.950 180.00 0.89841 0.05
8 2 7 1 o 17.118 17.347 0.00 0.89581 0.00
3 3 10 2 o 157.279 149.201 180.00 0.89780 0.00
9 8 1 2 o 6127.036 5664.462 0.00 0.89773 0.08
8 9 3 2 o 4923.761 4458.938 180.00 0.89767 0.07
3 14 2 2 o 13936.440 13123.188 0.00 0.89781 0.21
6 11 4 2 o 14672.965 13068.111 0.00 0.89765 0.24
9 6 4 1 o 6392.475 5612.437 0.00 0.89526 0.17
2 14 3 2 o 43.090 37.905 0.00 0.89748 0.00
7 2 8 1 o 16694.965 14314.016 180.00 0.89482 0.42
8 10 0 1 o 3469.350 2996.894 180.00 0.89471 0.05
10 0 4 1 o 38532.86 35174.71 180.00 0.89448 0.49
5 7 8 2 o 20.524 18.297 0.00 0.89676 0.00
7 11 2 1 o 1833.549 1609.811 180.00 0.89458 0.06
9 7 3 2 o 971.842 937.211 180.00 0.89655 0.01
5 4 9 2 o 96.453 94.651 180.00 0.89652 0.00
1 5 10 2 o 5605.485 5757.699 180.00 0.89642 0.07
4 11 6 2 o 1338.344 1471.906 180.00 0.89631 0.02
3 9 8 1 o 4902.445 5462.242 0.00 0.89402 0.13
2 12 6 2 o 105.136 106.492 180.00 0.89627 0.00
8 2 7 2 o 14.386 17.347 0.00 0.89581 0.00
5 12 4 1 o 3993.123 4685.236 0.00 0.89374 0.11
9 6 4 2 o 5590.532 5612.437 0.00 0.89526 0.07
4 12 5 1 o 3130.031 3220.995 180.00 0.89315 0.09
7 9 5 1 o 9522.652 8997.595 0.00 0.89276 0.29
7 2 8 2 o 15218.789 14314.016 180.00 0.89482 0.19
10 1 4 1 o 15808.950 14771.555 0.00 0.89248 0.42
8 10 0 2 o 3197.555 2996.894 180.00 0.89471 0.02
10 0 4 2 o 36990.71 35174.71 180.00 0.89448 0.24
1 8 9 1 o 115.066 110.746 180.00 0.89243 0.00
7 11 2 2 o 1717.104 1609.811 180.00 0.89458 0.03
3 7 9 1 o 5361.285 5418.852 0.00 0.89179 0.15
3 9 8 2 o 5417.422 5462.242 0.00 0.89402 0.07
2 11 7 1 o 876.459 885.777 0.00 0.89161 0.02
5 12 4 2 o 4651.667 4685.236 0.00 0.89374 0.07
10 5 2 1 o 2194.611 2183.358 0.00 0.89124 0.06
5 9 7 1 o 16978.297 16922.061 180.00 0.89118 0.49
4 6 9 1 o 1680.955 1697.957 0.00 0.89098 0.04
4 12 5 2 o 3180.024 3220.995 180.00 0.89315 0.05
8 10 1 1 o 995.824 1020.533 0.00 0.89082 0.03
7 9 5 2 o 8563.915 8997.595 0.00 0.89276 0.13
10 1 4 2 o 13909.062 14771.555 0.00 0.89248 0.18
0 10 8 1 o 6135.274 6404.593 180.00 0.89050 0.08
5 13 2 1 o 12858.727 13457.952 0.00 0.89051 0.37
1 8 9 2 o 106.951 110.746 180.00 0.89243 0.00
10 4 3 1 o 810.811 873.492 180.00 0.88977 0.02
7 10 4 1 o 27.800 29.541 0.00 0.88984 0.00
