#------------------------------------------------------------------------------
#$Date: 2016-03-21 01:21:50 +0200 (Mon, 21 Mar 2016) $
#$Revision: 178377 $
#$URL: svn://www.crystallography.net/cod/cif/4/00/11/4001192.cif $
#------------------------------------------------------------------------------
#
# This file is available in the Crystallography Open Database (COD),
# http://www.crystallography.net/
#
# All data on this site have been placed in the public domain by the
# contributors.
#
data_4001192
loop_
_publ_author_name
'Zhou, Yongkai'
'Adams, Stefan'
'Rao, R. Prasada'
'Edwards, Doreen D.'
'Neiman, Arkady'
'Pestereva, N.'
_publ_section_title
;
 Charge Transport by Polyatomic Anion Diffusion in Sc2(WO4)3
;
_journal_issue                   20
_journal_name_full               'Chemistry of Materials'
_journal_page_first              6335
_journal_paper_doi               10.1021/cm800466y
_journal_volume                  20
_journal_year                    2008
_chemical_formula_moiety         ' Sc2(WO4)3 '
_chemical_formula_sum            'O12 Sc2 W3'
_chemical_formula_weight         833.45
_chemical_melting_point          1913
_chemical_name_common            ' Scandium Tungstate '
_chemical_name_systematic        ' Scandium Tungstate '
_space_group_IT_number           60
_symmetry_cell_setting           orthorhombic
_symmetry_space_group_name_Hall  '-P 2a 2n'
_symmetry_space_group_name_H-M   'P n c a'
_audit_creation_date             2008-01-25T12:03
_audit_creation_method           'from EXP file using GSAS2CIF'
_audit_update_record
' 2008-01-25T12:03  Initial CIF as created by GSAS2CIF'
_cell_angle_alpha                90.0
_cell_angle_beta                 90.0
_cell_angle_gamma                90.0
_cell_formula_units_Z            4
_cell_length_a                   9.65542(5)
_cell_length_b                   13.34124(7)
_cell_length_c                   9.57000(5)
_cell_measurement_temperature    500
_cell_volume                     1232.762(11)
_computing_structure_refinement  GSAS
_diffrn_radiation_polarisn_ratio 0.68
_diffrn_radiation_probe          x-ray
_exptl_absorpt_correction_T_max  1.00000
_exptl_absorpt_correction_T_min  1.00000
_exptl_absorpt_process_details
;   GSAS Absorption/surface roughness correction: function number 0
 No correction is applied.
;
_pd_block_id
2008-01-25T12:03|T11K|Zhou_Yongkai|Philips_Xpert
_pd_calc_method                  'Rietveld Refinement'
_pd_instr_location               ' ?'
_pd_meas_2theta_range_inc        0.017
_pd_meas_2theta_range_max        119.9874
_pd_meas_2theta_range_min        10.0144
_pd_meas_number_of_points        6470
_pd_proc_2theta_range_inc        0.017
_pd_proc_2theta_range_max        119.9874
_pd_proc_2theta_range_min        10.0144
_pd_proc_info_datetime           2008-01-25T12:26:49
_pd_proc_info_excluded_regions   ' ?'
_pd_proc_ls_background_function
;   GSAS Background function number 1 with 12 terms.
 Shifted Chebyshev function of 1st kind
      1:    332.555     2:   -48.1990     3:    31.2976     4:    35.6313    
      5:   -8.58892     6:    13.0826     7:   -10.2318     8:    4.89944    
      9:    7.59332    10:   -20.9590    11:    20.2971    12:   -7.04175    
;
_pd_proc_ls_peak_cutoff          0.00250
_pd_proc_ls_pref_orient_corr
;   March-Dollase
 AXIS  1 Ratio=   0.95045  h= 0.000  k= 1.000  l= 0.000
 Prefered orientation correction range: Min=   0.92658, Max=   1.16476
;
_pd_proc_ls_profile_function
;
 CW Profile function number 3 with  19 terms
 Pseudovoigt profile coefficients as parameterized in
 P. Thompson, D.E. Cox & J.B. Hastings (1987). J. Appl. Cryst.,20,79-83.
 Asymmetry correction of L.W. Finger, D.E. Cox & A. P. Jephcoat (1994).
 J. Appl. Cryst.,27,892-900.
 Peak tails are ignored  where the intensity is below 0.0025 times the peak
   Aniso. broadening axis   0.0   0.0   1.0
;
_pd_proc_ls_prof_R_factor        0.0486
_pd_proc_ls_prof_wR_expected     0.0356
_pd_proc_ls_prof_wR_factor       0.0644
_pd_proc_number_of_points        6470
_pd_spec_mounting                ' ?'
_refine_ls_goodness_of_fit_all   1.85
_refine_ls_matrix_type           full
_refine_ls_number_parameters     51
_refine_ls_number_restraints     0
_refine_ls_R_Fsqd_factor         0.04900
_refine_ls_shift/su_max          0.03
_refine_ls_shift/su_mean         0.01
_reflns_d_resolution_high        0.890
_reflns_d_resolution_low         6.671
_reflns_limit_h_max              10
_reflns_limit_h_min              0
_reflns_limit_k_max              15
_reflns_limit_k_min              0
_reflns_limit_l_max              10
_reflns_limit_l_min              0
_reflns_number_total             1836
_cod_data_source_file            cm800466y_si_011.cif
_cod_data_source_block           T500K
_cod_depositor_comments
;
The following automatic conversions were performed:

'_chemical_melting_point' value ' 1913K ' was changed to '1913' - the
value should be numeric and without a unit
designator.

'_geom_bond_publ_flag' value 'N' changed to 'n'
according to /home/saulius/struct/CIF-dictionaries/cif_core.dic
dictionary named 'cif_core.dic' version 2.4.1 from 2010-06-29 (26
times).

'_geom_angle_publ_flag' value 'N' changed to 'n' according
to /home/saulius/struct/CIF-dictionaries/cif_core.dic dictionary
named 'cif_core.dic' version 2.4.1 from 2010-06-29 (33 times).

Automatic conversion script
Id: cif_fix_values 1715 2011-07-08 13:25:40Z adriana 
;
_cod_original_cell_volume        1232.762(14)
_cod_database_code               4001192
#BEGIN Tags that were not found in dictionaries:
_gsas_exptl_extinct_corr_t_min   1.00000
_gsas_exptl_extinct_corr_t_max   1.00000
#END Tags that were not found in dictionaries
loop_
_symmetry_equiv_pos_site_id
_symmetry_equiv_pos_as_xyz
1 +x,+y,+z
2 -x+1/2,+y+1/2,+z+1/2
3 +x,-y+1/2,+z+1/2
4 -x+1/2,-y,+z
-1 -x,-y,-z
-2 +x+1/2,-y+1/2,-z+1/2
-3 -x,+y+1/2,-z+1/2
-4 +x+1/2,+y,-z
loop_
_atom_site_type_symbol
_atom_site_label
_atom_site_fract_x
_atom_site_fract_y
_atom_site_fract_z
_atom_site_occupancy
_atom_site_thermal_displace_type
_atom_site_U_iso_or_equiv
_atom_site_symmetry_multiplicity
Sc Sc1 0.46797(33) 0.38130(22) 0.2485(4) 1.0 Uiso 0.0208(10) 8
W W1 0.25 0.0 0.47211(13) 1.0 Uiso 0.01991(25) 4
W W2 0.11481(10) 0.35625(7) 0.39294(10) 1.0 Uiso 0.01991(25) 8
O O1 0.0909(10) 0.1345(7) 0.0731(10) 1.0 Uiso 0.0327(15) 8
O O2 0.1396(11) 0.0688(7) 0.3683(11) 1.0 Uiso 0.0327(15) 8
O O3 0.0083(11) 0.2646(8) 0.3178(10) 1.0 Uiso 0.0327(15) 8
O O4 0.3329(10) 0.4073(7) 0.0784(10) 1.0 Uiso 0.0327(15) 8
O O5 0.0653(10) 0.4757(8) 0.3235(11) 1.0 Uiso 0.0327(15) 8
O O6 0.2926(11) 0.3420(7) 0.3507(10) 1.0 Uiso 0.0327(15) 8
loop_
_atom_type_symbol
_atom_type_number_in_cell
_atom_type_scat_dispersion_real
_atom_type_scat_dispersion_imag
_atom_type_scat_Cromer_Mann_a1
_atom_type_scat_Cromer_Mann_a2
_atom_type_scat_Cromer_Mann_a3
_atom_type_scat_Cromer_Mann_a4
_atom_type_scat_Cromer_Mann_b1
_atom_type_scat_Cromer_Mann_b2
_atom_type_scat_Cromer_Mann_b3
_atom_type_scat_Cromer_Mann_b4
_atom_type_scat_Cromer_Mann_c
_atom_type_scat_source
Sc 8.0 0.000 0.000 9.18900 9.02130 7.36790 0.57290 1.64090 136.108 1.46800
51.3531 1.33290 International_Tables_Vol_C
W 12.0 0.000 0.000 29.0818 1.72029 15.4300 9.22590 14.4327 0.32170 5.11982
57.0560 9.88750 International_Tables_Vol_C
O 48.0 0.000 0.000 3.04850 13.2771 2.28680 5.70110 1.54630 0.32390 0.86700
32.9089 0.25080 International_Tables_Vol_C
loop_
_diffrn_radiation_wavelength
_diffrn_radiation_wavelength_wt
_diffrn_radiation_type
_diffrn_radiation_wavelength_id
1.540500 1.000 K\a~1~ 1
1.544300 0.000 K\a~2~ 2
loop_
_geom_angle_atom_site_label_1
_geom_angle_atom_site_label_2
_geom_angle_atom_site_label_3
_geom_angle
_geom_angle_site_symmetry_1
_geom_angle_site_symmetry_3
_geom_angle_publ_flag
O1 Sc1 O2 91.1(4) -2_666 -2_666 n
O1 Sc1 O3 92.8(4) -2_666 -2_666 n
O1 Sc1 O4 174.7(4) -2_666 1_555 n
O1 Sc1 O5 84.1(4) -2_666 4_565 n
O1 Sc1 O6 93.1(4) -2_666 1_555 n
O2 Sc1 O3 89.2(4) -2_666 -2_666 n
O2 Sc1 O4 91.4(4) -2_666 1_555 n
O2 Sc1 O5 90.8(4) -2_666 4_565 n
O2 Sc1 O6 174.9(5) -2_666 1_555 n
O3 Sc1 O4 91.9(4) -2_666 1_555 n
O3 Sc1 O5 176.9(4) -2_666 4_565 n
O3 Sc1 O6 93.5(4) -2_666 1_555 n
O4 Sc1 O5 91.1(4) 1_555 4_565 n
O4 Sc1 O6 84.2(4) 1_555 1_555 n
O5 Sc1 O6 86.6(4) 4_565 1_555 n
O2 W1 O2 109.5(7) 1_555 4_555 n
O2 W1 O4 114.8(5) 1_555 2_545 n
O2 W1 O4 103.7(4) 1_555 3_555 n
O2 W1 O4 103.7(4) 4_555 2_545 n
O2 W1 O4 114.8(5) 4_555 3_555 n
O4 W1 O4 110.7(6) 2_545 3_555 n
O1 W2 O3 112.2(5) 3_555 1_555 n
O1 W2 O5 105.6(4) 3_555 1_555 n
O1 W2 O6 111.1(4) 3_555 1_555 n
O3 W2 O5 108.2(5) 1_555 1_555 n
O3 W2 O6 113.6(5) 1_555 1_555 n
O5 W2 O6 105.6(4) 1_555 1_555 n
Sc1 O1 W2 152.9(6) -2_466 3_554 n
Sc1 O2 W1 164.0(6) -2_555 1_555 n
Sc1 O3 W2 152.4(6) -2_466 1_555 n
Sc1 O4 W1 145.7(6) 1_555 2_554 n
Sc1 O5 W2 173.2(6) 4_565 1_555 n
Sc1 O6 W2 153.1(6) 1_555 1_555 n
loop_
_geom_bond_atom_site_label_1
_geom_bond_atom_site_label_2
_geom_bond_distance
_geom_bond_site_symmetry_2
_geom_bond_publ_flag
Sc1 O1 2.090(10) -2_555 n
Sc1 O2 2.107(11) -2_555 n
Sc1 O3 2.084(10) -2_555 n
Sc1 O4 2.115(10) 1_555 n
Sc1 O5 2.063(10) 4_565 n
Sc1 O6 2.024(10) 1_555 n
W1 O2 1.722(10) 1_555 n
W1 O2 1.722(10) 4_555 n
W1 O4 1.790(9) 2_545 n
W1 O4 1.790(9) 3_555 n
W2 O1 1.743(10) 3_555 n
W2 O3 1.752(10) 1_555 n
W2 O5 1.792(10) 1_555 n
W2 O6 1.774(11) 1_555 n
O1 Sc1 2.090(10) -2_455 n
O1 W2 1.743(10) 3_554 n
O2 Sc1 2.107(11) -2_455 n
O2 W1 1.722(10) 1_555 n
O3 Sc1 2.084(10) -2_455 n
O3 W2 1.752(10) 1_555 n
O4 Sc1 2.115(10) 1_555 n
O4 W1 1.790(9) 2_554 n
O5 Sc1 2.063(10) 4_565 n
O5 W2 1.792(10) 1_555 n
O6 Sc1 2.024(10) 1_555 n
O6 W2 1.774(11) 1_555 n
loop_
_pd_meas_counts_total
_pd_proc_ls_weight
_pd_proc_intensity_bkg_calc
_pd_calc_intensity_total
357.0 0.0 661.82330 .
332.0 0.0 658.23944 .
309.0 0.0 654.68323 .
330.0 0.0 651.15399 .
313.0 0.0 647.65155 .
299.0 0.0 644.17670 .
329.0 0.0 640.72821 .
318.0 0.0 637.30627 .
327.0 0.0 633.91138 .
318.0 0.0 630.54211 .
340.0 0.0 627.19958 .
322.0 0.0 623.88300 .
307.0 0.0 620.59241 .
320.0 0.0 617.32776 .
351.0 0.0 614.08875 .
316.0 0.0 610.87537 .
295.0 0.0 607.68732 .
299.0 0.0 604.52429 .
327.0 0.0 601.38696 .
355.0 0.0 598.27466 .
340.0 0.0 595.18701 .
320.0 0.0 592.12421 .
284.0 0.0 589.08594 .
296.0 0.0 586.07239 .
304.0 0.0 583.08337 .
311.0 0.0 580.11847 .
317.0 0.0 577.17773 .
338.0 0.0 574.26086 .
336.0 0.0 571.36792 .
324.0 0.0 568.49915 .
326.0 0.0 565.65350 .
334.0 0.0 562.83154 .
315.0 0.0 560.03284 .
314.0 0.0 557.25781 .
318.0 0.0 554.50580 .
313.0 0.0 551.77661 .
321.0 0.0 549.07043 .
303.0 0.0 546.38678 .
294.0 0.0 543.72601 .
321.0 0.0 541.08801 .
324.0 0.0 538.47205 .
309.0 0.0 535.87860 .
324.0 0.0 533.30695 .
330.0 0.0 530.75775 .
364.0 0.0 528.23059 .
339.0 0.0 525.72498 .
320.0 0.0 523.24109 .
321.0 0.0 520.77856 .
308.0 0.0 518.33795 .
342.0 0.0 515.91852 .
328.0 0.0 513.52032 .
352.0 0.0 511.14316 .
334.0 0.0 508.78690 .
344.0 0.0 506.45160 .
313.0 0.0 504.13718 .
345.0 0.0 501.84348 .
341.0 0.0 499.57019 .
328.0 0.0 497.31711 .
325.0 0.0 495.08466 .
354.0 0.0 492.87253 .
321.0 0.0 490.68036 .
303.0 0.0 488.50787 .
319.0 0.0 486.35538 .
325.0 0.0 484.22281 .
316.0 0.0 482.10999 .
310.0 0.0 480.01666 .
302.0 0.0 477.94250 .
337.0 0.0 475.88770 .
344.0 0.0 473.85223 .
340.0 0.0 471.83603 .
367.0 0.0 469.83875 .
337.0 0.0 467.86014 .
360.0 0.0 465.90042 .
360.0 0.0 463.95938 .
340.0 0.0 462.03711 .
317.0 0.0 460.13318 .
331.0 0.0 458.24744 .
345.0 0.0 456.38016 .
343.0 0.0 454.53091 .
345.0 0.0 452.69971 .
352.0 0.0 450.88669 .
357.0 0.0 449.09131 .
379.0 0.0 447.31357 .
357.0 0.0 445.55362 .
336.0 0.0 443.81125 .
310.0 0.0 442.08633 .
304.0 0.0 440.37866 .
328.0 0.0 438.68820 .
338.0 0.0 437.01486 .
332.0 0.0 435.35873 .
334.0 0.0 433.71942 .
335.0 0.0 432.09695 .
333.0 0.0 430.49112 .
331.0 0.0 428.90210 .
334.0 0.0 427.32956 .
335.0 0.0 425.77362 .
347.0 0.0 424.23370 .
358.0 0.0 422.71017 .
343.0 0.0 421.20291 .
335.0 0.0 419.71164 .
313.0 0.0 418.23642 .
344.0 0.0 416.77686 .
366.0 0.0 415.33319 .
328.0 0.0 413.90533 .
346.0 0.0 412.49292 .
345.0 0.0 411.09607 .
336.0 0.0 409.71451 .
311.0 0.0 408.34836 .
340.0 0.0 406.99750 .
337.0 0.0 405.66162 .
367.0 0.0 404.34088 .
351.0 0.0 403.03500 .
329.0 0.0 401.74393 .
353.0 0.0 400.46780 .
364.0 0.0 399.20627 .
344.0 0.0 397.95929 .
363.0 0.0 396.72678 .
340.0 0.002941 395.50861 395.51871
348.0 0.002874 394.30493 394.31516
337.0 0.002967 393.11536 393.12567
359.0 0.002786 391.94000 391.95038
325.0 0.003077 390.77875 390.78915
354.0 0.002825 389.63129 389.64178
357.0 0.002801 388.49789 388.50842
326.0 0.003067 387.37817 387.38882
349.0 0.002865 386.27219 386.28290
348.0 0.002874 385.17987 385.19064
347.0 0.002882 384.10095 384.11179
334.0 0.002994 383.03552 383.04660
334.0 0.002994 381.98355 381.99451
346.0 0.002890 380.94482 380.95590
336.0 0.002976 379.91931 379.93042
347.0 0.002882 378.90683 378.91809
353.0 0.002833 377.90750 377.91876
355.0 0.002817 376.92114 376.93243
317.0 0.003155 375.94757 375.95889
335.0 0.002985 374.98679 374.99817
345.0 0.002899 374.03864 374.05005
358.0 0.002793 373.10327 373.11478
345.0 0.002899 372.18033 372.19196
349.0 0.002865 371.26996 371.28152
352.0 0.002841 370.37183 370.38354
359.0 0.002786 369.48602 369.49771
355.0 0.002817 368.61249 368.62427
345.0 0.002899 367.75113 367.76294
346.0 0.002890 366.90186 366.91370
373.0 0.002681 366.06439 366.07632
366.0 0.002732 365.23895 365.25082
337.0 0.002967 364.42535 364.43726
346.0 0.002890 363.62347 363.63547
349.0 0.002865 362.83331 362.84531
350.0 0.002857 362.05472 362.06674
369.0 0.002710 361.28751 361.29962
375.0 0.002667 360.53192 360.54404
368.0 0.002717 359.78766 359.79977
373.0 0.002681 359.05472 359.06683
373.0 0.002681 358.33292 358.34506
373.0 0.002681 357.62228 357.63443
359.0 0.002786 356.92276 356.93497
366.0 0.002732 356.23416 356.24640
361.0 0.002770 355.55655 359.92941
404.0 0.002475 354.88977 359.65244
391.0 0.002558 354.23367 361.62946
366.0 0.002732 353.58835 361.71384
377.0 0.002653 352.95364 361.94812
398.0 0.002513 352.32944 362.38235
379.0 0.002639 351.71576 363.10242
383.0 0.002611 351.11249 364.32370
380.0 0.002632 350.51953 366.92261
438.0 0.002283 349.93689 373.45468
460.0 0.002174 349.36447 386.61444
455.0 0.002198 348.80209 406.38217
428.0 0.002336 348.24976 431.73453
467.0 0.002141 347.70749 461.34103
476.0 0.002101 347.17517 494.17062
484.0 0.002066 346.65259 530.08154
561.0 0.001783 346.13980 569.32831
553.0 0.001808 345.63675 612.33148
608.0 0.001645 345.14331 659.69727
629.0 0.001590 344.65945 712.14221
738.0 0.001355 344.18512 770.53937
796.0 0.001256 343.72018 836.14856
856.0 0.001168 343.26462 910.46857
921.0 0.001086 342.81839 995.57843
1027.0 0.000974 342.38138 1094.38220
1189.0 0.000841 341.95355 1210.88916
1379.0 0.000725 341.53482 1351.17432
1680.0 0.000595 341.12509 1524.63391
1971.0 0.000507 340.72437 1747.17798
2507.0 0.000399 340.33261 2049.62817
3079.0 0.0003248 339.94962 2505.99561
3809.0 0.0002625 339.57541 3257.80347
4321.0 0.0002314 339.20990 4074.58008
4044.0 0.0002473 338.85309 3739.18018
2820.0 0.000355 338.50485 2643.80127
1754.0 0.000570 338.16513 1666.36658
949.0 0.001054 337.83386 854.94415
523.0 0.001912 337.51099 540.00549
453.0 0.002208 337.19644 455.08289
428.0 0.002336 336.89026 420.07855
406.0 0.002463 336.59222 399.21793
396.0 0.002525 336.30222 385.37851
423.0 0.002364 336.02045 375.63904
429.0 0.002331 335.74667 368.47507
409.0 0.002445 335.48083 363.01837
373.0 0.002681 335.22296 358.74332
356.0 0.002809 334.97284 355.31519
377.0 0.002653 334.73056 352.51199
371.0 0.002695 334.49603 350.18152
377.0 0.002653 334.26913 348.21573
384.0 0.002604 334.04984 346.53687
371.0 0.002695 333.83810 345.08728
356.0 0.002809 333.63385 343.82346
350.0 0.002857 333.43710 342.71265
386.0 0.002591 333.24762 336.40601
380.0 0.002632 333.06549 335.95193
401.0 0.002494 332.89066 332.90179
401.0 0.002494 332.72293 332.73410
376.0 0.002660 332.56238 332.57346
382.0 0.002618 332.40894 332.42004
345.0 0.002899 332.26251 332.27356
348.0 0.002874 332.12311 332.13406
354.0 0.002825 331.99054 332.00146
363.0 0.002755 331.86490 331.87579
364.0 0.002747 331.74609 331.75693
351.0 0.002849 331.63391 331.64478
362.0 0.002762 331.52859 331.53931
370.0 0.002703 331.42981 331.44052
377.0 0.002653 331.33768 331.34833
374.0 0.002674 331.25201 331.26257
386.0 0.002591 331.17288 331.18338
360.0 0.002778 331.10013 331.11066
375.0 0.002667 331.03378 331.04416
382.0 0.002618 330.97372 330.98410
369.0 0.002710 330.92001 330.93030
351.0 0.002849 330.87247 330.88275
374.0 0.002674 330.83112 330.84125
379.0 0.002639 330.79584 330.80594
387.0 0.002584 330.76657 330.77667
362.0 0.002762 330.74338 337.06989
382.0 0.002618 330.72623 337.56113
359.0 0.002786 330.71478 338.12781
406.0 0.002463 330.70932 342.14410
417.0 0.002398 330.70963 343.19305
398.0 0.002513 330.71576 344.41937
394.0 0.002538 330.72748 345.87039
427.0 0.002342 330.74490 347.61508
450.0 0.002222 330.76794 349.76080
436.0 0.002294 330.79657 352.49506
485.0 0.002062 330.83066 356.32318
468.0 0.002137 330.87018 363.26114
476.0 0.002101 330.91516 378.44540
508.0 0.001969 330.96548 406.13736
509.0 0.001965 331.02112 445.88159
563.0 0.001776 331.08203 496.25912
592.0 0.001689 331.14810 555.47913
643.0 0.001555 331.21945 621.76880
671.0 0.001490 331.29584 694.96216
715.0 0.001399 331.37735 775.83417
817.0 0.001224 331.46384 865.60101
889.0 0.001125 331.55536 965.90344
986.0 0.001014 331.65179 1078.95032
1091.0 0.000917 331.75308 1207.62744
1207.0 0.000829 331.85928 1355.67908
1381.0 0.000724 331.97025 1528.37085
1583.0 0.000632 332.08597 1733.72864
1894.0 0.000528 332.20633 1983.53674
2332.0 0.000429 332.33142 2296.54175
2874.0 0.0003479 332.46121 2706.85718
3673.0 0.0002723 332.59549 3286.36353
4749.0 0.0002106 332.73422 4210.11035
5756.0 0.0001737 332.87753 5589.38623
5915.0 0.0001691 333.02530 6251.30273
4574.0 0.0002186 333.17743 4795.49609
3120.0 0.0003205 333.33395 3401.59644
1868.0 0.000535 333.49478 2002.57483
980.0 0.001020 333.65985 960.87177
603.0 0.001658 333.82913 607.21063
515.0 0.001942 334.00259 505.92560
429.0 0.002331 334.18030 458.34424
409.0 0.002445 334.36194 429.06146
409.0 0.002445 334.54779 409.46646
411.0 0.002433 334.73761 395.65863
418.0 0.002392 334.93137 385.54492
375.0 0.002667 335.12909 377.91055
366.0 0.002732 335.33069 372.00870
368.0 0.002717 335.53619 367.35718
371.0 0.002695 335.74554 363.63358
422.0 0.002370 335.95853 360.61417
374.0 0.002674 336.17529 358.13959
351.0 0.002849 336.39581 356.09381
382.0 0.002618 336.61996 354.39066
432.0 0.002315 336.84769 352.96487
362.0 0.002762 337.07901 351.76657
356.0 0.002809 337.31378 342.36130
361.0 0.002770 337.55222 342.16675
408.0 0.002451 337.79401 337.79974
372.0 0.002688 338.03928 338.04498
360.0 0.002778 338.28781 338.29355
351.0 0.002849 338.53973 338.54538
342.0 0.002924 338.79507 338.80051
372.0 0.002688 339.05359 339.05899
362.0 0.002762 339.31531 339.32071
356.0 0.002809 339.58026 339.58548
381.0 0.002625 339.84833 339.85349
363.0 0.002755 340.11957 340.12466
352.0 0.002841 340.39392 340.39883
369.0 0.002710 340.67130 340.67618
355.0 0.002817 340.95163 340.95639
372.0 0.002688 341.23495 341.23962
354.0 0.002825 341.52124 341.52585
348.0 0.002874 341.81039 341.81494
356.0 0.002809 342.10251 342.10696
360.0 0.002778 342.39731 342.40176
344.0 0.002907 342.69498 342.69934
350.0 0.002857 342.99545 342.99966
358.0 0.002793 343.29865 343.30267
369.0 0.002710 343.60446 343.60849
365.0 0.002740 343.91299 343.91699
349.0 0.002865 344.22412 344.22803
352.0 0.002841 344.53787 344.54163
337.0 0.002967 344.85422 344.85785
332.0 0.003012 345.17307 345.17661
333.0 0.003003 345.49432 345.49780
354.0 0.002825 345.81805 345.82144
361.0 0.002770 346.14420 346.14755
358.0 0.002793 346.47278 346.47610
373.0 0.002681 346.80374 346.80695
367.0 0.002725 347.13702 347.14011
393.0 0.002545 347.47253 347.47559
404.0 0.002475 347.81036 347.81332
395.0 0.002532 348.15039 348.15326
377.0 0.002653 348.49271 348.49548
346.0 0.002890 348.83710 348.83981
339.0 0.002950 349.18369 349.18622
385.0 0.002597 349.53223 349.53482
365.0 0.002740 349.88309 349.88547
366.0 0.002732 350.23584 350.23810
378.0 0.002646 350.59064 350.59290
361.0 0.002770 350.94739 350.94962
349.0 0.002865 351.30612 351.30814
367.0 0.002725 351.66678 351.66873
337.0 0.002967 352.02930 352.03113
367.0 0.002725 352.39368 352.39548
326.0 0.003067 352.75992 352.76163
339.0 0.002950 353.12790 353.12952
328.0 0.003049 353.49771 353.49924
358.0 0.002793 353.86932 353.87073
347.0 0.002882 354.24258 354.24399
347.0 0.002882 354.61749 354.61880
394.0 0.002538 354.99405 354.99527
376.0 0.002660 355.37231 355.37347
355.0 0.002817 355.75223 355.75330
342.0 0.002924 356.13361 356.13452
312.0 0.003205 356.51651 356.51746
347.0 0.002882 356.90103 356.90186
371.0 0.002695 357.28702 357.28772
359.0 0.002786 357.67441 357.67508
335.0 0.002985 358.06335 358.06387
342.0 0.002924 358.45358 358.45404
335.0 0.002985 358.84531 358.84558
360.0 0.002778 359.23828 359.23856
398.0 0.002513 359.63263 359.63284
366.0 0.002732 360.02823 360.02829
344.0 0.002907 360.42520 360.42520
342.0 0.002924 360.82330 360.82327
360.0 0.002778 361.22281 361.22256
368.0 0.002717 361.62338 361.62311
370.0 0.002703 362.02512 362.02484
355.0 0.002817 362.42801 362.42758
344.0 0.002907 362.83209 362.83160
342.0 0.002924 363.23721 363.23657
358.0 0.002793 363.64343 363.64282
358.0 0.002793 364.05066 364.04993
326.0 0.003067 364.45895 364.45813
331.0 0.003021 364.86819 364.86725
336.0 0.002976 365.27844 365.27750
350.0 0.002857 365.68970 365.68857
355.0 0.002817 366.10184 366.10062
320.0 0.003125 366.51483 366.51355
330.0 0.003030 366.92865 366.92740
349.0 0.002865 367.34348 367.34195
334.0 0.002994 367.75906 367.75760
346.0 0.002890 368.17548 368.17386
340.0 0.002941 368.59259 368.59100
345.0 0.002899 369.01050 369.00882
359.0 0.002786 369.42923 369.42743
357.0 0.002801 369.84863 369.84674
377.0 0.002653 370.26871 370.26675
371.0 0.002695 370.68942 370.68735
352.0 0.002841 371.11075 371.10864
332.0 0.003012 371.53284 371.53061
348.0 0.002874 371.95544 371.95316
365.0 0.002740 372.37866 372.37622
368.0 0.002717 372.80246 372.79999
337.0 0.002967 373.22668 373.22418
369.0 0.002710 373.65161 373.64899
351.0 0.002849 374.07693 374.07422
337.0 0.002967 374.50269 374.49991
334.0 0.002994 374.92896 374.92606
315.0 0.003175 375.35562 375.35260
384.0 0.002604 375.78268 375.77966
338.0 0.002959 376.21021 376.20712
362.0 0.002762 376.63806 376.63489
341.0 0.002933 377.06622 377.06299
388.0 0.002577 377.49475 377.49142
345.0 0.002899 377.92368 377.92026
356.0 0.002809 378.35278 378.34930
356.0 0.002809 378.78217 378.77866
375.0 0.002667 379.21179 379.20819
345.0 0.002899 379.64166 379.63794
356.0 0.002809 380.07175 380.06802
344.0 0.002907 380.50214 380.49826
365.0 0.002740 380.93259 380.92862
346.0 0.002890 381.36310 381.35916
337.0 0.002967 381.79385 381.78979
361.0 0.002770 382.22482 382.22061
342.0 0.002924 382.65579 382.65155
344.0 0.002907 383.08679 383.08243
341.0 0.002933 383.51791 383.51352
348.0 0.002874 383.94907 383.94461
358.0 0.002793 384.38025 384.37573
356.0 0.002809 384.81137 384.80679
341.0 0.002933 385.24265 385.23792
345.0 0.002899 385.67380 385.66904
317.0 0.003155 386.10480 386.09998
329.0 0.003040 386.53589 386.53101
348.0 0.002874 386.96689 386.96191
363.0 0.002755 387.39767 387.39264
367.0 0.002725 387.82846 387.82327
339.0 0.002950 388.25906 388.25385
341.0 0.002933 388.68951 388.68427
337.0 0.002967 389.11984 389.11447
341.0 0.002933 389.54996 389.54453
343.0 0.002915 389.97986 389.97433
329.0 0.003040 390.40948 390.40393
330.0 0.003030 390.83902 390.83340
358.0 0.002793 391.26828 391.26254
367.0 0.002725 391.69717 391.69138
358.0 0.002793 392.12589 392.12003
334.0 0.002994 392.55429 392.54831
348.0 0.002874 392.98227 392.97638
349.0 0.002865 393.41010 393.40402
350.0 0.002857 393.83752 393.83136
367.0 0.002725 394.26453 394.25839
361.0 0.002770 394.69119 394.68494
364.0 0.002747 395.11752 395.11115
382.0 0.002618 395.54346 395.53699
386.0 0.002591 395.96887 395.96240
381.0 0.002625 396.39386 396.38736
357.0 0.002801 396.81854 396.81192
363.0 0.002755 397.24268 397.23593
346.0 0.002890 397.66632 397.65958
344.0 0.002907 398.08945 398.08270
355.0 0.002817 398.51215 398.50525
396.0 0.002525 398.93430 398.92731
353.0 0.002833 399.35590 399.34885
359.0 0.002786 399.77695 399.76990
370.0 0.002703 400.19745 400.19037
346.0 0.002890 400.61746 400.61026
341.0 0.002933 401.03674 401.05963
346.0 0.002890 401.45547 401.48056
347.0 0.002882 401.87363 401.91550
349.0 0.002865 402.29120 402.33676
371.0 0.002695 402.70801 402.75793
356.0 0.002809 403.12427 403.17905
418.0 0.002392 403.53979 403.60031
382.0 0.002618 403.95480 404.02167
347.0 0.002882 404.36896 404.44345
340.0 0.002941 404.78241 404.86597
358.0 0.002793 405.19519 406.99356
366.0 0.002732 405.60724 407.54724
355.0 0.002817 406.01859 408.92581
359.0 0.002786 406.42917 409.57904
363.0 0.002755 406.83893 410.26852
341.0 0.002933 407.24783 411.52170
355.0 0.002817 407.65619 412.40091
385.0 0.002597 408.06360 413.42230
366.0 0.002732 408.47021 414.85501
352.0 0.002841 408.87604 416.21414
378.0 0.002646 409.28094 417.76828
379.0 0.002639 409.68512 419.54785
366.0 0.002732 410.08838 421.60590
386.0 0.002591 410.49078 424.04883
401.0 0.002494 410.89227 427.14023
397.0 0.002519 411.29291 431.78604
414.0 0.002415 411.69266 440.11511
465.0 0.002151 412.09146 453.81842
474.0 0.002110 412.48935 472.78473
463.0 0.002160 412.88632 497.09790
486.0 0.002058 413.28232 527.67664
530.0 0.001887 413.67740 565.57489
543.0 0.001842 414.07159 609.36823
591.0 0.001692 414.46466 651.09882
655.0 0.001527 414.85681 696.67010
708.0 0.001412 415.24799 756.69031
783.0 0.001277 415.63812 827.78992
926.0 0.001080 416.02728 917.28931
1069.0 0.000935 416.41537 1036.14441
1230.0 0.000813 416.80249 1199.91870
1460.0 0.000685 417.18854 1448.61072
1828.0 0.000547 417.57355 1821.30518
2052.0 0.000487 417.95749 2083.31836
1738.0 0.000575 418.34033 1779.56396
1431.0 0.000699 418.72211 1470.29468
1340.0 0.000746 419.10281 1352.55713
1087.0 0.000920 419.48245 1116.79541
981.0 0.001019 419.86093 1009.31720
849.0 0.001178 420.23834 940.83307
778.0 0.001285 420.61456 779.83197
714.0 0.001401 420.98965 699.25671
583.0 0.001715 421.36374 619.86621
472.0 0.002119 421.73654 517.38696
453.0 0.002208 422.10818 469.06522
411.0 0.002433 422.47870 453.54837
363.0 0.002755 422.84811 446.67413
386.0 0.002591 423.21622 442.41110
369.0 0.002710 423.58322 439.47815
392.0 0.002551 423.94897 437.40677
378.0 0.002646 424.31360 435.89230
371.0 0.002695 424.67685 434.76727
385.0 0.002597 425.03903 433.92511
407.0 0.002457 425.39996 433.29480
410.0 0.002439 425.75958 432.82690
403.0 0.002481 426.11795 429.98117
426.0 0.002347 426.47522 429.94150
427.0 0.002342 426.83115 428.63245
451.0 0.002217 427.18579 428.80670
438.0 0.002283 427.53915 429.00580
445.0 0.002247 427.89124 442.92935
402.0 0.002488 428.24200 443.41339
424.0 0.002358 428.59158 444.83792
454.0 0.002203 428.93982 452.89200
420.0 0.002381 429.28680 455.15778
487.0 0.002053 429.63232 457.67148
456.0 0.002193 429.97659 460.48068
431.0 0.002320 430.31955 463.64569
474.0 0.002110 430.66119 467.24371
503.0 0.001988 431.00146 471.37598
510.0 0.001961 431.34039 476.17941
519.0 0.001927 431.67795 481.84293
550.0 0.001818 432.01422 488.63901
582.0 0.001718 432.34909 496.97913
604.0 0.001656 432.68256 507.53973
632.0 0.001582 433.01468 521.76147
710.0 0.001408 433.34540 544.51099
765.0 0.001307 433.67474 590.50562
843.0 0.001186 434.00278 679.61731
911.0 0.001098 434.32925 815.39478
1010.0 0.000990 434.65445 992.67987
1198.0 0.000835 434.97821 1215.32312
1404.0 0.000712 435.30054 1484.93079
1673.0 0.000598 435.62143 1800.57007
1972.0 0.000507 435.94089 2168.23389
2339.0 0.000428 436.25900 2601.09644
2894.0 0.0003455 436.57556 3119.47656
3578.0 0.0002795 436.89075 3755.12085
4430.0 0.0002257 437.20453 4561.58838
5652.0 0.0001769 437.51678 5638.80811
7394.0 0.0001352 437.82764 7214.86426
10224.0 0.0000978 438.13696 9726.92969
13015.0 0.0000768 438.44485 12667.40430
11861.0 0.0000843 438.75134 12174.01660
8643.0 0.0001157 439.05624 8445.22363
7036.0 0.0001421 439.35974 6900.84326
5048.0 0.0001981 439.66174 5167.77588
2527.0 0.000396 439.96219 2550.85645
1209.0 0.000827 440.26129 1290.17517
829.0 0.001206 440.55878 916.81897
684.0 0.001462 440.85483 773.09924
617.0 0.001621 441.14929 690.69604
558.0 0.001792 441.44232 636.81049
521.0 0.001919 441.73383 599.36737
505.0 0.001980 442.02377 572.19250
495.0 0.002020 442.31226 551.79663
507.0 0.001972 442.59918 536.07751
483.0 0.002070 442.88458 523.69897
464.0 0.002155 443.16855 513.77704
512.0 0.001953 443.45087 505.70575
488.0 0.002049 443.73169 499.05579
508.0 0.001969 444.01093 493.51752
494.0 0.002024 444.28867 488.86130
488.0 0.002049 444.56485 484.91534
437.0 0.002288 444.83945 459.30594
419.0 0.002387 445.11252 458.23312
434.0 0.002304 445.38409 457.33939
436.0 0.002294 445.65402 445.64133
426.0 0.002347 445.92239 445.90973
467.0 0.002141 446.18924 446.17648
456.0 0.002193 446.45447 446.44171
475.0 0.002105 446.71814 446.70538
471.0 0.002123 446.98022 446.96753
442.0 0.002262 447.24078 447.22806
428.0 0.002336 447.49973 447.48694
460.0 0.002174 447.75708 447.74420
466.0 0.002146 448.01291 448.00003
484.0 0.002066 448.26712 448.25418
462.0 0.002165 448.51965 465.76056
472.0 0.002119 448.77069 467.23895
480.0 0.002083 449.02011 468.85431
440.0 0.002273 449.26791 479.19778
447.0 0.002237 449.51413 481.76743
463.0 0.002160 449.75876 484.62543
461.0 0.002169 450.00174 487.82367
517.0 0.001934 450.24316 491.42764
498.0 0.002008 450.48294 495.51987
503.0 0.001988 450.72113 500.20673
541.0 0.001848 450.95773 505.62677
580.0 0.001724 451.19266 511.96512
591.0 0.001692 451.42603 519.47778
596.0 0.001678 451.65775 528.52869
628.0 0.001592 451.88788 539.66162
668.0 0.001497 452.11639 553.74451
723.0 0.001383 452.34320 572.43378
802.0 0.001247 452.56845 600.73193
880.0 0.001136 452.79202 655.12531
978.0 0.001022 453.01401 764.66217
1211.0 0.000826 453.23444 942.12378
1328.0 0.000753 453.45313 1180.48962
1538.0 0.000650 453.67032 1483.28723
1692.0 0.000591 453.88574 1858.86646
2039.0 0.000490 454.09958 2309.49414
2487.0 0.000402 454.31180 2842.45386
2973.0 0.0003364 454.52234 3477.80664
3628.0 0.0002756 454.73129 4250.99463
4622.0 0.0002164 454.93854 5219.24658
6086.0 0.0001643 455.14426 6486.46533
8313.0 0.0001203 455.34824 8273.70801
11153.0 0.0000897 455.55060 11067.62793
14959.0 0.0000668 455.75134 14950.56738
16723.0 0.0000598 455.95041 16391.55273
12114.0 0.0000825 456.14795 11953.09668
8813.0 0.0001135 456.34369 8967.81055
7871.0 0.0001270 456.53784 7884.28516
4714.0 0.0002121 456.73041 4735.34033
1916.0 0.000522 456.92126 2168.52612
1038.0 0.000963 457.11044 1256.14124
877.0 0.001140 457.29810 970.20099
755.0 0.001325 457.48404 831.45593
690.0 0.001449 457.66840 745.01471
695.0 0.001439 457.85095 686.53210
646.0 0.001548 458.03195 644.86987
608.0 0.001645 458.21140 614.02472
580.0 0.001724 458.38904 590.50714
581.0 0.001721 458.56509 572.12372
559.0 0.001789 458.73950 557.47351
547.0 0.001828 458.91226 545.59741
524.0 0.001908 459.08344 535.83197
586.0 0.001706 459.25287 527.70959
558.0 0.001792 459.42075 520.87732
553.0 0.001808 459.58691 515.08008
547.0 0.001828 459.75137 479.88062
545.0 0.001835 459.91437 478.11880
590.0 0.001695 460.07553 492.52542
568.0 0.001761 460.23520 477.25479
551.0 0.001815 460.39304 478.66797
557.0 0.001795 460.54938 488.05029
585.0 0.001709 460.70407 490.33084
606.0 0.001650 460.85706 492.87155
592.0 0.001689 461.00848 511.68448
587.0 0.001704 461.15817 516.02100
584.0 0.001712 461.30624 520.92206
624.0 0.001603 461.45276 526.50201
641.0 0.001560 461.59753 541.29443
683.0 0.001464 461.74063 549.31555
713.0 0.001403 461.88217 558.66986
740.0 0.001351 462.02209 569.72296
799.0 0.001252 462.16037 582.99280
871.0 0.001148 462.29691 599.24292
925.0 0.001081 462.43192 619.75928
998.0 0.001002 462.56525 647.36438
1080.0 0.000926 462.69693 691.38794
1189.0 0.000841 462.82706 776.00336
1344.0 0.000744 462.95547 926.26660
1528.0 0.000654 463.08224 1144.80811
1844.0 0.000542 463.20746 1426.79333
2050.0 0.000488 463.33096 1825.72998
2433.0 0.000411 463.45288 2277.42383
2897.0 0.0003452 463.57318 2844.40796
3545.0 0.0002821 463.69183 3593.25171
4442.0 0.0002251 463.80884 4527.95654
5622.0 0.0001779 463.92429 5717.84424
7182.0 0.0001392 464.03806 7277.45752
9526.0 0.0001050 464.15030 9454.68750
13385.0 0.0000747 464.26077 12730.06152
17576.0 0.0000569 464.36978 16817.26953
18176.0 0.0000550 464.47699 17806.71875
15048.0 0.0000665 464.58282 14338.85938
14004.0 0.0000714 464.68686 13422.63086
14857.0 0.0000673 464.78943 14274.15918
14554.0 0.0000687 464.89020 13994.90527
15476.0 0.0000646 464.98938 15354.14648
16422.0 0.0000609 465.08716 16202.41211
12222.0 0.0000818 465.18317 12077.97852
8993.0 0.0001112 465.27765 9131.09082
9065.0 0.0001103 465.37048 8717.99805
6981.0 0.0001432 465.46176 6711.74072
4706.0 0.0002125 465.55139 4602.42627
4130.0 0.0002421 465.63940 4274.51563
4592.0 0.0002178 465.72589 4922.33691
5371.0 0.0001862 465.81076 5978.56152
6644.0 0.0001505 465.89401 7348.93359
8024.0 0.0001246 465.97580 9085.61719
10198.0 0.0000981 466.05591 11319.15527
13708.0 0.0000730 466.13437 14315.64746
18557.0 0.0000539 466.21130 18673.90430
25590.0 0.0000391 466.28662 25543.37695
32833.0 0.00003046 466.36044 33831.76563
32647.0 0.00003063 466.43262 33602.65234
23567.0 0.0000424 466.50327 22912.95703
17948.0 0.0000557 466.57233 18256.45508
15578.0 0.0000642 466.63986 16472.68945
10005.0 0.0001000 466.70578 9632.78418
4462.0 0.0002241 466.77017 4200.44873
2171.0 0.000461 466.83289 2234.24829
1563.0 0.000640 466.89417 1612.90845
1356.0 0.000737 466.95386 1313.07129
1172.0 0.000853 467.01196 1108.74194
1043.0 0.000959 467.06857 980.19116
926.0 0.001080 467.12363 891.24908
842.0 0.001188 467.17706 823.59772
761.0 0.001314 467.22903 772.10541
742.0 0.001348 467.27939 732.02637
723.0 0.001383 467.32825 700.30994
670.0 0.001493 467.37555 678.23492
663.0 0.001508 467.42133 657.88599
676.0 0.001479 467.46558 641.40900
659.0 0.001517 467.50836 628.09650
643.0 0.001555 467.54950 619.21490
672.0 0.001488 467.58917 611.04724
690.0 0.001449 467.62735 543.62543
649.0 0.001541 467.66400 544.62164
669.0 0.001495 467.69907 547.31934
696.0 0.001437 467.73270 521.02777
697.0 0.001435 467.76471 532.33832
712.0 0.001404 467.79538 552.65625
795.0 0.001258 467.82434 592.84784
851.0 0.001175 467.85199 659.49231
910.0 0.001099 467.87808 750.29999
1009.0 0.000991 467.90262 865.91339
1117.0 0.000895 467.92572 1012.24017
1202.0 0.000832 467.94730 1193.84290
1422.0 0.000703 467.96747 1416.29797
1625.0 0.000615 467.98608 1693.88086
1988.0 0.000503 468.00320 2054.67285
2513.0 0.000398 468.01889 2543.83838
3431.0 0.0002915 468.03311 3253.39331
4550.0 0.0002198 468.04578 4348.21045
5601.0 0.0001785 468.05704 5610.68848
5445.0 0.0001837 468.06693 5539.54053
3973.0 0.0002517 468.07520 4124.08643
3481.0 0.0002873 468.08206 3688.41357
3570.0 0.0002801 468.08749 3697.07446
2959.0 0.0003380 468.09143 3018.14844
2555.0 0.000391 468.09399 2617.44385
2834.0 0.000353 468.09503 2949.31128
3500.0 0.0002857 468.09457 3543.26611
3222.0 0.0003104 468.09277 3320.38892
2255.0 0.000443 468.08960 2373.54346
1921.0 0.000521 468.08490 2033.16406
1714.0 0.000583 468.07880 1896.97498
1242.0 0.000805 468.07120 1309.02576
828.0 0.001208 468.06232 833.75220
703.0 0.001422 468.05194 658.29468
607.0 0.001647 468.04007 598.88495
617.0 0.001621 468.02692 568.35602
595.0 0.001681 468.01224 548.51111
602.0 0.001661 467.99625 534.52856
570.0 0.001754 467.97885 524.18884
535.0 0.001869 467.96005 516.25439
572.0 0.001748 467.93982 500.23962
592.0 0.001689 467.91821 495.99442
550.0 0.001818 467.89526 492.55267
497.0 0.002012 467.87082 489.71848
498.0 0.002008 467.84506 482.75842
509.0 0.001965 467.81793 481.12512
525.0 0.001905 467.78940 479.74008
518.0 0.001931 467.75949 478.55319
522.0 0.001916 467.72830 471.70926
540.0 0.001852 467.69571 471.29382
554.0 0.001805 467.66171 470.92996
512.0 0.001953 467.62637 470.60828
509.0 0.001965 467.58975 467.57785
513.0 0.001949 467.55170 467.53992
519.0 0.001927 467.51236 467.50052
529.0 0.001890 467.47171 478.45737
506.0 0.001976 467.42966 479.18469
502.0 0.001992 467.38629 479.99561
503.0 0.001988 467.34152 480.90265
500.0 0.002000 467.29556 487.57794
545.0 0.001835 467.24829 489.13126
539.0 0.001855 467.19952 490.88501
530.0 0.001887 467.14960 492.87601
517.0 0.001934 467.09830 495.14792
493.0 0.002028 467.04572 497.75916
558.0 0.001792 466.99185 500.78098
567.0 0.001764 466.93668 504.30893
555.0 0.001802 466.88019 508.46844
546.0 0.001832 466.82245 513.42511
610.0 0.001639 466.76343 519.41730
609.0 0.001642 466.70309 526.77948
670.0 0.001493 466.64148 536.02582
660.0 0.001515 466.57855 547.98816
713.0 0.001403 466.51443 564.30847
799.0 0.001252 466.44901 590.03607
826.0 0.001211 466.38232 640.16754
954.0 0.001048 466.31442 737.64331
1017.0 0.000983 466.24524 890.78552
1225.0 0.000816 466.17477 1095.12769
1513.0 0.000661 466.10306 1358.25745
1736.0 0.000576 466.03015 1693.09473
2113.0 0.000473 465.95605 2111.97876
2585.0 0.000387 465.88062 2631.30859
3101.0 0.0003225 465.80399 3290.17432
4061.0 0.0002462 465.72617 4168.49219
5658.0 0.0001767 465.64709 5440.15527
7693.0 0.0001300 465.56677 7410.83984
9910.0 0.0001009 465.48532 9697.64551
9673.0 0.0001034 465.40265 9510.47656
6923.0 0.0001444 465.31873 6501.59570
5314.0 0.0001882 465.23364 5214.84082
5053.0 0.0001979 465.14731 5096.60986
3771.0 0.0002652 465.05981 3576.44653
1904.0 0.000525 464.97116 1809.41296
1065.0 0.000939 464.88129 1058.54810
816.0 0.001225 464.79031 845.89752
713.0 0.001403 464.69809 745.24432
668.0 0.001497 464.60468 685.74023
657.0 0.001522 464.51013 646.80945
638.0 0.001567 464.41431 631.68280
626.0 0.001597 464.31760 613.68799
598.0 0.001672 464.21954 601.24316
590.0 0.001695 464.12030 592.79126
588.0 0.001701 464.02005 587.48364
568.0 0.001761 463.91864 584.79175
592.0 0.001689 463.81604 584.36407
617.0 0.001621 463.71225 586.08716
638.0 0.001567 463.60742 589.97955
681.0 0.001468 463.50150 596.20294
677.0 0.001477 463.39441 605.10168
711.0 0.001406 463.28619 599.29175
771.0 0.001297 463.17694 617.04559
859.0 0.001164 463.06650 640.37372
932.0 0.001073 462.95499 662.88171
1037.0 0.000964 462.84235 712.36664
1189.0 0.000841 462.72867 804.74701
1378.0 0.000726 462.61389 989.23596
1639.0 0.000610 462.49799 1292.32751
1954.0 0.000512 462.38104 1711.63379
2327.0 0.000430 462.26297 2251.29517
2844.0 0.000352 462.14389 2940.77905
3519.0 0.0002842 462.02380 3814.23462
4385.0 0.0002281 461.90253 4912.21484
5860.0 0.0001706 461.78030 6320.11816
8244.0 0.0001213 461.65692 8218.32910
11346.0 0.0000881 461.53256 11011.48438
16023.0 0.0000624 461.40714 15282.06348
20502.0 0.0000488 461.28070 19596.79688
18412.0 0.0000543 461.15320 17818.86523
12120.0 0.0000825 461.02469 11811.19141
10241.0 0.0000976 460.89505 9908.03613
10181.0 0.0000982 460.76456 9758.13867
6635.0 0.0001507 460.63297 6541.86230
2986.0 0.0003349 460.50040 3097.17651
1411.0 0.000709 460.36682 1659.28223
1037.0 0.000964 460.23218 1197.05090
895.0 0.001117 460.09653 994.43488
793.0 0.001261 459.95990 869.84790
739.0 0.001353 459.82230 780.09924
683.0 0.001464 459.68378 717.13141
593.0 0.001686 459.54425 672.67639
597.0 0.001675 459.40369 639.49768
551.0 0.001815 459.26218 613.70691
571.0 0.001751 459.11969 593.17664
536.0 0.001866 458.97632 576.51538
553.0 0.001808 458.83191 562.79065
548.0 0.001825 458.68658 551.32849
540.0 0.001852 458.54025 541.64386
507.0 0.001972 458.39307 533.38293
520.0 0.001923 458.24481 486.52063
481.0 0.002079 458.09579 483.61914
486.0 0.002058 457.94574 481.10178
467.0 0.002141 457.79471 478.89920
452.0 0.002212 457.64288 457.79385
479.0 0.002088 457.49005 457.62576
499.0 0.002004 457.33636 457.38168
486.0 0.002058 457.18173 457.22202
486.0 0.002058 457.02621 457.06204
484.0 0.002066 456.86975 456.86108
470.0 0.002128 456.71243 456.70374
464.0 0.002155 456.55423 456.54562
489.0 0.002045 456.39520 456.38657
487.0 0.002053 456.23514 456.22659
452.0 0.002212 456.07440 456.06580
453.0 0.002208 455.91266 455.90414
456.0 0.002193 455.75006 455.74161
455.0 0.002198 455.58664 455.57816
457.0 0.002188 455.42224 455.41385
446.0 0.002242 455.25714 455.24875
443.0 0.002257 455.09116 455.08282
451.0 0.002217 454.92422 454.91592
452.0 0.002212 454.75662 454.74832
454.0 0.002203 454.58810 454.57980
452.0 0.002212 454.41867 454.41052
466.0 0.002146 454.24850 454.24036
449.0 0.002227 454.07755 454.06940
461.0 0.002169 453.90573 453.89764
451.0 0.002217 453.73306 453.72501
474.0 0.002110 453.55969 453.55164
464.0 0.002155 453.38544 453.37735
468.0 0.002137 453.21039 453.20245
466.0 0.002146 453.03458 453.02673
466.0 0.002146 452.85788 452.85001
410.0 0.002439 452.68057 452.67267
437.0 0.002288 452.50232 452.49457
447.0 0.002237 452.32343 452.31564
440.0 0.002273 452.14374 452.13593
473.0 0.002114 451.96317 451.95544
470.0 0.002128 451.78195 451.77429
472.0 0.002119 451.59988 451.59229
450.0 0.002222 451.41718 451.40952
483.0 0.002070 451.23376 459.29962
471.0 0.002123 451.04935 459.67740
433.0 0.002309 450.86441 460.11569
439.0 0.002278 450.67868 460.62405
463.0 0.002160 450.49225 465.26901
454.0 0.002203 450.30515 466.23709
479.0 0.002088 450.11716 467.34811
435.0 0.002299 449.92856 468.62671
461.0 0.002169 449.73923 470.10486
476.0 0.002101 449.54926 471.82111
459.0 0.002179 449.35855 473.82556
470.0 0.002128 449.16705 476.18231
492.0 0.002033 448.97495 478.97269
492.0 0.002033 448.78210 482.30927
509.0 0.001965 448.58865 486.34033
505.0 0.001980 448.39447 491.27792
517.0 0.001934 448.19965 497.42902
543.0 0.001842 448.00412 505.25214
580.0 0.001724 447.80792 515.50916
646.0 0.001548 447.61108 529.70905
691.0 0.001447 447.41367 552.35553
734.0 0.001362 447.21542 596.29718
815.0 0.001227 447.01663 680.98761
960.0 0.001042 446.81717 814.02509
1115.0 0.000897 446.61713 993.81097
1245.0 0.000803 446.41647 1227.21497
1531.0 0.000653 446.21506 1528.83948
1876.0 0.000533 446.01309 1917.85083
2379.0 0.000420 445.81052 2425.68530
3165.0 0.0003160 445.60730 3118.19019
4429.0 0.0002258 445.40356 4148.14453
6396.0 0.0001563 445.19910 5679.93359
7716.0 0.0001296 444.99411 7084.24609
6527.0 0.0001532 444.78842 6250.66113
4425.0 0.0002260 444.58228 4198.80078
3833.0 0.0002609 444.37543 3598.89551
3852.0 0.0002596 444.16809 3705.71802
2920.0 0.0003425 443.96011 2819.95630
1600.0 0.000625 443.75162 1537.28723
908.0 0.001101 443.54248 928.65198
676.0 0.001479 443.33286 731.64832
609.0 0.001642 443.12253 651.78644
556.0 0.001799 442.91174 606.22620
530.0 0.001887 442.70038 576.91614
545.0 0.001835 442.48862 557.27240
549.0 0.001821 442.27609 543.97095
522.0 0.001916 442.06308 535.23413
535.0 0.001869 441.84964 530.14673
530.0 0.001887 441.63553 528.38202
553.0 0.001808 441.42102 530.31653
581.0 0.001721 441.20590 539.86993
590.0 0.001695 440.99023 560.90076
645.0 0.001550 440.77417 605.72760
689.0 0.001451 440.55750 678.71558
787.0 0.001271 440.34039 779.27606
886.0 0.001129 440.12277 909.79382
1046.0 0.000956 439.90460 1080.82959
1291.0 0.000775 439.68600 1304.41125
1648.0 0.000607 439.46698 1600.35693
2125.0 0.000471 439.24734 2012.68091
2865.0 0.0003490 439.02728 2636.89624
3958.0 0.0002527 438.80667 3518.61572
4492.0 0.0002226 438.58572 4071.05005
3515.0 0.0002845 438.36426 3250.07031
2383.0 0.000420 438.14233 2288.90112
2336.0 0.000428 437.91998 2149.97461
2336.0 0.000428 437.69705 2172.82544
1794.0 0.000557 437.47382 1587.59314
997.0 0.001003 437.25009 954.57184
632.0 0.001582 437.02600 686.17236
606.0 0.001650 436.80133 601.68463
547.0 0.001828 436.57626 569.63000
601.0 0.001664 436.35083 560.08234
606.0 0.001650 436.12491 568.44293
577.0 0.001733 435.89865 592.99524
582.0 0.001718 435.67200 630.55804
632.0 0.001582 435.44482 683.77435
675.0 0.001481 435.21735 757.50299
835.0 0.001198 434.98941 857.26434
959.0 0.001043 434.76114 993.72052
1207.0 0.000829 434.53247 1195.37805
1541.0 0.000649 434.30331 1501.20667
1807.0 0.000553 434.07379 1817.81812
1768.0 0.000566 433.84393 1736.74292
1386.0 0.000722 433.61377 1329.16309
1213.0 0.000824 433.38318 1200.77014
1291.0 0.000775 433.15216 1292.06299
1244.0 0.000804 432.92090 1258.36157
1046.0 0.000956 432.68918 1081.64563
939.0 0.001065 432.45718 1050.16150
1121.0 0.000892 432.22479 1170.68921
1413.0 0.000708 431.99197 1406.32397
1751.0 0.000571 431.75894 1784.64551
2106.0 0.000475 431.52560 2215.60132
2064.0 0.000484 431.29187 2192.96191
1623.0 0.000616 431.05774 1604.05713
1270.0 0.000787 430.82336 1303.29895
1261.0 0.000793 430.58871 1333.59277
1169.0 0.000855 430.35364 1247.27441
858.0 0.001166 430.11838 879.25439
602.0 0.001661 429.88269 624.97052
485.0 0.002062 429.64670 531.82886
469.0 0.002132 429.41049 498.66925
442.0 0.002262 429.17392 481.37418
428.0 0.002336 428.93716 470.19275
413.0 0.002421 428.70001 462.35367
388.0 0.002577 428.46252 456.57065
392.0 0.002551 428.22491 452.13867
371.0 0.002695 427.98694 448.63300
408.0 0.002451 427.74875 445.79089
384.0 0.002604 427.51028 443.43652
398.0 0.002513 427.27142 441.45071
366.0 0.002732 427.03253 439.75061
378.0 0.002646 426.79321 436.72070
402.0 0.002488 426.55374 435.51724
369.0 0.002710 426.31403 434.45020
401.0 0.002494 426.07391 433.49445
394.0 0.002538 425.83374 431.85684
411.0 0.002433 425.59323 431.11633
373.0 0.002681 425.35257 430.43610
403.0 0.002481 425.11157 429.80649
400.0 0.002500 424.87039 429.21979
374.0 0.002674 424.62915 428.67020
375.0 0.002667 424.38745 428.15204
408.0 0.002451 424.14569 425.53537
393.0 0.002545 423.90372 425.19727
402.0 0.002488 423.66150 424.86841
374.0 0.002674 423.41910 424.54803
411.0 0.002433 423.17645 423.17310
425.0 0.002353 422.93375 422.93039
377.0 0.002653 422.69073 422.68738
401.0 0.002494 422.44751 422.44421
404.0 0.002475 422.20428 422.20093
394.0 0.002538 421.96072 421.95743
375.0 0.002667 421.71704 421.71384
422.0 0.002370 421.47318 421.47003
417.0 0.002398 421.22910 421.22598
389.0 0.002571 420.98499 420.98184
408.0 0.002451 420.74063 420.73749
439.0 0.002278 420.49622 420.49310
396.0 0.002525 420.25156 420.24847
380.0 0.002632 420.00671 420.00372
421.0 0.002375 419.76187 419.75888
411.0 0.002433 419.51672 419.51382
398.0 0.002513 419.27164 419.26871
398.0 0.002513 419.02634 419.02341
416.0 0.002404 418.78076 418.77795
434.0 0.002304 418.53531 418.53244
421.0 0.002375 418.28955 418.28674
400.0 0.002500 418.04382 418.04108
402.0 0.002488 417.79788 424.39410
386.0 0.002591 417.55188 424.60181
378.0 0.002646 417.30576 424.85818
401.0 0.002494 417.05951 425.17062
410.0 0.002439 416.81320 433.25101
387.0 0.002584 416.56680 434.22900
390.0 0.002564 416.32028 435.35159
402.0 0.002488 416.07373 436.64188
404.0 0.002475 415.82706 440.31860
424.0 0.002358 415.58035 444.79404
390.0 0.002564 415.33356 447.13794
392.0 0.002551 415.08664 449.85593
426.0 0.002347 414.83975 453.02438
413.0 0.002421 414.59268 458.02087
417.0 0.002398 414.34561 462.51553
451.0 0.002217 414.09854 467.88550
484.0 0.002066 413.85126 474.38000
499.0 0.002004 413.60406 482.34659
539.0 0.001855 413.35675 492.31232
549.0 0.001821 413.10953 505.09332
576.0 0.001736 412.86218 522.21497
665.0 0.001504 412.61465 547.68707
737.0 0.001357 412.36734 592.67578
810.0 0.001235 412.11987 676.51837
891.0 0.001122 411.87241 809.37659
1108.0 0.000903 411.62497 999.09570
1273.0 0.000786 411.37738 1252.21179
1536.0 0.000651 411.12982 1597.37988
2028.0 0.000493 410.88235 2080.33105
2706.0 0.000370 410.63480 2762.13062
3687.0 0.0002712 410.38730 3749.14209
5337.0 0.0001874 410.13962 5176.03076
6529.0 0.0001532 409.89218 6569.78467
6076.0 0.0001646 409.64459 6367.35303
5029.0 0.0001988 409.39706 5325.53027
5689.0 0.0001758 409.14963 5634.56006
6620.0 0.0001511 408.90207 6783.45947
6558.0 0.0001525 408.65460 6535.16406
4717.0 0.0002120 408.40720 4584.71094
3726.0 0.0002684 408.15979 3672.30859
4127.0 0.0002423 407.91238 3992.90186
4437.0 0.0002254 407.66498 4264.15625
3433.0 0.0002913 407.41772 3275.46851
2030.0 0.000493 407.17032 2057.35132
1579.0 0.000633 406.92325 1612.24292
1502.0 0.000666 406.67603 1605.56848
1432.0 0.000698 406.42886 1454.32654
1041.0 0.000961 406.18176 1021.31012
717.0 0.001395 405.93469 726.97363
592.0 0.001689 405.68777 610.53796
539.0 0.001855 405.44089 562.76062
511.0 0.001957 405.19400 535.32123
488.0 0.002049 404.94730 516.72064
479.0 0.002088 404.70050 503.40881
460.0 0.002174 404.45401 493.67264
467.0 0.002141 404.20743 486.53668
483.0 0.002070 403.96091 481.43164
477.0 0.002096 403.71460 478.03262
452.0 0.002212 403.46829 476.17590
463.0 0.002160 403.22217 475.83963
488.0 0.002049 402.97601 477.14215
507.0 0.001972 402.73001 480.38721
515.0 0.001942 402.48410 486.17764
538.0 0.001859 402.23831 491.64700
588.0 0.001701 401.99271 509.98633
628.0 0.001592 401.74707 547.49561
718.0 0.001393 401.50162 619.48041
792.0 0.001263 401.25626 724.58038
902.0 0.001109 401.01108 881.13519
1055.0 0.000948 400.76605 1086.80005
1297.0 0.000771 400.52103 1356.36719
1681.0 0.000595 400.27609 1728.62390
2239.0 0.000447 400.03149 2272.20068
3104.0 0.0003222 399.78687 3093.81079
4160.0 0.0002404 399.54248 4117.83740
4312.0 0.0002319 399.29819 4406.94287
3093.0 0.0003233 399.05399 3219.06055
2237.0 0.000447 398.80997 2301.16895
2242.0 0.000446 398.56613 2261.14185
2385.0 0.000419 398.32245 2412.10522
1819.0 0.000550 398.07892 1892.89355
1067.0 0.000937 397.83542 1123.09644
674.0 0.001484 397.59229 740.95721
548.0 0.001825 397.34912 613.64868
561.0 0.001783 397.10638 567.31708
538.0 0.001859 396.86359 550.01593
528.0 0.001894 396.62100 554.94647
561.0 0.001783 396.37875 580.46655
636.0 0.001572 396.13647 626.83374
640.0 0.001563 395.89453 692.25336
705.0 0.001418 395.65262 782.56165
841.0 0.001189 395.41095 911.75208
1091.0 0.000917 395.16953 1100.64246
1376.0 0.000727 394.92831 1387.18420
1843.0 0.000543 394.68729 1757.25830
1878.0 0.000532 394.44638 1910.28113
1470.0 0.000680 394.20566 1527.47363
1146.0 0.000873 393.96521 1194.93359
1193.0 0.000838 393.72501 1208.29199
1314.0 0.000761 393.48495 1365.03345
1397.0 0.000716 393.24521 1355.02124
1280.0 0.000781 393.00549 1248.63965
1312.0 0.000762 392.76611 1330.79016
1506.0 0.000664 392.52689 1602.31885
2038.0 0.000491 392.28806 2041.06531
2890.0 0.0003460 392.04932 2720.02808
3953.0 0.0002530 391.81073 3700.44238
4463.0 0.0002241 391.57257 4450.73779
3787.0 0.0002641 391.33447 3764.14111
2575.0 0.000388 391.09665 2531.61743
2205.0 0.000454 390.85916 2160.21851
2338.0 0.000428 390.62173 2353.17847
2170.0 0.000461 390.38477 2231.29248
1437.0 0.000696 390.14795 1456.50317
823.0 0.001215 389.91135 875.12671
593.0 0.001686 389.67508 652.24683
529.0 0.001890 389.43893 580.74353
535.0 0.001869 389.20316 555.51477
550.0 0.001818 388.96756 552.55322
582.0 0.001718 388.73230 557.55713
542.0 0.001845 388.49728 538.67737
462.0 0.002165 388.26248 497.18604
434.0 0.002304 388.02798 474.69138
437.0 0.002288 387.79376 471.60107
423.0 0.002364 387.55991 468.36996
416.0 0.002404 387.32617 448.34192
380.0 0.002632 387.09277 426.09390
403.0 0.002481 386.85971 415.63812
389.0 0.002571 386.62686 410.59875
353.0 0.002833 386.39438 407.34604
337.0 0.002967 386.16217 403.93066
375.0 0.002667 385.93011 401.89133
383.0 0.002611 385.69849 400.15710
378.0 0.002646 385.46707 398.65018
358.0 0.002793 385.23611 397.32123
381.0 0.002625 385.00534 396.13425
366.0 0.002732 384.77481 395.06348
349.0 0.002865 384.54471 388.81381
328.0 0.003049 384.31479 388.24838
358.0 0.002793 384.08530 387.72302
362.0 0.002762 383.85614 387.23138
329.0 0.003040 383.62717 386.76822
372.0 0.002688 383.39856 383.79013
356.0 0.002809 383.17026 383.52750
366.0 0.002732 382.94232 383.26971
365.0 0.002740 382.71469 383.01569
342.0 0.002924 382.48730 382.76508
377.0 0.002653 382.26041 382.51755
355.0 0.002817 382.03372 382.27252
366.0 0.002732 381.80750 382.02982
353.0 0.002833 381.58148 381.66553
383.0 0.002611 381.35580 381.43396
335.0 0.002985 381.13049 381.20340
330.0 0.003030 380.90555 380.97372
347.0 0.002882 380.68097 380.68127
367.0 0.002725 380.45667 380.45700
337.0 0.002967 380.23267 380.23303
356.0 0.002809 380.00916 380.00955
347.0 0.002882 379.78586 379.78622
312.0 0.003205 379.56308 379.56345
353.0 0.002833 379.34055 379.34097
346.0 0.002890 379.11829 379.11874
353.0 0.002833 378.89661 378.89694
353.0 0.002833 378.67511 378.67554
363.0 0.002755 378.45410 378.45450
341.0 0.002933 378.23340 378.23389
359.0 0.002786 378.01300 378.01349
360.0 0.002778 377.79309 377.79352
352.0 0.002841 377.57346 377.57394
338.0 0.002959 377.35428 377.35480
362.0 0.002762 377.13541 377.13589
363.0 0.002755 376.91693 376.91742
349.0 0.002865 376.69888 376.69934
333.0 0.003003 376.48117 376.48163
340.0 0.002941 376.26385 376.26437
353.0 0.002833 376.04688 376.04742
364.0 0.002747 375.83026 375.83081
359.0 0.002786 375.61423 375.61478
347.0 0.002882 375.39841 375.39902
342.0 0.002924 375.18301 375.18362
338.0 0.002959 374.96808 374.96866
342.0 0.002924 374.75348 374.75409
342.0 0.002924 374.53925 374.53992
331.0 0.003021 374.32550 374.32608
357.0 0.002801 374.11215 374.11273
365.0 0.002740 373.89914 373.89978
376.0 0.002660 373.68655 373.68719
364.0 0.002747 373.47440 373.47507
368.0 0.002717 373.26260 373.26331
361.0 0.002770 373.05133 373.05200
384.0 0.002604 372.84039 372.84109
355.0 0.002817 372.62988 372.63049
375.0 0.002667 372.41977 372.42047
363.0 0.002755 372.21008 372.21075
360.0 0.002778 372.00085 372.00156
377.0 0.002653 371.79208 371.79269
359.0 0.002786 371.58356 371.58423
377.0 0.002653 371.37564 371.37628
411.0 0.002433 371.16800 371.16876
355.0 0.002817 370.96091 370.96167
362.0 0.002762 370.75427 370.75494
364.0 0.002747 370.54788 370.54865
347.0 0.002882 370.34213 370.34286
332.0 0.003012 370.13663 370.13745
375.0 0.002667 369.93173 369.93250
374.0 0.002674 369.72723 372.34738
363.0 0.002755 369.52310 372.31961
390.0 0.002564 369.31946 372.31091
386.0 0.002591 369.11624 372.32385
367.0 0.002725 368.91348 372.36163
335.0 0.002985 368.71121 373.74927
353.0 0.002833 368.50931 373.93869
372.0 0.002688 368.30795 374.17661
365.0 0.002740 368.10693 374.47128
354.0 0.002825 367.90640 374.83295
379.0 0.002639 367.70636 375.27438
395.0 0.002532 367.50671 375.81174
381.0 0.002625 367.30768 386.46017
391.0 0.002558 367.10886 387.93973
348.0 0.002874 366.91071 389.66815
357.0 0.002801 366.71292 391.70245
389.0 0.002571 366.51556 398.83643
377.0 0.002653 366.31876 402.04721
380.0 0.002632 366.12234 405.91705
405.0 0.002469 365.92639 410.65634
399.0 0.002506 365.73105 416.59189
417.0 0.002398 365.53595 424.27161
468.0 0.002137 365.34152 439.20230
512.0 0.001953 365.14752 456.43921
538.0 0.001859 364.95395 487.67261
569.0 0.001757 364.76086 541.63690
605.0 0.001653 364.56818 622.79028
685.0 0.001460 364.37610 734.76141
811.0 0.001233 364.18445 884.83099
1071.0 0.000934 363.99326 1089.96814
1425.0 0.000702 363.80252 1394.30640
1920.0 0.000521 363.61230 1848.91516
2418.0 0.000414 363.42261 2337.50537
2388.0 0.000419 363.23334 2336.27100
1896.0 0.000527 363.04456 1755.74597
1588.0 0.000630 362.85641 1454.57056
1705.0 0.000587 362.66852 1605.94128
1955.0 0.000512 362.48129 1951.97021
2035.0 0.000491 362.29449 2131.84399
2015.0 0.000496 362.10815 2196.07910
2260.0 0.000442 361.92230 2571.45508
3022.0 0.0003309 361.73697 3371.42139
4403.0 0.0002271 361.55225 4686.23584
6124.0 0.0001633 361.36786 6494.64990
7012.0 0.0001426 361.18405 7631.03662
5443.0 0.0001837 361.00073 6148.33936
3596.0 0.0002781 360.81784 4102.36719
3166.0 0.0003159 360.63556 3603.75098
3794.0 0.0002636 360.45374 4153.16553
4089.0 0.0002446 360.27243 4470.04785
3330.0 0.0003003 360.09155 3573.74829
2543.0 0.000393 359.91125 2749.63696
2764.0 0.000362 359.73145 2804.65063
3544.0 0.0002822 359.55212 3417.07983
3828.0 0.0002612 359.37335 3767.63477
2955.0 0.0003384 359.19510 3029.28345
2020.0 0.000495 359.01733 2234.31592
2068.0 0.000484 358.84009 2145.62964
2453.0 0.000408 358.66333 2509.54150
2562.0 0.000390 358.48712 2729.02148
2078.0 0.000481 358.31143 2209.70825
1301.0 0.000769 358.13620 1425.04236
908.0 0.001101 357.96155 1005.39423
811.0 0.001233 357.78738 908.06573
859.0 0.001164 357.61371 926.05151
810.0 0.001235 357.44061 858.27216
637.0 0.001570 357.26797 669.20020
492.0 0.002033 357.09589 535.22437
429.0 0.002331 356.92426 475.69031
401.0 0.002494 356.75330 450.03146
411.0 0.002433 356.58279 434.74216
395.0 0.002532 356.41278 423.92371
366.0 0.002732 356.24335 415.80344
390.0 0.002564 356.07440 409.53537
395.0 0.002532 355.90601 394.68253
353.0 0.002833 355.73813 394.44666
363.0 0.002755 355.57074 392.64737
356.0 0.002809 355.40399 392.47003
375.0 0.002667 355.23764 395.04800
388.0 0.002577 355.07193 396.32089
413.0 0.002421 354.90671 408.63760
438.0 0.002283 354.74197 423.89676
452.0 0.002212 354.57791 445.94431
465.0 0.002151 354.41428 478.06754
495.0 0.002020 354.25119 527.52301
586.0 0.001706 354.08871 588.75800
600.0 0.001667 353.92657 622.77386
510.0 0.001961 353.76514 562.35730
478.0 0.002092 353.60419 490.83832
471.0 0.002123 353.44382 473.32080
450.0 0.002222 353.28397 487.83542
464.0 0.002155 353.12466 493.47205
455.0 0.002198 352.96588 454.67599
416.0 0.002404 352.80768 412.50302
408.0 0.002451 352.64999 394.37299
403.0 0.002481 352.49283 389.87134
427.0 0.002342 352.33621 391.38565
443.0 0.002257 352.18015 395.97089
424.0 0.002358 352.02469 404.18756
464.0 0.002155 351.86975 419.35861
506.0 0.001976 351.71533 449.90262
562.0 0.001779 351.56134 509.02206
617.0 0.001621 351.40814 597.45795
680.0 0.001471 351.25528 725.01404
847.0 0.001181 351.10312 897.09161
1147.0 0.000872 350.95145 1139.20447
1648.0 0.000607 350.80029 1514.92029
2230.0 0.000448 350.64972 2044.47595
2639.0 0.000379 350.49960 2491.42700
2268.0 0.000441 350.35025 2227.69336
1480.0 0.000676 350.20135 1535.61597
1223.0 0.000818 350.05292 1234.26465
1354.0 0.000739 349.90515 1305.34119
1511.0 0.000662 349.75787 1438.69983
1279.0 0.000782 349.61124 1241.96313
838.0 0.001193 349.46509 824.11517
525.0 0.001905 349.31940 577.52905
430.0 0.002326 349.17435 484.26352
455.0 0.002198 349.02994 449.86441
421.0 0.002375 348.88599 433.12485
408.0 0.002451 348.74261 424.02261
415.0 0.002410 348.59976 420.49683
439.0 0.002278 348.45752 419.96265
457.0 0.002188 348.31583 425.09058
445.0 0.002247 348.17471 433.29587
482.0 0.002075 348.03418 450.88077
537.0 0.001862 347.89410 485.78772
583.0 0.001715 347.75458 543.25562
672.0 0.001488 347.61575 631.86359
772.0 0.001295 347.47742 753.57990
940.0 0.001064 347.33960 935.21234
1233.0 0.000811 347.20236 1214.77002
1680.0 0.000595 347.06577 1628.71021
2074.0 0.000482 346.92957 2080.59644
2035.0 0.000491 346.79416 2194.67920
1933.0 0.000517 346.65915 1964.34167
2023.0 0.000494 346.52472 2029.14722
2324.0 0.000430 346.39093 2414.09863
2438.0 0.000410 346.25754 2556.49805
1997.0 0.000501 346.12488 2048.58789
1441.0 0.000694 345.99277 1452.98303
1256.0 0.000796 345.86108 1244.61389
1305.0 0.000766 345.73007 1321.76489
1307.0 0.000765 345.59967 1356.51367
1169.0 0.000855 345.46973 1172.45361
1080.0 0.000926 345.34039 1068.91846
1169.0 0.000855 345.21158 1177.14441
1540.0 0.000649 345.08347 1467.14832
1904.0 0.000525 344.95578 1822.52722
1834.0 0.000545 344.82874 1869.64270
1443.0 0.000693 344.70221 1502.07788
1240.0 0.000806 344.57617 1303.39746
1462.0 0.000684 344.45084 1431.67761
1853.0 0.000540 344.32605 1765.21826
2203.0 0.000454 344.20181 2088.43042
2238.0 0.000447 344.07813 2158.81470
1859.0 0.000538 343.95496 1847.76392
1277.0 0.000783 343.83243 1288.35547
912.0 0.001096 343.71045 998.98492
969.0 0.001032 343.58911 995.17133
1155.0 0.000866 343.46820 1090.95984
1082.0 0.000924 343.34793 1032.63281
736.0 0.001359 343.22827 757.11548
486.0 0.002058 343.10904 549.41833
458.0 0.002183 342.99051 459.40839
393.0 0.002545 342.87250 425.83368
378.0 0.002646 342.75500 408.93219
422.0 0.002370 342.63818 398.29660
403.0 0.002481 342.52191 388.89001
365.0 0.002740 342.40613 382.98306
411.0 0.002433 342.29095 379.61099
378.0 0.002646 342.17636 377.25232
373.0 0.002681 342.06232 375.84183
369.0 0.002710 341.94885 375.36734
375.0 0.002667 341.83591 374.77914
393.0 0.002545 341.72351 376.24792
390.0 0.002564 341.61179 378.86444
424.0 0.002358 341.50061 383.16223
432.0 0.002315 341.39001 390.40131
445.0 0.002247 341.27994 402.04849
473.0 0.002114 341.17041 429.79135
502.0 0.001992 341.06155 479.66464
524.0 0.001908 340.95316 555.21198
654.0 0.001529 340.84534 665.28888
830.0 0.001205 340.73810 815.26324
1015.0 0.000985 340.63141 1037.59131
1409.0 0.000710 340.52530 1373.73071
1783.0 0.000561 340.41980 1755.68555
1857.0 0.000539 340.31485 1820.41882
1389.0 0.000720 340.21048 1361.94067
991.0 0.001009 340.10657 999.20935
932.0 0.001073 340.00336 945.10535
1033.0 0.000968 339.90060 1056.05005
1122.0 0.000891 339.79846 1093.80835
878.0 0.001139 339.69693 857.25092
585.0 0.001709 339.59595 590.07562
446.0 0.002242 339.49542 459.16611
416.0 0.002404 339.39560 410.91949
407.0 0.002457 339.29623 390.06384
393.0 0.002545 339.19754 377.93289
373.0 0.002681 339.09940 369.82919
372.0 0.002688 339.00174 365.63477
348.0 0.002874 338.90466 361.47058
360.0 0.002778 338.80823 358.31229
394.0 0.002538 338.71228 355.86218
368.0 0.002717 338.61691 353.92764
352.0 0.002841 338.52209 352.38113
360.0 0.002778 338.42789 351.94977
366.0 0.002732 338.33426 351.00195
357.0 0.002801 338.24106 350.25888
335.0 0.002985 338.14856 349.69125
342.0 0.002924 338.05655 349.27975
356.0 0.002809 337.96509 357.80634
356.0 0.002809 337.87424 358.27173
373.0 0.002681 337.78394 358.94025
362.0 0.002762 337.69418 359.82889
354.0 0.002825 337.60495 360.96423
350.0 0.002857 337.51639 366.65976
399.0 0.002506 337.42825 368.70056
405.0 0.002469 337.34079 369.06931
401.0 0.002494 337.25388 372.22726
403.0 0.002481 337.16742 376.08621
379.0 0.002639 337.08157 380.88599
398.0 0.002513 336.99637 387.02817
434.0 0.002304 336.91165 394.25735
419.0 0.002387 336.82748 406.93692
490.0 0.002041 336.74384 428.93811
488.0 0.002049 336.66080 467.18353
565.0 0.001770 336.57834 524.96130
587.0 0.001704 336.49637 609.90692
740.0 0.001351 336.41501 725.23047
937.0 0.001067 336.33414 894.17798
1210.0 0.000826 336.25391 1146.06848
1615.0 0.000619 336.17413 1435.83618
1681.0 0.000595 336.09494 1513.97473
1373.0 0.000728 336.01636 1233.37781
1137.0 0.000880 335.93829 1037.47864
1202.0 0.000832 335.86078 1121.45313
1450.0 0.000690 335.78384 1425.90979
1816.0 0.000551 335.70740 1822.74170
2122.0 0.000471 335.63150 2168.88232
2635.0 0.000380 335.55621 2675.01196
3639.0 0.0002748 335.48145 3614.84766
5216.0 0.0001917 335.40723 5040.62109
6080.0 0.0001645 335.33359 6186.24658
5153.0 0.0001941 335.26050 5396.13525
3312.0 0.0003019 335.18793 3508.54395
2427.0 0.000412 335.11588 2630.51465
2671.0 0.000374 335.04434 2765.43970
3139.0 0.0003186 334.97345 3242.27734
2994.0 0.0003340 334.90314 3108.25635
2008.0 0.000498 334.83322 2029.71985
1128.0 0.000887 334.76395 1147.91846
728.0 0.001374 334.69516 762.22729
616.0 0.001623 334.62695 623.60370
518.0 0.001931 334.55933 566.89410
492.0 0.002033 334.49219 543.43945
530.0 0.001887 334.42560 543.06201
547.0 0.001828 334.35953 564.29352
587.0 0.001704 334.29407 614.24969
687.0 0.001456 334.22906 700.02472
798.0 0.001253 334.16464 804.13684
822.0 0.001217 334.10077 853.29980
820.0 0.001220 334.03738 844.65753
899.0 0.001112 333.97455 909.96002
1061.0 0.000943 333.91232 1044.61047
1116.0 0.000896 333.85056 1086.76050
972.0 0.001029 333.78934 987.54803
897.0 0.001115 333.72870 919.87750
935.0 0.001070 333.66861 979.51263
1153.0 0.000867 333.60898 1175.22168
1488.0 0.000672 333.54990 1416.03088
1554.0 0.000644 333.49133 1464.13867
1174.0 0.000852 333.43329 1166.20703
809.0 0.001236 333.37585 841.84589
690.0 0.001449 333.31891 717.27521
777.0 0.001287 333.26245 751.58087
855.0 0.001170 333.20657 818.64551
773.0 0.001294 333.15115 765.29272
610.0 0.001639 333.09644 586.06970
426.0 0.002347 333.04208 453.65765
406.0 0.002463 332.98825 399.28879
407.0 0.002457 332.93500 378.01840
372.0 0.002688 332.88226 367.12970
322.0 0.003106 332.83008 360.14450
333.0 0.003003 332.77841 355.23224
363.0 0.002755 332.72723 351.60242
348.0 0.002874 332.67654 348.82291
343.0 0.002915 332.62643 346.63150
316.0 0.003165 332.57681 344.86438
363.0 0.002755 332.52771 343.41165
336.0 0.002976 332.47906 342.19806
379.0 0.002639 332.43109 341.52042
353.0 0.002833 332.38354 340.24652
355.0 0.002817 332.33649 339.53497
357.0 0.002801 332.29004 338.92023
323.0 0.003096 332.24402 337.59949
353.0 0.002833 332.19855 337.18152
365.0 0.002740 332.15353 336.78238
338.0 0.002959 332.10910 336.48944
319.0 0.003135 332.06516 336.23776
319.0 0.003135 332.02176 335.62033
326.0 0.003067 331.97882 334.01413
319.0 0.003135 331.93640 333.98016
320.0 0.003125 331.89447 333.96841
321.0 0.003115 331.85306 333.98013
344.0 0.002907 331.81213 334.01804
335.0 0.002985 331.77176 334.08548
334.0 0.002994 331.73190 333.48947
328.0 0.003049 331.69254 333.67661
321.0 0.003115 331.65363 333.91257
339.0 0.002950 331.61520 334.21265
344.0 0.002907 331.57736 334.59897
349.0 0.002865 331.53992 335.90381
363.0 0.002755 331.50308 336.63495
357.0 0.002801 331.46674 337.63498
363.0 0.002755 331.43079 339.10547
357.0 0.002801 331.39539 341.59900
336.0 0.002976 331.36050 346.76651
341.0 0.002933 331.32614 355.57825
364.0 0.002747 331.29221 369.05157
400.0 0.002500 331.25879 389.91605
446.0 0.002242 331.22583 418.48444
497.0 0.002012 331.19345 462.64120
600.0 0.001667 331.16150 522.55933
651.0 0.001536 331.13013 572.61322
592.0 0.001689 331.09912 543.69226
492.0 0.002033 331.06860 466.96039
435.0 0.002299 331.03860 428.06183
469.0 0.002132 331.00912 431.28427
470.0 0.002128 330.98007 452.84192
472.0 0.002119 330.95154 459.83685
418.0 0.002392 330.92349 423.61365
386.0 0.002591 330.89594 383.62259
372.0 0.002688 330.86887 364.57370
332.0 0.003012 330.84219 359.16367
371.0 0.002695 330.81604 358.99142
370.0 0.002703 330.79041 362.04715
383.0 0.002611 330.76520 369.73679
427.0 0.002342 330.74051 385.53159
419.0 0.002387 330.71631 411.79706
415.0 0.002410 330.69254 452.39868
503.0 0.001988 330.66922 510.23645
525.0 0.001905 330.64639 597.46436
709.0 0.001410 330.62408 720.81189
921.0 0.001086 330.60223 847.02966
910.0 0.001099 330.58084 841.70087
695.0 0.001439 330.55988 683.32263
554.0 0.001805 330.53937 575.29211
499.0 0.002004 330.51935 571.72870
647.0 0.001546 330.49982 634.48645
752.0 0.001330 330.48071 709.58093
727.0 0.001376 330.46213 722.61218
743.0 0.001346 330.44394 726.79504
804.0 0.001244 330.42627 810.60437
1004.0 0.000996 330.40900 1007.16760
1259.0 0.000794 330.39224 1290.66541
1417.0 0.000706 330.37595 1494.32263
1308.0 0.000765 330.36005 1324.45251
990.0 0.001010 330.34467 1001.88025
903.0 0.001107 330.32962 888.41382
945.0 0.001058 330.31522 972.93689
1079.0 0.000927 330.30109 1114.57813
1108.0 0.000903 330.28751 1091.57739
862.0 0.001160 330.27432 835.99030
641.0 0.001560 330.26163 610.46082
524.0 0.001908 330.24939 519.94830
507.0 0.001972 330.23755 504.98706
478.0 0.002092 330.22620 493.61874
444.0 0.002252 330.21530 445.90863
408.0 0.002451 330.20486 402.58139
380.0 0.002632 330.19476 377.17566
359.0 0.002786 330.18512 366.00940
363.0 0.002755 330.17593 360.28146
348.0 0.002874 330.16733 356.65610
342.0 0.002924 330.15906 354.16507
349.0 0.002865 330.15109 354.07507
340.0 0.002941 330.14374 353.11188
355.0 0.002817 330.13672 352.59457
366.0 0.002732 330.13025 352.45578
362.0 0.002762 330.12408 352.65970
357.0 0.002801 330.11844 352.76526
354.0 0.002825 330.11313 354.49164
337.0 0.002967 330.10837 355.80414
351.0 0.002849 330.10394 357.52811
390.0 0.002564 330.09991 359.73584
391.0 0.002558 330.09644 362.53214
412.0 0.002427 330.09329 366.06537
407.0 0.002457 330.09058 369.23581
392.0 0.002551 330.08835 375.13654
413.0 0.002421 330.08643 382.80524
486.0 0.002058 330.08502 393.04193
488.0 0.002049 330.08401 406.87411
516.0 0.001938 330.08334 428.52158
566.0 0.001767 330.08322 465.71954
660.0 0.001515 330.08340 539.19965
758.0 0.001319 330.08401 670.90808
940.0 0.001064 330.08514 874.39709
1251.0 0.000799 330.08655 1184.28662
1840.0 0.000543 330.08841 1641.30713
2564.0 0.000390 330.09070 2301.05762
3372.0 0.0002966 330.09335 3051.49121
3680.0 0.0002717 330.09647 3239.68408
2556.0 0.000391 330.09991 2408.82202
1604.0 0.000623 330.10385 1625.47925
1374.0 0.000728 330.10815 1412.23840
1651.0 0.000606 330.11282 1583.23010
1929.0 0.000518 330.11792 1852.34656
1932.0 0.000518 330.12341 1781.14856
1342.0 0.000745 330.12927 1264.02734
913.0 0.001095 330.13562 857.92462
712.0 0.001404 330.14230 710.26428
687.0 0.001456 330.14935 709.48572
760.0 0.001316 330.15689 788.38568
956.0 0.001046 330.16470 908.51025
1097.0 0.000912 330.17300 968.18036
900.0 0.001111 330.18161 843.60693
704.0 0.001420 330.19061 681.41174
684.0 0.001462 330.20004 620.60193
722.0 0.001385 330.20984 644.16351
759.0 0.001318 330.22000 702.86267
823.0 0.001215 330.23059 724.85034
811.0 0.001233 330.24158 659.72516
761.0 0.001314 330.25287 598.72137
752.0 0.001330 330.26459 599.18219
833.0 0.001200 330.27673 667.95221
955.0 0.001047 330.28909 828.97137
1161.0 0.000861 330.30197 1115.87988
1533.0 0.000652 330.31512 1566.91516
2193.0 0.000456 330.32877 2237.58813
3266.0 0.0003062 330.34268 3245.03540
4943.0 0.0002023 330.35703 4625.52539
6261.0 0.0001597 330.37164 5842.76758
5613.0 0.0001782 330.38678 5403.42480
3750.0 0.0002667 330.40216 3588.51245
2536.0 0.000394 330.41800 2478.98730
2355.0 0.000425 330.43414 2378.12451
2810.0 0.000356 330.45062 2833.22656
3339.0 0.0002995 330.46753 3245.20239
2969.0 0.0003368 330.48471 2784.54492
1910.0 0.000524 330.50232 1731.91003
1112.0 0.000899 330.52029 1048.42871
792.0 0.001263 330.53854 780.31445
723.0 0.001383 330.55731 718.03210
776.0 0.001289 330.57623 741.38635
850.0 0.001176 330.59561 833.78534
1007.0 0.000993 330.61539 996.14429
1309.0 0.000764 330.63538 1260.67725
1758.0 0.000569 330.65579 1599.97693
1989.0 0.000503 330.67651 1803.31787
1700.0 0.000588 330.69760 1595.60986
1399.0 0.000715 330.71912 1315.63025
1345.0 0.000743 330.74091 1266.96155
1531.0 0.000653 330.76303 1475.73621
2032.0 0.000492 330.78546 1827.39478
2150.0 0.000465 330.80826 2001.94165
1785.0 0.000560 330.83145 1633.97900
1159.0 0.000863 330.85489 1131.80457
911.0 0.001098 330.87872 881.91437
938.0 0.001066 330.90286 852.21466
1024.0 0.000977 330.92740 924.07782
1024.0 0.000977 330.95218 963.24591
974.0 0.001027 330.97736 841.93347
790.0 0.001266 331.00272 710.20673
751.0 0.001332 331.02856 691.20959
831.0 0.001203 331.05475 785.13074
1013.0 0.000987 331.08112 982.57758
1360.0 0.000735 331.10791 1301.28711
1891.0 0.000529 331.13501 1782.38538
2518.0 0.000397 331.16245 2446.70288
3086.0 0.0003240 331.19019 3043.08569
3039.0 0.0003291 331.21817 3149.57666
2730.0 0.000366 331.24655 2816.36743
2565.0 0.000390 331.27524 2688.90918
2839.0 0.000352 331.30426 2983.12305
2967.0 0.0003370 331.33350 3132.83203
2663.0 0.000376 331.36313 2744.00415
2087.0 0.000479 331.39307 2208.32104
1647.0 0.000607 331.42331 1729.66516
1432.0 0.000698 331.45383 1484.75708
1400.0 0.000714 331.48462 1470.63391
1371.0 0.000729 331.51581 1370.66931
1111.0 0.000900 331.54727 1041.52686
847.0 0.001181 331.57898 787.58282
766.0 0.001305 331.61105 712.56128
824.0 0.001214 331.64343 758.43481
949.0 0.001054 331.67609 890.21295
1140.0 0.000877 331.70898 1113.44312
1431.0 0.000699 331.74219 1405.82373
1653.0 0.000605 331.77573 1595.96851
1505.0 0.000664 331.80963 1407.19775
1121.0 0.000892 331.84369 1054.92212
876.0 0.001142 331.87802 863.33228
843.0 0.001186 331.91275 871.63922
997.0 0.001003 331.94769 998.33356
1124.0 0.000890 331.98306 1118.92542
1107.0 0.000903 332.01859 1083.28418
1005.0 0.000995 332.05432 984.62140
1002.0 0.000998 332.09042 999.47986
1061.0 0.000943 332.12680 1098.85547
1087.0 0.000920 332.16345 1093.74487
941.0 0.001063 332.20047 895.04712
779.0 0.001284 332.23764 741.22467
730.0 0.001370 332.27512 739.79236
822.0 0.001217 332.31287 861.02972
997.0 0.001003 332.35086 1055.39063
1206.0 0.000829 332.38919 1264.41370
1410.0 0.000709 332.42776 1454.68323
1807.0 0.000553 332.46661 1739.95935
2103.0 0.000476 332.50565 1951.93738
1788.0 0.000559 332.54504 1692.05493
1232.0 0.000812 332.58469 1203.49597
966.0 0.001035 332.62457 967.68719
1004.0 0.000996 332.66473 990.24121
1155.0 0.000866 332.70514 1175.19446
1521.0 0.000657 332.74579 1380.81543
1487.0 0.000672 332.78668 1405.51379
1543.0 0.000648 332.82788 1363.16223
1739.0 0.000575 332.86926 1523.60132
2424.0 0.000413 332.91098 1936.83301
2814.0 0.000355 332.95294 2351.42017
2615.0 0.000382 332.99509 2242.83643
1799.0 0.000556 333.03748 1590.66675
1195.0 0.000837 333.08017 1139.25684
1079.0 0.000927 333.12311 1048.02966
1318.0 0.000759 333.16629 1184.15662
1550.0 0.000645 333.20963 1368.04077
1555.0 0.000643 333.25327 1330.76465
1116.0 0.000896 333.29715 978.92072
742.0 0.001348 333.34125 671.34149
531.0 0.001883 333.38559 524.72870
473.0 0.002114 333.43018 475.83301
464.0 0.002155 333.47504 469.15259
516.0 0.001938 333.52005 485.88516
537.0 0.001862 333.56534 528.51965
582.0 0.001718 333.61084 598.33673
709.0 0.001410 333.65665 699.70020
844.0 0.001185 333.70261 784.68329
777.0 0.001287 333.74878 746.34827
626.0 0.001597 333.79526 602.47455
496.0 0.002016 333.84180 512.93750
464.0 0.002155 333.88870 497.98788
514.0 0.001946 333.93576 528.87360
560.0 0.001786 333.98306 567.20892
568.0 0.001761 334.03064 555.83563
512.0 0.001953 334.07828 478.84314
412.0 0.002427 334.12622 415.49478
400.0 0.002500 334.17438 386.73175
405.0 0.002469 334.22278 378.96149
376.0 0.002660 334.27133 382.60681
373.0 0.002681 334.32013 395.97055
397.0 0.002519 334.36914 420.06555
439.0 0.002278 334.41827 457.22659
516.0 0.001938 334.46777 516.37323
575.0 0.001739 334.51733 588.39490
595.0 0.001681 334.56711 622.74854
567.0 0.001764 334.61716 559.04346
450.0 0.002222 334.66736 472.04987
385.0 0.002597 334.71780 433.18005
425.0 0.002353 334.76834 437.74530
449.0 0.002227 334.81918 464.27704
448.0 0.002232 334.87015 483.36310
450.0 0.002222 334.92133 457.10803
400.0 0.002500 334.97269 404.42624
358.0 0.002793 335.02429 369.94284
369.0 0.002710 335.07605 354.90115
395.0 0.002532 335.12796 348.75464
353.0 0.002833 335.18011 344.82263
319.0 0.003135 335.23236 342.87479
354.0 0.002825 335.28485 341.53415
363.0 0.002755 335.33752 340.56787
350.0 0.002857 335.39041 339.84814
322.0 0.003106 335.44339 339.29913
348.0 0.002874 335.49655 338.87769
330.0 0.003030 335.54999 338.16855
354.0 0.002825 335.60345 337.92383
348.0 0.002874 335.65720 337.72989
361.0 0.002770 335.71115 337.57602
368.0 0.002717 335.76511 337.45410
340.0 0.002941 335.81937 337.52832
367.0 0.002725 335.87372 337.46500
322.0 0.003106 335.92838 337.60181
360.0 0.002778 335.98306 337.58594
356.0 0.002809 336.03793 337.58603
361.0 0.002770 336.09302 337.60074
349.0 0.002865 336.14816 337.19812
362.0 0.002762 336.20361 337.27805
357.0 0.002801 336.25909 337.45804
320.0 0.003125 336.31476 337.56915
331.0 0.003021 336.37067 337.69684
328.0 0.003049 336.42657 337.84509
327.0 0.003058 336.48273 338.02133
321.0 0.003115 336.53900 337.99911
349.0 0.002865 336.59549 338.32040
349.0 0.002865 336.65204 338.79321
340.0 0.002941 336.70871 339.48334
332.0 0.003012 336.76563 340.48096
339.0 0.002950 336.82269 341.91528
364.0 0.002747 336.87982 343.85812
377.0 0.002653 336.93716 345.85400
351.0 0.002849 336.99454 346.74908
329.0 0.003040 337.05212 345.44702
360.0 0.002778 337.10986 344.65393
376.0 0.002660 337.16763 345.39334
363.0 0.002755 337.22568 347.58435
355.0 0.002817 337.28375 351.48633
362.0 0.002762 337.34201 357.66986
395.0 0.002532 337.40042 367.10632
411.0 0.002433 337.45895 382.91428
428.0 0.002336 337.51758 408.48978
446.0 0.002242 337.57623 446.12134
481.0 0.002079 337.63513 487.57205
519.0 0.001927 337.69415 509.53299
497.0 0.002012 337.75330 500.70178
465.0 0.002151 337.81253 476.47934
447.0 0.002237 337.87189 438.16156
424.0 0.002358 337.93137 421.59235
427.0 0.002342 337.99097 427.63867
415.0 0.002410 338.05066 437.72818
430.0 0.002326 338.11050 434.91107
414.0 0.002415 338.17041 423.57736
381.0 0.002625 338.23050 399.69070
353.0 0.002833 338.29056 379.70337
359.0 0.002786 338.35095 370.34445
335.0 0.002985 338.41132 367.84256
359.0 0.002786 338.47174 368.65073
337.0 0.002967 338.53229 371.85797
382.0 0.002618 338.59305 378.46338
401.0 0.002494 338.65378 390.48547
400.0 0.002500 338.71466 409.56625
450.0 0.002222 338.77570 439.71634
529.0 0.001890 338.83676 482.86374
558.0 0.001792 338.89789 536.65149
602.0 0.001661 338.95914 570.68646
596.0 0.001678 339.02051 542.31738
547.0 0.001828 339.08194 491.01990
487.0 0.002053 339.14346 472.32172
550.0 0.001818 339.20517 489.54706
588.0 0.001701 339.26682 529.59009
603.0 0.001658 339.32867 584.67664
692.0 0.001445 339.39056 644.07184
755.0 0.001325 339.45255 728.76117
914.0 0.001094 339.51459 906.31268
1180.0 0.000847 339.57675 1226.16260
1668.0 0.000600 339.63895 1754.08801
2533.0 0.000395 339.70123 2501.36353
3573.0 0.0002799 339.76364 3292.46484
3705.0 0.0002699 339.82602 3444.27905
2729.0 0.000366 339.88858 2550.29004
1595.0 0.000627 339.95111 1667.46118
1258.0 0.000795 340.01382 1348.70776
1339.0 0.000747 340.07657 1451.28296
1717.0 0.000582 340.13934 1767.58374
1992.0 0.000502 340.20224 1995.14551
1810.0 0.000552 340.26520 1724.76929
1209.0 0.000827 340.32813 1149.14258
749.0 0.001335 340.39127 754.32977
548.0 0.001825 340.45438 577.77893
454.0 0.002203 340.51761 507.06143
434.0 0.002304 340.58090 473.70746
431.0 0.002320 340.64417 456.08936
444.0 0.002252 340.70752 450.28568
483.0 0.002070 340.77100 451.57361
515.0 0.001942 340.83441 466.26898
527.0 0.001898 340.89798 503.74991
601.0 0.001664 340.96158 571.58276
733.0 0.001364 341.02515 685.40094
931.0 0.001074 341.08890 855.27643
1182.0 0.000846 341.15265 1070.61694
1309.0 0.000764 341.21637 1206.91711
1192.0 0.000839 341.28024 1072.40723
890.0 0.001124 341.34415 808.17102
717.0 0.001395 341.40802 663.96136
684.0 0.001462 341.47198 653.81305
744.0 0.001344 341.53595 722.39526
839.0 0.001192 341.59998 812.24866
907.0 0.001103 341.66406 823.04956
800.0 0.001250 341.72815 696.47626
615.0 0.001626 341.79239 579.81622
593.0 0.001686 341.85651 534.28595
657.0 0.001522 341.92072 548.19342
696.0 0.001437 341.98502 617.55353
841.0 0.001189 342.04919 765.81219
1064.0 0.000940 342.11362 1017.89893
1438.0 0.000695 342.17786 1436.89246
2011.0 0.000497 342.24225 2050.99414
2880.0 0.0003472 342.30658 2803.41406
3273.0 0.0003055 342.37109 3223.27563
2688.0 0.000372 342.43546 2687.15698
1732.0 0.000577 342.49994 1804.53125
1227.0 0.000815 342.56439 1371.76746
1258.0 0.000795 342.62891 1400.19495
1480.0 0.000676 342.69345 1684.31348
1859.0 0.000538 342.75793 1977.28662
1834.0 0.000545 342.82251 1907.79529
1441.0 0.000694 342.88702 1386.98376
910.0 0.001099 342.95163 912.41602
614.0 0.001629 343.01624 682.04468
585.0 0.001709 343.08078 610.72479
542.0 0.001845 343.14542 591.75580
562.0 0.001779 343.20996 565.87329
494.0 0.002024 343.27463 537.58258
513.0 0.001949 343.33926 540.01166
597.0 0.001675 343.40390 574.92078
625.0 0.001600 343.46848 613.35217
613.0 0.001631 343.53311 599.88220
513.0 0.001949 343.59778 524.86365
447.0 0.002237 343.66232 466.71857
440.0 0.002273 343.72711 448.47610
456.0 0.002193 343.79169 458.37363
474.0 0.002110 343.85623 479.70779
500.0 0.002000 343.92090 492.82422
472.0 0.002119 343.98553 471.83560
441.0 0.002268 344.05008 432.96442
440.0 0.002273 344.11469 409.40094
432.0 0.002315 344.17923 402.50330
419.0 0.002387 344.24380 406.49362
414.0 0.002415 344.30844 418.62540
424.0 0.002358 344.37299 434.53973
467.0 0.002141 344.43747 469.31900
530.0 0.001887 344.50192 510.39630
546.0 0.001832 344.56647 539.39789
529.0 0.001890 344.63098 523.46387
534.0 0.001873 344.69543 489.73038
530.0 0.001887 344.75989 481.63940
548.0 0.001825 344.82422 516.02411
626.0 0.001597 344.88864 598.23792
751.0 0.001332 344.95303 738.22992
948.0 0.001055 345.01733 936.75458
1274.0 0.000785 345.08167 1233.84766
1748.0 0.000572 345.14594 1610.24561
2151.0 0.000465 345.21024 1938.53845
2004.0 0.000499 345.27448 1841.68176
1490.0 0.000671 345.33865 1415.09973
1168.0 0.000856 345.40283 1185.86584
1184.0 0.000845 345.46686 1263.16846
1439.0 0.000695 345.53101 1530.87097
1801.0 0.000555 345.59503 1751.48389
1734.0 0.000577 345.65906 1681.74133
1378.0 0.000726 345.72305 1339.91528
989.0 0.001011 345.78699 1013.35699
880.0 0.001136 345.85089 905.23645
917.0 0.001091 345.91476 990.80994
1140.0 0.000877 345.97858 1164.29382
1256.0 0.000796 346.04236 1269.99731
1148.0 0.000871 346.10605 1143.76526
899.0 0.001112 346.16968 863.62561
580.0 0.001724 346.23334 656.28986
517.0 0.001934 346.29694 577.11322
578.0 0.001730 346.36047 585.76788
579.0 0.001727 346.42392 632.94861
648.0 0.001543 346.48737 676.05334
646.0 0.001548 346.55078 639.91931
581.0 0.001721 346.61407 538.10406
456.0 0.002193 346.67737 458.98184
414.0 0.002415 346.74054 420.35464
434.0 0.002304 346.80368 404.21246
391.0 0.002558 346.86679 396.77292
395.0 0.002532 346.92984 392.64816
357.0 0.002801 346.99280 390.64224
346.0 0.002890 347.05573 390.08664
358.0 0.002793 347.11856 387.68069
396.0 0.002525 347.18137 389.83786
388.0 0.002577 347.24405 393.39685
391.0 0.002558 347.30673 398.74243
420.0 0.002381 347.36932 406.57672
432.0 0.002315 347.43182 419.71552
496.0 0.002016 347.49423 439.96896
533.0 0.001876 347.55664 474.23343
602.0 0.001661 347.61893 541.78778
761.0 0.001314 347.68109 653.48523
969.0 0.001032 347.74332 836.99359
1202.0 0.000832 347.80542 1103.63635
1441.0 0.000694 347.86737 1413.70483
1588.0 0.000630 347.92929 1593.74097
1649.0 0.000606 347.99121 1567.43445
1629.0 0.000614 348.05295 1555.89246
1714.0 0.000583 348.11469 1683.40796
1854.0 0.000539 348.17624 1786.78345
1710.0 0.000585 348.23773 1604.96570
1395.0 0.000717 348.29910 1357.82849
1178.0 0.000849 348.36057 1190.93726
1053.0 0.000950 348.42178 1057.88940
966.0 0.001035 348.48303 998.05475
988.0 0.001012 348.54407 1016.60242
1019.0 0.000981 348.60501 991.59290
870.0 0.001149 348.66605 811.64923
683.0 0.001464 348.72678 620.96320
548.0 0.001825 348.78763 515.57660
479.0 0.002088 348.84818 471.61166
464.0 0.002155 348.90875 451.08313
448.0 0.002232 348.96921 442.07370
464.0 0.002155 349.02957 448.80081
500.0 0.002000 349.08984 477.91714
554.0 0.001805 349.14996 535.52075
627.0 0.001595 349.21002 632.58344
733.0 0.001364 349.26999 775.05841
831.0 0.001203 349.32986 920.87073
931.0 0.001074 349.38959 955.13916
798.0 0.001253 349.44931 795.31116
613.0 0.001631 349.50882 618.21600
540.0 0.001852 349.56824 538.20667
517.0 0.001934 349.62766 541.22308
571.0 0.001751 349.68689 597.53845
616.0 0.001623 349.74600 659.14197
680.0 0.001471 349.80499 660.94086
557.0 0.001795 349.86386 573.97461
422.0 0.002370 349.92273 477.52951
389.0 0.002571 349.98138 424.02066
371.0 0.002695 350.04001 399.17853
349.0 0.002865 350.09839 391.80148
346.0 0.002890 350.15671 387.12869
334.0 0.002994 350.21497 383.62366
379.0 0.002639 350.27316 384.50323
390.0 0.002564 350.33112 384.36871
349.0 0.002865 350.38898 384.97522
375.0 0.002667 350.44672 385.19525
367.0 0.002725 350.50443 387.15097
398.0 0.002513 350.56192 389.76141
367.0 0.002725 350.61929 393.10068
384.0 0.002604 350.67657 397.26367
380.0 0.002632 350.73370 402.50891
444.0 0.002252 350.79071 409.08099
462.0 0.002165 350.84763 417.39127
474.0 0.002110 350.90442 428.05228
478.0 0.002092 350.96097 442.02081
520.0 0.001923 351.01755 460.89655
518.0 0.001931 351.07388 487.80807
575.0 0.001739 351.13010 530.29407
661.0 0.001513 351.18619 604.46570
838.0 0.001193 351.24225 744.32794
1102.0 0.000907 351.29803 988.81519
1540.0 0.000649 351.35385 1396.90051
2099.0 0.000476 351.40939 2028.33801
2780.0 0.000360 351.46484 2790.98022
3271.0 0.0003057 351.52017 3333.70850
3258.0 0.0003069 351.57532 3307.77881
3071.0 0.0003256 351.63037 3185.39966
3018.0 0.0003313 351.68524 3185.46753
2785.0 0.000359 351.73999 2804.21338
2260.0 0.000442 351.79462 2286.94434
2016.0 0.000496 351.84909 2110.50562
2024.0 0.000494 351.90347 2122.09521
1941.0 0.000515 351.95767 1991.12183
1784.0 0.000561 352.01160 1840.65161
1605.0 0.000623 352.06552 1755.03809
1365.0 0.000733 352.11926 1462.71423
1046.0 0.000956 352.17282 1036.06665
716.0 0.001397 352.22629 745.23273
558.0 0.001792 352.27957 605.20557
496.0 0.002016 352.33267 548.81439
514.0 0.001946 352.38577 520.15405
489.0 0.002045 352.43857 505.32465
493.0 0.002028 352.49124 498.99765
500.0 0.002000 352.54379 499.50598
491.0 0.002037 352.59616 506.71069
513.0 0.001949 352.64844 522.16840
538.0 0.001859 352.70044 550.66156
675.0 0.001481 352.75247 597.95984
732.0 0.001366 352.80420 689.31219
920.0 0.001087 352.85577 870.61218
1155.0 0.000866 352.90720 1204.45728
1613.0 0.000620 352.95856 1751.16992
2400.0 0.000417 353.00964 2602.50610
3369.0 0.0002968 353.06052 3575.84204
4073.0 0.0002455 353.11142 4103.17041
3235.0 0.0003091 353.16202 3400.79370
2007.0 0.000498 353.21252 2216.47046
1472.0 0.000679 353.26279 1538.73254
1328.0 0.000753 353.31287 1413.74243
1526.0 0.000655 353.36292 1664.63928
1895.0 0.000528 353.41269 2077.04419
2162.0 0.000463 353.46234 2348.90454
1992.0 0.000502 353.51184 2040.64148
1356.0 0.000737 353.56107 1404.79993
975.0 0.001026 353.61023 970.83923
806.0 0.001241 353.65927 801.34271
791.0 0.001264 353.70801 812.09814
939.0 0.001065 353.75656 958.45050
1206.0 0.000829 353.80496 1245.85754
1528.0 0.000654 353.85327 1713.28833
2003.0 0.000499 353.90137 2247.22363
2330.0 0.000429 353.94928 2511.77148
2024.0 0.000494 353.99707 2090.63843
1376.0 0.000727 354.04465 1434.13489
975.0 0.001026 354.09192 1077.18604
935.0 0.001070 354.13916 1038.91553
1091.0 0.000917 354.18616 1222.13782
1299.0 0.000770 354.23303 1500.64746
1455.0 0.000687 354.27969 1673.24048
1324.0 0.000755 354.32623 1458.48352
1037.0 0.000964 354.37247 1033.48230
742.0 0.001348 354.41858 741.84326
589.0 0.001698 354.46457 615.44446
548.0 0.001825 354.51028 583.90955
569.0 0.001757 354.55582 587.71857
623.0 0.001605 354.60117 619.08868
652.0 0.001534 354.64645 657.80847
721.0 0.001387 354.69138 733.13782
899.0 0.001112 354.73624 893.21344
1153.0 0.000867 354.78082 1143.98560
1375.0 0.000727 354.82523 1385.58240
1415.0 0.000707 354.86951 1389.63757
1151.0 0.000869 354.91354 1077.87683
825.0 0.001212 354.95740 785.86633
685.0 0.001460 355.00104 660.86554
650.0 0.001538 355.04456 668.93488
729.0 0.001372 355.08789 761.15845
849.0 0.001178 355.13095 875.16669
942.0 0.001062 355.17386 905.05005
813.0 0.001230 355.21652 765.53967
614.0 0.001629 355.25906 590.05414
492.0 0.002033 355.30136 483.38748
420.0 0.002381 355.34344 431.15613
388.0 0.002577 355.38535 411.26447
372.0 0.002688 355.42706 402.45505
423.0 0.002364 355.46854 400.10751
447.0 0.002237 355.50992 400.25262
412.0 0.002427 355.55096 401.21613
405.0 0.002469 355.59195 398.76804
386.0 0.002591 355.63254 393.45120
393.0 0.002545 355.67313 395.85251
401.0 0.002494 355.71341 406.43671
450.0 0.002222 355.75357 426.07986
424.0 0.002358 355.79340 447.75983
483.0 0.002070 355.83304 458.25366
437.0 0.002288 355.87256 438.74496
402.0 0.002488 355.91187 412.05753
375.0 0.002667 355.95096 397.38266
382.0 0.002618 355.98978 395.20404
390.0 0.002564 356.02838 401.47296
423.0 0.002364 356.06683 411.68558
424.0 0.002358 356.10507 416.98807
432.0 0.002315 356.14313 414.27817
424.0 0.002358 356.18094 405.31287
381.0 0.002625 356.21851 403.77542
399.0 0.002506 356.25589 414.24197
417.0 0.002398 356.29309 441.52393
448.0 0.002232 356.33008 487.13705
524.0 0.001908 356.36682 555.37830
618.0 0.001618 356.40332 638.26062
672.0 0.001488 356.43970 691.69556
676.0 0.001479 356.47574 666.93451
576.0 0.001736 356.51163 587.90033
532.0 0.001880 356.54730 543.97198
554.0 0.001805 356.58276 565.34912
599.0 0.001669 356.61801 648.84796
711.0 0.001406 356.65305 784.91913
907.0 0.001103 356.68784 921.43073
960.0 0.001042 356.72241 951.67078
809.0 0.001236 356.75674 815.02039
661.0 0.001513 356.79089 661.75677
596.0 0.001678 356.82483 600.20728
617.0 0.001621 356.85852 634.04333
738.0 0.001355 356.89200 758.11975
951.0 0.001052 356.92529 970.32562
1261.0 0.000793 356.95825 1261.35400
1531.0 0.000653 356.99115 1538.27698
1582.0 0.000632 357.02371 1655.91760
1342.0 0.000745 357.05603 1421.66284
965.0 0.001036 357.08817 1027.56165
759.0 0.001318 357.12006 784.41437
701.0 0.001427 357.15173 724.67285
789.0 0.001267 357.18323 794.28357
942.0 0.001062 357.21445 950.69214
1102.0 0.000907 357.24542 1130.47314
1179.0 0.000848 357.27628 1217.63599
1177.0 0.000850 357.30676 1211.86194
1225.0 0.000816 357.33710 1272.37366
1334.0 0.000750 357.36719 1363.49683
1290.0 0.000775 357.39703 1280.14990
1099.0 0.000910 357.42664 1060.46899
958.0 0.001044 357.45612 960.04407
1050.0 0.000952 357.48520 1030.58545
1226.0 0.000816 357.51416 1174.63037
1288.0 0.000776 357.54285 1233.01575
1156.0 0.000865 357.57129 1151.93286
1013.0 0.000987 357.59955 1018.28174
850.0 0.001176 357.62750 840.90656
688.0 0.001453 357.65530 711.15430
654.0 0.001529 357.68286 680.64520
699.0 0.001431 357.71017 709.60547
737.0 0.001357 357.73724 712.37189
709.0 0.001410 357.76401 637.14691
580.0 0.001724 357.79065 545.21515
479.0 0.002088 357.81702 495.87979
466.0 0.002146 357.84305 490.87531
520.0 0.001923 357.86899 524.18646
562.0 0.001779 357.89462 589.35608
678.0 0.001475 357.91998 696.04712
821.0 0.001218 357.94519 814.56000
810.0 0.001235 357.97012 849.30823
747.0 0.001339 357.99478 745.42242
643.0 0.001555 358.01926 619.89380
583.0 0.001715 358.04340 572.16223
590.0 0.001695 358.06732 609.92438
718.0 0.001393 358.09113 714.87512
914.0 0.001094 358.11459 884.67639
1144.0 0.000874 358.13785 1056.51294
1196.0 0.000836 358.16089 1080.14270
1038.0 0.000963 358.18359 894.00928
754.0 0.001326 358.20612 679.97333
597.0 0.001675 358.22833 563.63403
548.0 0.001825 358.25040 535.98938
592.0 0.001689 358.27225 560.51172
673.0 0.001486 358.29367 617.72546
721.0 0.001387 358.31500 670.30591
695.0 0.001439 358.33609 664.60663
641.0 0.001560 358.35684 610.06726
633.0 0.001580 358.37738 590.82513
676.0 0.001479 358.39771 641.29596
781.0 0.001280 358.41776 767.26245
907.0 0.001103 358.43759 948.92108
1026.0 0.000975 358.45709 1102.07227
1088.0 0.000919 358.47641 1179.01501
1097.0 0.000912 358.49548 1182.57117
1039.0 0.000962 358.51431 1067.92261
804.0 0.001244 358.53284 856.32275
633.0 0.001580 358.55124 720.95886
608.0 0.001645 358.56927 705.69269
654.0 0.001529 358.58710 753.34808
732.0 0.001366 358.60471 792.71069
790.0 0.001266 358.62198 802.71960
753.0 0.001328 358.63910 772.71967
634.0 0.001577 358.65585 671.63861
522.0 0.001916 358.67239 554.90375
449.0 0.002227 358.68872 484.88275
451.0 0.002217 358.70480 459.31650
487.0 0.002053 358.72064 462.35773
445.0 0.002247 358.73618 483.98520
492.0 0.002033 358.75150 521.70007
531.0 0.001883 358.76657 558.22046
530.0 0.001887 358.78131 563.83893
515.0 0.001942 358.79587 540.66602
538.0 0.001859 358.81021 543.94482
568.0 0.001761 358.82419 607.58270
710.0 0.001408 358.83804 738.82611
871.0 0.001148 358.85156 936.29517
1167.0 0.000857 358.86481 1128.05823
1219.0 0.000820 358.87784 1145.96997
923.0 0.001083 358.89063 931.04858
692.0 0.001445 358.90311 702.06232
583.0 0.001715 358.91531 586.74420
493.0 0.002028 358.92734 571.83319
562.0 0.001779 358.93906 619.29907
675.0 0.001481 358.95062 703.73981
743.0 0.001346 358.96182 762.60931
731.0 0.001368 358.97281 720.11176
639.0 0.001565 358.98346 604.36670
506.0 0.001976 358.99393 519.62219
489.0 0.002045 359.00412 490.62485
546.0 0.001832 359.01410 509.75861
606.0 0.001650 359.02371 575.70117
661.0 0.001513 359.03320 691.20190
794.0 0.001259 359.04227 861.58600
950.0 0.001053 359.05121 1022.57684
1011.0 0.000989 359.05988 1030.26709
829.0 0.001206 359.06818 840.23657
657.0 0.001522 359.07635 649.13031
548.0 0.001825 359.08426 556.64655
526.0 0.001901 359.09171 549.01129
601.0 0.001664 359.09915 595.54230
646.0 0.001548 359.10623 675.20581
658.0 0.001520 359.11298 732.39868
648.0 0.001543 359.11963 697.46503
547.0 0.001828 359.12592 587.16705
478.0 0.002092 359.13196 498.79517
455.0 0.002198 359.13773 454.09634
427.0 0.002342 359.14322 438.38733
423.0 0.002364 359.14841 432.68719
407.0 0.002457 359.15344 434.67007
411.0 0.002433 359.15820 441.41635
414.0 0.002415 359.16266 453.90643
463.0 0.002160 359.16687 476.06985
554.0 0.001805 359.17075 518.41101
638.0 0.001567 359.17447 603.06665
792.0 0.001263 359.17789 764.75012
1005.0 0.000995 359.18100 1030.94592
1304.0 0.000767 359.18393 1414.23254
1747.0 0.000572 359.18655 1808.68750
1968.0 0.000508 359.18890 1887.57068
1605.0 0.000623 359.19101 1500.05457
1135.0 0.000881 359.19284 1048.77209
818.0 0.001222 359.19449 809.16168
738.0 0.001355 359.19577 769.99493
789.0 0.001267 359.19684 861.02075
961.0 0.001041 359.19754 1037.76099
1140.0 0.000877 359.19803 1196.56104
1228.0 0.000814 359.19833 1173.16235
1021.0 0.000979 359.19839 946.17273
796.0 0.001256 359.19803 738.02893
679.0 0.001473 359.19748 635.08191
650.0 0.001538 359.19662 615.76483
670.0 0.001493 359.19562 658.58588
823.0 0.001215 359.19424 778.59058
1022.0 0.000978 359.19266 1022.23724
1397.0 0.000716 359.19080 1430.86890
1951.0 0.000513 359.18866 2016.04785
2774.0 0.000360 359.18625 2601.78271
2901.0 0.0003447 359.18353 2705.28101
2320.0 0.000431 359.18066 2167.39355
1636.0 0.000611 359.17743 1619.01245
1379.0 0.000725 359.17398 1435.71252
1503.0 0.000665 359.17029 1550.97290
1650.0 0.000606 359.16629 1734.18848
1796.0 0.000557 359.16205 1865.07800
1933.0 0.000517 359.15747 1968.36511
1940.0 0.000515 359.15271 1929.50305
1794.0 0.000557 359.14767 1744.81995
1692.0 0.000591 359.14233 1713.47021
1781.0 0.000561 359.13678 1848.36560
1842.0 0.000543 359.13089 1852.99438
1530.0 0.000654 359.12473 1529.68494
1117.0 0.000895 359.11844 1121.86121
869.0 0.001151 359.11176 867.50806
786.0 0.001272 359.10477 791.62543
844.0 0.001185 359.09763 842.51630
980.0 0.001020 359.09012 983.92889
1132.0 0.000883 359.08240 1159.00708
1261.0 0.000793 359.07440 1268.05432
1344.0 0.000744 359.06616 1310.37354
1438.0 0.000695 359.05768 1412.72192
1449.0 0.000690 359.04889 1472.99988
1345.0 0.000743 359.03986 1312.35510
1099.0 0.000910 359.03052 1044.57849
1015.0 0.000985 359.02090 912.04877
1100.0 0.000909 359.01105 985.00763
1327.0 0.000754 359.00095 1267.87036
1780.0 0.000562 358.99051 1741.57642
2317.0 0.000432 358.97992 2328.64478
2692.0 0.000371 358.96899 2620.29761
2357.0 0.000424 358.95773 2250.81714
1624.0 0.000616 358.94632 1586.79590
1163.0 0.000860 358.93463 1146.70056
991.0 0.001009 358.92261 973.63196
922.0 0.001085 358.91034 970.87256
1030.0 0.000971 358.89789 1082.53796
1225.0 0.000816 358.88501 1260.68555
1320.0 0.000758 358.87198 1328.68994
1185.0 0.000844 358.85870 1143.27454
873.0 0.001145 358.84512 868.33459
656.0 0.001524 358.83127 682.07782
527.0 0.001898 358.81714 582.20111
484.0 0.002066 358.80276 522.06659
453.0 0.002208 358.78812 480.23087
424.0 0.002358 358.77316 454.36215
429.0 0.002331 358.75803 439.27057
386.0 0.002591 358.74255 429.63916
447.0 0.002237 358.72684 424.61133
417.0 0.002398 358.71091 421.96338
378.0 0.002646 358.69461 421.92859
420.0 0.002381 358.67816 421.65393
428.0 0.002336 358.66141 424.40448
420.0 0.002381 358.64429 430.06506
401.0 0.002494 358.62701 439.29153
433.0 0.002309 358.60941 454.69885
517.0 0.001934 358.59152 483.18369
561.0 0.001783 358.57343 539.03522
657.0 0.001522 358.55508 648.91498
841.0 0.001189 358.53647 838.44592
1136.0 0.000880 358.51752 1115.18433
1533.0 0.000652 358.49835 1422.10889
1710.0 0.000585 358.47894 1532.08704
1515.0 0.000660 358.45932 1295.69397
1050.0 0.000952 358.43930 966.15125
814.0 0.001229 358.41901 773.30463
716.0 0.001397 358.39856 718.38983
794.0 0.001259 358.37775 753.46808
807.0 0.001239 358.35687 857.07843
979.0 0.001021 358.33548 996.11249
1184.0 0.000845 358.31393 1055.19775
1085.0 0.000922 358.29211 957.94824
924.0 0.001082 358.27005 844.72144
905.0 0.001105 358.24774 856.32990
1070.0 0.000935 358.22513 1031.20557
1353.0 0.000739 358.20224 1357.04248
1755.0 0.000570 358.17914 1789.09924
2075.0 0.000482 358.15576 2065.31616
1971.0 0.000507 358.13205 1866.86780
1448.0 0.000691 358.10815 1370.43176
1010.0 0.000990 358.08395 1017.25403
911.0 0.001098 358.05951 903.94202
1000.0 0.001000 358.03485 962.30377
1141.0 0.000876 358.00983 1100.82385
1251.0 0.000799 357.98462 1269.13550
1331.0 0.000751 357.95914 1376.51013
1318.0 0.000759 357.93335 1286.05286
1128.0 0.000887 357.90735 1081.19312
1016.0 0.000984 357.88101 986.19843
1055.0 0.000948 357.85452 1049.14771
1164.0 0.000859 357.82773 1174.29639
1219.0 0.000820 357.80069 1238.21936
1206.0 0.000829 357.77335 1237.33850
1203.0 0.000831 357.74573 1165.22278
1026.0 0.000975 357.71793 976.32233
780.0 0.001282 357.68973 789.07520
680.0 0.001471 357.66144 704.76410
685.0 0.001460 357.63278 716.16779
740.0 0.001351 357.60388 769.37604
801.0 0.001248 357.57471 808.34772
855.0 0.001170 357.54532 835.20746
873.0 0.001145 357.51572 853.32819
850.0 0.001176 357.48575 837.00842
800.0 0.001250 357.45557 835.66815
845.0 0.001183 357.42511 874.82324
849.0 0.001178 357.39441 863.75854
679.0 0.001473 357.36349 742.84937
573.0 0.001745 357.33228 604.92877
502.0 0.001992 357.30075 523.99420
473.0 0.002114 357.26904 499.96027
440.0 0.002273 357.23706 515.35529
558.0 0.001792 357.20480 558.81622
547.0 0.001828 357.17233 613.99298
632.0 0.001582 357.13947 637.52704
604.0 0.001656 357.10651 600.09351
523.0 0.001912 357.07327 548.68201
591.0 0.001692 357.03970 537.69513
597.0 0.001675 357.00592 588.16632
743.0 0.001346 356.97180 713.72040
919.0 0.001088 356.93753 921.02826
1126.0 0.000888 356.90298 1178.16711
1301.0 0.000769 356.86823 1328.71057
1144.0 0.000874 356.83313 1199.03857
869.0 0.001151 356.79782 910.58771
675.0 0.001481 356.76224 699.84161
598.0 0.001672 356.72641 604.18347
590.0 0.001695 356.69037 602.29382
613.0 0.001631 356.65399 670.14813
726.0 0.001377 356.61740 780.77686
815.0 0.001227 356.58060 864.01709
753.0 0.001328 356.54349 820.12262
691.0 0.001447 356.50616 672.55566
552.0 0.001812 356.46848 545.52637
477.0 0.002096 356.43066 472.03168
433.0 0.002309 356.39261 435.10553
416.0 0.002404 356.35422 417.28055
397.0 0.002519 356.31558 408.11099
368.0 0.002717 356.27673 403.24844
368.0 0.002717 356.23767 401.02194
375.0 0.002667 356.19830 400.62067
396.0 0.002525 356.15872 402.72211
419.0 0.002387 356.11877 408.17441
389.0 0.002571 356.07877 419.62119
400.0 0.002500 356.03833 444.00186
461.0 0.002169 355.99774 489.45554
555.0 0.001802 355.95688 559.69519
633.0 0.001580 355.91580 646.00458
720.0 0.001389 355.87451 702.42926
686.0 0.001458 355.83279 677.91846
629.0 0.001590 355.79102 615.26184
556.0 0.001799 355.74893 591.03552
567.0 0.001764 355.70651 613.08881
620.0 0.001613 355.66397 640.29285
616.0 0.001623 355.62122 634.08411
599.0 0.001669 355.57806 617.55438
635.0 0.001575 355.53479 613.10699
606.0 0.001650 355.49118 594.95795
579.0 0.001727 355.44739 560.91760
555.0 0.001802 355.40326 546.01343
553.0 0.001808 355.35898 561.14075
592.0 0.001689 355.31448 591.08490
599.0 0.001669 355.26968 618.35254
697.0 0.001435 355.22461 664.30096
830.0 0.001205 355.17938 791.17273
1084.0 0.000923 355.13388 1077.00598
1552.0 0.000644 355.08801 1558.66162
2176.0 0.000460 355.04205 2200.45728
2807.0 0.000356 354.99582 2721.97974
2619.0 0.000382 354.94931 2614.39307
1883.0 0.000531 354.90259 1915.40649
1158.0 0.000864 354.85556 1274.95166
867.0 0.001153 354.80844 944.74243
851.0 0.001175 354.76099 883.98407
918.0 0.001089 354.71326 1011.75507
1190.0 0.000840 354.66537 1267.36743
1470.0 0.000680 354.61722 1546.37830
1651.0 0.000606 354.56876 1597.61816
1339.0 0.000747 354.52014 1297.94128
872.0 0.001147 354.47122 922.92334
608.0 0.001645 354.42218 677.67755
518.0 0.001931 354.37286 556.50641
461.0 0.002169 354.32318 503.31046
436.0 0.002294 354.27332 480.03122
436.0 0.002294 354.22333 472.89832
450.0 0.002222 354.17300 481.27216
492.0 0.002033 354.12247 509.35175
553.0 0.001808 354.07175 557.93445
583.0 0.001715 354.02072 617.28680
618.0 0.001618 353.96945 651.39655
582.0 0.001718 353.91797 632.99194
562.0 0.001779 353.86630 606.54742
605.0 0.001653 353.81433 618.83118
655.0 0.001527 353.76215 659.43579
703.0 0.001422 353.70975 676.69775
644.0 0.001553 353.65710 644.73022
597.0 0.001675 353.60425 610.34314
554.0 0.001805 353.55121 597.61084
533.0 0.001876 353.49783 586.26697
550.0 0.001818 353.44431 574.09705
592.0 0.001689 353.39050 585.49127
645.0 0.001550 353.33649 627.88165
695.0 0.001439 353.28223 690.72284
823.0 0.001215 353.22775 776.36475
1014.0 0.000986 353.17303 949.69934
1378.0 0.000726 353.11807 1312.62378
2054.0 0.000487 353.06299 1896.46497
2758.0 0.000363 353.00754 2593.45483
3061.0 0.0003267 352.95197 2962.85596
2522.0 0.000397 352.89612 2555.06348
1630.0 0.000613 352.84006 1759.42200
1090.0 0.000917 352.78381 1179.27649
846.0 0.001182 352.72726 925.49609
847.0 0.001181 352.67053 923.83453
1104.0 0.000906 352.61362 1104.22217
1388.0 0.000720 352.55637 1402.33691
1706.0 0.000586 352.49896 1671.16064
1652.0 0.000605 352.44138 1631.35815
1232.0 0.000812 352.38345 1256.92664
822.0 0.001217 352.32538 877.42322
609.0 0.001642 352.26715 645.48334
478.0 0.002092 352.20862 532.28625
462.0 0.002165 352.14984 479.40411
438.0 0.002283 352.09097 453.45895
404.0 0.002475 352.03171 435.82864
405.0 0.002469 351.97226 423.90543
395.0 0.002532 351.91272 415.74493
374.0 0.002674 351.85287 410.41547
371.0 0.002695 351.79282 407.56219
397.0 0.002519 351.73254 407.45615
370.0 0.002703 351.67206 411.26093
422.0 0.002370 351.61142 423.41174
473.0 0.002114 351.55038 454.12930
534.0 0.001873 351.48932 505.97690
604.0 0.001656 351.42792 581.64972
702.0 0.001425 351.36639 659.84674
743.0 0.001346 351.30463 680.45856
640.0 0.001563 351.24261 610.71008
548.0 0.001825 351.18045 520.33160
452.0 0.002212 351.11795 461.83795
411.0 0.002433 351.05533 441.05640
434.0 0.002304 350.99252 446.63605
440.0 0.002273 350.92950 472.33359
496.0 0.002016 350.86618 509.88559
537.0 0.001862 350.80273 538.98071
548.0 0.001825 350.73904 526.96002
492.0 0.002033 350.67514 481.67072
432.0 0.002315 350.61108 442.88803
415.0 0.002410 350.54669 418.16415
417.0 0.002398 350.48224 411.97278
422.0 0.002370 350.41745 415.59674
419.0 0.002387 350.35257 428.24582
446.0 0.002242 350.28741 450.73102
473.0 0.002114 350.22208 478.32388
482.0 0.002075 350.15656 503.70865
470.0 0.002128 350.09076 507.81604
483.0 0.002070 350.02478 490.02908
494.0 0.002024 349.95865 476.47751
489.0 0.002045 349.89227 482.22903
521.0 0.001919 349.82565 508.06952
605.0 0.001653 349.75891 562.36456
737.0 0.001357 349.69193 668.65491
835.0 0.001198 349.62469 869.01184
1113.0 0.000898 349.55734 1205.27161
1602.0 0.000624 349.48981 1633.79517
2027.0 0.000493 349.42200 2036.59937
2145.0 0.000466 349.35413 2153.48682
1787.0 0.000560 349.28577 1757.11157
1400.0 0.000714 349.21747 1306.03369
1221.0 0.000819 349.14886 1109.00122
1291.0 0.000775 349.08017 1209.87842
1578.0 0.000634 349.01117 1562.26929
1977.0 0.000506 348.94199 2046.63892
2416.0 0.000414 348.87262 2457.22681
2451.0 0.000408 348.80304 2435.18408
2034.0 0.000492 348.73325 1994.51672
1522.0 0.000657 348.66336 1482.55188
1279.0 0.000782 348.59326 1218.67737
1238.0 0.000808 348.52286 1263.23511
1477.0 0.000677 348.45233 1535.44507
1835.0 0.000545 348.38165 1886.30676
2123.0 0.000471 348.31067 2075.55786
1880.0 0.000532 348.23959 1869.82312
1443.0 0.000693 348.16830 1440.34216
1126.0 0.000888 348.09680 1114.00183
983.0 0.001017 348.02521 993.60260
999.0 0.001001 347.95331 1021.47083
1125.0 0.000889 347.88126 1103.63928
1061.0 0.000943 347.80899 1123.40967
1092.0 0.000916 347.73654 1097.52344
1008.0 0.000992 347.66391 988.61456
867.0 0.001153 347.59116 801.36853
643.0 0.001555 347.51810 661.59680
593.0 0.001686 347.44495 602.58643
585.0 0.001709 347.37155 597.29846
593.0 0.001686 347.29810 609.29987
608.0 0.001645 347.22433 596.74432
502.0 0.001992 347.15042 540.73114
482.0 0.002075 347.07629 485.87979
465.0 0.002151 347.00208 455.70648
461.0 0.002169 346.92761 443.95822
440.0 0.002273 346.85300 448.40302
413.0 0.002421 346.77817 472.21451
474.0 0.002110 346.70313 527.06616
575.0 0.001739 346.62799 623.49750
687.0 0.001456 346.55261 744.68353
788.0 0.001269 346.47711 848.25348
867.0 0.001153 346.40140 840.93103
733.0 0.001364 346.32547 706.83044
533.0 0.001876 346.24939 574.74951
452.0 0.002212 346.17319 500.93201
456.0 0.002193 346.09677 480.37949
486.0 0.002058 346.02020 500.31372
525.0 0.001905 345.94336 553.85352
610.0 0.001639 345.86646 628.61444
701.0 0.001427 345.78937 702.92560
756.0 0.001323 345.71204 735.71210
798.0 0.001253 345.63461 725.59680
733.0 0.001364 345.55701 706.75446
661.0 0.001513 345.47916 651.76495
592.0 0.001689 345.40121 565.95404
548.0 0.001825 345.32315 494.90512
467.0 0.002141 345.24475 459.16144
418.0 0.002392 345.16623 452.14728
453.0 0.002208 345.08759 466.24194
487.0 0.002053 345.00882 497.55978
551.0 0.001815 344.92984 536.27423
619.0 0.001616 344.85068 567.24048
656.0 0.001524 344.77139 578.79376
665.0 0.001504 344.69189 599.49048
699.0 0.001431 344.61227 681.97791
873.0 0.001145 344.53247 861.04767
1139.0 0.000878 344.45251 1108.23877
1520.0 0.000658 344.37234 1336.50317
1580.0 0.000633 344.29199 1376.71204
1277.0 0.000783 344.21158 1147.90540
1002.0 0.000998 344.13101 919.37427
908.0 0.001101 344.05020 850.46826
1001.0 0.000999 343.96924 971.83704
1138.0 0.000879 343.88821 1254.18665
1439.0 0.000695 343.80688 1603.30457
1676.0 0.000597 343.72552 1846.86670
1839.0 0.000544 343.64395 1747.39868
1477.0 0.000677 343.56223 1416.51819
1075.0 0.000930 343.48032 1059.24377
868.0 0.001152 343.39828 845.61804
849.0 0.001178 343.31616 802.40723
920.0 0.001087 343.23373 887.18567
1091.0 0.000917 343.15121 1033.83545
1137.0 0.000880 343.06854 1133.74084
1081.0 0.000925 342.98581 1097.06738
933.0 0.001072 342.90283 906.47443
717.0 0.001395 342.81973 703.59637
576.0 0.001736 342.73642 577.38263
506.0 0.001976 342.65305 528.90552
524.0 0.001908 342.56946 533.44446
546.0 0.001832 342.48578 561.02734
596.0 0.001678 342.40189 583.79425
570.0 0.001754 342.31790 561.62726
528.0 0.001894 342.23373 500.94223
445.0 0.002247 342.14938 448.78775
425.0 0.002353 342.06494 418.53036
397.0 0.002519 341.98044 405.25598
377.0 0.002653 341.89566 402.33264
362.0 0.002762 341.81073 405.72733
391.0 0.002558 341.72577 411.85843
429.0 0.002331 341.64063 417.32016
417.0 0.002398 341.55524 414.26944
386.0 0.002591 341.46976 406.46490
387.0 0.002584 341.38422 402.09256
394.0 0.002538 341.29849 403.30115
408.0 0.002451 341.21262 411.45181
440.0 0.002273 341.12662 426.84381
477.0 0.002096 341.04041 457.94376
548.0 0.001825 340.95413 517.40167
632.0 0.001582 340.86771 623.24323
768.0 0.001302 340.78122 762.51721
928.0 0.001078 340.69446 890.33142
956.0 0.001046 340.60764 920.97980
900.0 0.001111 340.52066 813.45966
809.0 0.001236 340.43356 710.42487
793.0 0.001261 340.34631 706.64331
871.0 0.001148 340.25885 832.92633
1054.0 0.000949 340.17139 1075.45190
1334.0 0.000750 340.08371 1362.12378
1557.0 0.000642 339.99603 1546.98291
1455.0 0.000687 339.90814 1436.67896
1207.0 0.000829 339.82010 1155.77332
937.0 0.001067 339.73190 890.19598
726.0 0.001377 339.64359 741.08295
720.0 0.001389 339.55521 723.08960
775.0 0.001290 339.46667 805.36310
899.0 0.001112 339.37799 943.44073
1018.0 0.000982 339.28912 1051.10767
1007.0 0.000993 339.20026 1061.26538
988.0 0.001012 339.11124 930.32794
797.0 0.001255 339.02209 749.10480
666.0 0.001502 338.93280 632.01550
670.0 0.001493 338.84332 603.39551
679.0 0.001473 338.75385 646.84601
735.0 0.001361 338.66418 723.34784
869.0 0.001151 338.57440 783.23206
724.0 0.001381 338.48447 758.28027
683.0 0.001464 338.39441 675.81024
632.0 0.001582 338.30426 624.82611
610.0 0.001639 338.21402 639.86731
720.0 0.001389 338.12369 732.01581
810.0 0.001235 338.03314 878.72552
988.0 0.001012 337.94257 1023.61353
1027.0 0.000974 337.85181 1065.87244
997.0 0.001003 337.76096 992.18689
965.0 0.001036 337.67007 937.74237
942.0 0.001062 337.57892 980.91235
1061.0 0.000943 337.48773 1108.85400
1265.0 0.000791 337.39642 1231.27539
1214.0 0.000824 337.30502 1198.27161
1008.0 0.000992 337.21356 1041.96863
877.0 0.001140 337.12189 912.83337
781.0 0.001280 337.03009 814.19055
690.0 0.001449 336.93829 716.61829
595.0 0.001681 336.84634 668.38696
638.0 0.001567 336.75427 695.62299
753.0 0.001328 336.66208 777.06366
882.0 0.001134 336.56973 871.15167
923.0 0.001083 336.47739 922.39575
984.0 0.001016 336.38489 961.45892
1089.0 0.000918 336.29230 1074.40515
1219.0 0.000820 336.19965 1226.28479
1240.0 0.000806 336.10675 1279.94421
1075.0 0.000930 336.01382 1100.04041
869.0 0.001151 335.92084 849.43097
679.0 0.001473 335.82767 685.71210
603.0 0.001658 335.73450 631.22577
620.0 0.001613 335.64114 651.90442
684.0 0.001462 335.54770 712.99188
747.0 0.001339 335.45422 777.50891
795.0 0.001258 335.36060 833.16132
833.0 0.001200 335.26685 849.62427
749.0 0.001335 335.17303 759.53229
632.0 0.001582 335.07913 622.76923
562.0 0.001779 334.98511 524.50983
460.0 0.002174 334.89102 478.73523
481.0 0.002079 334.79681 466.31555
453.0 0.002208 334.70248 462.73544
431.0 0.002320 334.60818 446.64691
408.0 0.002451 334.51364 420.94684
395.0 0.002532 334.41910 401.66385
392.0 0.002551 334.32443 393.92773
404.0 0.002475 334.22964 398.73383
405.0 0.002469 334.13480 418.06454
429.0 0.002331 334.03986 451.52466
501.0 0.001996 333.94485 492.24429
532.0 0.001880 333.84979 517.71442
520.0 0.001923 333.75455 501.29288
469.0 0.002132 333.65924 454.13599
386.0 0.002591 333.56384 413.18616
367.0 0.002725 333.46844 389.88541
359.0 0.002786 333.37286 382.23572
421.0 0.002375 333.27722 386.55157
377.0 0.002653 333.18152 400.37567
466.0 0.002146 333.08578 420.34497
479.0 0.002088 332.98984 436.27985
445.0 0.002247 332.89386 434.27933
460.0 0.002174 332.79785 413.90628
397.0 0.002519 332.70163 393.99194
389.0 0.002571 332.60553 382.44855
374.0 0.002674 332.50925 379.28876
344.0 0.002907 332.41287 382.18646
387.0 0.002584 332.31638 389.54593
391.0 0.002558 332.21988 405.93018
425.0 0.002353 332.12332 439.00250
508.0 0.001969 332.02664 505.19391
593.0 0.001686 331.92993 624.86090
780.0 0.001282 331.83307 792.60394
939.0 0.001065 331.73618 953.28705
1021.0 0.000979 331.63919 1007.95117
939.0 0.001065 331.54221 881.91400
700.0 0.001429 331.44507 714.14880
616.0 0.001623 331.34787 613.62146
593.0 0.001686 331.25064 586.66199
580.0 0.001724 331.15335 607.77148
614.0 0.001629 331.05597 661.36670
715.0 0.001399 330.95853 735.61121
733.0 0.001364 330.86096 789.24719
750.0 0.001333 330.76331 798.51294
691.0 0.001447 330.66568 726.39374
606.0 0.001650 330.56790 614.55640
550.0 0.001818 330.47012 536.48297
515.0 0.001942 330.37228 507.83060
526.0 0.001901 330.27432 515.94830
559.0 0.001789 330.17639 555.46106
619.0 0.001616 330.07828 627.48596
681.0 0.001468 329.98016 716.15308
750.0 0.001333 329.88196 787.62421
774.0 0.001292 329.78372 789.37360
660.0 0.001515 329.68549 684.93127
515.0 0.001942 329.58716 562.51117
450.0 0.002222 329.48871 482.20618
421.0 0.002375 329.39017 445.70886
448.0 0.002232 329.29163 442.16046
478.0 0.002092 329.19308 465.34763
489.0 0.002045 329.09445 511.93231
539.0 0.001855 328.99573 568.35626
601.0 0.001664 328.89700 612.69318
604.0 0.001656 328.79816 617.90076
629.0 0.001590 328.69925 612.29333
614.0 0.001629 328.60037 630.43536
654.0 0.001529 328.50137 663.33466
689.0 0.001451 328.40240 685.87653
700.0 0.001429 328.30325 715.32159
801.0 0.001248 328.20419 764.07288
803.0 0.001245 328.10498 801.08887
796.0 0.001256 328.00577 802.46771
822.0 0.001217 327.90643 834.21399
932.0 0.001073 327.80710 916.18109
1042.0 0.000960 327.70779 981.22650
930.0 0.001075 327.60834 934.45941
818.0 0.001222 327.50891 812.37555
723.0 0.001383 327.40933 715.30505
691.0 0.001447 327.30981 681.79340
695.0 0.001439 327.21021 689.64417
701.0 0.001427 327.11060 694.44513
697.0 0.001435 327.01089 693.03583
715.0 0.001399 326.91119 711.41681
814.0 0.001229 326.81140 752.02625
903.0 0.001107 326.71155 787.73395
955.0 0.001047 326.61176 829.23425
1101.0 0.000908 326.51181 946.81708
1236.0 0.000809 326.41193 1142.20544
1494.0 0.000669 326.31192 1334.37451
1557.0 0.000642 326.21188 1382.13477
1398.0 0.000715 326.11194 1282.08533
1160.0 0.000862 326.01181 1137.74805
925.0 0.001081 325.91165 945.50787
770.0 0.001299 325.81152 771.64587
729.0 0.001372 325.71133 688.52362
747.0 0.001339 325.61118 706.94043
840.0 0.001190 325.51089 807.39825
981.0 0.001019 325.41055 943.26532
1082.0 0.000924 325.31024 1045.03528
1116.0 0.000896 325.20990 1056.80615
1078.0 0.000928 325.10953 1046.14063
1002.0 0.000998 325.00916 1050.26318
952.0 0.001050 324.90863 1044.30103
897.0 0.001115 324.80820 1005.30334
858.0 0.001166 324.70767 925.19287
816.0 0.001225 324.60718 874.79944
793.0 0.001261 324.50659 864.02179
835.0 0.001198 324.40607 872.38000
808.0 0.001238 324.30542 853.73547
721.0 0.001387 324.20486 786.90924
682.0 0.001466 324.10416 743.11920
702.0 0.001425 324.00342 757.27289
762.0 0.001312 323.90280 816.09784
875.0 0.001143 323.80197 903.52356
1019.0 0.000981 323.70129 1066.56506
1298.0 0.000770 323.60056 1344.05054
1583.0 0.000632 323.49973 1676.51013
1824.0 0.000548 323.39890 1901.08948
1824.0 0.000548 323.29807 1835.92822
1560.0 0.000641 323.19727 1553.94495
1204.0 0.000831 323.09641 1195.83386
882.0 0.001134 322.99548 897.59454
692.0 0.001445 322.89453 730.98407
654.0 0.001529 322.79364 690.16351
716.0 0.001397 322.69275 752.08575
817.0 0.001224 322.59180 883.64880
947.0 0.001056 322.49084 1023.81342
1068.0 0.000936 322.38989 1075.01294
1004.0 0.000996 322.28891 1001.94714
804.0 0.001244 322.18784 854.09375
694.0 0.001441 322.08688 688.75208
637.0 0.001570 321.98581 564.83746
504.0 0.001984 321.88477 495.63495
482.0 0.002075 321.78375 469.25967
470.0 0.002128 321.68271 478.77408
532.0 0.001880 321.58163 524.68439
579.0 0.001727 321.48059 606.60486
615.0 0.001626 321.37949 698.87640
759.0 0.001318 321.27835 748.13501
679.0 0.001473 321.17728 695.83795
562.0 0.001779 321.07626 589.04950
479.0 0.002088 320.97507 506.38312
462.0 0.002165 320.87396 467.39102
470.0 0.002128 320.77286 471.24683
513.0 0.001949 320.67178 519.78424
659.0 0.001517 320.57071 624.97382
836.0 0.001196 320.46948 781.13458
944.0 0.001059 320.36841 931.81152
1026.0 0.000975 320.26724 975.80981
865.0 0.001156 320.16620 845.25586
688.0 0.001453 320.06506 662.91614
543.0 0.001842 319.96387 530.26587
477.0 0.002096 319.86273 461.09958
429.0 0.002331 319.76172 437.59152
440.0 0.002273 319.66052 446.06955
453.0 0.002208 319.55948 482.05807
524.0 0.001908 319.45834 536.04596
571.0 0.001751 319.35727 580.92053
591.0 0.001692 319.25613 581.82733
582.0 0.001718 319.15503 534.31091
550.0 0.001818 319.05399 495.83859
522.0 0.001916 318.95285 500.62598
560.0 0.001786 318.85178 552.49341
611.0 0.001637 318.75079 625.21997
655.0 0.001527 318.64975 668.95642
628.0 0.001592 318.54861 628.86420
526.0 0.001901 318.44763 534.50653
432.0 0.002315 318.34662 455.24863
384.0 0.002604 318.24561 409.31531
379.0 0.002639 318.14459 390.67401
374.0 0.002674 318.04361 393.09158
404.0 0.002475 317.94260 413.51801
458.0 0.002183 317.84174 449.10931
497.0 0.002012 317.74066 486.00244
489.0 0.002045 317.63986 499.03784
481.0 0.002079 317.53888 468.88193
433.0 0.002309 317.43799 421.93204
377.0 0.002653 317.33710 386.37250
374.0 0.002674 317.23621 366.35938
379.0 0.002639 317.13541 356.51358
352.0 0.002841 317.03455 353.00638
341.0 0.002933 316.93375 352.31729
328.0 0.003049 316.83292 353.40579
361.0 0.002770 316.73221 356.07217
358.0 0.002793 316.63141 360.73007
387.0 0.002584 316.53070 367.59418
399.0 0.002506 316.43005 378.28012
417.0 0.002398 316.32932 396.20523
438.0 0.002283 316.22864 428.44998
524.0 0.001908 316.12805 491.33456
611.0 0.001637 316.02740 604.98444
732.0 0.001366 315.92679 778.49121
891.0 0.001122 315.82629 981.07202
1042.0 0.000960 315.72568 1130.46277
1006.0 0.000994 315.62524 1143.28906
1020.0 0.000980 315.52475 1036.81531
815.0 0.001227 315.42426 888.33710
660.0 0.001515 315.32382 724.16125
598.0 0.001672 315.22339 598.64594
552.0 0.001812 315.12308 543.41138
523.0 0.001912 315.02274 555.38043
558.0 0.001792 314.92249 619.47662
656.0 0.001524 314.82217 705.13074
744.0 0.001344 314.72186 760.07465
721.0 0.001387 314.62164 745.89838
717.0 0.001395 314.52158 682.03613
580.0 0.001724 314.42136 600.51068
460.0 0.002174 314.32126 513.43036
446.0 0.002242 314.22119 445.88531
391.0 0.002558 314.12109 405.26724
362.0 0.002762 314.02112 384.51630
375.0 0.002667 313.92111 375.79959
387.0 0.002584 313.82117 375.69196
367.0 0.002725 313.72128 383.55185
421.0 0.002375 313.62143 404.61597
438.0 0.002283 313.52158 446.99341
470.0 0.002128 313.42184 511.54514
595.0 0.001681 313.32208 578.13037
664.0 0.001506 313.22244 605.97192
568.0 0.001761 313.12274 561.53778
461.0 0.002169 313.02310 486.77850
415.0 0.002410 312.92358 429.72433
410.0 0.002439 312.82397 400.07108
397.0 0.002519 312.72449 393.02173
397.0 0.002519 312.62506 398.85864
415.0 0.002410 312.52567 417.69293
431.0 0.002320 312.42627 448.75583
457.0 0.002188 312.32697 481.35101
495.0 0.002020 312.22766 494.46756
487.0 0.002053 312.12848 473.83932
478.0 0.002092 312.02936 442.95694
446.0 0.002242 311.93018 424.57654
450.0 0.002222 311.83109 424.46826
475.0 0.002105 311.73206 444.06580
534.0 0.001873 311.63309 489.59576
631.0 0.001585 311.53412 582.43579
770.0 0.001299 311.43521 742.59412
957.0 0.001045 311.33640 959.52972
1106.0 0.000904 311.23758 1151.54199
1120.0 0.000893 311.13889 1188.18530
1059.0 0.000944 311.04022 1041.10022
901.0 0.001110 310.94156 892.43640
851.0 0.001175 310.84305 862.86169
953.0 0.001049 310.74442 973.85107
1201.0 0.000833 310.64600 1176.85107
1267.0 0.000789 310.54764 1360.08923
1324.0 0.000755 310.44928 1385.17615
1175.0 0.000851 310.35095 1278.46313
1105.0 0.000905 310.25272 1176.77271
1037.0 0.000964 310.15451 1060.70691
833.0 0.001200 310.05640 896.86554
722.0 0.001385 309.95837 756.75336
656.0 0.001524 309.86035 698.32318
723.0 0.001383 309.76233 727.58472
767.0 0.001304 309.66446 814.07928
864.0 0.001157 309.56665 892.46698
819.0 0.001221 309.46884 881.84741
743.0 0.001346 309.37109 786.38934
670.0 0.001493 309.27344 682.84369
649.0 0.001541 309.17590 612.91895
596.0 0.001678 309.07834 575.78320
607.0 0.001647 308.98093 577.45929
645.0 0.001550 308.88345 639.20087
741.0 0.001350 308.78613 793.65125
997.0 0.001003 308.68884 1065.60779
1320.0 0.000758 308.59167 1410.38745
1516.0 0.000660 308.49451 1666.80237
1529.0 0.000654 308.39746 1614.36133
1227.0 0.000815 308.30045 1277.68103
910.0 0.001099 308.20346 937.18677
731.0 0.001368 308.10666 718.73352
605.0 0.001653 308.00983 620.83398
600.0 0.001667 307.91309 614.98712
673.0 0.001486 307.81644 688.33081
782.0 0.001279 307.71982 837.95972
967.0 0.001034 307.62332 1028.93604
1102.0 0.000907 307.52682 1164.22656
1081.0 0.000925 307.43042 1126.21155
920.0 0.001087 307.33411 939.49036
769.0 0.001300 307.23792 760.91736
680.0 0.001471 307.14169 664.50830
665.0 0.001504 307.04565 661.87445
753.0 0.001328 306.94958 741.58295
872.0 0.001147 306.85364 879.97449
1014.0 0.000986 306.75778 1020.93201
1096.0 0.000912 306.66202 1084.18530
1130.0 0.000885 306.56625 1070.58850
1233.0 0.000811 306.47058 1116.46326
1418.0 0.000705 306.37503 1364.97253
1859.0 0.000538 306.27957 1886.08606
2446.0 0.000409 306.18414 2579.51660
2955.0 0.0003384 306.08884 3106.24707
2978.0 0.0003358 305.99347 3022.34546
2457.0 0.000407 305.89832 2401.64795
1803.0 0.000555 305.80319 1774.62427
1355.0 0.000738 305.70816 1329.66638
1095.0 0.000913 305.61325 1048.46069
943.0 0.001060 305.51834 923.91669
952.0 0.001050 305.42352 959.36853
1122.0 0.000891 305.32895 1154.82300
1413.0 0.000708 305.23431 1460.24744
1703.0 0.000587 305.13974 1716.36255
1710.0 0.000585 305.04529 1694.01379
1408.0 0.000710 304.95084 1365.71936
1096.0 0.000912 304.85660 1001.49756
756.0 0.001323 304.76242 738.59985
560.0 0.001786 304.66827 579.89807
517.0 0.001934 304.57428 496.44733
452.0 0.002212 304.48032 451.19385
414.0 0.002415 304.38647 423.90573
442.0 0.002262 304.29272 405.30368
402.0 0.002488 304.19904 391.98706
382.0 0.002618 304.10538 382.43570
391.0 0.002558 304.01187 375.66907
400.0 0.002500 303.91846 371.93906
384.0 0.002604 303.82513 368.99133
379.0 0.002639 303.73187 366.08896
402.0 0.002488 303.63876 366.33420
403.0 0.002481 303.54565 368.61371
402.0 0.002488 303.45273 373.84985
393.0 0.002545 303.35983 384.36945
465.0 0.002151 303.26706 404.70541
500.0 0.002000 303.17435 441.57776
567.0 0.001764 303.08173 500.70212
706.0 0.001416 302.98926 578.92554
766.0 0.001305 302.89676 662.07190
777.0 0.001287 302.80444 732.96802
786.0 0.001272 302.71219 789.63861
840.0 0.001190 302.62009 807.02380
804.0 0.001244 302.52808 752.28693
714.0 0.001401 302.43616 679.79852
614.0 0.001629 302.34424 646.89532
601.0 0.001664 302.25250 636.36987
659.0 0.001517 302.16086 626.72949
682.0 0.001466 302.06927 627.98199
724.0 0.001381 301.97784 656.57141
781.0 0.001280 301.88644 724.44006
803.0 0.001245 301.79520 836.95856
867.0 0.001153 301.70398 936.27167
959.0 0.001043 301.61295 938.30499
955.0 0.001047 301.52197 848.54028
849.0 0.001178 301.43112 775.80035
830.0 0.001205 301.34036 791.12817
883.0 0.001133 301.24963 920.28369
1040.0 0.000962 301.15909 1162.96411
1265.0 0.000791 301.06870 1439.13342
1355.0 0.000738 300.97821 1506.96082
1279.0 0.000782 300.88800 1290.09241
1098.0 0.000911 300.79785 1027.28772
888.0 0.001126 300.70773 835.92889
747.0 0.001339 300.61786 693.94434
682.0 0.001466 300.52802 595.95447
629.0 0.001590 300.43823 557.02826
607.0 0.001647 300.34857 586.77460
617.0 0.001621 300.25909 685.44305
730.0 0.001370 300.16965 824.68323
748.0 0.001337 300.08032 901.59106
814.0 0.001229 299.99106 817.14508
711.0 0.001406 299.90198 658.18646
600.0 0.001667 299.81299 527.80743
460.0 0.002174 299.72418 450.19727
431.0 0.002320 299.63535 407.26874
398.0 0.002513 299.54663 381.16391
377.0 0.002653 299.45804 364.04330
414.0 0.002415 299.36960 352.43649
381.0 0.002625 299.28128 344.58594
323.0 0.003096 299.19305 339.86649
348.0 0.002874 299.10489 337.49362
344.0 0.002907 299.01688 337.92746
399.0 0.002506 298.92896 342.21933
394.0 0.002538 298.84113 351.21014
399.0 0.002506 298.75351 363.18073
394.0 0.002538 298.66583 372.02087
398.0 0.002513 298.57843 373.28046
411.0 0.002433 298.49106 372.03799
427.0 0.002342 298.40390 369.30496
408.0 0.002451 298.31671 359.91806
394.0 0.002538 298.22974 347.82462
392.0 0.002551 298.14285 338.36642
377.0 0.002653 298.05609 334.01569
390.0 0.002564 297.96942 334.12573
385.0 0.002597 297.88281 337.77585
375.0 0.002667 297.79642 343.93558
356.0 0.002809 297.71017 348.46967
355.0 0.002817 297.62390 351.09402
354.0 0.002825 297.53781 353.78659
389.0 0.002571 297.45190 354.72800
406.0 0.002463 297.36597 351.76093
390.0 0.002564 297.28027 353.04156
392.0 0.002551 297.19467 360.59650
390.0 0.002564 297.10916 375.21863
414.0 0.002415 297.02374 400.18301
457.0 0.002188 296.93845 444.41623
516.0 0.001938 296.85336 520.67841
600.0 0.001667 296.76837 634.18280
701.0 0.001427 296.68344 750.81982
756.0 0.001323 296.59869 780.97974
751.0 0.001332 296.51398 707.51208
681.0 0.001468 296.42944 633.99323
637.0 0.001570 296.34512 632.68390
703.0 0.001422 296.26080 735.76935
863.0 0.001159 296.17661 947.42743
1085.0 0.000922 296.09262 1204.96497
1269.0 0.000788 296.00861 1325.10693
1202.0 0.000832 295.92477 1200.29346
1050.0 0.000952 295.84116 1001.88965
854.0 0.001171 295.75757 841.79956
731.0 0.001368 295.67416 708.16455
617.0 0.001621 295.59082 603.34570
588.0 0.001701 295.50766 550.43579
582.0 0.001718 295.42465 557.50287
637.0 0.001570 295.34171 628.24518
712.0 0.001404 295.25888 752.91522
793.0 0.001261 295.17618 880.41138
892.0 0.001121 295.09363 908.88586
860.0 0.001163 295.01123 853.55182
812.0 0.001232 294.92892 791.35291
807.0 0.001239 294.84668 743.85382
783.0 0.001277 294.76465 741.53772
791.0 0.001264 294.68280 782.19043
802.0 0.001247 294.60098 803.64459
760.0 0.001316 294.51935 745.09283
660.0 0.001515 294.43774 640.21204
606.0 0.001650 294.35638 555.36615
530.0 0.001887 294.27515 516.98492
515.0 0.001942 294.19394 519.09711
524.0 0.001908 294.11298 549.62793
619.0 0.001616 294.03201 592.44550
633.0 0.001580 293.95129 658.84180
758.0 0.001319 293.87067 785.46478
921.0 0.001086 293.79019 990.62958
1212.0 0.000825 293.70978 1236.88330
1512.0 0.000661 293.62958 1419.63586
1516.0 0.000660 293.54941 1423.28784
1391.0 0.000719 293.46954 1278.48816
1162.0 0.000861 293.38974 1056.84814
904.0 0.001106 293.30997 846.34320
798.0 0.001253 293.23044 697.22827
615.0 0.001626 293.15094 609.15735
575.0 0.001739 293.07162 580.65643
586.0 0.001706 292.99258 611.13171
651.0 0.001536 292.91348 698.90277
804.0 0.001244 292.83456 823.66248
900.0 0.001111 292.75574 917.73981
986.0 0.001014 292.67712 933.66125
969.0 0.001032 292.59866 901.34918
922.0 0.001085 292.52026 876.81573
963.0 0.001038 292.44211 935.89606
1060.0 0.000943 292.36398 1117.45923
1239.0 0.000807 292.28595 1390.32935
1414.0 0.000707 292.20819 1589.94531
1484.0 0.000674 292.13055 1518.15955
1388.0 0.000720 292.05292 1316.97205
1273.0 0.000786 291.97556 1241.01001
1299.0 0.000770 291.89825 1406.91479
1578.0 0.000634 291.82111 1808.39075
2045.0 0.000489 291.74420 2255.44287
2325.0 0.000430 291.66730 2345.73682
2145.0 0.000466 291.59061 2009.18542
1709.0 0.000585 291.51401 1634.34949
1330.0 0.000752 291.43756 1413.55835
1156.0 0.000865 291.36127 1270.54956
1030.0 0.000971 291.28510 1099.33215
943.0 0.001060 291.20905 962.52887
953.0 0.001049 291.13318 946.57819
1083.0 0.000923 291.05743 1091.89258
1282.0 0.000780 290.98187 1389.36987
1597.0 0.000626 290.90637 1718.84424
1844.0 0.000542 290.83099 1850.92200
1933.0 0.000517 290.75589 1707.02258
1645.0 0.000608 290.68085 1365.45776
1268.0 0.000789 290.60583 1006.56921
917.0 0.001091 290.53113 750.77344
719.0 0.001391 290.45654 607.99915
608.0 0.001645 290.38208 545.87701
562.0 0.001779 290.30777 539.63696
634.0 0.001577 290.23352 572.00024
729.0 0.001372 290.15942 632.60199
756.0 0.001323 290.08554 716.64087
869.0 0.001151 290.01184 815.50500
874.0 0.001144 289.93811 868.15070
913.0 0.001095 289.86469 815.18671
817.0 0.001224 289.79135 689.99023
693.0 0.001443 289.71817 562.27502
551.0 0.001815 289.64514 474.00070
480.0 0.002083 289.57220 426.34256
436.0 0.002294 289.49945 408.52664
425.0 0.002353 289.42688 405.83356
465.0 0.002151 289.35431 404.98279
432.0 0.002315 289.28207 403.52747
420.0 0.002381 289.20987 407.96915
404.0 0.002475 289.13782 417.05780
449.0 0.002227 289.06598 419.64453
451.0 0.002217 288.99423 400.96176
415.0 0.002410 288.92261 374.21292
398.0 0.002513 288.85120 352.68317
381.0 0.002625 288.77988 339.21957
358.0 0.002793 288.70862 328.51425
353.0 0.002833 288.63766 325.50299
365.0 0.002740 288.56680 324.56354
355.0 0.002817 288.49612 325.06140
346.0 0.002890 288.42554 325.89883
346.0 0.002890 288.35507 329.82669
367.0 0.002725 288.28482 337.43292
372.0 0.002688 288.21466 352.14948
370.0 0.002703 288.14474 378.63660
409.0 0.002445 288.07495 419.37708
502.0 0.001992 288.00519 466.94559
506.0 0.001976 287.93570 491.79889
487.0 0.002053 287.86627 475.32480
476.0 0.002101 287.79703 441.74374
459.0 0.002179 287.72794 419.20938
475.0 0.002105 287.65903 422.69092
517.0 0.001934 287.59027 459.16550
595.0 0.001681 287.52151 541.47223
702.0 0.001425 287.45306 678.52905
852.0 0.001174 287.38477 863.94135
1037.0 0.000964 287.31656 1042.31824
1138.0 0.000879 287.24850 1168.78259
1217.0 0.000822 287.18066 1218.63208
1236.0 0.000809 287.11288 1116.80420
1132.0 0.000883 287.04523 918.88306
898.0 0.001114 286.97778 729.22614
692.0 0.001445 286.91049 592.74341
568.0 0.001761 286.84338 522.99945
558.0 0.001792 286.77640 514.52094
555.0 0.001802 286.70956 556.47949
638.0 0.001567 286.64285 634.96515
729.0 0.001372 286.57623 717.79871
800.0 0.001250 286.50995 783.77826
889.0 0.001125 286.44366 817.67963
922.0 0.001085 286.37756 767.99384
781.0 0.001280 286.31168 655.10590
657.0 0.001522 286.24591 540.72015
534.0 0.001873 286.18030 453.34995
454.0 0.002203 286.11478 398.82962
376.0 0.002660 286.04944 369.33954
395.0 0.002532 285.98428 355.70581
375.0 0.002667 285.91925 352.15897
402.0 0.002488 285.85437 355.48312
408.0 0.002451 285.78967 362.64334
420.0 0.002381 285.72522 369.22665
423.0 0.002364 285.66068 367.17792
392.0 0.002551 285.59650 355.45724
374.0 0.002674 285.53235 342.94687
356.0 0.002809 285.46841 334.69922
349.0 0.002865 285.40463 331.33224
341.0 0.002933 285.34097 332.05203
390.0 0.002564 285.27750 335.67770
374.0 0.002674 285.21411 342.82196
390.0 0.002564 285.15100 355.07648
396.0 0.002525 285.08798 373.26840
446.0 0.002242 285.02505 407.53809
498.0 0.002008 284.96237 475.17609
589.0 0.001698 284.89984 596.82861
716.0 0.001397 284.83743 779.21960
837.0 0.001195 284.77515 978.24512
967.0 0.001034 284.71301 1058.10718
942.0 0.001062 284.65106 936.68317
772.0 0.001295 284.58939 740.75311
591.0 0.001692 284.52765 587.28943
475.0 0.002105 284.46616 502.97311
493.0 0.002028 284.40488 479.66772
525.0 0.001905 284.34366 491.96265
558.0 0.001792 284.28268 514.81012
590.0 0.001695 284.22183 543.82983
608.0 0.001645 284.16113 598.52942
634.0 0.001577 284.10059 672.18066
666.0 0.001502 284.04016 703.03790
657.0 0.001522 283.97989 640.09448
563.0 0.001776 283.91983 536.64288
473.0 0.002114 283.85995 452.17169
436.0 0.002294 283.80014 402.08395
407.0 0.002457 283.74051 381.86945
386.0 0.002591 283.68103 377.87527
400.0 0.002500 283.62180 373.52182
393.0 0.002545 283.56262 359.73975
348.0 0.002874 283.50357 343.37158
331.0 0.003021 283.44476 330.32953
349.0 0.002865 283.38605 322.22964
356.0 0.002809 283.32761 318.08258
349.0 0.002865 283.26923 316.56287
350.0 0.002857 283.21097 316.67078
320.0 0.003125 283.15286 318.28128
357.0 0.002801 283.09503 321.42328
343.0 0.002915 283.03729 326.54822
331.0 0.003021 282.97971 335.06207
363.0 0.002755 282.92230 348.96112
403.0 0.002481 282.86499 373.56833
455.0 0.002198 282.80783 417.72647
526.0 0.001901 282.75092 494.16556
624.0 0.001603 282.69415 612.97235
689.0 0.001451 282.63742 770.32806
810.0 0.001235 282.58093 910.04193
888.0 0.001126 282.52460 912.65936
769.0 0.001300 282.46848 771.97711
671.0 0.001490 282.41238 608.72192
521.0 0.001919 282.35657 489.89520
474.0 0.002110 282.30087 420.38174
412.0 0.002427 282.24533 391.78857
409.0 0.002445 282.18988 390.67892
433.0 0.002309 282.13461 413.01379
420.0 0.002381 282.07959 459.58325
494.0 0.002024 282.02460 528.97382
572.0 0.001748 281.96991 600.30768
599.0 0.001669 281.91525 617.43671
590.0 0.001695 281.86081 556.31512
498.0 0.002008 281.80652 471.47180
460.0 0.002174 281.75238 404.19135
425.0 0.002353 281.69836 362.43341
351.0 0.002849 281.64459 341.41669
375.0 0.002667 281.59094 332.94092
360.0 0.002778 281.53738 331.10016
361.0 0.002770 281.48401 331.76099
369.0 0.002710 281.43082 332.17075
337.0 0.002967 281.37778 334.31976
348.0 0.002874 281.32492 344.03787
389.0 0.002571 281.27219 366.63956
453.0 0.002208 281.21967 403.83258
511.0 0.001957 281.16724 447.65973
557.0 0.001795 281.11502 471.58572
526.0 0.001901 281.06290 452.54108
474.0 0.002110 281.01093 412.98212
418.0 0.002392 280.95917 381.14917
399.0 0.002506 280.90756 366.38513
392.0 0.002551 280.85605 368.32709
420.0 0.002381 280.80475 385.06558
431.0 0.002320 280.75351 415.13007
475.0 0.002105 280.70258 452.80927
519.0 0.001927 280.65179 490.48651
530.0 0.001887 280.60110 508.72491
517.0 0.001934 280.55054 495.97174
495.0 0.002020 280.50015 459.56961
480.0 0.002083 280.44998 417.96335
426.0 0.002347 280.39990 388.22302
418.0 0.002392 280.35001 380.34497
408.0 0.002451 280.30026 397.05890
475.0 0.002105 280.25064 444.52704
532.0 0.001880 280.20126 528.89447
602.0 0.001661 280.15195 642.19684
659.0 0.001517 280.10294 742.97833
667.0 0.001499 280.05389 750.35400
653.0 0.001531 280.00516 654.06622
574.0 0.001742 279.95648 535.53790
499.0 0.002004 279.90796 447.52692
419.0 0.002387 279.85968 394.96359
388.0 0.002577 279.81143 370.57477
384.0 0.002604 279.76346 366.32904
343.0 0.002915 279.71558 379.65604
381.0 0.002625 279.66791 412.60834
432.0 0.002315 279.62039 465.76492
491.0 0.002037 279.57300 526.50244
527.0 0.001898 279.52573 556.71619
533.0 0.001876 279.47864 529.79962
529.0 0.001890 279.43170 479.01895
448.0 0.002232 279.38492 440.90042
446.0 0.002242 279.33838 432.11639
409.0 0.002445 279.29190 447.76721
465.0 0.002151 279.24564 473.23630
440.0 0.002273 279.19946 486.66379
542.0 0.001845 279.15341 480.43576
483.0 0.002070 279.10764 457.86008
440.0 0.002273 279.06195 431.94650
443.0 0.002257 279.01642 416.16440
428.0 0.002336 278.97104 413.59436
431.0 0.002320 278.92587 428.48627
483.0 0.002070 278.88086 469.76712
596.0 0.001678 278.83597 546.43756
691.0 0.001447 278.79114 656.95203
747.0 0.001339 278.74661 766.46716
824.0 0.001214 278.70212 813.63885
776.0 0.001289 278.65790 800.08636
727.0 0.001376 278.61380 763.38342
692.0 0.001445 278.56973 696.17944
619.0 0.001616 278.52597 605.93402
557.0 0.001795 278.48227 531.92786
506.0 0.001976 278.43884 494.27267
489.0 0.002045 278.39548 496.47968
525.0 0.001905 278.35229 536.93579
603.0 0.001658 278.30920 607.18768
702.0 0.001425 278.26636 687.40436
777.0 0.001287 278.22360 749.02399
823.0 0.001215 278.18097 806.43085
957.0 0.001045 278.13858 921.21216
1154.0 0.000867 278.09634 1137.69080
1406.0 0.000711 278.05423 1450.46411
1693.0 0.000591 278.01230 1778.04321
1845.0 0.000542 277.97046 1919.90369
1774.0 0.000564 277.92880 1763.69128
1489.0 0.000672 277.88730 1416.65710
1128.0 0.000887 277.84601 1071.79431
890.0 0.001124 277.80475 830.19806
711.0 0.001406 277.76376 691.92017
648.0 0.001543 277.72281 633.76624
677.0 0.001477 277.68210 646.73145
726.0 0.001377 277.64154 740.55206
887.0 0.001127 277.60110 933.18689
1119.0 0.000894 277.56082 1220.33203
1405.0 0.000712 277.52066 1522.54626
1640.0 0.000610 277.48071 1689.24121
1588.0 0.000630 277.44098 1601.31287
1418.0 0.000705 277.40121 1298.20422
1035.0 0.000966 277.36172 970.75800
783.0 0.001277 277.32236 730.55127
621.0 0.001610 277.28314 589.39984
537.0 0.001862 277.24414 523.90057
510.0 0.001961 277.20517 509.47495
520.0 0.001923 277.16641 532.68536
554.0 0.001805 277.12787 588.67883
652.0 0.001534 277.08936 675.75439
777.0 0.001287 277.05109 796.01117
965.0 0.001036 277.01294 920.27557
953.0 0.001049 276.97495 966.82220
891.0 0.001122 276.93710 889.78546
717.0 0.001395 276.89944 736.22754
631.0 0.001585 276.86188 590.39337
457.0 0.002188 276.82449 489.73499
434.0 0.002304 276.78723 433.75293
435.0 0.002299 276.75006 409.94717
417.0 0.002398 276.71320 405.54883
424.0 0.002358 276.67636 410.69803
429.0 0.002331 276.63971 421.94867
448.0 0.002232 276.60327 444.73398
488.0 0.002049 276.56693 478.52933
482.0 0.002075 276.53073 503.07614
551.0 0.001815 276.49466 492.35812
466.0 0.002146 276.45874 458.39053
452.0 0.002212 276.42297 433.03638
444.0 0.002252 276.38733 432.84982
455.0 0.002198 276.35196 470.04440
487.0 0.002053 276.31668 547.01019
580.0 0.001724 276.28143 645.84961
629.0 0.001590 276.24652 712.07495
607.0 0.001647 276.21158 681.20074
574.0 0.001742 276.17685 583.32306
494.0 0.002024 276.14230 486.48627
390.0 0.002564 276.10791 418.54120
366.0 0.002732 276.07364 380.39542
374.0 0.002674 276.03952 364.46484
356.0 0.002809 276.00549 363.79108
391.0 0.002558 275.97171 377.83972
427.0 0.002342 275.93811 413.13678
473.0 0.002114 275.90451 468.18839
526.0 0.001901 275.87115 530.71289
566.0 0.001767 275.83789 564.30902
560.0 0.001786 275.80478 539.52106
505.0 0.001980 275.77188 485.30219
466.0 0.002146 275.73898 437.45865
432.0 0.002315 275.70639 407.36911
405.0 0.002469 275.67392 397.69739
456.0 0.002193 275.64151 410.56714
500.0 0.002000 275.60928 448.26349
523.0 0.001912 275.57724 509.43958
611.0 0.001637 275.54526 586.46869
637.0 0.001570 275.51349 655.33905
723.0 0.001383 275.48181 697.48749
768.0 0.001302 275.45035 710.18365
758.0 0.001319 275.41901 670.32465
655.0 0.001527 275.38782 592.05121
554.0 0.001805 275.35672 524.17419
494.0 0.002024 275.32584 492.61307
486.0 0.002058 275.29504 505.29459
569.0 0.001757 275.26434 559.23083
638.0 0.001567 275.23386 637.92596
718.0 0.001393 275.20352 696.87238
706.0 0.001416 275.17328 702.00586
709.0 0.001410 275.14322 674.27008
666.0 0.001502 275.11325 648.98059
606.0 0.001650 275.08347 641.43176
634.0 0.001577 275.05389 646.08893
666.0 0.001502 275.02438 671.09515
711.0 0.001406 274.99506 724.03162
774.0 0.001292 274.96582 791.50244
758.0 0.001319 274.93671 869.18945
835.0 0.001198 274.90778 950.57239
1002.0 0.000998 274.87897 1014.01086
1015.0 0.000985 274.85040 994.66815
865.0 0.001156 274.82181 860.13086
715.0 0.001399 274.79346 694.07880
562.0 0.001779 274.76523 566.19403
552.0 0.001812 274.73715 493.51221
449.0 0.002227 274.70920 468.82578
463.0 0.002160 274.68130 478.98267
448.0 0.002232 274.65369 507.38492
527.0 0.001898 274.62616 538.14587
539.0 0.001855 274.59872 566.77014
574.0 0.001742 274.57147 591.24713
592.0 0.001689 274.54434 604.68939
569.0 0.001757 274.51733 583.85425
560.0 0.001786 274.49054 522.92700
519.0 0.001927 274.46381 455.63504
418.0 0.002392 274.43723 405.17383
394.0 0.002538 274.41077 375.95062
350.0 0.002857 274.38452 364.87683
351.0 0.002849 274.35837 369.03003
378.0 0.002646 274.33224 387.30325
421.0 0.002375 274.30646 417.76456
448.0 0.002232 274.28064 453.22742
491.0 0.002037 274.25510 483.48639
501.0 0.001996 274.22958 501.95505
507.0 0.001972 274.20422 497.50116
511.0 0.001957 274.17902 477.05457
497.0 0.002012 274.15390 471.40768
500.0 0.002000 274.12900 500.75488
543.0 0.001842 274.10419 570.34760
612.0 0.001634 274.07947 662.94324
729.0 0.001372 274.05496 725.46106
718.0 0.001393 274.03052 709.24359
638.0 0.001567 274.00626 647.94708
559.0 0.001789 273.98215 588.14429
526.0 0.001901 273.95813 536.15332
484.0 0.002066 273.93427 493.01575
434.0 0.002304 273.91052 455.40057
411.0 0.002433 273.88690 423.78867
393.0 0.002545 273.86343 408.96393
428.0 0.002336 273.84012 417.80255
440.0 0.002273 273.81689 449.82401
437.0 0.002288 273.79382 495.89398
502.0 0.001992 273.77084 526.97839
486.0 0.002058 273.74802 514.39728
435.0 0.002299 273.72540 471.71631
411.0 0.002433 273.70276 425.91763
388.0 0.002577 273.68030 386.38788
327.0 0.003058 273.65805 356.11542
320.0 0.003125 273.63589 336.60403
295.0 0.003390 273.61386 325.53232
294.0 0.003401 273.59189 320.17267
318.0 0.003145 273.57010 318.73029
299.0 0.003344 273.54843 321.82550
316.0 0.003165 273.52695 329.38281
329.0 0.003040 273.50555 343.15326
355.0 0.002817 273.48431 365.70206
362.0 0.002762 273.46310 400.64536
425.0 0.002353 273.44214 450.58401
493.0 0.002028 273.42123 507.88367
513.0 0.001949 273.40042 542.13318
490.0 0.002041 273.37991 524.55621
438.0 0.002283 273.35934 476.25214
409.0 0.002445 273.33893 434.89459
385.0 0.002597 273.31876 418.50818
376.0 0.002660 273.29855 430.43301
404.0 0.002475 273.27856 462.51306
490.0 0.002041 273.25870 493.98254
508.0 0.001969 273.23892 500.00787
445.0 0.002247 273.21933 487.26523
400.0 0.002500 273.19980 480.00665
484.0 0.002066 273.18042 488.56744
500.0 0.002000 273.16116 506.46909
508.0 0.001969 273.14206 519.48590
509.0 0.001965 273.12296 533.10406
520.0 0.001923 273.10416 555.38953
544.0 0.001838 273.08536 572.07800
557.0 0.001795 273.06677 575.30963
565.0 0.001770 273.04816 590.37488
554.0 0.001805 273.02979 634.82013
609.0 0.001642 273.01154 694.67078
666.0 0.001502 272.99338 733.35870
622.0 0.001608 272.97534 704.10107
531.0 0.001883 272.95740 615.33295
470.0 0.002128 272.93961 525.67773
435.0 0.002299 272.92197 466.63098
409.0 0.002445 272.90436 441.96356
420.0 0.002381 272.88693 442.06628
429.0 0.002331 272.86969 449.27362
424.0 0.002358 272.85242 452.20831
404.0 0.002475 272.83533 462.93869
446.0 0.002242 272.81842 500.25259
493.0 0.002028 272.80157 570.72760
585.0 0.001709 272.78488 658.76898
667.0 0.001499 272.76825 723.04517
699.0 0.001431 272.75171 725.37964
628.0 0.001592 272.73541 656.96387
518.0 0.001931 272.71912 554.83203
460.0 0.002174 272.70294 464.77310
391.0 0.002558 272.68698 403.20447
332.0 0.003012 272.67114 367.89502
325.0 0.003077 272.65527 351.36911
312.0 0.003205 272.63959 347.82874
325.0 0.003077 272.62402 355.21588
356.0 0.002809 272.60858 374.23126
413.0 0.002421 272.59329 405.39380
421.0 0.002375 272.57806 445.85062
451.0 0.002217 272.56296 485.55469
505.0 0.001980 272.54794 507.21341
486.0 0.002058 272.53311 510.72934
491.0 0.002037 272.51834 506.23553
503.0 0.001988 272.50372 491.84836
507.0 0.001972 272.48917 475.91467
446.0 0.002242 272.47473 471.49524
448.0 0.002232 272.46042 470.07471
452.0 0.002212 272.44623 451.01282
374.0 0.002674 272.43216 415.56512
326.0 0.003067 272.41812 382.00943
334.0 0.002994 272.40430 360.39380
353.0 0.002833 272.39053 352.93900
343.0 0.002915 272.37686 358.61136
372.0 0.002688 272.36334 376.13065
395.0 0.002532 272.34991 402.40515
440.0 0.002273 272.33655 433.71063
438.0 0.002283 272.32339 474.56000
484.0 0.002066 272.31030 534.81989
567.0 0.001764 272.29727 604.97321
572.0 0.001748 272.28448 642.16455
593.0 0.001686 272.27170 607.73004
522.0 0.001916 272.25897 529.87299
469.0 0.002132 272.24637 455.98108
379.0 0.002639 272.23398 403.67261
353.0 0.002833 272.22162 370.19913
326.0 0.003067 272.20935 349.20480
329.0 0.003040 272.19720 337.68396
358.0 0.002793 272.18518 336.69846
350.0 0.002857 272.17331 346.80194
343.0 0.002915 272.16144 368.71390
390.0 0.002564 272.14975 399.30933
399.0 0.002506 272.13815 425.91409
390.0 0.002564 272.12665 427.42148
380.0 0.002632 272.11523 402.66879
340.0 0.002941 272.10388 372.44977
321.0 0.003115 272.09271 349.68723
316.0 0.003165 272.08160 337.01422
299.0 0.003344 272.07059 333.73230
307.0 0.003257 272.05969 339.79449
342.0 0.002924 272.04898 357.20746
365.0 0.002740 272.03827 385.04706
373.0 0.002681 272.02765 413.61877
391.0 0.002558 272.01718 423.55658
399.0 0.002506 272.00677 407.21341
365.0 0.002740 271.99649 381.02179
349.0 0.002865 271.98630 357.40262
330.0 0.003030 271.97620 338.53909
297.0 0.003367 271.96625 324.78064
304.0 0.003289 271.95636 315.08554
299.0 0.003344 271.94650 309.54605
270.0 0.00370 271.93683 308.90042
281.0 0.00356 271.92728 314.09125
320.0 0.003125 271.91785 325.43442
331.0 0.003021 271.90836 340.04684
334.0 0.002994 271.89905 350.11127
366.0 0.002732 271.88986 347.17514
323.0 0.003096 271.88074 334.89148
317.0 0.003155 271.87177 322.08054
269.0 0.00372 271.86279 311.40558
301.0 0.003322 271.85400 303.07254
265.0 0.00377 271.84531 296.74945
298.0 0.003356 271.83658 292.07706
280.0 0.00357 271.82806 288.83591
285.0 0.00351 271.81964 287.05609
266.0 0.00376 271.81128 286.79691
282.0 0.00355 271.80301 288.31799
288.0 0.003472 271.79480 292.09830
315.0 0.003175 271.78680 298.46661
296.0 0.003378 271.77884 306.70724
286.0 0.003497 271.77094 313.95554
271.0 0.00369 271.76315 315.00418
288.0 0.003472 271.75543 308.41531
319.0 0.003135 271.74777 300.24780
287.0 0.003484 271.74030 293.79062
275.0 0.00364 271.73285 289.87961
294.0 0.003401 271.72549 288.22946
300.0 0.003333 271.71829 288.30704
257.0 0.00389 271.71106 289.77240
268.0 0.00373 271.70404 292.72891
298.0 0.003356 271.69705 297.58182
321.0 0.003115 271.69012 304.63937
316.0 0.003165 271.68329 314.02148
346.0 0.002890 271.67661 325.23120
370.0 0.002703 271.66995 339.11810
337.0 0.002967 271.66339 360.60944
393.0 0.002545 271.65695 396.50467
459.0 0.002179 271.65054 447.36893
477.0 0.002096 271.64432 502.45523
515.0 0.001942 271.63806 543.50916
531.0 0.001883 271.63196 560.44873
524.0 0.001908 271.62595 539.17230
479.0 0.002088 271.62003 482.50317
414.0 0.002415 271.61407 420.75101
366.0 0.002732 271.60834 373.22708
313.0 0.003195 271.60263 343.81824
299.0 0.003344 271.59705 330.00937
314.0 0.003185 271.59152 328.42517
356.0 0.002809 271.58606 337.54553
375.0 0.002667 271.58066 356.53275
364.0 0.002747 271.57535 382.69608
385.0 0.002597 271.57019 408.62180
404.0 0.002475 271.56506 426.37213
412.0 0.002427 271.56006 431.62259
414.0 0.002415 271.55508 417.54221
378.0 0.002646 271.55023 390.05487
339.0 0.002950 271.54541 360.74402
333.0 0.003003 271.54065 335.42392
323.0 0.003096 271.53598 317.21585
329.0 0.003040 271.53146 306.09448
286.0 0.003497 271.52698 300.66852
302.0 0.003311 271.52258 298.96524
288.0 0.003472 271.51825 299.20081
301.0 0.003322 271.51404 299.32504
312.0 0.003205 271.50983 298.24026
311.0 0.003215 271.50577 296.82874
272.0 0.00368 271.50168 296.75748
288.0 0.003472 271.49777 297.91306
322.0 0.003106 271.49390 299.36145
304.0 0.003289 271.49014 299.78415
307.0 0.003257 271.48639 300.01904
318.0 0.003145 271.48270 302.51279
309.0 0.003236 271.47922 309.68668
302.0 0.003311 271.47565 323.82559
363.0 0.002755 271.47226 345.75308
390.0 0.002564 271.46887 372.57944
390.0 0.002564 271.46558 393.84018
399.0 0.002506 271.46240 394.63605
377.0 0.002653 271.45932 376.71976
385.0 0.002597 271.45624 357.09155
333.0 0.003003 271.45328 345.78824
347.0 0.002882 271.45035 345.47122
337.0 0.002967 271.44751 352.72113
351.0 0.002849 271.44470 359.52176
348.0 0.002874 271.44202 359.14911
353.0 0.002833 271.43939 353.18259
330.0 0.003030 271.43680 349.14374
348.0 0.002874 271.43433 352.78561
354.0 0.002825 271.43185 364.60657
384.0 0.002604 271.42957 378.99893
387.0 0.002584 271.42725 388.79282
393.0 0.002545 271.42493 394.33188
400.0 0.002500 271.42285 401.00101
408.0 0.002451 271.42081 414.20566
435.0 0.002299 271.41870 439.20950
486.0 0.002058 271.41684 468.69949
463.0 0.002160 271.41492 485.37064
461.0 0.002169 271.41306 481.96686
460.0 0.002174 271.41132 464.70404
400.0 0.002500 271.40961 440.02344
411.0 0.002433 271.40796 419.13544
408.0 0.002451 271.40643 408.89465
361.0 0.002770 271.40491 409.01526
382.0 0.002618 271.40353 420.74817
431.0 0.002320 271.40213 446.12299
457.0 0.002188 271.40076 480.39401
470.0 0.002128 271.39954 507.66083
471.0 0.002123 271.39838 508.58633
483.0 0.002070 271.39722 485.81842
455.0 0.002198 271.39615 453.91827
414.0 0.002415 271.39514 423.11908
396.0 0.002525 271.39420 397.76428
376.0 0.002660 271.39331 377.58630
341.0 0.002933 271.39252 364.18979
359.0 0.002786 271.39169 358.05420
338.0 0.002959 271.39102 358.35345
318.0 0.003145 271.39035 366.89621
365.0 0.002740 271.38980 386.79114
402.0 0.002488 271.38925 417.16699
439.0 0.002278 271.38876 448.46191
421.0 0.002375 271.38840 465.99231
437.0 0.002288 271.38803 460.08420
423.0 0.002364 271.38773 432.49634
388.0 0.002577 271.38745 398.54056
358.0 0.002793 271.38733 372.99091
348.0 0.002874 271.38721 361.54449
357.0 0.002801 271.38708 365.03281
349.0 0.002865 271.38708 382.40665
419.0 0.002387 271.38712 411.92801
423.0 0.002364 271.38718 447.64542
440.0 0.002273 271.38733 485.49130
479.0 0.002088 271.38760 526.12347
529.0 0.001890 271.38782 563.86981
514.0 0.001946 271.38809 581.47620
482.0 0.002075 271.38843 560.95221
457.0 0.002188 271.38879 507.70599
415.0 0.002410 271.38931 450.91510
391.0 0.002558 271.38983 409.70786
374.0 0.002674 271.39032 389.15469
372.0 0.002688 271.39096 388.37552
390.0 0.002564 271.39169 405.11893
423.0 0.002364 271.39230 438.51831
461.0 0.002169 271.39310 487.88165
533.0 0.001876 271.39392 557.53455
622.0 0.001608 271.39481 649.24750
692.0 0.001445 271.39569 743.83264
694.0 0.001441 271.39667 789.19019
682.0 0.001466 271.39764 741.24951
625.0 0.001600 271.39871 633.91760
517.0 0.001934 271.39978 526.68365
452.0 0.002212 271.40097 446.93973
377.0 0.002653 271.40210 398.11969
348.0 0.002874 271.40335 373.55069
355.0 0.002817 271.40466 365.36368
392.0 0.002551 271.40604 368.83838
409.0 0.002445 271.40738 384.06375
397.0 0.002519 271.40881 413.20685
433.0 0.002309 271.41022 456.83298
484.0 0.002066 271.41177 505.22687
503.0 0.001988 271.41336 532.50348
490.0 0.002041 271.41495 517.41504
448.0 0.002232 271.41656 476.27341
440.0 0.002273 271.41824 438.76822
432.0 0.002315 271.41995 417.88962
420.0 0.002381 271.42178 413.64630
417.0 0.002398 271.42355 415.79919
427.0 0.002342 271.42535 413.60742
422.0 0.002370 271.42728 406.75223
409.0 0.002445 271.42917 400.69067
398.0 0.002513 271.43121 403.90475
412.0 0.002427 271.43320 424.76514
455.0 0.002198 271.43521 465.91278
467.0 0.002141 271.43738 519.82947
483.0 0.002070 271.43954 565.00336
498.0 0.002008 271.44165 570.77472
452.0 0.002212 271.44385 534.76483
413.0 0.002421 271.44611 489.78085
403.0 0.002481 271.44839 459.76828
440.0 0.002273 271.45068 451.83157
486.0 0.002058 271.45306 465.74387
511.0 0.001957 271.45541 502.55331
587.0 0.001704 271.45782 561.57245
686.0 0.001458 271.46030 631.94434
776.0 0.001289 271.46280 681.07855
722.0 0.001385 271.46536 675.17078
626.0 0.001597 271.46790 631.01324
570.0 0.001754 271.47049 581.30530
549.0 0.001821 271.47314 532.02228
465.0 0.002151 271.47589 480.44238
407.0 0.002457 271.47855 436.91614
379.0 0.002639 271.48126 410.64285
375.0 0.002667 271.48404 405.73727
386.0 0.002591 271.48685 426.02835
464.0 0.002155 271.48965 475.95871
547.0 0.001828 271.49258 557.25092
675.0 0.001481 271.49545 658.81989
744.0 0.001344 271.49838 743.59576
763.0 0.001311 271.50128 752.74829
693.0 0.001443 271.50427 678.43201
600.0 0.001667 271.50732 573.78156
498.0 0.002008 271.51038 481.92328
403.0 0.002481 271.51343 416.04117
366.0 0.002732 271.51657 375.50629
324.0 0.003086 271.51971 353.94949
339.0 0.002950 271.52283 345.39780
360.0 0.002778 271.52603 346.92084
376.0 0.002660 271.52924 358.50122
369.0 0.002710 271.53250 380.86154
403.0 0.002481 271.53580 412.41083
431.0 0.002320 271.53906 445.37970
462.0 0.002165 271.54245 462.18536
465.0 0.002151 271.54572 452.19507
404.0 0.002475 271.54913 429.94028
390.0 0.002564 271.55246 415.46634
420.0 0.002381 271.55597 419.98911
449.0 0.002227 271.55939 447.45328
498.0 0.002008 271.56287 492.87396
549.0 0.001821 271.56635 537.64301
572.0 0.001748 271.56989 549.08478
524.0 0.001908 271.57349 516.02271
456.0 0.002193 271.57703 466.91135
440.0 0.002273 271.58057 427.48062
437.0 0.002288 271.58420 410.27115
429.0 0.002331 271.58777 418.00424
481.0 0.002079 271.59149 447.59784
510.0 0.001961 271.59515 489.91507
528.0 0.001894 271.59882 521.67969
526.0 0.001901 271.60257 522.42664
507.0 0.001972 271.60629 501.12817
492.0 0.002033 271.61005 482.52997
461.0 0.002169 271.61386 474.82040
435.0 0.002299 271.61758 466.45410
433.0 0.002309 271.62146 444.97067
441.0 0.002268 271.62531 416.78754
401.0 0.002494 271.62906 394.85703
375.0 0.002667 271.63300 387.24133
402.0 0.002488 271.63681 399.51917
463.0 0.002160 271.64081 433.09473
453.0 0.002208 271.64465 485.94730
538.0 0.001859 271.64859 544.43500
640.0 0.001563 271.65259 581.40027
549.0 0.001821 271.65649 570.90979
521.0 0.001919 271.66049 522.05188
452.0 0.002212 271.66452 467.24826
380.0 0.002632 271.66858 429.09741
399.0 0.002506 271.67252 415.42966
421.0 0.002375 271.67664 427.43365
469.0 0.002132 271.68060 461.14511
501.0 0.001996 271.68472 504.86230
569.0 0.001757 271.68878 537.29395
570.0 0.001754 271.69287 535.02008
526.0 0.001901 271.69699 508.00778
463.0 0.002160 271.70111 482.02643
453.0 0.002208 271.70520 466.97180
449.0 0.002227 271.70947 456.80847
441.0 0.002268 271.71350 441.33136
463.0 0.002160 271.71771 428.04865
422.0 0.002370 271.72183 423.00775
416.0 0.002404 271.72610 430.03229
487.0 0.002053 271.73026 444.76895
486.0 0.002058 271.73450 461.60123
485.0 0.002062 271.73865 482.42133
543.0 0.001842 271.74289 508.08698
548.0 0.001825 271.74713 530.17078
532.0 0.001880 271.75128 541.45764
547.0 0.001828 271.75562 542.93567
566.0 0.001767 271.75983 531.31696
551.0 0.001815 271.76410 513.80457
550.0 0.001818 271.76837 511.83368
582.0 0.001718 271.77267 541.19196
664.0 0.001506 271.77698 611.77185
736.0 0.001359 271.78125 717.03217
848.0 0.001179 271.78552 830.76581
909.0 0.001100 271.78983 897.53046
868.0 0.001152 271.79419 877.97290
808.0 0.001238 271.79846 816.67487
767.0 0.001304 271.80280 784.05243
767.0 0.001304 271.80710 817.34192
891.0 0.001122 271.81143 918.57654
1059.0 0.000944 271.81573 1054.38879
1170.0 0.000855 271.82004 1150.57117
1202.0 0.000832 271.82443 1146.72546
1087.0 0.000920 271.82874 1082.20654
1011.0 0.000989 271.83307 1029.92053
943.0 0.001060 271.83743 1002.93799
903.0 0.001107 271.84174 967.33734
897.0 0.001115 271.84607 905.81683
789.0 0.001267 271.85043 819.73846
703.0 0.001422 271.85486 720.56726
611.0 0.001637 271.85919 639.88287
584.0 0.001712 271.86349 600.10205
614.0 0.001629 271.86786 605.89423
657.0 0.001522 271.87216 648.54224
712.0 0.001404 271.87653 703.50952
729.0 0.001372 271.88086 730.25940
716.0 0.001397 271.88519 709.30670
674.0 0.001484 271.88956 670.53656
657.0 0.001522 271.89383 638.31714
585.0 0.001709 271.89822 605.93988
563.0 0.001776 271.90262 562.43683
505.0 0.001980 271.90689 516.59827
469.0 0.002132 271.91129 481.93515
473.0 0.002114 271.91556 465.54709
456.0 0.002193 271.91986 470.12326
490.0 0.002041 271.92422 500.60034
547.0 0.001828 271.92853 566.59955
673.0 0.001486 271.93283 682.99780
875.0 0.001143 271.93713 863.22040
1121.0 0.000892 271.94144 1105.96069
1415.0 0.000707 271.94571 1368.12830
1561.0 0.000641 271.94995 1568.77576
1710.0 0.000585 271.95432 1642.49585
1562.0 0.000640 271.95859 1544.65234
1274.0 0.000785 271.96283 1303.97668
976.0 0.001025 271.96710 1038.30347
772.0 0.001295 271.97134 829.67462
654.0 0.001529 271.97562 697.90680
599.0 0.001669 271.97986 631.68970
586.0 0.001706 271.98410 608.38019
619.0 0.001616 271.98831 611.54297
633.0 0.001580 271.99258 644.57867
693.0 0.001443 271.99673 716.78894
817.0 0.001224 272.00095 825.49194
953.0 0.001049 272.00519 944.20691
1081.0 0.000925 272.00925 1034.44861
1086.0 0.000921 272.01346 1070.66199
1052.0 0.000951 272.01761 1038.27563
983.0 0.001017 272.02179 965.51453
915.0 0.001093 272.02588 901.17029
866.0 0.001155 272.03006 848.71863
793.0 0.001261 272.03418 782.84808
705.0 0.001418 272.03830 695.68335
638.0 0.001567 272.04236 603.95367
536.0 0.001866 272.04645 525.32269
494.0 0.002024 272.05054 466.78851
450.0 0.002222 272.05457 428.43915
408.0 0.002451 272.05859 407.44522
417.0 0.002398 272.06268 399.73798
414.0 0.002415 272.06665 405.14172
464.0 0.002155 272.07065 424.28043
518.0 0.001931 272.07462 458.40198
563.0 0.001776 272.07864 512.15613
635.0 0.001575 272.08264 585.22424
691.0 0.001447 272.08649 671.41809
766.0 0.001305 272.09042 762.32782
884.0 0.001131 272.09433 854.62665
908.0 0.001101 272.09824 933.69537
929.0 0.001076 272.10214 956.79346
881.0 0.001135 272.10605 919.00348
857.0 0.001167 272.10983 873.28455
828.0 0.001208 272.11371 851.93335
798.0 0.001253 272.11749 835.94427
772.0 0.001295 272.12125 784.62762
679.0 0.001473 272.12512 695.01587
553.0 0.001808 272.12881 601.44928
474.0 0.002110 272.13260 529.87347
471.0 0.002123 272.13629 491.88626
476.0 0.002101 272.14001 488.61252
496.0 0.002016 272.14368 515.44086
553.0 0.001808 272.14737 561.73816
595.0 0.001681 272.15106 605.73682
616.0 0.001623 272.15463 618.73029
636.0 0.001572 272.15826 602.52087
568.0 0.001761 272.16183 581.16095
539.0 0.001855 272.16547 572.05560
540.0 0.001852 272.16898 562.45862
561.0 0.001783 272.17249 533.03870
472.0 0.002119 272.17603 485.12247
417.0 0.002398 272.17944 435.84406
400.0 0.002500 272.18298 395.44955
380.0 0.002632 272.18637 367.25302
361.0 0.002770 272.18979 350.09232
361.0 0.002770 272.19321 341.02908
336.0 0.002976 272.19656 337.73438
316.0 0.003165 272.19995 339.13678
337.0 0.002967 272.20328 344.85825
339.0 0.002950 272.20660 356.56638
376.0 0.002660 272.20987 373.08951
375.0 0.002667 272.21317 394.21344
412.0 0.002427 272.21634 413.48233
439.0 0.002278 272.21960 423.49612
454.0 0.002203 272.22269 428.19669
463.0 0.002160 272.22589 438.44962
479.0 0.002088 272.22897 462.90396
529.0 0.001890 272.23212 503.50613
575.0 0.001739 272.23520 554.79028
654.0 0.001529 272.23825 607.93304
708.0 0.001412 272.24130 668.18951
786.0 0.001272 272.24432 750.55310
892.0 0.001121 272.24734 850.74298
1005.0 0.000995 272.25018 937.66595
1029.0 0.000972 272.25320 986.95074
988.0 0.001012 272.25607 995.22943
933.0 0.001072 272.25897 945.68463
840.0 0.001190 272.26181 840.77814
755.0 0.001325 272.26462 725.67859
658.0 0.001520 272.26740 634.66241
584.0 0.001712 272.27020 575.35931
542.0 0.001845 272.27286 544.57971
528.0 0.001894 272.27557 536.98438
547.0 0.001828 272.27826 545.41003
612.0 0.001634 272.28085 569.32819
640.0 0.001563 272.28354 618.44238
724.0 0.001381 272.28610 693.60638
828.0 0.001208 272.28873 784.39636
882.0 0.001134 272.29123 882.04956
980.0 0.001020 272.29373 980.46631
995.0 0.001005 272.29617 1054.61353
1020.0 0.000980 272.29861 1059.99023
908.0 0.001101 272.30099 971.07837
821.0 0.001218 272.30338 823.47791
676.0 0.001479 272.30569 675.06372
550.0 0.001818 272.30804 556.58984
451.0 0.002217 272.31036 474.77328
412.0 0.002427 272.31253 424.90668
411.0 0.002433 272.31473 398.48291
409.0 0.002445 272.31696 390.14398
381.0 0.002625 272.31906 396.76801
451.0 0.002217 272.32120 418.79150
439.0 0.002278 272.32330 457.66602
520.0 0.001923 272.32535 511.11554
564.0 0.001773 272.32733 570.19318
573.0 0.001745 272.32932 612.46692
608.0 0.001645 272.33130 610.46729
595.0 0.001681 272.33322 564.08667
474.0 0.002110 272.33505 499.30765
442.0 0.002262 272.33698 439.61670
414.0 0.002415 272.33875 396.17154
375.0 0.002667 272.34048 370.36948
372.0 0.002688 272.34232 359.07034
347.0 0.002882 272.34399 357.53922
363.0 0.002755 272.34567 360.43604
376.0 0.002660 272.34729 362.98505
386.0 0.002591 272.34885 360.67731
370.0 0.002703 272.35046 355.19888
348.0 0.002874 272.35196 350.66446
349.0 0.002865 272.35345 348.57172
333.0 0.003003 272.35495 349.17426
352.0 0.002841 272.35632 350.54282
368.0 0.002717 272.35776 350.05161
376.0 0.002660 272.35910 348.62485
354.0 0.002825 272.36032 348.74857
356.0 0.002809 272.36163 353.39679
357.0 0.002801 272.36288 365.88107
375.0 0.002667 272.36407 384.39798
412.0 0.002427 272.36523 401.67575
438.0 0.002283 272.36636 405.85910
399.0 0.002506 272.36743 392.82330
365.0 0.002740 272.36847 370.24985
349.0 0.002865 272.36951 348.21686
340.0 0.002941 272.37042 331.87329
331.0 0.003021 272.37143 321.67233
347.0 0.002882 272.37222 317.38614
350.0 0.002857 272.37308 317.41095
334.0 0.002994 272.37387 320.39713
340.0 0.002941 272.37466 325.57513
364.0 0.002747 272.37540 333.39688
388.0 0.002577 272.37607 345.67822
409.0 0.002445 272.37671 362.79062
407.0 0.002457 272.37732 382.75046
416.0 0.002404 272.37787 403.64322
432.0 0.002315 272.37845 426.76074
464.0 0.002155 272.37894 459.58673
547.0 0.001828 272.37933 502.97156
562.0 0.001779 272.37970 545.19934
575.0 0.001739 272.38013 560.29974
515.0 0.001942 272.38040 534.59613
452.0 0.002212 272.38074 485.78741
421.0 0.002375 272.38092 440.07999
421.0 0.002375 272.38110 408.75391
413.0 0.002421 272.38126 393.42383
374.0 0.002674 272.38135 389.68506
386.0 0.002591 272.38144 392.77969
427.0 0.002342 272.38147 402.58575
408.0 0.002451 272.38141 421.07315
451.0 0.002217 272.38138 447.79135
528.0 0.001894 272.38123 477.14386
540.0 0.001852 272.38110 498.35950
515.0 0.001942 272.38089 508.31546
511.0 0.001957 272.38074 507.78473
501.0 0.001996 272.38040 492.49399
486.0 0.002058 272.38004 472.12607
459.0 0.002179 272.37970 461.19858
460.0 0.002174 272.37930 468.27365
510.0 0.001961 272.37888 492.50977
530.0 0.001887 272.37833 524.06891
528.0 0.001894 272.37778 548.97723
536.0 0.001866 272.37720 567.12811
566.0 0.001767 272.37659 588.53351
579.0 0.001727 272.37585 609.04633
609.0 0.001642 272.37509 607.62366
562.0 0.001779 272.37436 572.30017
515.0 0.001942 272.37354 515.66089
460.0 0.002174 272.37274 458.80963
406.0 0.002463 272.37173 415.09882
376.0 0.002660 272.37082 387.83359
377.0 0.002653 272.36978 376.54355
380.0 0.002632 272.36874 378.50677
383.0 0.002611 272.36768 390.91382
404.0 0.002475 272.36655 409.45502
410.0 0.002439 272.36536 428.04587
429.0 0.002331 272.36411 443.96429
465.0 0.002151 272.36282 461.54553
517.0 0.001934 272.36145 483.29065
532.0 0.001880 272.36014 503.08841
551.0 0.001815 272.35870 511.31223
555.0 0.001802 272.35724 504.64828
531.0 0.001883 272.35568 484.51788
503.0 0.001988 272.35419 459.23816
481.0 0.002079 272.35254 441.70602
481.0 0.002079 272.35092 440.36768
484.0 0.002066 272.34915 457.56555
538.0 0.001859 272.34741 490.83408
589.0 0.001698 272.34567 532.03406
616.0 0.001623 272.34378 568.47858
655.0 0.001527 272.34189 599.04944
680.0 0.001471 272.33987 642.69501
723.0 0.001383 272.33786 717.34088
841.0 0.001189 272.33588 821.76776
916.0 0.001092 272.33374 924.30927
954.0 0.001048 272.33167 967.10284
923.0 0.001083 272.32947 921.74152
819.0 0.001221 272.32718 823.66321
694.0 0.001441 272.32489 716.00934
626.0 0.001597 272.32257 625.71271
564.0 0.001773 272.32016 567.54028
566.0 0.001767 272.31778 547.28693
633.0 0.001580 272.31525 564.07050
678.0 0.001475 272.31271 612.56158
726.0 0.001377 272.31015 687.22980
829.0 0.001206 272.30746 785.63422
862.0 0.001160 272.30484 897.97577
1022.0 0.000978 272.30209 987.82050
961.0 0.001041 272.29929 1014.74731
862.0 0.001160 272.29648 974.46442
808.0 0.001238 272.29352 881.56781
696.0 0.001437 272.29068 762.92145
593.0 0.001686 272.28760 652.74847
539.0 0.001855 272.28461 566.84308
516.0 0.001938 272.28156 508.13327
492.0 0.002033 272.27835 474.19373
432.0 0.002315 272.27512 457.69366
443.0 0.002257 272.27191 451.66574
436.0 0.002294 272.26862 457.49805
481.0 0.002079 272.26526 477.73615
521.0 0.001919 272.26190 509.99112
574.0 0.001742 272.25845 541.36633
565.0 0.001770 272.25497 549.16046
512.0 0.001953 272.25140 523.19788
461.0 0.002169 272.24780 478.05093
422.0 0.002370 272.24414 431.68805
399.0 0.002506 272.24042 393.98962
358.0 0.002793 272.23672 368.33990
353.0 0.002833 272.23285 353.50995
360.0 0.002778 272.22903 346.62018
357.0 0.002801 272.22516 343.84207
331.0 0.003021 272.22116 341.34436
329.0 0.003040 272.21713 336.47250
344.0 0.002907 272.21307 331.26520
328.0 0.003049 272.20892 327.40851
346.0 0.002890 272.20474 325.20053
343.0 0.002915 272.20053 325.10226
338.0 0.002959 272.19620 327.46680
348.0 0.002874 272.19193 332.55789
349.0 0.002865 272.18756 340.70557
365.0 0.002740 272.18317 352.89975
372.0 0.002688 272.17862 370.31357
404.0 0.002475 272.17404 393.57626
438.0 0.002283 272.16949 418.73019
431.0 0.002320 272.16486 437.60358
428.0 0.002336 272.16016 444.12668
422.0 0.002370 272.15536 445.98203
442.0 0.002262 272.15057 457.43143
503.0 0.001988 272.14572 490.09726
562.0 0.001779 272.14078 553.47266
639.0 0.001565 272.13589 646.06757
726.0 0.001377 272.13083 758.11493
903.0 0.001107 272.12576 866.76068
960.0 0.001042 272.12067 930.19733
913.0 0.001095 272.11545 908.34167
816.0 0.001225 272.11029 820.74567
703.0 0.001422 272.10495 721.11670
661.0 0.001513 272.09964 638.12256
597.0 0.001675 272.09424 573.41345
534.0 0.001873 272.08871 521.18323
486.0 0.002058 272.08325 479.42340
444.0 0.002252 272.07776 450.31613
433.0 0.002309 272.07211 439.20554
506.0 0.001976 272.06644 447.32391
488.0 0.002049 272.06073 476.17715
506.0 0.001976 272.05499 521.71307
564.0 0.001773 272.04916 576.77039
649.0 0.001541 272.04330 629.82410
682.0 0.001466 272.03738 661.45392
681.0 0.001468 272.03143 656.00641
678.0 0.001475 272.02536 625.61072
657.0 0.001522 272.01932 590.44806
575.0 0.001739 272.01315 552.29657
539.0 0.001855 272.00690 505.16519
480.0 0.002083 272.00070 454.37091
441.0 0.002268 271.99438 411.22949
383.0 0.002611 271.98801 378.20474
371.0 0.002695 271.98169 356.83380
381.0 0.002625 271.97516 344.64523
371.0 0.002695 271.96863 339.17609
381.0 0.002625 271.96210 338.05078
385.0 0.002597 271.95544 340.52353
383.0 0.002611 271.94870 347.84372
395.0 0.002532 271.94202 362.79520
429.0 0.002331 271.93524 388.15344
439.0 0.002278 271.92841 424.56244
473.0 0.002114 271.92148 467.90530
533.0 0.001876 271.91455 505.90665
567.0 0.001764 271.90756 520.75061
531.0 0.001883 271.90048 503.78583
458.0 0.002183 271.89340 466.35297
425.0 0.002353 271.88617 425.11972
407.0 0.002457 271.87900 390.05334
379.0 0.002639 271.87167 366.10037
373.0 0.002681 271.86435 353.61737
377.0 0.002653 271.85696 353.19772
391.0 0.002558 271.84952 363.79788
427.0 0.002342 271.84207 386.34653
465.0 0.002151 271.83450 420.66147
478.0 0.002092 271.82687 462.97156
529.0 0.001890 271.81924 502.19077
551.0 0.001815 271.81152 522.95685
542.0 0.001845 271.80377 519.51019
509.0 0.001965 271.79596 497.10867
486.0 0.002058 271.78806 460.93552
460.0 0.002174 271.78015 422.07986
367.0 0.002725 271.77222 387.86984
355.0 0.002817 271.76413 362.38910
347.0 0.002882 271.75607 346.10120
333.0 0.003003 271.74792 338.06879
378.0 0.002646 271.73972 337.81854
349.0 0.002865 271.73141 344.95615
351.0 0.002849 271.72314 359.62662
400.0 0.002500 271.71481 381.97464
387.0 0.002584 271.70639 410.02457
462.0 0.002165 271.69791 438.24545
498.0 0.002008 271.68942 459.30878
522.0 0.001916 271.68085 470.85077
510.0 0.001961 271.67221 474.58331
513.0 0.001949 271.66354 467.24353
419.0 0.002387 271.65482 447.59430
452.0 0.002212 271.64600 422.96033
429.0 0.002331 271.63715 404.44482
406.0 0.002463 271.62827 398.94659
431.0 0.002320 271.61926 411.65790
482.0 0.002075 271.61029 446.57056
531.0 0.001883 271.60126 506.20770
606.0 0.001650 271.59210 587.98633
740.0 0.001351 271.58298 678.50360
791.0 0.001264 271.57376 746.11633
784.0 0.001276 271.56448 752.28351
699.0 0.001431 271.55518 697.24823
589.0 0.001698 271.54575 619.38495
532.0 0.001880 271.53635 548.18835
489.0 0.002045 271.52692 491.86044
459.0 0.002179 271.51733 448.22495
418.0 0.002392 271.50769 415.78958
383.0 0.002611 271.49808 395.21829
408.0 0.002451 271.48837 386.66934
399.0 0.002506 271.47864 391.05838
401.0 0.002494 271.46887 410.20425
454.0 0.002203 271.45901 446.50601
500.0 0.002000 271.44910 502.27045
565.0 0.001770 271.43915 574.92041
653.0 0.001531 271.42911 653.38623
730.0 0.001370 271.41907 717.32874
785.0 0.001274 271.40891 755.90643
797.0 0.001255 271.39871 776.00677
785.0 0.001274 271.38852 779.73157
763.0 0.001311 271.37827 758.19897
695.0 0.001439 271.36792 706.38959
617.0 0.001621 271.35751 629.39630
511.0 0.001957 271.34711 546.30023
436.0 0.002294 271.33661 474.82816
403.0 0.002481 271.32599 422.61923
365.0 0.002740 271.31546 388.92352
356.0 0.002809 271.30484 370.54901
351.0 0.002849 271.29413 364.81915
374.0 0.002674 271.28336 369.69388
380.0 0.002632 271.27261 384.36572
411.0 0.002433 271.26178 407.98978
444.0 0.002252 271.25082 438.11343
469.0 0.002132 271.23984 470.62729
495.0 0.002020 271.22894 499.40063
517.0 0.001934 271.21786 517.01660
525.0 0.001905 271.20673 519.88226
502.0 0.001992 271.19556 510.43204
492.0 0.002033 271.18433 498.19431
472.0 0.002119 271.17316 492.53378
477.0 0.002096 271.16180 494.64539
508.0 0.001969 271.15042 494.52393
470.0 0.002128 271.13901 477.82382
414.0 0.002415 271.12753 444.68442
369.0 0.002710 271.11600 407.19888
359.0 0.002786 271.10437 374.99741
349.0 0.002865 271.09280 352.06989
330.0 0.003030 271.08109 337.94531
331.0 0.003021 271.06943 331.49881
335.0 0.002985 271.05765 330.36298
319.0 0.003135 271.04584 332.27518
355.0 0.002817 271.03394 335.26648
341.0 0.002933 271.02206 339.23346
391.0 0.002558 271.01004 344.88940
347.0 0.002882 270.99805 354.99939
370.0 0.002703 270.98599 367.36237
380.0 0.002632 270.97385 377.63025
398.0 0.002513 270.96167 378.80148
355.0 0.002817 270.94940 368.39734
341.0 0.002933 270.93723 351.82220
353.0 0.002833 270.92490 335.68738
317.0 0.003155 270.91251 323.50479
320.0 0.003125 270.90005 316.19171
317.0 0.003155 270.88763 312.86728
323.0 0.003096 270.87512 313.08411
319.0 0.003135 270.86255 315.92502
354.0 0.002825 270.84995 320.85803
357.0 0.002801 270.83725 328.16586
352.0 0.002841 270.82455 339.25000
339.0 0.002950 270.81183 355.56155
399.0 0.002506 270.79895 377.33334
453.0 0.002208 270.78616 400.73328
463.0 0.002160 270.77319 416.54214
449.0 0.002227 270.76028 415.73322
418.0 0.002392 270.74725 400.11215
409.0 0.002445 270.73425 380.14737
371.0 0.002695 270.72116 364.18930
377.0 0.002653 270.70798 356.09106
390.0 0.002564 270.69479 357.29260
383.0 0.002611 270.68155 367.24667
391.0 0.002558 270.66827 384.99106
422.0 0.002370 270.65494 408.32449
448.0 0.002232 270.64154 433.21597
441.0 0.002268 270.62811 458.85617
490.0 0.002041 270.61472 492.19055
569.0 0.001757 270.60117 542.70691
637.0 0.001570 270.58762 611.68701
701.0 0.001427 270.57394 687.72467
774.0 0.001292 270.56030 743.62531
770.0 0.001299 270.54660 757.05975
716.0 0.001397 270.53284 732.61493
662.0 0.001511 270.51907 686.31671
612.0 0.001634 270.50522 632.90570
573.0 0.001745 270.49136 586.97833
561.0 0.001783 270.47742 552.40216
562.0 0.001779 270.46344 522.22601
517.0 0.001934 270.44940 492.79599
476.0 0.002101 270.43533 467.73334
480.0 0.002083 270.42123 449.75433
475.0 0.002105 270.40710 440.50232
465.0 0.002151 270.39291 443.82281
472.0 0.002119 270.37866 460.55838
479.0 0.002088 270.36438 486.92319
485.0 0.002062 270.35004 513.84760
509.0 0.001965 270.33563 529.28699
512.0 0.001953 270.32117 528.21191
477.0 0.002096 270.30673 515.34631
480.0 0.002083 270.29224 497.15817
474.0 0.002110 270.27768 481.41324
463.0 0.002160 270.26312 476.24240
520.0 0.001923 270.24838 483.58005
523.0 0.001912 270.23376 502.04523
507.0 0.001972 270.21902 531.37885
596.0 0.001678 270.20422 567.81464
684.0 0.001462 270.18942 596.72205
627.0 0.001595 270.17462 597.05792
563.0 0.001776 270.15970 563.09442
515.0 0.001942 270.14474 510.87048
450.0 0.002222 270.12979 458.65588
402.0 0.002488 270.11475 415.95462
366.0 0.002732 270.09970 385.54398
351.0 0.002849 270.08463 367.07245
342.0 0.002924 270.06946 358.75558
355.0 0.002817 270.05420 359.39069
361.0 0.002770 270.03897 369.25870
380.0 0.002632 270.02377 390.95892
442.0 0.002262 270.00845 427.85385
501.0 0.001996 269.99307 482.89740
596.0 0.001678 269.97766 555.21777
711.0 0.001406 269.96231 635.45874
792.0 0.001263 269.94684 700.64435
776.0 0.001289 269.93134 719.81732
678.0 0.001475 269.91577 685.84332
598.0 0.001672 269.90018 626.73584
548.0 0.001825 269.88452 574.55194
512.0 0.001953 269.86880 546.04968
530.0 0.001887 269.85309 544.82477
568.0 0.001761 269.83737 564.46051
589.0 0.001698 269.82162 593.67334
629.0 0.001590 269.80579 617.48700
643.0 0.001555 269.78992 619.26526
600.0 0.001667 269.77399 594.05841
539.0 0.001855 269.75806 557.50391
514.0 0.001946 269.74210 528.88135
511.0 0.001957 269.72607 518.24005
528.0 0.001894 269.71002 526.79559
553.0 0.001808 269.69394 547.53278
553.0 0.001808 269.67783 568.01697
587.0 0.001704 269.66162 581.05688
601.0 0.001664 269.64545 586.09558
598.0 0.001672 269.62924 579.43219
575.0 0.001739 269.61295 557.99896
542.0 0.001845 269.59662 531.95923
510.0 0.001961 269.58029 511.36832
517.0 0.001934 269.56390 498.23584
490.0 0.002041 269.54749 487.29614
460.0 0.002174 269.53110 469.62592
439.0 0.002278 269.51453 443.21683
436.0 0.002294 269.49802 413.94836
378.0 0.002646 269.48151 388.92255
375.0 0.002667 269.46487 372.06998
367.0 0.002725 269.44821 364.42926
371.0 0.002695 269.43155 365.35822
388.0 0.002577 269.41486 373.28934
390.0 0.002564 269.39810 385.92499
391.0 0.002558 269.38138 398.35873
427.0 0.002342 269.36459 403.88858
434.0 0.002304 269.34772 398.68970
424.0 0.002358 269.33090 385.20166
386.0 0.002591 269.31396 367.76154
340.0 0.002941 269.29703 349.64816
339.0 0.002950 269.28006 333.85913
338.0 0.002959 269.26312 322.35367
319.0 0.003135 269.24606 315.28629
333.0 0.003003 269.22903 311.98785
337.0 0.002967 269.21194 311.98129
326.0 0.003067 269.19479 314.91495
329.0 0.003040 269.17764 320.68204
335.0 0.002985 269.16046 328.60989
335.0 0.002985 269.14325 336.70105
347.0 0.002882 269.12592 342.56723
372.0 0.002688 269.10870 342.68060
356.0 0.002809 269.09140 337.52072
344.0 0.002907 269.07401 330.56216
331.0 0.003021 269.05673 323.33313
315.0 0.003175 269.03931 316.22607
296.0 0.003378 269.02188 309.48425
275.0 0.00364 269.00443 303.82275
318.0 0.003145 268.98694 299.84583
308.0 0.003247 268.96945 297.52264
288.0 0.003472 268.95187 296.88242
297.0 0.003367 268.93430 297.52414
304.0 0.003289 268.91672 299.49612
316.0 0.003165 268.89908 303.03723
333.0 0.003003 268.88144 308.09738
330.0 0.003030 268.86371 313.93094
342.0 0.002924 268.84598 318.89581
304.0 0.003289 268.82825 321.79736
291.0 0.003436 268.81052 322.09995
335.0 0.002985 268.79269 321.33594
338.0 0.002959 268.77484 320.78314
337.0 0.002967 268.75702 321.61234
346.0 0.002890 268.73920 324.61075
343.0 0.002915 268.72128 329.43869
344.0 0.002907 268.70331 334.17517
336.0 0.002976 268.68539 336.74884
331.0 0.003021 268.66745 337.96695
342.0 0.002924 268.64948 340.21170
363.0 0.002755 268.63141 346.20087
375.0 0.002667 268.61334 358.47656
431.0 0.002320 268.59534 379.99014
443.0 0.002257 268.57718 413.94290
494.0 0.002024 268.55914 463.47531
513.0 0.001949 268.54089 530.39984
629.0 0.001590 268.52283 613.12616
762.0 0.001312 268.50461 708.91833
839.0 0.001192 268.48633 803.98035
872.0 0.001147 268.46808 866.00458
810.0 0.001235 268.44989 860.41730
722.0 0.001385 268.43161 791.01062
631.0 0.001585 268.41327 692.41125
537.0 0.001862 268.39496 595.04572
436.0 0.002294 268.37662 515.10211
435.0 0.002299 268.35831 458.27872
417.0 0.002398 268.33987 423.93079
402.0 0.002488 268.32147 408.85522
379.0 0.002639 268.30304 410.41531
466.0 0.002146 268.28455 427.67728
488.0 0.002049 268.26611 461.28101
546.0 0.001832 268.24762 512.11743
612.0 0.001634 268.22906 579.73865
655.0 0.001527 268.21063 660.90479
739.0 0.001353 268.19202 746.88867
819.0 0.001221 268.17340 823.01715
852.0 0.001174 268.15491 871.22833
900.0 0.001111 268.13632 879.26538
773.0 0.001294 268.11765 843.51068
699.0 0.001431 268.09903 770.95544
636.0 0.001572 268.08035 684.16302
559.0 0.001789 268.06171 604.88568
502.0 0.001992 268.04303 542.18500
460.0 0.002174 268.02438 494.67700
389.0 0.002571 268.00558 457.19357
398.0 0.002513 267.98685 428.76474
377.0 0.002653 267.96811 410.69568
384.0 0.002604 267.94928 403.56369
407.0 0.002457 267.93054 407.05194
433.0 0.002309 267.91171 420.28931
441.0 0.002268 267.89282 440.93939
495.0 0.002020 267.87408 468.08591
522.0 0.001916 267.85519 502.06992
560.0 0.001786 267.83636 539.54242
593.0 0.001686 267.81744 569.81873
569.0 0.001757 267.79855 582.27893
584.0 0.001712 267.77966 579.18408
558.0 0.001792 267.76074 569.06128
559.0 0.001789 267.74185 554.07928
560.0 0.001786 267.72287 532.87964
495.0 0.002020 267.70392 508.40680
465.0 0.002151 267.68494 485.42126
459.0 0.002179 267.66595 466.48715
427.0 0.002342 267.64691 454.28995
454.0 0.002203 267.62799 453.38037
460.0 0.002174 267.60898 465.70502
454.0 0.002203 267.58987 489.13712
481.0 0.002079 267.57089 515.62988
483.0 0.002070 267.55182 533.81427
521.0 0.001919 267.53275 539.67285
509.0 0.001965 267.51367 534.70697
496.0 0.002016 267.49466 518.51550
476.0 0.002101 267.47556 493.84760
446.0 0.002242 267.45645 468.42313
432.0 0.002315 267.43732 446.62152
401.0 0.002494 267.41821 428.15811
388.0 0.002577 267.39905 413.38632
401.0 0.002494 267.37994 403.68268
417.0 0.002398 267.36075 398.79202
399.0 0.002506 267.34164 397.77020
395.0 0.002532 267.32248 401.00769
383.0 0.002611 267.30338 410.60355
431.0 0.002320 267.28415 427.83759
452.0 0.002212 267.26495 452.18903
466.0 0.002146 267.24579 478.90668
524.0 0.001908 267.22659 500.56851
559.0 0.001789 267.20740 512.25153
475.0 0.002105 267.18817 505.26990
486.0 0.002058 267.16907 478.06107
373.0 0.002681 267.14978 440.67859
371.0 0.002695 267.13058 405.01523
392.0 0.002551 267.11139 377.49829
369.0 0.002710 267.09210 360.13849
385.0 0.002597 267.07288 353.20966
342.0 0.002924 267.05368 356.17438
372.0 0.002688 267.03442 368.45169
381.0 0.002625 267.01520 389.35281
421.0 0.002375 266.99594 417.55637
488.0 0.002049 266.97672 449.74506
541.0 0.001848 266.95752 479.08896
564.0 0.001773 266.93826 495.68158
509.0 0.001965 266.91898 493.13388
448.0 0.002232 266.89975 475.31305
407.0 0.002457 266.88052 450.22498
403.0 0.002481 266.86121 421.82401
374.0 0.002674 266.84198 394.07919
376.0 0.002660 266.82272 371.91666
361.0 0.002770 266.80344 357.73666
375.0 0.002667 266.78418 351.67993
379.0 0.002639 266.76495 352.85132
381.0 0.002625 266.74570 359.16418
385.0 0.002597 266.72644 367.85898
392.0 0.002551 266.70718 377.16388
407.0 0.002457 266.68796 387.78030
448.0 0.002232 266.66870 402.01968
459.0 0.002179 266.64944 419.06921
450.0 0.002222 266.63022 433.76044
435.0 0.002299 266.61096 438.49503
422.0 0.002370 266.59174 428.94562
392.0 0.002551 266.57248 408.88654
340.0 0.002941 266.55328 386.88901
326.0 0.003067 266.53406 368.92838
340.0 0.002941 266.51474 356.63510
355.0 0.002817 266.49557 350.84332
342.0 0.002924 266.47641 350.79974
341.0 0.002933 266.45718 356.48547
373.0 0.002681 266.43799 368.64929
400.0 0.002500 266.41879 388.71661
406.0 0.002463 266.39963 417.20471
445.0 0.002247 266.38043 454.26050
472.0 0.002119 266.36124 498.46179
558.0 0.001792 266.34207 543.47888
604.0 0.001656 266.32294 576.57111
598.0 0.001672 266.30377 587.89172
533.0 0.001876 266.28458 579.56836
537.0 0.001862 266.26544 557.78192
510.0 0.001961 266.24637 526.67688
435.0 0.002299 266.22723 495.19235
446.0 0.002242 266.20807 474.17862
454.0 0.002203 266.18896 469.64853
483.0 0.002070 266.16986 483.14883
498.0 0.002008 266.15085 511.75238
544.0 0.001838 266.13171 548.69385
593.0 0.001686 266.11264 583.26520
638.0 0.001567 266.09357 605.39581
607.0 0.001647 266.07452 614.87982
594.0 0.001684 266.05551 619.63281
614.0 0.001629 266.03650 625.79419
631.0 0.001585 266.01749 634.11609
677.0 0.001477 265.99844 638.13159
637.0 0.001570 265.97946 627.62823
598.0 0.001672 265.96051 597.24347
536.0 0.001866 265.94150 552.14990
505.0 0.001980 265.92258 502.71384
485.0 0.002062 265.90366 458.88763
415.0 0.002410 265.88467 427.39368
384.0 0.002604 265.86588 410.52090
425.0 0.002353 265.84692 407.28397
390.0 0.002564 265.82806 414.47958
425.0 0.002353 265.80914 426.84866
440.0 0.002273 265.79034 437.44485
418.0 0.002392 265.77148 440.74780
384.0 0.002604 265.75272 437.02530
410.0 0.002439 265.73386 430.62079
432.0 0.002315 265.71509 425.17575
431.0 0.002320 265.69632 423.79602
443.0 0.002257 265.67761 426.59662
438.0 0.002283 265.65881 430.67004
423.0 0.002364 265.64011 431.82199
427.0 0.002342 265.62140 430.16534
428.0 0.002336 265.60272 425.97449
441.0 0.002268 265.58405 416.85736
421.0 0.002375 265.56537 402.00723
390.0 0.002564 265.54681 385.85437
376.0 0.002660 265.52814 373.98669
354.0 0.002825 265.50961 370.06604
359.0 0.002786 265.49106 375.89349
400.0 0.002500 265.47244 391.90372
446.0 0.002242 265.45392 417.11322
468.0 0.002137 265.43542 448.01828
504.0 0.001984 265.41687 477.35776
522.0 0.001916 265.39850 496.72827
525.0 0.001905 265.37997 505.60172
551.0 0.001815 265.36163 513.27789
548.0 0.001825 265.34320 529.11902
562.0 0.001779 265.32477 554.58228
630.0 0.001587 265.30652 581.92365
630.0 0.001587 265.28818 597.69580
620.0 0.001613 265.26987 592.20648
567.0 0.001764 265.25156 565.79810
490.0 0.002041 265.23334 524.73718
456.0 0.002193 265.21509 479.14389
395.0 0.002532 265.19690 439.47333
425.0 0.002353 265.17868 411.95340
377.0 0.002653 265.16052 397.83539
381.0 0.002625 265.14236 395.39655
394.0 0.002538 265.12427 400.57431
415.0 0.002410 265.10614 407.43610
407.0 0.002457 265.08813 410.35693
413.0 0.002421 265.07004 409.21268
429.0 0.002331 265.05206 407.79175
464.0 0.002155 265.03409 410.81580
421.0 0.002375 265.01617 418.38763
433.0 0.002309 264.99823 426.94046
463.0 0.002160 264.98035 430.77316
410.0 0.002439 264.96249 426.63086
369.0 0.002710 264.94467 415.53726
388.0 0.002577 264.92682 399.77563
379.0 0.002639 264.90906 382.89606
360.0 0.002778 264.89136 368.96451
351.0 0.002849 264.87360 359.66788
363.0 0.002755 264.85590 353.97992
329.0 0.003040 264.83826 349.06778
333.0 0.003003 264.82065 342.90955
327.0 0.003058 264.80307 335.92053
331.0 0.003021 264.78549 329.40475
341.0 0.002933 264.76801 324.52112
342.0 0.002924 264.75052 319.96793
336.0 0.002976 264.73303 315.19003
321.0 0.003115 264.71558 310.25375
305.0 0.003279 264.69812 306.05295
307.0 0.003257 264.68085 303.31158
299.0 0.003344 264.66348 302.98392
316.0 0.003165 264.64618 305.55090
310.0 0.003226 264.62891 312.14661
306.0 0.003268 264.61163 323.67017
347.0 0.002882 264.59451 340.63528
366.0 0.002732 264.57730 362.59711
406.0 0.002463 264.56015 386.96579
411.0 0.002433 264.54309 408.20792
407.0 0.002457 264.52603 418.54282
400.0 0.002500 264.50906 414.56470
385.0 0.002597 264.49200 400.96451
390.0 0.002564 264.47507 383.89230
374.0 0.002674 264.45819 365.97977
344.0 0.002907 264.44131 348.04761
320.0 0.003125 264.42447 331.74811
326.0 0.003067 264.40765 318.61191
302.0 0.003311 264.39093 309.65265
295.0 0.003390 264.37427 304.81812
308.0 0.003247 264.35754 303.73102
311.0 0.003215 264.34088 306.61346
305.0 0.003279 264.32434 313.67120
331.0 0.003021 264.30780 324.89398
349.0 0.002865 264.29120 339.59387
345.0 0.002899 264.27472 355.57843
361.0 0.002770 264.25833 368.26031
358.0 0.002793 264.24185 373.04263
330.0 0.003030 264.22552 367.83902
341.0 0.002933 264.20920 355.87799
355.0 0.002817 264.19299 342.02716
351.0 0.002849 264.17676 328.83453
303.0 0.003300 264.16052 317.24506
308.0 0.003247 264.14441 307.75781
299.0 0.003344 264.12833 300.33569
306.0 0.003268 264.11218 296.11188
287.0 0.003484 264.09622 294.47440
300.0 0.003333 264.08026 295.44333
294.0 0.003401 264.06433 299.22339
318.0 0.003145 264.04840 306.30283
319.0 0.003135 264.03256 316.86047
342.0 0.002924 264.01682 330.57071
361.0 0.002770 264.00107 346.21643
375.0 0.002667 263.98532 360.42365
370.0 0.002703 263.96970 369.22028
361.0 0.002770 263.95407 370.44543
375.0 0.002667 263.93854 367.75488
362.0 0.002762 263.92297 366.10431
367.0 0.002725 263.90750 367.23425
396.0 0.002525 263.89209 369.49014
362.0 0.002762 263.87674 368.55981
367.0 0.002725 263.86145 361.02975
355.0 0.002817 263.84619 348.67419
324.0 0.003086 263.83090 336.08618
321.0 0.003115 263.81577 325.75491
307.0 0.003257 263.80060 318.70322
327.0 0.003058 263.78555 314.43982
299.0 0.003344 263.77048 313.10318
313.0 0.003195 263.75555 314.16016
308.0 0.003247 263.74060 317.47775
317.0 0.003155 263.72568 322.41779
326.0 0.003067 263.71088 327.64124
336.0 0.002976 263.69604 332.09332
319.0 0.003135 263.68140 336.39471
329.0 0.003040 263.66672 343.11169
343.0 0.002915 263.65204 354.55643
381.0 0.002625 263.63751 371.15698
414.0 0.002415 263.62302 391.52695
435.0 0.002299 263.60852 412.21191
455.0 0.002198 263.59406 429.76001
447.0 0.002237 263.57980 439.18359
414.0 0.002415 263.56549 436.82120
397.0 0.002519 263.55121 424.90536
390.0 0.002564 263.53696 410.93491
389.0 0.002571 263.52283 400.63205
377.0 0.002653 263.50879 396.27551
382.0 0.002618 263.49469 396.89438
407.0 0.002457 263.48077 401.36032
422.0 0.002370 263.46683 408.52316
407.0 0.002457 263.45303 414.12631
389.0 0.002571 263.43918 412.69766
399.0 0.002506 263.42545 403.33542
353.0 0.002833 263.41174 391.49469
381.0 0.002625 263.39816 383.53516
371.0 0.002695 263.38455 382.84744
401.0 0.002494 263.37100 389.74594
405.0 0.002469 263.35751 401.49197
419.0 0.002387 263.34415 412.28613
414.0 0.002415 263.33087 414.78253
398.0 0.002513 263.31750 406.62924
374.0 0.002674 263.30429 392.55792
338.0 0.002959 263.29111 379.19992
361.0 0.002770 263.27802 370.51450
350.0 0.002857 263.26498 367.61682
373.0 0.002681 263.25192 369.99435
402.0 0.002488 263.23911 376.75885
362.0 0.002762 263.22623 385.63922
362.0 0.002762 263.21341 392.60181
383.0 0.002611 263.20062 393.69821
362.0 0.002762 263.18796 389.02429
382.0 0.002618 263.17535 382.55469
354.0 0.002825 263.16278 378.75516
326.0 0.003067 263.15030 380.40466
372.0 0.002688 263.13788 388.17261
426.0 0.002347 263.12552 400.36069
418.0 0.002392 263.11319 413.21777
436.0 0.002294 263.10095 423.56705
455.0 0.002198 263.08878 431.87711
414.0 0.002415 263.07666 441.51642
467.0 0.002141 263.06464 456.49048
520.0 0.001923 263.05264 479.29022
493.0 0.002028 263.04074 507.68372
536.0 0.001866 263.02890 534.54474
582.0 0.001718 263.01712 552.04694
591.0 0.001692 263.00543 557.40509
547.0 0.001828 262.99374 553.28528
532.0 0.001880 262.98215 545.38660
551.0 0.001815 262.97064 538.99036
543.0 0.001842 262.95914 534.27301
514.0 0.001946 262.94778 528.17145
499.0 0.002004 262.93646 520.23560
507.0 0.001972 262.92526 515.51648
533.0 0.001876 262.91400 518.41168
528.0 0.001894 262.90289 527.81537
575.0 0.001739 262.89188 537.66162
578.0 0.001730 262.88089 539.75653
533.0 0.001876 262.86996 530.61542
496.0 0.002016 262.85913 514.06207
500.0 0.002000 262.84839 498.17972
482.0 0.002075 262.83765 487.52847
456.0 0.002193 262.82703 481.83322
453.0 0.002208 262.81653 479.16119
473.0 0.002114 262.80597 479.06897
498.0 0.002008 262.79556 482.89789
474.0 0.002110 262.78528 492.21808
499.0 0.002004 262.77493 505.89853
523.0 0.001912 262.76480 518.03882
536.0 0.001866 262.75464 519.66168
516.0 0.001938 262.74457 508.11172
502.0 0.001992 262.73462 490.66748
502.0 0.001992 262.72464 476.00351
493.0 0.002028 262.71484 467.37619
453.0 0.002208 262.70511 461.89551
442.0 0.002262 262.69537 453.37845
433.0 0.002309 262.68576 438.20038
436.0 0.002294 262.67621 418.51437
398.0 0.002513 262.66678 398.86478
375.0 0.002667 262.65738 382.59955
362.0 0.002762 262.64804 369.70776
349.0 0.002865 262.63876 359.18713
382.0 0.002618 262.62961 351.39938
355.0 0.002817 262.62051 347.40439
311.0 0.003215 262.61148 347.35806
372.0 0.002688 262.60254 350.19217
364.0 0.002747 262.59369 353.26782
335.0 0.002985 262.58493 352.96823
333.0 0.003003 262.57617 348.09686
351.0 0.002849 262.56757 340.91675
328.0 0.003049 262.55902 334.50143
329.0 0.003040 262.55051 330.56607
328.0 0.003049 262.54208 329.12418
372.0 0.002688 262.53378 329.06360
367.0 0.002725 262.52557 329.26385
311.0 0.003215 262.51740 329.62973
327.0 0.003058 262.50931 329.62958
333.0 0.003003 262.50125 329.00714
335.0 0.002985 262.49332 326.24878
324.0 0.003086 262.48547 320.60681
333.0 0.003003 262.47772 313.20331
280.0 0.00357 262.47000 305.71063
298.0 0.003356 262.46240 299.37332
287.0 0.003484 262.45496 294.70880
273.0 0.00366 262.44748 291.64685
281.0 0.00356 262.44006 290.11404
275.0 0.00364 262.43277 290.00473
280.0 0.00357 262.42554 291.15350
314.0 0.003185 262.41852 293.60358
291.0 0.003436 262.41144 297.50089
319.0 0.003135 262.40445 303.30524
341.0 0.002933 262.39758 311.39545
328.0 0.003049 262.39081 322.24997
336.0 0.002976 262.38412 336.60300
351.0 0.002849 262.37744 355.08438
387.0 0.002584 262.37094 378.13757
442.0 0.002262 262.36447 406.84180
476.0 0.002101 262.35809 440.30350
509.0 0.001965 262.35178 474.67242
546.0 0.001832 262.34561 503.19800
541.0 0.001848 262.33942 516.52521
515.0 0.001942 262.33340 510.79150
482.0 0.002075 262.32748 491.35687
447.0 0.002237 262.32156 468.66196
424.0 0.002358 262.31577 450.03378
438.0 0.002283 262.31009 437.12610
413.0 0.002421 262.30450 426.60773
413.0 0.002421 262.29898 413.42441
427.0 0.002342 262.29361 396.35876
386.0 0.002591 262.28821 378.56155
360.0 0.002778 262.28290 363.69818
353.0 0.002833 262.27777 353.77975
325.0 0.003077 262.27264 349.39584
329.0 0.003040 262.26767 350.67090
335.0 0.002985 262.26279 357.84882
367.0 0.002725 262.25800 370.07013
403.0 0.002481 262.25320 385.95468
392.0 0.002551 262.24854 401.56073
401.0 0.002494 262.24399 412.55209
390.0 0.002564 262.23953 416.32852
433.0 0.002309 262.23514 414.78052
407.0 0.002457 262.23080 413.09308
457.0 0.002188 262.22665 415.40604
428.0 0.002336 262.22247 422.05630
465.0 0.002151 262.21851 428.96365
457.0 0.002188 262.21454 429.81848
428.0 0.002336 262.21069 421.13327
375.0 0.002667 262.20697 405.59927
377.0 0.002653 262.20331 387.87762
372.0 0.002688 262.19971 370.19070
338.0 0.002959 262.19623 353.70096
324.0 0.003086 262.19284 339.71738
309.0 0.003236 262.18951 329.34613
289.0 0.003460 262.18628 322.71024
306.0 0.003268 262.18317 319.63736
317.0 0.003155 262.18021 319.31168
298.0 0.003356 262.17725 321.63422
353.0 0.002833 262.17444 327.35681
326.0 0.003067 262.17166 337.58514
353.0 0.002833 262.16907 353.13074
368.0 0.002717 262.16653 373.88168
419.0 0.002387 262.16403 397.83398
425.0 0.002353 262.16165 420.75662
466.0 0.002146 262.15939 435.54568
449.0 0.002227 262.15717 436.76599
415.0 0.002410 262.15515 425.94421
410.0 0.002439 262.15308 409.92697
393.0 0.002545 262.15121 394.15460
383.0 0.002611 262.14941 380.75143
391.0 0.002558 262.14767 369.85324
380.0 0.002632 262.14606 361.28247
358.0 0.002793 262.14456 355.69586
348.0 0.002874 262.14313 354.43790
362.0 0.002762 262.14178 358.36679
378.0 0.002646 262.14056 367.51227
397.0 0.002519 262.13940 381.39545
406.0 0.002463 262.13837 398.49515
429.0 0.002331 262.13748 415.20523
418.0 0.002392 262.13663 426.97937
410.0 0.002439 262.13586 432.91745
417.0 0.002398 262.13525 435.69092
424.0 0.002358 262.13470 439.61816
429.0 0.002331 262.13422 445.50067
443.0 0.002257 262.13376 454.20361
477.0 0.002096 262.13358 466.65399
516.0 0.001938 262.13339 480.63950
560.0 0.001786 262.13336 491.43338
537.0 0.001862 262.13330 494.28006
491.0 0.002037 262.13351 487.27719
470.0 0.002128 262.13370 471.80209
476.0 0.002101 262.13400 451.80191
419.0 0.002387 262.13452 431.05243
402.0 0.002488 262.13501 411.95056
406.0 0.002463 262.13568 395.87671
393.0 0.002545 262.13638 383.95062
360.0 0.002778 262.13721 375.93164
351.0 0.002849 262.13806 369.55273
324.0 0.003086 262.13913 362.67776
350.0 0.002857 262.14029 355.80966
357.0 0.002801 262.14154 350.90405
377.0 0.002653 262.14276 350.48389
394.0 0.002538 262.14426 355.45737
356.0 0.002809 262.14584 365.68576
413.0 0.002421 262.14737 380.12662
380.0 0.002632 262.14914 395.16742
433.0 0.002309 262.15094 407.16827
387.0 0.002584 262.15292 413.43805
384.0 0.002604 262.15497 413.54926
395.0 0.002532 262.15707 409.53281
406.0 0.002463 262.15930 404.73962
404.0 0.002475 262.16165 401.44299
390.0 0.002564 262.16415 399.14758
435.0 0.002299 262.16666 396.09152
404.0 0.002475 262.16925 388.93011
391.0 0.002558 262.17206 376.51282
360.0 0.002778 262.17490 361.23801
353.0 0.002833 262.17792 346.77722
331.0 0.003021 262.18094 335.69232
319.0 0.003135 262.18408 329.05930
309.0 0.003236 262.18735 327.16763
336.0 0.002976 262.19073 329.86197
359.0 0.002786 262.19424 336.32059
359.0 0.002786 262.19778 345.09750
366.0 0.002732 262.20148 354.43442
377.0 0.002653 262.20529 363.06653
393.0 0.002545 262.20923 370.79221
400.0 0.002500 262.21323 377.81210
401.0 0.002494 262.21732 383.86307
402.0 0.002488 262.22150 388.70407
411.0 0.002433 262.22580 392.50778
409.0 0.002445 262.23029 395.91855
429.0 0.002331 262.23477 395.81232
419.0 0.002387 262.23941 389.70844
412.0 0.002427 262.24411 378.15268
390.0 0.002564 262.24890 364.72412
353.0 0.002833 262.25391 353.07596
350.0 0.002857 262.25900 345.31439
357.0 0.002801 262.26410 342.46774
342.0 0.002924 262.26935 345.11859
344.0 0.002907 262.27472 353.95291
371.0 0.002695 262.28024 370.08719
393.0 0.002545 262.28583 394.04544
414.0 0.002415 262.29153 427.12958
439.0 0.002278 262.29736 470.98608
501.0 0.001996 262.30328 526.02075
595.0 0.001681 262.30927 589.18652
699.0 0.001431 262.31540 653.04004
724.0 0.001381 262.32156 704.81830
718.0 0.001393 262.32788 732.96454
717.0 0.001395 262.33438 736.53583
716.0 0.001397 262.34094 725.12164
741.0 0.001350 262.34760 708.14435
720.0 0.001389 262.35434 687.21094
645.0 0.001550 262.36127 655.86243
568.0 0.001761 262.36819 610.90900
520.0 0.001923 262.37537 558.91925
514.0 0.001946 262.38257 510.22360
452.0 0.002212 262.38989 471.54660
406.0 0.002463 262.39728 444.85934
400.0 0.002500 262.40479 429.14902
422.0 0.002370 262.41241 422.31561
445.0 0.002247 262.42017 423.04398
465.0 0.002151 262.42807 432.09225
474.0 0.002110 262.43597 449.98486
509.0 0.001965 262.44406 475.64490
477.0 0.002096 262.45227 505.06400
553.0 0.001808 262.46048 531.32239
571.0 0.001751 262.46896 546.91028
549.0 0.001821 262.47745 549.04578
518.0 0.001931 262.48608 540.70349
559.0 0.001789 262.49481 526.57336
506.0 0.001976 262.50369 508.88043
485.0 0.002062 262.51266 486.10165
436.0 0.002294 262.52170 457.52750
412.0 0.002427 262.53091 426.61584
373.0 0.002681 262.54013 398.43185
361.0 0.002770 262.54953 375.79117
353.0 0.002833 262.55905 359.08572
362.0 0.002762 262.56863 347.67670
340.0 0.002941 262.57840 339.77817
318.0 0.003145 262.58832 334.31711
305.0 0.003279 262.59827 331.13843
329.0 0.003040 262.60825 330.43637
332.0 0.003012 262.61844 332.01419
297.0 0.003367 262.62875 335.10510
312.0 0.003205 262.63916 338.66141
342.0 0.002924 262.64960 341.93057
342.0 0.002924 262.66025 344.31174
346.0 0.002890 262.67096 345.04993
351.0 0.002849 262.68179 343.84174
341.0 0.002933 262.69278 340.47574
321.0 0.003115 262.70383 335.02298
327.0 0.003058 262.71497 328.61200
304.0 0.003289 262.72629 322.67484
292.0 0.003425 262.73773 318.43216
328.0 0.003049 262.74924 316.32379
355.0 0.002817 262.76086 316.14059
334.0 0.002994 262.77258 318.12863
323.0 0.003096 262.78445 322.17093
323.0 0.003096 262.79642 328.43164
312.0 0.003205 262.80850 336.83844
331.0 0.003021 262.82074 347.11780
346.0 0.002890 262.83301 359.04013
368.0 0.002717 262.84549 373.30939
387.0 0.002584 262.85794 391.77673
427.0 0.002342 262.87061 416.92407
482.0 0.002075 262.88336 451.02084
554.0 0.001805 262.89627 494.08331
617.0 0.001621 262.90921 542.36011
606.0 0.001650 262.92230 587.44519
624.0 0.001603 262.93555 618.54047
605.0 0.001653 262.94882 628.30859
604.0 0.001656 262.96228 614.53003
534.0 0.001873 262.97583 583.19861
524.0 0.001908 262.98953 544.16217
479.0 0.002088 263.00327 507.51099
470.0 0.002128 263.01718 476.57941
434.0 0.002304 263.03119 449.58539
415.0 0.002410 263.04535 425.58859
386.0 0.002591 263.05954 404.05847
359.0 0.002786 263.07394 386.56570
361.0 0.002770 263.08832 374.13104
365.0 0.002740 263.10287 367.25064
372.0 0.002688 263.11758 366.44934
335.0 0.002985 263.13242 372.49585
397.0 0.002519 263.14728 385.11688
436.0 0.002294 263.16235 403.69647
464.0 0.002155 263.17752 425.74420
477.0 0.002096 263.19275 447.20755
496.0 0.002016 263.20816 463.00610
452.0 0.002212 263.22363 469.41901
456.0 0.002193 263.23923 465.16635
465.0 0.002151 263.25491 452.33990
436.0 0.002294 263.27075 435.47226
424.0 0.002358 263.28668 419.96240
406.0 0.002463 263.30280 408.32114
395.0 0.002532 263.31897 400.49896
406.0 0.002463 263.33530 395.38724
423.0 0.002364 263.35165 391.32074
393.0 0.002545 263.36816 386.71521
389.0 0.002571 263.38480 379.42743
356.0 0.002809 263.40158 367.92215
340.0 0.002941 263.41837 353.68939
319.0 0.003135 263.43542 339.43060
303.0 0.003300 263.45251 327.14185
304.0 0.003289 263.46967 317.33109
310.0 0.003226 263.48706 309.84137
304.0 0.003289 263.50449 304.17270
298.0 0.003356 263.52197 299.74582
285.0 0.00351 263.53967 296.26321
270.0 0.00370 263.55743 293.77615
276.0 0.00362 263.57535 292.32248
290.0 0.003448 263.59338 292.07550
285.0 0.00351 263.61148 292.84305
284.0 0.00352 263.62967 294.62286
308.0 0.003247 263.64813 297.43488
333.0 0.003003 263.66663 301.34988
325.0 0.003077 263.68518 305.90305
329.0 0.003040 263.70389 310.52090
332.0 0.003012 263.72266 313.35178
339.0 0.002950 263.74161 313.35205
335.0 0.002985 263.76065 310.33807
328.0 0.003049 263.77982 305.56287
287.0 0.003484 263.79907 300.50616
285.0 0.00351 263.81851 296.25079
285.0 0.00351 263.83801 293.45816
295.0 0.003390 263.85764 292.45670
279.0 0.00358 263.87735 293.39569
284.0 0.00352 263.89722 296.30234
319.0 0.003135 263.91721 301.07361
345.0 0.002899 263.93732 307.42221
300.0 0.003333 263.95749 314.71289
328.0 0.003049 263.97778 321.85071
318.0 0.003145 263.99820 327.61090
334.0 0.002994 264.01877 331.97733
344.0 0.002907 264.03940 335.70862
326.0 0.003067 264.06021 339.19601
329.0 0.003040 264.08112 341.50790
356.0 0.002809 264.10205 341.24139
327.0 0.003058 264.12323 337.86099
372.0 0.002688 264.14441 332.98297
302.0 0.003311 264.16580 328.39920
332.0 0.003012 264.18726 324.94647
311.0 0.003215 264.20880 322.41382
301.0 0.003322 264.23050 320.05130
315.0 0.003175 264.25232 317.04596
309.0 0.003236 264.27432 313.88165
316.0 0.003165 264.29636 311.31305
296.0 0.003378 264.31848 310.27417
290.0 0.003448 264.34076 311.20911
345.0 0.002899 264.36310 314.56161
318.0 0.003145 264.38565 319.79254
327.0 0.003058 264.40829 326.49677
353.0 0.002833 264.43097 333.81067
394.0 0.002538 264.45386 341.99902
373.0 0.002681 264.47678 350.15747
393.0 0.002545 264.49988 356.65613
374.0 0.002674 264.52304 359.61270
376.0 0.002660 264.54639 358.20187
385.0 0.002597 264.56976 353.90109
368.0 0.002717 264.59332 350.12119
343.0 0.002915 264.61694 349.22684
364.0 0.002747 264.64069 353.14801
367.0 0.002725 264.66458 362.03122
388.0 0.002577 264.68854 376.19583
413.0 0.002421 264.71271 395.18323
445.0 0.002247 264.73697 417.77246
479.0 0.002088 264.76123 440.87991
505.0 0.001980 264.78568 459.68390
502.0 0.001992 264.81027 468.98288
494.0 0.002024 264.83490 468.53592
467.0 0.002141 264.85968 463.91776
462.0 0.002165 264.88464 462.00095
494.0 0.002024 264.90961 467.21255
513.0 0.001949 264.93478 479.88849
529.0 0.001890 264.95996 496.82043
558.0 0.001792 264.98535 512.26630
536.0 0.001866 265.01083 519.62555
506.0 0.001976 265.03647 515.49139
497.0 0.002012 265.06219 501.24570
451.0 0.002217 265.08798 480.64212
415.0 0.002410 265.11395 456.75027
416.0 0.002404 265.13998 433.52036
372.0 0.002688 265.16614 414.75192
360.0 0.002778 265.19238 403.19736
370.0 0.002703 265.21878 399.59064
380.0 0.002632 265.24533 402.89297
392.0 0.002551 265.27185 410.54974
396.0 0.002525 265.29855 418.68594
406.0 0.002463 265.32544 423.80157
416.0 0.002404 265.35242 425.58533
426.0 0.002347 265.37946 426.96915
422.0 0.002370 265.40671 431.13351
431.0 0.002320 265.43387 439.40948
436.0 0.002294 265.46130 451.55832
471.0 0.002123 265.48889 466.21747
439.0 0.002278 265.51645 482.38266
497.0 0.002012 265.54425 498.67563
504.0 0.001984 265.57208 514.05164
505.0 0.001980 265.60004 527.67249
537.0 0.001862 265.62811 536.50861
540.0 0.001852 265.65631 534.89197
505.0 0.001980 265.68466 518.51410
478.0 0.002092 265.71301 489.57349
455.0 0.002198 265.74161 455.26639
403.0 0.002481 265.77017 422.76715
356.0 0.002809 265.79904 395.67181
342.0 0.002924 265.82785 375.65482
320.0 0.003125 265.85678 362.65891
351.0 0.002849 265.88596 355.87289
335.0 0.002985 265.91513 354.32434
338.0 0.002959 265.94449 357.15979
324.0 0.003086 265.97385 363.39096
345.0 0.002899 266.00339 371.73203
391.0 0.002558 266.03305 380.47482
403.0 0.002481 266.06281 388.55209
409.0 0.002445 266.09268 396.62515
426.0 0.002347 266.12271 406.36710
441.0 0.002268 266.15271 419.13797
459.0 0.002179 266.18298 435.66553
476.0 0.002101 266.21329 455.59305
514.0 0.001946 266.24371 477.17252
536.0 0.001866 266.27423 497.94308
539.0 0.001855 266.30484 516.88416
538.0 0.001859 266.33560 533.98193
552.0 0.001812 266.36655 548.19525
582.0 0.001718 266.39749 557.29272
572.0 0.001748 266.42865 559.80450
560.0 0.001786 266.45975 556.47437
557.0 0.001795 266.49106 550.31903
538.0 0.001859 266.52246 544.08643
527.0 0.001898 266.55405 537.74786
512.0 0.001953 266.58572 530.13733
497.0 0.002012 266.61746 518.69769
489.0 0.002045 266.64926 501.00598
453.0 0.002208 266.68127 478.04657
438.0 0.002283 266.71338 454.09985
419.0 0.002387 266.74554 434.05801
386.0 0.002591 266.77780 421.03583
420.0 0.002381 266.81024 417.14624
441.0 0.002268 266.84271 423.72592
415.0 0.002410 266.87537 441.71381
468.0 0.002137 266.90808 470.76569
554.0 0.001805 266.94095 508.65240
620.0 0.001613 266.97391 550.41711
643.0 0.001555 267.00696 587.30450
664.0 0.001506 267.04013 608.96503
647.0 0.001546 267.07336 609.06738
634.0 0.001577 267.10678 591.39026
609.0 0.001642 267.14029 564.74872
547.0 0.001828 267.17389 537.02899
516.0 0.001938 267.20752 511.34253
476.0 0.002101 267.24139 487.71286
422.0 0.002370 267.27536 464.67896
374.0 0.002674 267.30933 440.92722
401.0 0.002494 267.34344 416.80310
377.0 0.002653 267.37772 394.35629
376.0 0.002660 267.41208 375.27631
371.0 0.002695 267.44653 360.94815
333.0 0.003003 267.48108 351.82800
342.0 0.002924 267.51572 348.29160
365.0 0.002740 267.55054 350.05688
328.0 0.003049 267.58542 356.75809
407.0 0.002457 267.62036 367.43521
436.0 0.002294 267.65549 380.75186
412.0 0.002427 267.69064 393.79037
441.0 0.002268 267.72607 402.72931
403.0 0.002481 267.76138 404.43607
413.0 0.002421 267.79691 399.82953
395.0 0.002532 267.83261 392.64441
384.0 0.002604 267.86826 386.89899
385.0 0.002597 267.90414 384.90976
406.0 0.002463 267.94009 387.36859
368.0 0.002717 267.97607 393.78378
388.0 0.002577 268.01227 402.78064
428.0 0.002336 268.04852 412.03046
418.0 0.002392 268.08490 418.48041
419.0 0.002387 268.12128 420.00836
407.0 0.002457 268.15790 417.80087
401.0 0.002494 268.19458 414.99301
406.0 0.002463 268.23138 413.93253
405.0 0.002469 268.26819 414.55228
402.0 0.002488 268.30524 416.42136
427.0 0.002342 268.34229 418.64316
434.0 0.002304 268.37955 421.67764
444.0 0.002252 268.41681 425.81973
451.0 0.002217 268.45413 430.14230
444.0 0.002252 268.49170 431.94678
427.0 0.002342 268.52927 428.68356
389.0 0.002571 268.56699 420.96338
385.0 0.002597 268.60474 412.51044
411.0 0.002433 268.64273 407.08209
391.0 0.002558 268.68073 406.65897
414.0 0.002415 268.71881 411.13782
433.0 0.002309 268.75702 418.75888
416.0 0.002404 268.79535 426.22885
394.0 0.002538 268.83380 429.75516
389.0 0.002571 268.87228 426.43732
362.0 0.002762 268.91092 417.05316
394.0 0.002538 268.94968 405.17697
392.0 0.002551 268.98843 394.47379
407.0 0.002457 269.02740 386.74063
417.0 0.002398 269.06641 382.74063
382.0 0.002618 269.10553 382.27063
345.0 0.002899 269.14478 385.45923
387.0 0.002584 269.18405 392.64664
379.0 0.002639 269.22354 403.61115
397.0 0.002519 269.26306 416.87625
434.0 0.002304 269.30267 429.91916
403.0 0.002481 269.34238 439.43152
429.0 0.002331 269.38223 442.99603
427.0 0.002342 269.42221 439.28812
427.0 0.002342 269.46222 429.66391
370.0 0.002703 269.50226 417.36227
400.0 0.002500 269.54251 406.12411
354.0 0.002825 269.58286 397.50778
408.0 0.002451 269.62329 391.50348
374.0 0.002674 269.66379 387.23853
348.0 0.002874 269.70441 383.19000
343.0 0.002915 269.74509 378.28842
339.0 0.002950 269.78592 371.30374
321.0 0.003115 269.82681 361.69943
333.0 0.003003 269.86789 350.57608
305.0 0.003279 269.90891 339.90295
320.0 0.003125 269.95020 331.25479
301.0 0.003322 269.99142 325.21234
309.0 0.003236 270.03284 322.74408
326.0 0.003067 270.07437 323.49042
312.0 0.003205 270.11588 326.75980
318.0 0.003145 270.15765 331.78391
314.0 0.003185 270.19937 337.12241
306.0 0.003268 270.24127 340.93555
301.0 0.003322 270.28320 342.08435
318.0 0.003145 270.32526 340.83698
325.0 0.003077 270.36743 339.26459
336.0 0.002976 270.40970 339.12021
344.0 0.002907 270.45209 341.50012
362.0 0.002762 270.49454 346.53842
368.0 0.002717 270.53705 353.37451
365.0 0.002740 270.57971 359.78220
373.0 0.002681 270.62244 362.90085
362.0 0.002762 270.66525 360.59338
355.0 0.002817 270.70816 353.22208
333.0 0.003003 270.75116 343.10812
325.0 0.003077 270.79431 332.79984
342.0 0.002924 270.83749 323.18649
325.0 0.003077 270.88080 315.31686
292.0 0.003425 270.92419 309.14813
284.0 0.00352 270.96768 304.78973
294.0 0.003401 271.01123 302.23938
307.0 0.003257 271.05484 301.61954
314.0 0.003185 271.09863 302.95132
337.0 0.002967 271.14252 306.28201
335.0 0.002985 271.18643 311.55087
310.0 0.003226 271.23044 318.39655
331.0 0.003021 271.27460 326.13849
340.0 0.002941 271.31888 333.52802
341.0 0.002933 271.36313 338.84998
387.0 0.002584 271.40750 341.37555
367.0 0.002725 271.45200 340.90472
347.0 0.002882 271.49658 337.84378
334.0 0.002994 271.54123 332.50934
348.0 0.002874 271.58603 325.53659
302.0 0.003311 271.63086 317.90427
299.0 0.003344 271.67581 310.68884
322.0 0.003106 271.72089 304.54440
285.0 0.00351 271.76593 299.77548
289.0 0.003460 271.81122 296.07712
316.0 0.003165 271.85648 293.23114
291.0 0.003436 271.90189 291.36771
292.0 0.003425 271.94733 290.35339
297.0 0.003367 271.99289 290.18005
269.0 0.00372 272.03860 290.81940
308.0 0.003247 272.08426 292.33139
296.0 0.003378 272.13013 294.85614
302.0 0.003311 272.17603 297.74808
298.0 0.003356 272.22208 300.76434
312.0 0.003205 272.26816 303.40781
309.0 0.003236 272.31424 304.99039
328.0 0.003049 272.36066 305.04083
284.0 0.00352 272.40686 303.84949
296.0 0.003378 272.45337 301.84293
289.0 0.003460 272.49988 299.88950
287.0 0.003484 272.54651 298.54938
283.0 0.00353 272.59323 298.13297
295.0 0.003390 272.63998 298.78745
286.0 0.003497 272.68695 300.46750
300.0 0.003333 272.73383 302.90549
324.0 0.003086 272.78082 305.57864
315.0 0.003175 272.82803 308.06897
333.0 0.003003 272.87515 309.90286
320.0 0.003125 272.92255 311.26404
319.0 0.003135 272.96991 313.09152
367.0 0.002725 273.01733 316.23016
343.0 0.002915 273.06491 321.73730
335.0 0.002985 273.11255 329.90793
373.0 0.002681 273.16031 340.89105
392.0 0.002551 273.20810 353.79523
402.0 0.002488 273.25592 367.38919
404.0 0.002475 273.30396 379.28159
396.0 0.002525 273.35187 386.33405
425.0 0.002353 273.40012 387.74301
429.0 0.002331 273.44833 385.35767
371.0 0.002695 273.49655 382.37183
351.0 0.002849 273.54495 381.00305
363.0 0.002755 273.59341 381.91852
361.0 0.002770 273.64197 384.27765
377.0 0.002653 273.69061 386.51382
408.0 0.002451 273.73932 387.82053
400.0 0.002500 273.78812 388.82837
384.0 0.002604 273.83691 390.49045
374.0 0.002674 273.88586 392.80606
401.0 0.002494 273.93491 394.52560
393.0 0.002545 273.98398 393.74295
398.0 0.002513 274.03326 389.45175
384.0 0.002604 274.08243 382.56790
398.0 0.002513 274.13184 375.50693
344.0 0.002907 274.18121 370.52051
345.0 0.002899 274.23068 368.83676
393.0 0.002545 274.28036 370.60138
363.0 0.002755 274.32999 375.30402
381.0 0.002625 274.37985 381.78149
400.0 0.002500 274.42966 389.03729
396.0 0.002525 274.47943 397.55331
388.0 0.002577 274.52951 408.68320
419.0 0.002387 274.57941 422.98386
465.0 0.002151 274.62967 439.41846
483.0 0.002070 274.67981 454.64041
437.0 0.002288 274.73016 463.57648
453.0 0.002208 274.78055 462.34094
417.0 0.002398 274.83096 451.55743
403.0 0.002481 274.88147 435.63885
425.0 0.002353 274.93207 419.21017
425.0 0.002353 274.98264 404.34048
398.0 0.002513 275.03351 391.38165
355.0 0.002817 275.08432 379.69110
367.0 0.002725 275.13513 368.97177
333.0 0.003003 275.18619 360.09717
359.0 0.002786 275.23715 354.04324
370.0 0.002703 275.28836 351.52554
374.0 0.002674 275.33954 352.83313
375.0 0.002667 275.39081 358.02368
413.0 0.002421 275.44214 366.68820
392.0 0.002551 275.49350 377.85065
407.0 0.002457 275.54504 389.95676
408.0 0.002451 275.59662 401.23105
393.0 0.002545 275.64832 411.13077
420.0 0.002381 275.69998 420.03674
432.0 0.002315 275.75174 429.01016
441.0 0.002268 275.80362 437.63303
446.0 0.002242 275.85559 444.33347
469.0 0.002132 275.90756 448.18738
461.0 0.002169 275.95966 450.37003
461.0 0.002169 276.01181 453.32932
492.0 0.002033 276.06406 458.78427
505.0 0.001980 276.11633 466.38452
511.0 0.001957 276.16873 473.84018
506.0 0.001976 276.22116 477.15460
487.0 0.002053 276.27359 473.21637
452.0 0.002212 276.32620 462.36465
445.0 0.002247 276.37881 448.32755
454.0 0.002203 276.43164 435.14203
428.0 0.002336 276.48438 424.95779
420.0 0.002381 276.53720 417.84457
418.0 0.002392 276.59015 412.16476
408.0 0.002451 276.64310 406.00082
433.0 0.002309 276.69620 398.15543
417.0 0.002398 276.74933 388.96606
375.0 0.002667 276.80255 379.62549
381.0 0.002625 276.85587 371.48209
367.0 0.002725 276.90918 365.75421
360.0 0.002778 276.96262 362.97989
337.0 0.002967 277.01605 363.24567
372.0 0.002688 277.06955 366.47556
399.0 0.002506 277.12323 372.93658
383.0 0.002611 277.17688 383.00723
400.0 0.002500 277.23071 397.00372
406.0 0.002463 277.28452 414.53030
430.0 0.002326 277.33835 434.06418
445.0 0.002247 277.39236 453.48447
494.0 0.002024 277.44629 470.43237
494.0 0.002024 277.50046 483.71463
498.0 0.002008 277.55460 491.37128
515.0 0.001942 277.60876 490.78268
480.0 0.002083 277.66306 480.23944
464.0 0.002155 277.71741 461.22488
420.0 0.002381 277.77182 437.43115
386.0 0.002591 277.82639 412.33939
345.0 0.002899 277.88086 388.70761
332.0 0.003012 277.93549 368.25607
348.0 0.002874 277.99017 351.80011
315.0 0.003175 278.04489 339.48825
322.0 0.003106 278.09970 330.82040
295.0 0.003390 278.15454 325.20560
306.0 0.003268 278.20941 321.97031
316.0 0.003165 278.26447 320.16196
295.0 0.003390 278.31955 319.78897
304.0 0.003289 278.37466 320.79810
324.0 0.003086 278.42978 323.50436
335.0 0.002985 278.48508 328.04391
315.0 0.003175 278.54034 334.76138
338.0 0.002959 278.59576 343.28040
367.0 0.002725 278.65125 353.18610
389.0 0.002571 278.70660 363.26846
393.0 0.002545 278.76224 371.74878
361.0 0.002770 278.81787 376.69962
341.0 0.002933 278.87357 377.29715
359.0 0.002786 278.92926 374.54837
375.0 0.002667 278.98505 371.30655
380.0 0.002632 279.04095 369.16327
368.0 0.002717 279.09683 369.15045
379.0 0.002639 279.15289 371.44644
376.0 0.002660 279.20889 375.81467
392.0 0.002551 279.26495 381.15707
418.0 0.002392 279.32117 385.42499
421.0 0.002375 279.37738 386.14346
379.0 0.002639 279.43375 382.10568
348.0 0.002874 279.49002 374.24606
354.0 0.002825 279.54636 365.08438
358.0 0.002793 279.60284 356.99075
374.0 0.002674 279.65936 351.51395
359.0 0.002786 279.71600 349.57654
358.0 0.002793 279.77264 351.65283
365.0 0.002740 279.82932 357.71451
359.0 0.002786 279.88605 367.18207
387.0 0.002584 279.94281 378.85663
392.0 0.002551 279.99976 390.84366
380.0 0.002632 280.05670 400.35519
363.0 0.002755 280.11362 405.08649
397.0 0.002519 280.17072 404.82965
392.0 0.002551 280.22781 401.96747
377.0 0.002653 280.28500 398.84717
383.0 0.002611 280.34222 397.00192
399.0 0.002506 280.39938 396.51938
391.0 0.002558 280.45685 396.84256
386.0 0.002591 280.51413 397.16672
420.0 0.002381 280.57162 396.50229
438.0 0.002283 280.62912 393.63834
388.0 0.002577 280.68668 388.80045
385.0 0.002597 280.74429 382.51096
353.0 0.002833 280.80188 376.11597
349.0 0.002865 280.85968 370.67499
354.0 0.002825 280.91745 366.75089
320.0 0.003125 280.97519 364.81955
388.0 0.002577 281.03311 365.70578
369.0 0.002710 281.09103 369.71225
390.0 0.002564 281.14905 376.72144
391.0 0.002558 281.20709 385.76486
383.0 0.002611 281.26511 394.92123
402.0 0.002488 281.32330 401.63831
425.0 0.002353 281.38147 404.23837
420.0 0.002381 281.43979 402.55737
396.0 0.002525 281.49811 398.37933
387.0 0.002584 281.55640 393.69446
366.0 0.002732 281.61487 389.55466
335.0 0.002985 281.67328 386.16391
374.0 0.002674 281.73190 383.40503
369.0 0.002710 281.79044 381.36078
391.0 0.002558 281.84900 380.37668
387.0 0.002584 281.90771 380.82999
369.0 0.002710 281.96643 382.86462
378.0 0.002646 282.02527 385.85583
393.0 0.002545 282.08411 388.77557
386.0 0.002591 282.14294 391.43088
391.0 0.002558 282.20193 393.85385
406.0 0.002463 282.26086 396.80768
424.0 0.002358 282.31992 400.82507
414.0 0.002415 282.37897 405.69449
410.0 0.002439 282.43814 410.64926
408.0 0.002451 282.49731 414.52954
407.0 0.002457 282.55658 417.81464
437.0 0.002288 282.61584 421.71048
448.0 0.002232 282.67523 427.63852
450.0 0.002222 282.73456 436.16229
468.0 0.002137 282.79401 447.97491
483.0 0.002070 282.85352 462.91888
500.0 0.002000 282.91306 480.67471
494.0 0.002024 282.97272 500.27020
523.0 0.001912 283.03223 519.38586
574.0 0.001742 283.09195 534.76587
566.0 0.001767 283.15167 543.71625
562.0 0.001779 283.21155 545.48541
575.0 0.001739 283.27136 540.85938
561.0 0.001783 283.33115 531.41473
516.0 0.001938 283.39120 517.94379
514.0 0.001946 283.45114 500.86761
469.0 0.002132 283.51120 480.75858
425.0 0.002353 283.57123 459.82971
400.0 0.002500 283.63129 440.58109
424.0 0.002358 283.69156 424.22504
379.0 0.002639 283.75171 410.74509
400.0 0.002500 283.81204 399.57932
369.0 0.002710 283.87231 390.31094
350.0 0.002857 283.93262 383.55533
362.0 0.002762 283.99310 380.04364
359.0 0.002786 284.05356 380.14755
389.0 0.002571 284.11411 384.06265
396.0 0.002525 284.17465 391.35922
434.0 0.002304 284.23514 401.58383
471.0 0.002123 284.29581 414.13901
416.0 0.002404 284.35651 427.86545
464.0 0.002155 284.41721 440.90509
452.0 0.002212 284.47803 450.83386
467.0 0.002141 284.53882 455.64081
473.0 0.002114 284.59970 454.29449
445.0 0.002247 284.66058 447.21143
468.0 0.002137 284.72156 436.03918
408.0 0.002451 284.78256 422.48108
404.0 0.002475 284.84360 407.74979
394.0 0.002538 284.90479 392.79926
358.0 0.002793 284.96588 379.26837
375.0 0.002667 285.02707 367.55255
343.0 0.002915 285.08838 358.02682
355.0 0.002817 285.14954 350.27637
355.0 0.002817 285.21091 343.82858
330.0 0.003030 285.27222 338.51978
332.0 0.003012 285.33365 334.42532
344.0 0.002907 285.39517 331.71933
332.0 0.003012 285.45654 330.71814
345.0 0.002899 285.51819 331.51907
334.0 0.002994 285.57974 334.31439
340.0 0.002941 285.64145 339.29568
351.0 0.002849 285.70306 346.58536
377.0 0.002653 285.76471 356.19702
381.0 0.002625 285.82654 367.98950
388.0 0.002577 285.88837 381.56323
417.0 0.002398 285.95026 396.05698
416.0 0.002404 286.01215 410.11746
451.0 0.002217 286.07397 421.93524
475.0 0.002105 286.13605 429.81818
474.0 0.002110 286.19806 432.56238
474.0 0.002110 286.26019 430.79477
454.0 0.002203 286.32224 426.33154
439.0 0.002278 286.38431 420.55579
430.0 0.002326 286.44650 413.79202
419.0 0.002387 286.50873 405.47516
418.0 0.002392 286.57104 395.35675
373.0 0.002681 286.63336 384.02890
343.0 0.002915 286.69571 373.06259
352.0 0.002841 286.75818 363.47083
342.0 0.002924 286.82053 356.33401
341.0 0.002933 286.88309 352.40848
326.0 0.003067 286.94562 352.00589
330.0 0.003030 287.00812 355.55066
350.0 0.002857 287.07080 363.45142
390.0 0.002564 287.13342 376.07068
416.0 0.002404 287.19620 393.96542
453.0 0.002208 287.25894 415.96286
481.0 0.002079 287.32162 441.85300
505.0 0.001980 287.38452 469.11789
530.0 0.001887 287.44736 495.25818
545.0 0.001835 287.51031 516.40125
563.0 0.001776 287.57327 528.91876
574.0 0.001742 287.63617 531.21149
530.0 0.001887 287.69922 524.04218
522.0 0.001916 287.76233 510.04636
471.0 0.002123 287.82547 491.50552
470.0 0.002128 287.88861 470.09225
454.0 0.002203 287.95181 447.86923
363.0 0.002755 288.01508 426.17694
373.0 0.002681 288.07828 406.36813
370.0 0.002703 288.14166 389.37048
389.0 0.002571 288.20499 375.98151
353.0 0.002833 288.26834 366.13776
335.0 0.002985 288.33185 359.27878
341.0 0.002933 288.39526 355.06049
366.0 0.002732 288.45889 353.06769
367.0 0.002725 288.52240 353.28607
331.0 0.003021 288.58600 355.78723
348.0 0.002874 288.64972 360.67230
369.0 0.002710 288.71329 367.65543
417.0 0.002398 288.77710 376.03415
398.0 0.002513 288.84088 384.89963
406.0 0.002463 288.90463 393.00235
418.0 0.002392 288.96851 399.25693
417.0 0.002398 289.03232 402.49017
418.0 0.002392 289.09634 402.38989
411.0 0.002433 289.16028 399.43942
378.0 0.002646 289.22424 394.60754
371.0 0.002695 289.28833 388.66650
375.0 0.002667 289.35239 382.75427
361.0 0.002770 289.41660 377.71231
380.0 0.002632 289.48074 374.13339
403.0 0.002481 289.54489 372.49097
395.0 0.002532 289.60916 372.76559
402.0 0.002488 289.67343 374.75433
393.0 0.002545 289.73779 378.31354
394.0 0.002538 289.80219 383.75781
388.0 0.002577 289.86655 390.61911
413.0 0.002421 289.93103 398.62222
434.0 0.002304 289.99551 406.72720
461.0 0.002169 290.06009 413.41721
458.0 0.002183 290.12469 416.72870
432.0 0.002315 290.18921 415.06961
414.0 0.002415 290.25391 408.05328
384.0 0.002604 290.31851 397.03537
378.0 0.002646 290.38333 384.01889
369.0 0.002710 290.44815 371.18323
339.0 0.002950 290.51285 359.88861
326.0 0.003067 290.57773 350.75223
330.0 0.003030 290.64267 344.02628
350.0 0.002857 290.70758 339.70303
332.0 0.003012 290.77258 337.55197
338.0 0.002959 290.83752 337.38571
330.0 0.003030 290.90262 338.98346
317.0 0.003155 290.96768 342.28427
351.0 0.002849 291.03290 347.15204
341.0 0.002933 291.09802 353.51184
347.0 0.002882 291.16318 361.35233
379.0 0.002639 291.22849 370.81573
411.0 0.002433 291.29376 382.07172
438.0 0.002283 291.35913 395.24951
466.0 0.002146 291.42447 410.16977
454.0 0.002203 291.48990 426.09006
506.0 0.001976 291.55539 442.35931
507.0 0.001972 291.62091 458.02060
492.0 0.002033 291.68643 472.40295
551.0 0.001815 291.75204 485.09467
519.0 0.001927 291.81754 496.76108
563.0 0.001776 291.88330 508.23950
604.0 0.001656 291.94891 519.69244
581.0 0.001721 292.01471 532.19946
563.0 0.001776 292.08051 547.74109
610.0 0.001639 292.14630 568.62250
665.0 0.001504 292.21222 595.93762
693.0 0.001443 292.27808 628.07166
739.0 0.001353 292.34406 660.33429
801.0 0.001248 292.41006 685.41840
843.0 0.001186 292.47601 696.15265
746.0 0.001340 292.54211 689.14978
651.0 0.001536 292.60818 665.49988
575.0 0.001739 292.67444 629.90466
552.0 0.001812 292.74063 589.66779
495.0 0.002020 292.80676 550.73975
490.0 0.002041 292.87311 516.90289
485.0 0.002062 292.93939 489.62305
457.0 0.002188 293.00577 469.05536
440.0 0.002273 293.07217 454.09705
441.0 0.002268 293.13858 444.02164
436.0 0.002294 293.20514 438.38199
426.0 0.002347 293.27161 437.17062
442.0 0.002262 293.33820 440.12268
453.0 0.002208 293.40482 447.14944
459.0 0.002179 293.47141 457.91650
483.0 0.002070 293.53815 472.06979
510.0 0.001961 293.60483 489.80301
541.0 0.001848 293.67166 511.69449
602.0 0.001661 293.73853 537.81531
629.0 0.001590 293.80533 566.80341
631.0 0.001585 293.87231 595.44244
675.0 0.001481 293.93924 619.57184
723.0 0.001383 294.00620 635.71307
702.0 0.001425 294.07330 642.45190
684.0 0.001462 294.14035 640.64050
661.0 0.001513 294.20746 632.50269
657.0 0.001522 294.27454 620.99652
636.0 0.001572 294.34186 608.20367
576.0 0.001736 294.40912 595.38739
574.0 0.001742 294.47635 582.41797
547.0 0.001828 294.54367 567.78906
523.0 0.001912 294.61108 548.81049
480.0 0.002083 294.67853 524.76550
452.0 0.002212 294.74597 497.63840
421.0 0.002375 294.81351 470.69742
414.0 0.002415 294.88110 446.54761
376.0 0.002660 294.94867 427.03351
375.0 0.002667 295.01639 412.40338
404.0 0.002475 295.08405 402.94321
365.0 0.002740 295.15170 398.43637
388.0 0.002577 295.21948 398.37595
433.0 0.002309 295.28735 401.97769
459.0 0.002179 295.35532 408.03177
423.0 0.002364 295.42328 414.87643
415.0 0.002410 295.49112 420.78217
408.0 0.002451 295.55914 424.69141
423.0 0.002364 295.62720 426.22537
457.0 0.002188 295.69531 426.16330
422.0 0.002370 295.76352 425.73862
418.0 0.002392 295.83160 425.91925
415.0 0.002410 295.89987 427.08624
424.0 0.002358 295.96814 428.85306
464.0 0.002155 296.03644 430.91995
417.0 0.002398 296.10489 432.72830
425.0 0.002353 296.17331 433.40359
436.0 0.002294 296.24182 431.85263
434.0 0.002304 296.31033 428.09451
432.0 0.002315 296.37894 423.16318
403.0 0.002481 296.44754 418.38968
421.0 0.002375 296.51611 414.51797
414.0 0.002415 296.58490 412.02539
398.0 0.002513 296.65359 410.92191
440.0 0.002273 296.72247 411.83936
421.0 0.002375 296.79132 415.12756
472.0 0.002119 296.86014 420.24356
469.0 0.002132 296.92917 425.91537
443.0 0.002257 296.99817 430.28183
432.0 0.002315 297.06723 431.53915
421.0 0.002375 297.13635 429.12653
444.0 0.002252 297.20541 423.96539
430.0 0.002326 297.27469 417.16415
408.0 0.002451 297.34387 409.72864
387.0 0.002584 297.41324 402.34137
366.0 0.002732 297.48251 396.18912
375.0 0.002667 297.55194 392.32889
400.0 0.002500 297.62143 391.91660
418.0 0.002392 297.69089 395.75262
445.0 0.002247 297.76050 404.43857
452.0 0.002212 297.83011 418.09863
450.0 0.002222 297.89966 436.32001
487.0 0.002053 297.96948 457.95367
505.0 0.001980 298.03918 480.68829
503.0 0.001988 298.10898 501.09317
498.0 0.002008 298.17892 515.14691
504.0 0.001984 298.24875 520.03772
508.0 0.001969 298.31876 515.71313
495.0 0.002020 298.38873 503.88800
455.0 0.002198 298.45886 487.71078
436.0 0.002294 298.52905 470.11722
438.0 0.002283 298.59915 452.95868
406.0 0.002463 298.66940 436.93311
401.0 0.002494 298.73969 422.35577
383.0 0.002611 298.81012 408.69296
367.0 0.002725 298.88046 396.56705
366.0 0.002732 298.95087 386.30225
355.0 0.002817 299.02142 377.85605
354.0 0.002825 299.09189 371.06412
368.0 0.002717 299.16260 365.83719
355.0 0.002817 299.23328 362.15747
338.0 0.002959 299.30389 360.39966
343.0 0.002915 299.37482 360.86676
345.0 0.002899 299.44562 363.75787
364.0 0.002747 299.51654 369.12973
340.0 0.002941 299.58752 376.81213
394.0 0.002538 299.65848 386.33005
414.0 0.002415 299.72958 396.77560
395.0 0.002532 299.80066 406.66464
385.0 0.002597 299.87189 414.22092
457.0 0.002188 299.94318 418.06680
384.0 0.002604 300.01437 417.83069
362.0 0.002762 300.08575 414.37854
376.0 0.002660 300.15714 408.98410
407.0 0.002457 300.22870 403.15628
396.0 0.002525 300.30020 398.75226
374.0 0.002674 300.37170 396.35046
388.0 0.002577 300.44339 396.02496
361.0 0.002770 300.51514 397.74860
384.0 0.002604 300.58691 400.40063
382.0 0.002618 300.65875 402.86713
395.0 0.002532 300.73059 404.16119
411.0 0.002433 300.80258 404.87946
393.0 0.002545 300.87463 405.87347
394.0 0.002538 300.94678 408.60257
395.0 0.002532 301.01889 414.41080
428.0 0.002336 301.09100 424.19717
459.0 0.002179 301.16339 438.10858
480.0 0.002083 301.23566 455.46591
523.0 0.001912 301.30807 474.60229
527.0 0.001898 301.38058 492.69113
530.0 0.001887 301.45303 506.32227
515.0 0.001942 301.52563 513.28033
498.0 0.002008 301.59833 511.96439
488.0 0.002049 301.67102 502.36014
488.0 0.002049 301.74384 486.03891
452.0 0.002212 301.81659 465.99036
398.0 0.002513 301.88953 445.45181
382.0 0.002618 301.96255 427.02527
380.0 0.002632 302.03555 412.16580
379.0 0.002639 302.10873 401.53696
390.0 0.002564 302.18179 395.16061
395.0 0.002532 302.25513 392.51779
399.0 0.002506 302.32840 393.04633
411.0 0.002433 302.40186 395.68542
400.0 0.002500 302.47528 399.51108
398.0 0.002513 302.54877 404.04819
421.0 0.002375 302.62238 409.51077
432.0 0.002315 302.69598 416.36899
439.0 0.002278 302.76974 424.68887
455.0 0.002198 302.84351 434.30099
475.0 0.002105 302.91736 444.34778
434.0 0.002304 302.99133 454.02625
480.0 0.002083 303.06531 462.99673
479.0 0.002088 303.13943 471.40506
477.0 0.002096 303.21356 479.12869
514.0 0.001946 303.28772 486.04190
525.0 0.001905 303.36209 491.70813
537.0 0.001862 303.43640 495.82840
496.0 0.002016 303.51089 498.27850
510.0 0.001961 303.58539 499.23862
492.0 0.002033 303.65988 499.14508
503.0 0.001988 303.73459 498.14478
484.0 0.002066 303.80930 495.56378
499.0 0.002004 303.88412 490.48764
490.0 0.002041 303.95901 482.33057
453.0 0.002208 304.03387 471.97943
442.0 0.002262 304.10898 461.31085
429.0 0.002331 304.18405 452.12631
410.0 0.002439 304.25931 445.37747
403.0 0.002481 304.33456 441.05731
409.0 0.002445 304.40985 438.55310
420.0 0.002381 304.48529 436.87949
429.0 0.002331 304.56076 435.31842
432.0 0.002315 304.63632 433.65231
425.0 0.002353 304.71201 432.21463
449.0 0.002227 304.78769 431.47324
421.0 0.002375 304.86353 431.92252
443.0 0.002257 304.93939 434.21417
481.0 0.002079 305.01538 438.96393
470.0 0.002128 305.09140 446.47400
446.0 0.002242 305.16745 456.41699
523.0 0.001912 305.24371 467.71851
509.0 0.001965 305.31992 478.78162
541.0 0.001848 305.39636 488.35925
535.0 0.001869 305.47284 496.98950
559.0 0.001789 305.54929 505.77173
540.0 0.001852 305.62601 515.98425
565.0 0.001770 305.70264 528.48999
652.0 0.001534 305.77948 542.71729
680.0 0.001471 305.85635 557.52930
672.0 0.001488 305.93317 571.17706
674.0 0.001484 306.01031 581.10101
672.0 0.001488 306.08740 584.29260
621.0 0.001610 306.16467 578.78131
571.0 0.001751 306.24188 565.21094
571.0 0.001751 306.31918 546.01593
545.0 0.001835 306.39679 523.70813
480.0 0.002083 306.47427 500.14743
438.0 0.002283 306.55194 476.75607
427.0 0.002342 306.62961 455.15057
422.0 0.002370 306.70734 436.65689
399.0 0.002506 306.78540 422.20245
414.0 0.002415 306.86334 412.16937
393.0 0.002545 306.94147 406.34750
387.0 0.002584 307.01962 404.23895
408.0 0.002451 307.09772 405.04266
427.0 0.002342 307.17621 407.73486
425.0 0.002353 307.25458 411.15308
460.0 0.002174 307.33322 414.80240
465.0 0.002151 307.41187 418.56387
431.0 0.002320 307.49045 423.12717
443.0 0.002257 307.56937 429.62521
466.0 0.002146 307.64816 438.89035
471.0 0.002123 307.72729 451.48245
509.0 0.001965 307.80640 467.05188
550.0 0.001818 307.88547 484.25967
590.0 0.001695 307.96478 500.87729
559.0 0.001789 308.04416 513.44446
505.0 0.001980 308.12363 518.81512
575.0 0.001739 308.20325 515.23810
517.0 0.001934 308.28284 503.40140
489.0 0.002045 308.36270 485.70181
413.0 0.002421 308.44247 465.02518
446.0 0.002242 308.52246 443.59418
412.0 0.002427 308.60257 423.07513
346.0 0.002890 308.68256 404.62561
331.0 0.003021 308.76297 388.68637
359.0 0.002786 308.84323 375.90082
330.0 0.003030 308.92377 366.00546
350.0 0.002857 309.00427 358.72955
338.0 0.002959 309.08490 353.65283
313.0 0.003195 309.16568 350.39148
334.0 0.002994 309.24655 348.30630
356.0 0.002809 309.32751 347.44141
352.0 0.002841 309.40860 347.43179
336.0 0.002976 309.48965 348.14590
346.0 0.002890 309.57101 349.60352
325.0 0.003077 309.65231 351.93835
353.0 0.002833 309.73383 355.33420
365.0 0.002740 309.81540 359.95877
385.0 0.002597 309.89697 365.79642
363.0 0.002755 309.97891 372.45688
394.0 0.002538 310.06076 379.36374
403.0 0.002481 310.14285 385.54239
384.0 0.002604 310.22491 389.80554
383.0 0.002611 310.30704 391.28333
387.0 0.002584 310.38943 389.72977
382.0 0.002618 310.47183 385.88397
350.0 0.002857 310.55438 380.61798
357.0 0.002801 310.63715 374.98138
357.0 0.002801 310.71976 369.84155
339.0 0.002950 310.80267 365.70462
318.0 0.003145 310.88565 363.01263
338.0 0.002959 310.96875 361.77472
371.0 0.002695 311.05200 361.53061
375.0 0.002667 311.13528 361.95035
349.0 0.002865 311.21866 362.56375
355.0 0.002817 311.30222 362.63608
355.0 0.002817 311.38593 362.52237
373.0 0.002681 311.46976 362.21597
346.0 0.002890 311.55350 361.71716
342.0 0.002924 311.63751 361.04471
360.0 0.002778 311.72159 359.86047
354.0 0.002825 311.80585 358.02194
357.0 0.002801 311.89029 355.71399
337.0 0.002967 311.97467 353.37250
340.0 0.002941 312.05923 351.44040
318.0 0.003145 312.14389 350.13428
316.0 0.003165 312.22873 349.60953
320.0 0.003125 312.31372 349.89679
346.0 0.002890 312.39862 350.64609
344.0 0.002907 312.48395 351.38980
333.0 0.003003 312.56909 351.73834
308.0 0.003247 312.65460 351.33533
333.0 0.003003 312.74008 350.28644
339.0 0.002950 312.82571 348.79639
341.0 0.002933 312.91150 347.31998
336.0 0.002976 312.99734 346.20038
320.0 0.003125 313.08340 345.61115
331.0 0.003021 313.16959 345.63797
330.0 0.003030 313.25571 346.15805
315.0 0.003175 313.34219 346.93881
348.0 0.002874 313.42862 348.10245
338.0 0.002959 313.51529 349.53833
318.0 0.003145 313.60208 351.33487
360.0 0.002778 313.68884 353.67212
353.0 0.002833 313.77594 356.79361
373.0 0.002681 313.86301 360.22375
403.0 0.002481 313.95035 364.53400
402.0 0.002488 314.03775 369.31979
384.0 0.002604 314.12515 374.48175
416.0 0.002404 314.21289 379.84503
417.0 0.002398 314.30063 384.94620
425.0 0.002353 314.38849 389.21088
391.0 0.002558 314.47659 392.43939
416.0 0.002404 314.56470 394.44531
412.0 0.002427 314.65302 395.13513
411.0 0.002433 314.74136 394.27631
361.0 0.002770 314.82999 391.68121
341.0 0.002933 314.91870 387.56168
358.0 0.002793 315.00742 382.54883
359.0 0.002786 315.09641 377.47470
343.0 0.002915 315.18552 372.84009
337.0 0.002967 315.27472 369.11096
344.0 0.002907 315.36407 366.41882
358.0 0.002793 315.45343 364.75873
328.0 0.003049 315.54321 363.94342
315.0 0.003175 315.63290 364.03598
331.0 0.003021 315.72275 364.92792
353.0 0.002833 315.81287 366.45978
357.0 0.002801 315.90289 368.29550
351.0 0.002849 315.99326 369.90485
352.0 0.002841 316.08365 370.68094
379.0 0.002639 316.17426 370.78714
403.0 0.002481 316.26501 370.24213
361.0 0.002770 316.35571 369.57446
386.0 0.002591 316.44681 369.14264
416.0 0.002404 316.53781 368.97714
371.0 0.002695 316.62918 369.31845
368.0 0.002717 316.72061 369.88336
371.0 0.002695 316.81198 370.61505
366.0 0.002732 316.90381 371.42966
342.0 0.002924 316.99564 372.24313
367.0 0.002725 317.08762 373.11743
372.0 0.002688 317.17978 374.06635
359.0 0.002786 317.27191 375.27292
351.0 0.002849 317.36438 377.06552
359.0 0.002786 317.45688 379.77798
404.0 0.002475 317.54965 383.51727
403.0 0.002481 317.64249 388.20593
451.0 0.002217 317.73541 393.61127
438.0 0.002283 317.82858 399.06833
376.0 0.002660 317.92178 404.36731
401.0 0.002494 318.01529 409.49850
432.0 0.002315 318.10883 414.66882
426.0 0.002347 318.20248 419.86493
421.0 0.002375 318.29642 424.81189
481.0 0.002079 318.39035 428.98679
492.0 0.002033 318.48456 431.83203
437.0 0.002288 318.57886 432.77313
464.0 0.002155 318.67325 431.09573
442.0 0.002262 318.76791 426.72650
444.0 0.002252 318.86270 420.41821
396.0 0.002525 318.95755 413.60312
410.0 0.002439 319.05270 407.73874
392.0 0.002551 319.14783 404.02838
382.0 0.002618 319.24313 403.26593
411.0 0.002433 319.33871 405.89633
425.0 0.002353 319.43436 411.91904
421.0 0.002375 319.53024 421.06711
461.0 0.002169 319.62616 432.52573
523.0 0.001912 319.72229 445.00052
549.0 0.001821 319.81851 456.56470
529.0 0.001890 319.91504 464.83484
485.0 0.002062 320.01160 467.87311
463.0 0.002160 320.10822 465.23154
470.0 0.002128 320.20523 458.06760
468.0 0.002137 320.30222 448.41226
416.0 0.002404 320.39957 437.95053
420.0 0.002381 320.49686 428.13492
407.0 0.002457 320.59427 419.80945
436.0 0.002294 320.69205 413.41568
443.0 0.002257 320.78986 408.97556
403.0 0.002481 320.88791 406.23538
408.0 0.002451 320.98605 404.79242
406.0 0.002463 321.08429 404.15359
403.0 0.002481 321.18280 403.84314
417.0 0.002398 321.28137 403.43268
427.0 0.002342 321.38025 403.03098
428.0 0.002336 321.47919 403.04092
450.0 0.002222 321.57816 403.99786
423.0 0.002364 321.67761 406.27930
440.0 0.002273 321.77695 409.92691
444.0 0.002252 321.87662 414.73514
432.0 0.002315 321.97644 420.16653
471.0 0.002123 322.07614 425.70917
470.0 0.002128 322.17633 431.10068
447.0 0.002237 322.27652 436.35480
429.0 0.002331 322.37704 441.41165
425.0 0.002353 322.47760 445.58127
436.0 0.002294 322.57825 448.05063
475.0 0.002105 322.67914 448.44937
455.0 0.002198 322.78024 445.76529
437.0 0.002288 322.88153 440.47046
431.0 0.002320 322.98291 432.95782
430.0 0.002326 323.08438 423.72879
375.0 0.002667 323.18616 413.63342
389.0 0.002571 323.28799 403.64404
373.0 0.002681 323.39011 394.70056
361.0 0.002770 323.49237 387.34372
371.0 0.002695 323.59467 381.84448
351.0 0.002849 323.69733 378.23697
378.0 0.002646 323.79999 376.52039
357.0 0.002801 323.90298 376.56131
366.0 0.002732 324.00595 378.15982
380.0 0.002632 324.10913 381.14008
357.0 0.002801 324.21255 385.09601
385.0 0.002597 324.31604 389.42590
365.0 0.002740 324.41986 393.37735
358.0 0.002793 324.52374 396.20825
396.0 0.002525 324.62772 397.42905
347.0 0.002882 324.73203 397.01382
338.0 0.002959 324.83649 395.39145
365.0 0.002740 324.94107 393.19650
403.0 0.002481 325.04578 391.20563
371.0 0.002695 325.15057 390.13065
383.0 0.002611 325.25577 390.39166
378.0 0.002646 325.36099 392.20773
392.0 0.002551 325.46652 395.64700
386.0 0.002591 325.57208 400.50702
403.0 0.002481 325.67770 406.39938
404.0 0.002475 325.78381 412.93137
394.0 0.002538 325.88980 420.05396
393.0 0.002545 325.99619 427.81018
453.0 0.002208 326.10266 436.34665
469.0 0.002132 326.20920 445.65005
457.0 0.002188 326.31610 455.71848
459.0 0.002179 326.42294 466.07367
468.0 0.002137 326.53024 476.35477
490.0 0.002041 326.63751 485.71750
495.0 0.002020 326.74496 493.04153
506.0 0.001976 326.85263 497.58792
550.0 0.001818 326.96048 499.00696
533.0 0.001876 327.06854 497.50284
477.0 0.002096 327.17670 493.57199
467.0 0.002141 327.28500 487.61038
498.0 0.002008 327.39359 479.66742
496.0 0.002016 327.50232 470.06235
464.0 0.002155 327.61118 459.42166
452.0 0.002212 327.72034 448.86514
436.0 0.002294 327.82938 439.58493
425.0 0.002353 327.93893 432.27988
432.0 0.002315 328.04840 427.20358
420.0 0.002381 328.15817 424.33105
418.0 0.002392 328.26825 423.32132
391.0 0.002558 328.37817 423.91562
408.0 0.002451 328.48853 425.89761
440.0 0.002273 328.59894 428.93747
435.0 0.002299 328.70969 432.37997
436.0 0.002294 328.82047 435.53647
429.0 0.002331 328.93134 437.88861
444.0 0.002252 329.04251 439.29233
412.0 0.002427 329.15375 440.06763
420.0 0.002381 329.26538 440.75360
403.0 0.002481 329.37704 441.84030
414.0 0.002415 329.48883 443.33514
476.0 0.002101 329.60095 445.06512
478.0 0.002092 329.71307 446.57095
464.0 0.002155 329.82550 447.29688
463.0 0.002160 329.93805 447.21393
410.0 0.002439 330.05066 446.27338
457.0 0.002188 330.16370 444.49197
458.0 0.002183 330.27664 442.07983
440.0 0.002273 330.38998 438.72305
456.0 0.002193 330.50348 434.17004
412.0 0.002427 330.61694 428.44925
409.0 0.002445 330.73074 422.15369
411.0 0.002433 330.84464 416.05215
431.0 0.002320 330.95889 410.75198
422.0 0.002370 331.07321 406.59872
380.0 0.002632 331.18753 403.56470
401.0 0.002494 331.30222 401.56616
394.0 0.002538 331.41705 400.67227
380.0 0.002632 331.53204 400.76855
384.0 0.002604 331.64728 401.69028
385.0 0.002597 331.76254 403.43457
395.0 0.002532 331.87808 405.75223
430.0 0.002326 331.99374 408.58456
425.0 0.002353 332.10965 412.10944
408.0 0.002451 332.22568 416.52036
417.0 0.002398 332.34183 422.61838
450.0 0.002222 332.45831 430.83560
456.0 0.002193 332.57477 441.55298
497.0 0.002012 332.69156 454.66083
502.0 0.001992 332.80847 469.77264
503.0 0.001988 332.92538 486.58145
522.0 0.001916 333.04272 504.65244
572.0 0.001748 333.16006 523.40930
619.0 0.001616 333.27777 541.79303
654.0 0.001529 333.39548 557.99396
664.0 0.001506 333.51328 569.35468
644.0 0.001553 333.63147 573.18182
603.0 0.001658 333.74969 567.96313
548.0 0.001825 333.86823 554.10266
513.0 0.001949 333.98676 534.01782
491.0 0.002037 334.10547 510.88702
461.0 0.002169 334.22446 487.45947
426.0 0.002347 334.34354 465.71722
418.0 0.002392 334.46289 446.79333
394.0 0.002538 334.58237 431.13770
377.0 0.002653 334.70175 418.98920
375.0 0.002667 334.82169 410.27420
385.0 0.002597 334.94153 404.83801
398.0 0.002513 335.06177 402.41422
363.0 0.002755 335.18204 402.87036
383.0 0.002611 335.30231 405.84277
375.0 0.002667 335.42303 411.18781
398.0 0.002513 335.54373 418.97220
427.0 0.002342 335.66476 428.97946
449.0 0.002227 335.78595 440.96848
472.0 0.002119 335.90704 454.56665
518.0 0.001931 336.02856 469.38275
510.0 0.001961 336.15009 484.84494
531.0 0.001883 336.27194 500.67621
554.0 0.001805 336.39389 516.57544
583.0 0.001715 336.51587 532.11591
605.0 0.001653 336.63812 546.56360
606.0 0.001650 336.76053 558.46460
623.0 0.001605 336.88309 565.95258
603.0 0.001658 337.00586 567.40308
587.0 0.001704 337.12860 562.04352
566.0 0.001767 337.25168 550.51703
541.0 0.001848 337.37497 534.45758
538.0 0.001859 337.49832 515.74347
472.0 0.002119 337.62186 496.40967
446.0 0.002242 337.74536 478.09442
431.0 0.002320 337.86929 461.66238
444.0 0.002252 337.99316 447.91974
422.0 0.002370 338.11737 436.79684
400.0 0.002500 338.24173 428.04715
397.0 0.002519 338.36597 421.38809
405.0 0.002469 338.49066 416.59933
409.0 0.002445 338.61533 413.65842
372.0 0.002688 338.74026 412.60129
404.0 0.002475 338.86536 413.38834
421.0 0.002375 338.99036 415.87418
438.0 0.002283 339.11581 420.14923
454.0 0.002203 339.24121 425.95975
444.0 0.002252 339.36691 433.25073
474.0 0.002110 339.49271 441.83255
481.0 0.002079 339.61844 451.51099
530.0 0.001887 339.74466 462.00253
543.0 0.001842 339.87079 472.94083
555.0 0.001802 339.99722 484.11560
558.0 0.001792 340.12375 494.70328
564.0 0.001773 340.25021 504.29877
573.0 0.001745 340.37711 511.74454
600.0 0.001667 340.50394 515.77563
590.0 0.001695 340.63104 515.55701
553.0 0.001808 340.75821 510.87674
513.0 0.001949 340.88544 502.32159
491.0 0.002037 341.01303 491.10202
494.0 0.002024 341.14053 478.75320
469.0 0.002132 341.26837 466.44241
419.0 0.002387 341.39627 455.24506
446.0 0.002242 341.52414 445.63168
449.0 0.002227 341.65231 437.68033
422.0 0.002370 341.78049 431.35489
389.0 0.002571 341.90900 426.51886
388.0 0.002577 342.03751 423.24908
407.0 0.002457 342.16608 421.23651
393.0 0.002545 342.29483 420.51123
378.0 0.002646 342.42377 420.80130
375.0 0.002667 342.55283 422.10071
383.0 0.002611 342.68198 424.25323
411.0 0.002433 342.81113 427.42419
434.0 0.002304 342.94058 431.93066
433.0 0.002309 343.06995 438.03220
441.0 0.002268 343.19968 445.66785
477.0 0.002096 343.32941 454.65060
457.0 0.002188 343.45917 464.58527
519.0 0.001927 343.58929 475.06381
523.0 0.001912 343.71924 485.48709
530.0 0.001887 343.84955 495.25223
603.0 0.001658 343.97983 503.12598
576.0 0.001736 344.11008 507.71738
519.0 0.001927 344.24075 508.24667
549.0 0.001821 344.37134 504.42581
426.0 0.002347 344.50217 496.65405
432.0 0.002315 344.63293 485.97180
450.0 0.002222 344.76376 473.82983
452.0 0.002212 344.89493 461.61172
442.0 0.002262 345.02597 450.48029
433.0 0.002309 345.15726 441.02032
426.0 0.002347 345.28860 433.76251
436.0 0.002294 345.41998 428.74951
393.0 0.002545 345.55154 425.80246
398.0 0.002513 345.68314 424.62714
444.0 0.002252 345.81491 425.43359
423.0 0.002364 345.94672 427.56305
439.0 0.002278 346.07846 430.44733
435.0 0.002299 346.21057 433.89697
440.0 0.002273 346.34256 437.85287
436.0 0.002294 346.47479 442.34845
448.0 0.002232 346.60709 447.60135
458.0 0.002183 346.73917 453.64914
491.0 0.002037 346.87170 460.26511
503.0 0.001988 347.00409 466.75177
487.0 0.002053 347.13678 472.25574
475.0 0.002105 347.26938 475.95773
472.0 0.002119 347.40201 477.52371
457.0 0.002188 347.53479 477.21118
467.0 0.002141 347.66763 475.50455
485.0 0.002062 347.80060 472.98761
464.0 0.002155 347.93356 469.94830
460.0 0.002174 348.06641 466.77438
445.0 0.002247 348.19958 463.76038
455.0 0.002198 348.33276 461.19144
462.0 0.002165 348.46594 459.26288
442.0 0.002262 348.59927 458.16107
446.0 0.002242 348.73245 457.77832
465.0 0.002151 348.86597 457.77579
458.0 0.002183 348.99927 457.89087
434.0 0.002304 349.13284 457.66180
436.0 0.002294 349.26639 456.95279
447.0 0.002237 349.39984 456.39978
458.0 0.002183 349.53360 456.04147
463.0 0.002160 349.66714 456.66312
483.0 0.002070 349.80087 458.23334
479.0 0.002088 349.93463 460.74097
460.0 0.002174 350.06824 463.85153
446.0 0.002242 350.20212 466.92715
447.0 0.002237 350.33591 469.33545
452.0 . . .
loop_
_refln_index_h
_refln_index_k
_refln_index_l
_pd_refln_wavelength_id
_refln_observed_status
_refln_F_squared_meas
_refln_F_squared_calc
_refln_phase_calc
_refln_d_spacing
_gsas_i100_meas
0 2 0 1 o 40721.18 37043.29 0.00 6.67062 13.15
0 2 0 2 o 40731.02 37043.29 0.00 6.67062 6.54
1 1 1 1 o 20951.238 20381.605 0.00 6.05631 18.78
1 1 1 2 o 20297.600 20381.605 0.00 6.05631 9.03
2 0 0 1 o 1167.828 1724.476 180.00 4.82771 0.00
2 0 0 2 o 1167.828 1724.476 180.00 4.82771 0.00
0 0 2 1 o 39698.45 43608.55 0.00 4.78500 4.00
0 0 2 2 o 40106.89 43608.55 0.00 4.78500 2.02
1 2 1 1 o 4408.302 4688.644 0.00 4.76090 1.24
1 2 1 2 o 4283.562 4688.644 0.00 4.76090 0.57
2 1 0 1 o 166248.25 165848.56 180.00 4.53963 37.63
2 1 0 2 o 164445.64 165848.56 180.00 4.53963 18.48
1 0 2 1 o 234062.66 236153.77 0.00 4.28739 47.10
1 0 2 2 o 233560.19 236153.77 0.00 4.28739 23.37
2 1 1 1 o 120257.01 113465.42 0.00 4.10156 45.69
2 1 1 2 o 118573.20 113465.42 0.00 4.10156 22.37
1 1 2 1 o 120405.33 117074.99 0.00 4.08180 44.97
1 1 2 2 o 119718.23 117074.99 0.00 4.08180 22.23
0 3 1 1 o 471204.3 483014.6 180.00 4.03292 100.00
0 3 1 2 o 477691.6 483014.6 180.00 4.03292 50.54
2 2 0 1 o 86678.89 83229.59 180.00 3.91093 15.46
2 2 0 2 o 83182.59 83229.59 180.00 3.91093 7.33
0 2 2 1 o 50258.24 50429.10 0.00 3.88812 8.76
0 2 2 2 o 51121.07 50429.10 0.00 3.88812 4.45
1 3 1 1 o 83919.27 79978.37 180.00 3.72135 30.01
1 3 1 2 o 82939.20 79978.37 180.00 3.72135 14.73
2 2 1 1 o 195103.00 189508.45 180.00 3.62029 59.27
2 2 1 2 o 192845.44 189508.45 180.00 3.62029 29.09
1 2 2 1 o 372.480 364.756 0.00 3.60667 0.12
1 2 2 2 o 710.216 364.756 0.00 3.60667 0.12
2 0 2 1 o 159862.27 148699.81 180.00 3.39851 21.38
2 0 2 2 o 156167.06 148699.81 180.00 3.39851 10.37
0 4 0 1 o 141660.86 131479.77 180.00 3.33531 11.53
0 4 0 2 o 142441.84 131479.77 180.00 3.33531 5.77
2 1 2 1 o 16041.509 16370.208 180.00 3.29333 3.96
2 1 2 2 o 15962.716 16370.208 180.00 3.29333 1.96
2 3 0 1 o 39631.87 43439.02 180.00 3.27086 4.89
2 3 0 2 o 36497.17 43439.02 180.00 3.27086 2.20
0 1 3 1 o 148339.48 149531.64 180.00 3.10254 15.36
0 1 3 2 o 148457.47 149531.64 180.00 3.10254 7.65
2 3 1 1 o 46574.08 46934.99 0.00 3.09507 10.52
2 3 1 2 o 47711.70 46934.99 0.00 3.09507 5.38
1 3 2 1 o 27565.432 27101.768 0.00 3.08655 6.21
1 3 2 2 o 26644.670 27101.768 0.00 3.08655 2.97
2 2 2 1 o 60047.70 60291.79 180.00 3.02815 12.11
2 2 2 2 o 58615.67 60291.79 180.00 3.02815 5.85
1 4 1 1 o 17936.801 18462.137 180.00 2.99424 4.20
1 4 1 2 o 18106.928 18462.137 180.00 2.99424 2.11
3 1 1 1 o 62428.71 62203.75 0.00 2.97383 12.15
3 1 1 2 o 59568.64 62203.75 0.00 2.97383 5.73
1 1 3 1 o 1281.553 1764.584 0.00 2.95380 0.19
1 1 3 2 o 403.589 1764.584 0.00 2.95380 0.00
3 2 1 1 o 34712.531 34144.637 180.00 2.77424 6.00
3 2 1 2 o 34204.324 34144.637 180.00 2.77424 2.94
1 2 3 1 o 118812.94 128687.68 0.00 2.75796 19.80
1 2 3 2 o 117987.09 128687.68 0.00 2.75796 9.77
2 4 0 1 o 97031.27 99957.92 180.00 2.74411 8.96
2 4 0 2 o 94174.32 99957.92 180.00 2.74411 4.31
0 4 2 1 o 25869.195 27824.709 0.00 2.73620 2.48
0 4 2 2 o 24289.221 27824.709 0.00 2.73620 1.15
2 3 2 1 o 4023.715 4408.454 180.00 2.70027 0.71
2 3 2 2 o 4046.526 4408.454 180.00 2.70027 0.35
3 0 2 1 o 94475.25 90350.31 0.00 2.67058 6.96
3 0 2 2 o 92258.07 90350.31 0.00 2.67058 3.37
2 4 1 1 o 27145.867 26983.342 0.00 2.63781 4.44
1 4 2 1 o 28888.988 29461.715 180.00 2.63253 4.59
2 4 1 2 o 26451.656 26983.342 0.00 2.63781 2.14
1 4 2 2 o 29104.564 29461.715 180.00 2.63253 2.30
3 1 2 1 o 31498.305 31314.029 180.00 2.61863 4.34
3 1 2 2 o 31917.074 31314.029 180.00 2.61863 2.19
2 1 3 1 o 31958.590 31495.824 0.00 2.61003 4.45
2 1 3 2 o 31338.361 31495.824 0.00 2.61003 2.16
0 3 3 1 o 24.460 22.994 180.00 2.59208 0.00
0 3 3 2 o 25.878 22.994 180.00 2.59208 0.00
0 5 1 1 o 61088.90 59476.14 180.00 2.57022 4.88
0 5 1 2 o 60564.83 59476.14 180.00 2.57022 2.40
3 3 1 1 o 27129.330 24640.381 180.00 2.51560 3.77
3 3 1 2 o 25529.287 24640.381 180.00 2.51560 1.74
1 3 3 1 o 133158.56 134236.80 180.00 2.50344 18.08
1 3 3 2 o 129970.99 134236.80 180.00 2.50344 8.74
1 5 1 1 o 5680.347 5933.153 180.00 2.48372 0.87
3 2 2 1 o 13599.433 13695.133 180.00 2.47927 1.61
1 5 1 2 o 5876.213 5933.153 180.00 2.48372 0.45
3 2 2 2 o 13786.128 13695.133 180.00 2.47927 0.81
2 2 3 1 o 24013.004 23749.662 0.00 2.47197 2.93
2 2 3 2 o 24048.439 23749.662 0.00 2.47197 1.46
4 0 0 1 o 33553.969 27807.766 180.00 2.41386 0.96
4 0 0 2 o 30643.086 27807.766 180.00 2.41386 0.43
0 0 4 1 o 58969.23 57832.10 180.00 2.39250 1.68
0 0 4 2 o 57847.45 57832.10 180.00 2.39250 0.82
2 4 2 1 o 29735.672 30167.045 180.00 2.38045 3.47
4 1 0 1 o 13134.832 13191.647 180.00 2.37529 0.77
2 4 2 2 o 30266.338 30167.045 180.00 2.38045 1.76
4 1 0 2 o 13193.118 13191.647 180.00 2.37529 0.38
2 5 0 1 o 166356.06 149401.95 0.00 2.33530 10.74
2 5 0 2 o 158267.09 149401.95 0.00 2.33530 5.03
1 0 4 1 o 37376.23 34832.867 0.00 2.32227 1.88
1 0 4 2 o 41626.03 34832.867 0.00 2.32227 1.07
4 1 1 1 o 177345.03 169103.70 180.00 2.30534 18.99
4 1 1 2 o 175575.14 169103.70 180.00 2.30534 9.33
3 3 2 1 o 35128.14 32589.074 180.00 2.28947 4.28
1 1 4 1 o 4037.494 3805.328 0.00 2.28787 0.37
3 3 2 2 o 35333.27 32589.074 180.00 2.28947 2.14
2 3 3 1 o 31011.795 28901.049 0.00 2.28372 3.30
1 1 4 2 o 4040.641 3805.328 0.00 2.28787 0.18
2 3 3 2 o 32059.570 28901.049 0.00 2.28372 1.71
4 2 0 1 o 70128.91 68504.02 0.00 2.26982 3.55
2 5 1 1 o 40097.23 39868.85 0.00 2.26873 4.80
1 5 2 1 o 50374.00 51687.91 180.00 2.26537 5.55
4 2 0 2 o 66519.88 68504.02 0.00 2.26982 1.65
2 5 1 2 o 38612.88 39868.85 0.00 2.26873 2.28
1 5 2 2 o 51563.34 51687.91 180.00 2.26537 2.85
0 2 4 1 o 68025.81 64899.60 0.00 2.25203 3.54
3 4 1 1 o 5358.079 5117.433 0.00 2.25103 0.60
0 2 4 2 o 65666.41 64899.60 0.00 2.25203 1.69
3 4 1 2 o 5182.546 5117.433 0.00 2.25103 0.29
1 4 3 1 o 19633.357 19471.879 180.00 2.24230 2.17
1 4 3 2 o 19084.074 19471.879 180.00 2.24230 1.04
3 1 3 1 o 54912.65 53590.25 0.00 2.23369 5.08
3 1 3 2 o 56736.46 53590.25 0.00 2.23369 2.64
0 6 0 1 o 246780.63 215048.27 0.00 2.22354 7.68
0 6 0 2 o 242165.47 215048.27 0.00 2.22354 3.73
4 2 1 1 o 13819.974 13229.336 180.00 2.20854 1.45
4 2 1 2 o 13366.551 13229.336 180.00 2.20854 0.70
1 2 4 1 o 9527.501 9685.837 0.00 2.19317 0.90
1 2 4 2 o 9854.491 9685.837 0.00 2.19317 0.47
4 0 2 1 o 476.186 54.233 180.00 2.15516 0.04
4 0 2 2 o 387.954 54.233 180.00 2.15516 0.02
3 2 3 1 o 6080.205 5599.923 180.00 2.14530 0.38
2 0 4 1 o 10609.859 10181.510 180.00 2.14370 0.37
3 2 3 2 o 5425.442 5599.923 180.00 2.14530 0.15
2 0 4 2 o 9170.848 10181.510 180.00 2.14370 0.14
4 1 2 1 o 6673.494 5799.886 180.00 2.12758 0.72
4 1 2 2 o 6660.814 5799.886 180.00 2.12758 0.36
4 3 0 1 o 1278.590 1184.186 180.00 2.12148 0.05
2 1 4 1 o 118035.10 114502.35 0.00 2.11655 10.80
4 3 0 2 o 1214.482 1184.186 180.00 2.12148 0.02
1 6 1 1 o 103.292 104.911 180.00 2.11333 0.01
2 1 4 2 o 113642.05 114502.35 0.00 2.11655 5.14
1 6 1 2 o 99.799 104.911 180.00 2.11333 0.00
2 5 2 1 o 28145.674 24978.771 0.00 2.09869 3.09
2 5 2 2 o 28224.754 24978.771 0.00 2.09869 1.54
3 4 2 1 o 106205.13 105111.27 180.00 2.08466 9.54
2 4 3 1 o 6996.883 7463.262 180.00 2.08032 0.64
3 4 2 2 o 100064.66 105111.27 180.00 2.08466 4.40
2 4 3 2 o 6847.822 7463.262 180.00 2.08032 0.31
4 3 1 1 o 8089.910 8193.768 0.00 2.07120 0.72
4 3 1 2 o 8369.304 8193.768 0.00 2.07120 0.37
1 3 4 1 o 5618.323 5263.116 0.00 2.05850 0.51
1 3 4 2 o 5644.276 5263.116 0.00 2.05850 0.26
4 2 2 1 o 63390.11 59486.69 0.00 2.05078 5.49
0 5 3 1 o 45469.02 45616.54 180.00 2.04667 2.26
4 2 2 2 o 59550.07 59486.69 0.00 2.05078 2.54
0 5 3 2 o 44253.59 45616.54 180.00 2.04667 1.09
2 2 4 1 o 21958.518 22568.574 180.00 2.04090 1.81
2 2 4 2 o 21673.162 22568.574 180.00 2.04090 0.89
2 6 0 1 o 50893.94 46835.44 180.00 2.01962 2.58
3 3 3 1 o 15803.187 14994.286 180.00 2.01877 1.19
0 6 2 1 o 79832.23 76562.38 0.00 2.01646 3.91
2 6 0 2 o 48068.07 46835.44 180.00 2.01962 1.20
3 3 3 2 o 15171.402 14994.286 180.00 2.01877 0.56
0 6 2 2 o 78981.13 76562.38 0.00 2.01646 1.92
3 5 1 1 o 531.244 477.252 180.00 2.00839 0.06
3 5 1 2 o 465.799 477.252 180.00 2.00839 0.03
1 5 3 1 o 21852.176 22758.096 180.00 2.00219 1.90
1 5 3 2 o 20321.840 22758.096 180.00 2.00219 0.86
2 6 1 1 o 81811.48 80247.23 0.00 1.97610 7.65
1 6 2 1 o 76882.23 78287.84 0.00 1.97387 7.11
2 6 1 2 o 77620.33 80247.23 0.00 1.97610 3.58
1 6 2 2 o 74457.92 78287.84 0.00 1.97387 3.40
4 4 0 1 o 301992.72 315599.97 0.00 1.95546 11.86
4 4 0 2 o 297740.75 315599.97 0.00 1.95546 5.80
0 4 4 1 o 173713.42 186022.09 0.00 1.94406 6.45
4 3 2 1 o 6123.544 6966.825 180.00 1.93941 0.57
0 4 4 2 o 168977.22 186022.09 0.00 1.94406 3.10
4 3 2 2 o 6664.511 6966.825 180.00 1.93941 0.31
2 3 4 1 o 44820.88 44172.89 0.00 1.93105 3.59
2 3 4 2 o 44794.14 44172.89 0.00 1.93105 1.79
3 0 4 1 o 1452.152 1198.998 180.00 1.92010 0.07
4 4 1 1 o 3268.635 3291.097 0.00 1.91588 0.27
3 0 4 2 o 1148.464 1198.998 180.00 1.92010 0.03
4 4 1 2 o 3373.850 3291.097 0.00 1.91588 0.14
1 4 4 1 o 3303.710 3654.850 0.00 1.90581 0.28
4 1 3 1 o 9584.441 10269.442 180.00 1.90515 0.71
1 4 4 2 o 3422.239 3654.850 0.00 1.90581 0.14
4 1 3 2 o 9830.872 10269.442 180.00 1.90515 0.36
3 1 4 1 o 17261.723 18076.162 180.00 1.90052 1.31
3 1 4 2 o 17555.891 18076.162 180.00 1.90052 0.67
0 1 5 1 o 112419.55 116582.45 180.00 1.89460 3.79
0 1 5 2 o 113392.13 116582.45 180.00 1.89460 1.90
3 5 2 1 o 37903.40 38348.17 0.00 1.88756 2.83
2 5 3 1 o 26239.287 25704.305 0.00 1.88433 1.96
3 5 2 2 o 38660.18 38348.17 0.00 1.88756 1.44
2 5 3 2 o 26430.582 25704.305 0.00 1.88433 0.98
5 1 1 1 o 227.663 228.058 180.00 1.87416 0.00
3 4 3 1 o 19457.688 19779.824 0.00 1.87415 1.52
0 7 1 2 o 41703.32 37424.61 0.00 1.86918 0.95
5 1 1 2 o 230.248 228.058 180.00 1.87416 0.00
3 4 3 2 o 21589.029 19779.824 0.00 1.87415 0.85
0 7 1 1 o 41508.01 37424.61 0.00 1.86918 1.91
2 6 2 1 o 18722.711 19247.752 180.00 1.86067 1.34
1 1 5 1 o 30883.535 33161.191 180.00 1.85915 1.99
2 6 2 2 o 16972.395 19247.752 180.00 1.86067 0.58
1 1 5 2 o 30153.770 33161.191 180.00 1.85915 0.96
4 2 3 1 o 5987.706 6792.521 0.00 1.84942 0.44
3 2 4 1 o 35535.11 36382.91 180.00 1.84518 2.42
4 2 3 2 o 6641.735 6792.521 0.00 1.84942 0.24
3 2 4 2 o 34748.645 36382.91 180.00 1.84518 1.17
1 7 1 1 o 26567.303 27754.316 0.00 1.83511 2.21
1 7 1 2 o 24978.846 27754.316 0.00 1.83511 1.02
5 2 1 1 o 77909.66 77570.51 180.00 1.82103 5.32
5 2 1 2 o 77690.88 77570.51 180.00 1.82103 2.64
4 4 2 1 o 115041.33 111740.98 0.00 1.81014 8.14
1 2 5 1 o 28421.516 29045.695 180.00 1.80725 2.11
4 4 2 2 o 110457.47 111740.98 0.00 1.81014 3.86
2 4 4 1 o 47902.25 48334.00 180.00 1.80334 3.58
1 2 5 2 o 28822.688 29045.695 180.00 1.80725 1.06
2 4 4 2 o 48321.12 48334.00 180.00 1.80334 1.80
3 6 1 1 o 40325.72 39352.75 0.00 1.79687 3.24
3 6 1 2 o 40476.69 39352.75 0.00 1.79687 1.62
1 6 3 1 o 80948.94 78811.38 180.00 1.79243 6.19
5 0 2 1 o 8052.741 7997.178 180.00 1.79075 0.24
4 5 0 1 o 7163.630 7223.765 0.00 1.79005 0.23
1 6 3 2 o 76748.13 78811.38 180.00 1.79243 2.90
5 0 2 2 o 7428.772 7997.178 180.00 1.79075 0.11
4 5 0 2 o 6430.176 7223.765 0.00 1.79005 0.10
5 1 2 1 o 71619.30 66505.15 180.00 1.77484 4.33
2 7 0 1 o 4807.051 4492.557 180.00 1.77275 0.21
5 1 2 2 o 70700.93 66505.15 180.00 1.77484 2.12
2 7 0 2 o 4806.203 4492.557 180.00 1.77275 0.10
4 3 3 1 o 96813.09 94520.63 180.00 1.76650 5.92
2 1 5 1 o 9000.674 8817.898 0.00 1.76365 0.53
3 3 4 1 o 1750.780 1729.162 180.00 1.76280 0.11
4 3 3 2 o 95578.88 94520.63 180.00 1.76650 2.90
2 1 5 2 o 8828.459 8817.898 0.00 1.76365 0.26
4 5 1 1 o 20988.348 20922.346 180.00 1.75954 1.38
3 3 4 2 o 1731.476 1729.162 180.00 1.76280 0.05
0 3 5 1 o 66040.78 65811.65 0.00 1.75808 2.07
4 5 1 2 o 20364.510 20922.346 180.00 1.75954 0.66
0 3 5 2 o 65181.52 65811.65 0.00 1.75808 1.01
1 5 4 1 o 21534.035 22884.732 180.00 1.75173 1.41
1 5 4 2 o 21121.666 22884.732 180.00 1.75173 0.69
2 7 1 1 o 46761.08 48298.39 0.00 1.74309 3.19
5 3 1 1 o 1724.908 1801.780 0.00 1.74171 0.08
1 7 2 1 o 36.219 37.843 0.00 1.74157 0.00
2 7 1 2 o 44806.92 48298.39 0.00 1.74309 1.51
5 3 1 2 o 1743.368 1801.780 0.00 1.74171 0.04
1 7 2 2 o 36.633 37.843 0.00 1.74157 0.00
5 2 2 1 o 11672.066 12213.666 0.00 1.72952 0.67
1 3 5 1 o 6059.430 6355.743 180.00 1.72964 0.34
3 5 3 1 o 8372.187 8995.698 0.00 1.72705 0.60
5 2 2 2 o 12226.621 12213.666 0.00 1.72952 0.35
1 3 5 2 o 6338.079 6355.743 180.00 1.72964 0.18
3 5 3 2 o 9003.153 8995.698 0.00 1.72705 0.32
2 2 5 1 o 146619.81 148585.50 0.00 1.71916 8.38
2 2 5 2 o 141376.59 148585.50 0.00 1.71916 3.99
3 6 2 1 o 11478.567 12690.144 0.00 1.70878 0.67
2 6 3 1 o 12448.240 12907.485 180.00 1.70639 0.75
3 6 2 2 o 11812.882 12690.144 0.00 1.70878 0.35
2 6 3 2 o 13136.831 12907.485 180.00 1.70639 0.40
4 0 4 1 o 327827.97 325644.38 0.00 1.69925 9.30
4 0 4 2 o 314082.25 325644.38 0.00 1.69925 4.40
4 1 4 1 o 19306.281 18101.355 0.00 1.68564 1.18
4 1 4 2 o 17506.164 18101.355 0.00 1.68564 0.53
4 5 2 1 o 4629.892 4960.981 0.00 1.67657 0.32
4 5 2 2 o 4998.857 4960.981 0.00 1.67657 0.17
2 5 4 1 o 109121.48 108352.88 180.00 1.67116 6.25
4 4 3 1 o 155.747 154.586 180.00 1.66716 0.01
0 8 0 1 o 277375.06 275003.66 0.00 1.66765 4.82
2 5 4 2 o 109330.55 108352.88 180.00 1.67116 3.12
3 4 4 1 o 65263.34 65502.76 180.00 1.66405 3.62
4 4 3 2 o 154.513 154.586 180.00 1.66716 0.00
0 8 0 2 o 274595.00 275003.66 0.00 1.66765 2.37
2 7 2 1 o 751.986 755.255 0.00 1.66233 0.06
5 3 2 1 o 22837.172 23059.072 180.00 1.66113 1.24
3 4 4 2 o 65492.30 65502.76 180.00 1.66405 1.81
2 7 2 2 o 739.504 755.255 0.00 1.66233 0.03
5 3 2 2 o 22287.742 23059.072 180.00 1.66113 0.60
2 3 5 1 o 30135.420 32572.561 0.00 1.65195 1.60
2 3 5 2 o 32429.600 32572.561 0.00 1.65195 0.87
4 2 4 1 o 10043.207 9514.523 0.00 1.64667 0.56
5 4 1 1 o 8419.295 7949.014 0.00 1.64627 0.45
4 2 4 2 o 10328.812 9514.523 0.00 1.64667 0.29
5 4 1 2 o 8776.976 7949.014 0.00 1.64627 0.23
5 1 3 1 o 72526.86 65794.62 180.00 1.63945 3.98
1 4 5 1 o 318.826 322.414 0.00 1.63607 0.01
0 7 3 1 o 126802.98 128676.30 180.00 1.63612 3.82
5 1 3 2 o 66239.64 65794.62 180.00 1.63945 1.79
4 6 0 1 o 2264.521 2250.756 180.00 1.63543 0.06
3 1 5 1 o 17091.773 16596.705 0.00 1.63272 0.91
1 4 5 2 o 326.906 322.414 0.00 1.63607 0.01
0 7 3 2 o 130951.25 128676.30 180.00 1.63612 1.97
4 6 0 2 o 2267.899 2250.756 180.00 1.63543 0.03
3 1 5 2 o 16606.895 16596.705 0.00 1.63272 0.44
0 6 4 1 o 8020.124 8023.224 180.00 1.62874 0.23
0 6 4 2 o 7030.360 8023.224 180.00 1.62874 0.10
1 8 1 1 o 32001.242 29852.307 0.00 1.61962 2.06
3 7 1 1 o 62411.02 61046.42 0.00 1.61636 3.69
1 8 1 2 o 30541.244 29852.307 0.00 1.61962 0.97
1 7 3 1 o 12796.514 12981.389 0.00 1.61312 0.70
3 7 1 2 o 61472.73 61046.42 0.00 1.61636 1.80
4 6 1 1 o 3404.380 3323.619 0.00 1.61206 0.19
6 0 0 1 o 82403.71 79150.48 180.00 1.60924 0.97
1 7 3 2 o 13473.827 12981.389 0.00 1.61312 0.37
4 6 1 2 o 3316.035 3323.619 0.00 1.61206 0.09
1 6 4 1 o 35262.25 36397.82 0.00 1.60605 1.89
6 0 0 2 o 77722.08 79150.48 180.00 1.60924 0.45
5 2 3 1 o 58217.64 59161.37 180.00 1.60353 2.66
1 6 4 2 o 34677.938 36397.82 0.00 1.60605 0.92
5 2 3 2 o 57699.77 59161.37 180.00 1.60353 1.31
6 1 0 1 o 120862.00 122629.15 0.00 1.59766 3.06
3 2 5 1 o 1530.546 1573.467 180.00 1.59723 0.12
0 0 6 1 o 38656.94 40807.21 180.00 1.59500 0.50
6 1 0 2 o 119175.77 122629.15 0.00 1.59766 1.50
3 2 5 2 o 1540.848 1573.467 180.00 1.59723 0.06
0 0 6 2 o 39160.14 40807.21 180.00 1.59500 0.25
4 3 4 1 o 7972.773 8044.351 0.00 1.58732 0.45
3 6 3 1 o 4376.337 4408.789 0.00 1.58697 0.16
4 3 4 2 o 9465.038 8044.351 0.00 1.58732 0.27
3 6 3 2 o 4884.763 4408.789 0.00 1.58697 0.10
5 4 2 1 o 48579.32 49149.10 0.00 1.57773 2.39
6 1 1 1 o 4702.092 4828.980 0.00 1.57585 0.19
2 8 0 1 o 2304.109 2323.640 180.00 1.57626 0.03
0 8 2 1 o 19750.563 20781.500 0.00 1.57476 0.46
5 4 2 2 o 46457.99 49149.10 0.00 1.57773 1.13
1 0 6 1 o 4264.186 4518.323 180.00 1.57367 0.11
6 1 1 2 o 4826.345 4828.980 0.00 1.57585 0.10
2 8 0 2 o 2318.716 2323.640 180.00 1.57626 0.02
0 8 2 2 o 20313.219 20781.500 0.00 1.57476 0.24
1 0 6 2 o 4223.287 4518.323 180.00 1.57367 0.05
2 4 5 1 o 28484.896 30200.676 180.00 1.56986 1.38
2 4 5 2 o 29113.330 30200.676 180.00 1.56986 0.70
6 2 0 1 o 28637.490 28967.420 180.00 1.56436 0.67
1 1 6 1 o 25803.035 25654.340 180.00 1.56284 1.16
4 5 3 1 o 37673.00 36993.29 180.00 1.56107 1.86
6 2 0 2 o 29529.535 28967.420 180.00 1.56436 0.35
1 1 6 2 o 26283.613 25654.340 180.00 1.56284 0.59
3 5 4 1 o 4794.565 4649.303 0.00 1.55851 0.22
4 5 3 2 o 40784.14 36993.29 180.00 1.56107 1.02
0 5 5 1 o 1854.759 1688.784 180.00 1.55525 0.04
2 8 1 1 o 56546.48 51221.46 180.00 1.55531 3.15
3 5 4 2 o 4990.283 4649.303 0.00 1.55851 0.12
1 8 2 1 o 33608.609 31853.980 0.00 1.55422 1.81
0 2 6 1 o 17406.160 16924.848 0.00 1.55127 0.39
0 5 5 2 o 1742.762 1688.784 180.00 1.55525 0.02
3 7 2 1 o 25.124 23.799 0.00 1.55134 0.00
2 8 1 2 o 52992.43 51221.46 180.00 1.55531 1.45
1 8 2 2 o 31472.830 31853.980 0.00 1.55422 0.83
2 7 3 1 o 25404.557 27090.951 0.00 1.54955 1.35
5 3 3 1 o 7769.482 8527.878 0.00 1.54858 0.41
0 2 6 2 o 15635.691 16924.848 0.00 1.55127 0.17
4 6 2 1 o 19346.469 21056.324 0.00 1.54754 0.99
3 7 2 2 o 20.510 23.799 0.00 1.55134 0.00
2 7 3 2 o 25101.092 27090.951 0.00 1.54955 0.66
5 3 3 2 o 8033.544 8527.878 0.00 1.54858 0.21
6 2 1 1 o 66684.92 69176.05 0.00 1.54387 2.98
5 5 1 1 o 2364.405 2476.845 180.00 1.54388 0.14
4 6 2 2 o 20321.195 21056.324 0.00 1.54754 0.52
2 6 4 1 o 30753.354 31606.965 180.00 1.54328 1.53
3 3 5 1 o 25503.426 26096.781 0.00 1.54290 1.07
6 2 1 2 o 66234.49 69176.05 0.00 1.54387 1.47
5 5 1 2 o 2343.753 2476.845 180.00 1.54388 0.07
2 6 4 2 o 30898.813 31606.965 180.00 1.54328 0.77
3 3 5 2 o 25956.064 26096.781 0.00 1.54290 0.55
1 5 5 1 o 27250.256 28662.533 180.00 1.53546 1.35
1 2 6 1 o 40557.90 39135.00 0.00 1.53163 1.79
1 5 5 2 o 29771.074 28662.533 180.00 1.53546 0.74
1 2 6 2 o 39951.39 39135.00 0.00 1.53163 0.88
6 0 2 1 o 54089.96 54933.68 180.00 1.52529 1.21
6 0 2 2 o 55174.14 54933.68 180.00 1.52529 0.62
6 1 2 1 o 137.141 136.497 0.00 1.51542 0.00
2 0 6 1 o 27801.467 29353.395 180.00 1.51448 0.65
4 4 4 1 o 38054.24 40808.06 180.00 1.51408 1.82
6 3 0 1 o 46493.76 50154.91 0.00 1.51321 1.11
6 1 2 2 o 135.007 136.497 0.00 1.51542 0.00
2 0 6 2 o 27223.459 29353.395 180.00 1.51448 0.31
4 4 4 2 o 38350.02 40808.06 180.00 1.51408 0.91
6 3 0 2 o 47226.33 50154.91 0.00 1.51321 0.56
2 1 6 1 o 25423.742 25368.957 0.00 1.50482 1.04
5 0 4 1 o 1255.203 1262.617 0.00 1.50268 0.02
2 1 6 2 o 25722.689 25368.957 0.00 1.50482 0.52
5 0 4 2 o 1407.161 1262.617 0.00 1.50268 0.01
2 8 2 1 o 57418.14 57179.98 180.00 1.49712 3.12
4 7 0 1 o 3251.777 3295.267 180.00 1.49584 0.10
6 3 1 1 o 74827.13 77603.61 0.00 1.49464 3.16
5 1 4 1 o 9137.735 9635.817 180.00 1.49323 0.36
2 8 2 2 o 53923.37 57179.98 180.00 1.49712 1.45
4 7 0 2 o 3072.686 3295.267 180.00 1.49584 0.05
6 3 1 2 o 74021.34 77603.61 0.00 1.49464 1.55
4 1 5 1 o 6545.964 6748.135 0.00 1.49036 0.26
5 1 4 2 o 9691.518 9635.817 180.00 1.49323 0.19
6 2 2 1 o 17012.275 17847.090 180.00 1.48691 0.66
5 5 2 1 o 93565.52 98427.34 0.00 1.48692 4.07
4 1 5 2 o 6446.785 6748.135 0.00 1.49036 0.13
1 3 6 1 o 10872.168 11359.889 180.00 1.48353 0.47
6 2 2 2 o 17238.775 17847.090 180.00 1.48691 0.34
5 5 2 2 o 94863.47 98427.34 0.00 1.48692 2.06
5 4 3 1 o 18800.994 18469.336 0.00 1.48034 0.81
2 5 5 1 o 23921.006 23472.629 0.00 1.48033 1.09
1 3 6 2 o 11694.643 11359.889 180.00 1.48353 0.25
4 7 1 1 o 224690.28 225119.95 180.00 1.47789 10.51
2 2 6 1 o 6637.500 6545.787 180.00 1.47690 0.27
5 4 3 2 o 18778.445 18469.336 0.00 1.48034 0.40
2 5 5 2 o 23884.617 23472.629 0.00 1.48033 0.54
3 4 5 1 o 545.651 541.317 180.00 1.47538 0.02
4 7 1 2 o 228979.30 225119.95 180.00 1.47789 5.35
2 2 6 2 o 6804.474 6545.787 180.00 1.47690 0.14
1 7 4 1 o 56.916 54.527 0.00 1.47326 0.00
3 4 5 2 o 579.553 541.317 180.00 1.47538 0.01
1 7 4 2 o 67.093 54.527 0.00 1.47326 0.00
5 2 4 1 o 19769.490 16538.205 0.00 1.46594 0.82
0 9 1 1 o 65787.67 60414.36 180.00 1.46489 1.65
4 2 5 1 o 6265.919 6010.485 0.00 1.46322 0.25
3 8 1 1 o 8054.947 7743.507 180.00 1.46328 0.37
5 2 4 2 o 17748.984 16538.205 0.00 1.46594 0.36
0 9 1 2 o 62737.89 60414.36 180.00 1.46489 0.78
1 8 3 1 o 31318.436 30038.232 0.00 1.46087 1.43
4 2 5 2 o 6139.965 6010.485 0.00 1.46322 0.12
3 8 1 2 o 7940.513 7743.507 180.00 1.46328 0.18
3 7 3 1 o 95860.98 97182.91 0.00 1.45848 4.12
1 8 3 2 o 32409.723 30038.232 0.00 1.46087 0.74
4 6 3 1 o 151.773 151.799 180.00 1.45532 0.00
3 7 3 2 o 98094.28 97182.91 0.00 1.45848 2.11
3 6 4 1 o 1723.343 1428.578 180.00 1.45325 0.08
4 6 3 2 o 189.549 151.799 180.00 1.45532 0.00
3 6 4 2 o 2111.668 1428.578 180.00 1.45325 0.05
6 4 0 1 o 8574.317 5802.930 180.00 1.44936 0.19
1 9 1 1 o 4841.448 3151.793 180.00 1.44832 0.24
6 4 0 2 o 8749.789 5802.930 180.00 1.44936 0.10
1 9 1 2 o 4215.202 3151.793 180.00 1.44832 0.10
6 3 2 1 o 802.782 637.229 180.00 1.44278 0.05
5 6 1 1 o 37010.29 36011.02 0.00 1.44136 1.66
6 3 2 2 o 616.907 637.229 180.00 1.44278 0.02
0 4 6 1 o 162414.17 164296.08 0.00 1.43893 3.49
5 6 1 2 o 37297.68 36011.02 0.00 1.44136 0.83
0 4 6 2 o 163245.31 164296.08 0.00 1.43893 1.75
1 6 5 1 o 14036.378 13547.222 0.00 1.43450 0.70
2 3 6 1 o 2794.910 2708.170 0.00 1.43363 0.09
4 5 4 1 o 16195.671 15568.612 180.00 1.43328 0.72
6 4 1 1 o 19887.068 19145.402 180.00 1.43302 0.82
1 6 5 2 o 13538.471 13547.222 0.00 1.43450 0.33
2 3 6 2 o 2684.540 2708.170 0.00 1.43363 0.04
4 5 4 2 o 15532.609 15568.612 180.00 1.43328 0.34
6 4 1 2 o 19362.385 19145.402 180.00 1.43302 0.40
3 0 6 1 o 145300.58 140777.56 180.00 1.42913 2.75
6 1 3 1 o 43053.79 40524.88 0.00 1.42851 1.67
4 7 2 1 o 5080.967 4689.661 0.00 1.42770 0.28
3 0 6 2 o 140987.73 140777.56 180.00 1.42913 1.32
6 1 3 2 o 41436.34 40524.88 0.00 1.42851 0.80
2 7 4 1 o 81.089 80.016 180.00 1.42435 0.01
4 7 2 2 o 4676.804 4689.661 0.00 1.42770 0.13
5 3 4 1 o 135.067 137.298 180.00 1.42360 0.00
1 4 6 1 o 103928.32 107341.18 0.00 1.42321 4.06
4 3 5 1 o 169853.41 173877.52 180.00 1.42111 6.45
3 1 6 1 o 16501.346 16827.330 0.00 1.42100 0.63
2 7 4 2 o 78.012 80.016 180.00 1.42435 0.00
5 3 4 2 o 136.272 137.298 180.00 1.42360 0.00
1 4 6 2 o 104945.53 107341.18 0.00 1.42321 2.04
4 3 5 2 o 180636.27 173877.52 180.00 1.42111 3.46
3 1 6 2 o 17693.164 16827.330 0.00 1.42100 0.34
2 9 0 1 o 132710.69 119503.90 180.00 1.41706 3.11
3 8 2 1 o 8893.409 7752.341 0.00 1.41451 0.38
2 9 0 2 o 137702.89 119503.90 180.00 1.41706 1.62
2 8 3 1 o 18823.850 15819.507 0.00 1.41316 0.85
3 8 2 2 o 9478.098 7752.341 0.00 1.41451 0.21
2 8 3 2 o 19826.664 15819.507 0.00 1.41316 0.45
6 2 3 1 o 19804.129 17443.514 180.00 1.40456 0.74
5 5 3 1 o 21.877 5.104 0.00 1.40457 0.01
6 2 3 2 o 19195.498 17443.514 180.00 1.40456 0.36
2 9 1 1 o 34234.555 31669.438 0.00 1.40178 1.58
5 5 3 2 o 17.479 5.104 0.00 1.40457 0.00
1 9 2 1 o 60487.90 54424.94 0.00 1.40098 2.72
3 5 5 1 o 12692.456 10945.184 0.00 1.40032 0.46
2 9 1 2 o 35111.50 31669.438 0.00 1.40178 0.81
3 2 6 1 o 11949.088 9978.383 180.00 1.39742 0.45
1 9 2 2 o 64116.15 54424.94 0.00 1.40098 1.45
3 5 5 2 o 13548.655 10945.184 0.00 1.40032 0.25
5 6 2 1 o 1031.197 754.004 180.00 1.39469 0.04
3 2 6 2 o 14268.266 9978.383 180.00 1.39742 0.28
5 6 2 2 o 959.788 754.004 180.00 1.39469 0.02
2 6 5 1 o 76917.24 76676.94 180.00 1.38924 3.04
6 4 2 1 o 12576.965 11676.448 180.00 1.38712 0.44
2 6 5 2 o 80879.37 76676.94 180.00 1.38924 1.61
6 4 2 2 o 13936.621 11676.448 180.00 1.38712 0.25
2 4 6 1 o 1818.631 1532.946 0.00 1.37898 0.12
6 5 0 1 o 137543.55 132753.75 180.00 1.37802 2.67
2 4 6 2 o 1682.301 1532.946 0.00 1.37898 0.05
6 5 0 2 o 142440.80 132753.75 180.00 1.37802 1.39
4 8 0 1 o 2712.132 1776.105 0.00 1.37206 0.08
5 4 4 1 o 25744.408 20047.018 0.00 1.37005 0.94
4 8 0 2 o 2420.015 1776.105 0.00 1.37206 0.03
4 4 5 1 o 3264.899 2771.626 180.00 1.36783 0.13
0 8 4 1 o 1154.570 843.437 0.00 1.36810 0.04
6 3 3 1 o 16010.165 13926.499 0.00 1.36719 0.60
5 4 4 2 o 23156.811 20047.018 0.00 1.37005 0.41
4 4 5 2 o 2840.867 2771.626 180.00 1.36783 0.05
0 8 4 2 o 935.775 843.437 0.00 1.36810 0.02
6 5 1 1 o 43621.29 43506.60 0.00 1.36395 1.62
6 3 3 2 o 14039.946 13926.499 0.00 1.36719 0.26
3 3 6 1 o 4124.065 4249.156 0.00 1.36060 0.14
6 5 1 2 o 42233.39 43506.60 0.00 1.36395 0.78
0 1 7 1 o 3029.447 2983.248 180.00 1.36002 0.05
7 1 1 1 o 466.817 460.704 180.00 1.35815 0.00
2 9 2 1 o 8667.901 8654.808 180.00 1.35873 0.38
4 8 1 1 o 8101.014 7718.667 180.00 1.35817 0.35
3 3 6 2 o 4553.546 4249.156 0.00 1.36060 0.08
0 1 7 2 o 3163.551 2983.248 180.00 1.36002 0.03
1 5 6 1 o 38453.07 37684.20 0.00 1.35549 1.38
7 1 1 2 o 461.036 460.704 180.00 1.35815 0.00
2 9 2 2 o 8801.884 8654.808 180.00 1.35873 0.19
4 8 1 2 o 7739.948 7718.667 180.00 1.35817 0.17
1 8 4 1 o 24122.445 24010.191 0.00 1.35457 0.93
4 7 3 1 o 126.949 125.194 0.00 1.35433 0.01
5 1 5 1 o 10382.771 10243.564 180.00 1.35240 0.34
3 7 4 1 o 272.068 268.560 0.00 1.35266 0.01
1 5 6 2 o 38343.85 37684.20 0.00 1.35549 0.69
1 8 4 2 o 24195.061 24010.191 0.00 1.35457 0.46
4 7 3 2 o 125.624 125.194 0.00 1.35433 0.00
0 7 5 1 o 212324.14 212176.66 180.00 1.35053 4.04
4 6 4 1 o 78819.76 77982.01 0.00 1.35014 2.77
5 1 5 2 o 10566.146 10243.564 180.00 1.35240 0.17
3 7 4 2 o 280.538 268.560 0.00 1.35266 0.01
0 7 5 2 o 208450.95 212176.66 180.00 1.35053 1.96
1 1 7 1 o 82547.78 82024.34 180.00 1.34673 2.75
4 6 4 2 o 78056.63 77982.01 0.00 1.35014 1.36
0 9 3 2 o 13421.261 12840.483 180.00 1.34431 0.14
0 9 3 1 o 12638.237 12840.483 180.00 1.34431 0.26
1 1 7 2 o 81898.35 82024.34 180.00 1.34673 1.36
5 7 1 2 o 9366.404 9053.436 180.00 1.34306 0.16
5 7 1 1 o 9073.452 9053.436 180.00 1.34306 0.31
3 8 3 2 o 28133.521 27059.482 180.00 1.34306 0.57
3 8 3 1 o 27128.633 27059.482 180.00 1.34306 1.09
7 2 1 1 o 2979.408 3216.740 0.00 1.33751 0.09
1 7 5 1 o 39047.14 42465.73 180.00 1.33751 1.46
6 0 4 1 o 1.592 1.491 180.00 1.33529 0.00
7 2 1 2 o 3347.695 3216.740 0.00 1.33751 0.05
1 7 5 2 o 44367.04 42465.73 180.00 1.33751 0.84
0 10 0 1 o 20055.797 19164.625 180.00 1.33412 0.21
3 9 1 1 o 1354.927 1188.172 0.00 1.33328 0.08
6 0 4 2 o 1.953 1.491 180.00 1.33529 0.00
5 2 5 1 o 2270.765 2091.754 0.00 1.33202 0.07
1 9 3 1 o 21030.418 19611.555 180.00 1.33146 0.85
4 0 6 1 o 76363.93 70685.93 0.00 1.33073 1.24
0 10 0 2 o 20676.174 19164.625 180.00 1.33412 0.11
3 9 1 2 o 1296.155 1188.172 0.00 1.33328 0.04
5 2 5 2 o 2126.197 2091.754 0.00 1.33202 0.03
6 1 4 1 o 35987.90 35351.13 180.00 1.32865 1.12
1 9 3 2 o 19915.119 19611.555 180.00 1.33146 0.39
4 0 6 2 o 70079.67 70685.93 0.00 1.33073 0.55
1 2 7 1 o 23631.799 24345.014 180.00 1.32660 0.65
5 6 3 1 o 22436.422 23390.793 0.00 1.32606 0.70
7 0 2 1 o 117417.38 119460.04 180.00 1.32538 1.87
6 1 4 2 o 34767.906 35351.13 180.00 1.32865 0.53
4 1 6 1 o 94.624 94.687 0.00 1.32416 0.00
6 5 2 1 o 461.221 461.334 180.00 1.32420 0.01
1 2 7 2 o 23363.316 24345.014 180.00 1.32660 0.32
5 6 3 2 o 22629.660 23390.793 0.00 1.32606 0.35
3 6 5 1 o 50.270 53.681 0.00 1.32248 0.01
7 0 2 2 o 120959.59 119460.04 180.00 1.32538 0.97
4 1 6 2 o 95.180 94.687 0.00 1.32416 0.00
6 5 2 2 o 466.605 461.334 180.00 1.32420 0.00
6 4 3 1 o 7538.424 7587.991 0.00 1.31955 0.27
3 6 5 2 o 54.917 53.681 0.00 1.32248 0.00
7 1 2 1 o 15560.847 15263.534 0.00 1.31889 0.54
4 8 2 1 o 2618.427 2587.886 0.00 1.31891 0.07
2 5 6 1 o 46146.74 47532.96 180.00 1.31711 1.57
6 4 3 2 o 7238.562 7587.991 0.00 1.31955 0.13
2 8 4 1 o 8680.237 9006.352 180.00 1.31627 0.26
7 1 2 2 o 14310.995 15263.534 0.00 1.31889 0.25
4 8 2 2 o 2486.818 2587.886 0.00 1.31891 0.03
2 5 6 2 o 42445.06 47532.96 180.00 1.31711 0.70
3 4 6 1 o 2823.400 3199.174 0.00 1.31362 0.09
2 8 4 2 o 7976.080 9006.352 180.00 1.31627 0.11
3 4 6 2 o 2650.887 3199.174 0.00 1.31362 0.04
6 2 4 1 o 19295.396 22117.543 180.00 1.30931 0.59
5 5 4 1 o 7533.760 8539.201 0.00 1.30932 0.22
2 1 7 1 o 1438.283 1638.009 0.00 1.30907 0.04
1 10 1 1 o 806.263 886.731 0.00 1.30914 0.02
4 5 5 1 o 18674.547 21286.854 180.00 1.30738 0.58
0 3 7 1 o 3437.008 3910.409 180.00 1.30678 0.06
6 2 4 2 o 20109.453 22117.543 180.00 1.30931 0.31
5 5 4 2 o 7822.003 8539.201 0.00 1.30932 0.12
2 1 7 2 o 1506.888 1638.009 0.00 1.30907 0.02
1 10 1 2 o 832.691 886.731 0.00 1.30914 0.01
7 3 1 1 o 20670.109 22557.514 0.00 1.30512 0.58
4 2 6 1 o 140.904 149.777 0.00 1.30502 0.00
5 7 2 1 o 2072.510 2337.767 180.00 1.30506 0.09
4 5 5 2 o 18644.180 21286.854 180.00 1.30738 0.29
6 6 0 1 o 73341.96 86283.94 180.00 1.30364 1.25
0 3 7 2 o 3321.955 3910.409 180.00 1.30678 0.03
7 3 1 2 o 19641.242 22557.514 0.00 1.30512 0.27
4 2 6 2 o 136.145 149.777 0.00 1.30502 0.00
5 7 2 2 o 1929.252 2337.767 180.00 1.30506 0.04
6 6 0 2 o 74465.88 86283.94 180.00 1.30364 0.63
2 7 5 1 o 2896.597 3354.593 0.00 1.30059 0.09
7 2 2 1 o 7.115 7.545 0.00 1.29997 0.00
5 3 5 1 o 31389.320 35643.67 180.00 1.30002 1.03
2 7 5 2 o 2962.732 3354.593 0.00 1.30059 0.05
7 2 2 2 o 7.230 7.545 0.00 1.29997 0.00
5 3 5 2 o 32459.457 35643.67 180.00 1.30002 0.53
0 6 6 1 o 308.783 317.933 180.00 1.29604 0.00
3 9 2 1 o 14440.323 15162.586 180.00 1.29608 0.48
1 3 7 1 o 2425.186 2730.058 0.00 1.29498 0.08
2 9 3 1 o 12896.980 14243.060 0.00 1.29504 0.44
0 6 6 2 o 302.522 317.933 180.00 1.29604 0.00
3 9 2 2 o 13978.370 15162.586 180.00 1.29608 0.23
1 3 7 2 o 2460.301 2730.058 0.00 1.29498 0.04
6 6 1 1 o 33050.789 36417.18 180.00 1.29171 1.09
2 9 3 2 o 12960.030 14243.060 0.00 1.29504 0.22
2 2 7 1 o 2136.548 2430.714 0.00 1.29056 0.08
6 6 1 2 o 30607.063 36417.18 180.00 1.29171 0.49
2 2 7 2 o 1640.077 2430.714 0.00 1.29056 0.03
2 10 0 1 o 26334.564 31915.793 180.00 1.28593 0.45
0 10 2 1 o 4200.245 5091.960 0.00 1.28511 0.07
1 6 6 1 o 902.986 1235.631 0.00 1.28452 0.03
2 10 0 2 o 26020.898 31915.793 180.00 1.28593 0.22
0 10 2 2 o 3755.585 5091.960 0.00 1.28511 0.03
1 6 6 2 o 809.751 1235.631 0.00 1.28452 0.01
6 3 4 1 o 4586.707 6041.039 180.00 1.27888 0.10
6 3 4 2 o 6197.322 6041.039 180.00 1.27888 0.08
4 3 6 1 o -0.412 0.095 0.00 1.27488 0.00
2 10 1 1 o 12967.123 13680.669 180.00 1.27447 0.50
1 10 2 1 o 22921.836 24638.900 180.00 1.27387 0.86
4 3 6 2 o -1.009 0.095 0.00 1.27488 0.00
2 10 1 2 o 12762.748 13680.669 180.00 1.27447 0.24
7 3 2 1 o 2867.590 3008.011 0.00 1.27017 0.09
1 10 2 2 o 22908.531 24638.900 180.00 1.27387 0.43
4 7 4 1 o 1118.603 1091.052 180.00 1.26834 0.05
7 3 2 2 o 3256.923 3008.011 0.00 1.27017 0.05
4 7 4 2 o 1140.338 1091.052 180.00 1.26834 0.03
6 5 3 1 o 16111.592 15642.931 0.00 1.26503 0.50
7 4 1 1 o 4374.184 4666.471 180.00 1.26349 0.15
4 9 0 1 o 6739.400 7188.185 180.00 1.26319 0.12
6 5 3 2 o 15097.246 15642.931 0.00 1.26503 0.23
2 3 7 1 o 5082.719 5227.643 0.00 1.26139 0.16
7 1 3 1 o 11592.046 12153.281 180.00 1.26040 0.37
7 4 1 2 o 4433.152 4666.471 180.00 1.26349 0.08
4 8 3 1 o 2312.984 2425.728 0.00 1.26042 0.09
3 5 6 1 o 10776.588 11551.012 180.00 1.25981 0.31
4 9 0 2 o 6767.037 7188.185 180.00 1.26319 0.06
5 4 5 1 o 2134.602 2438.591 180.00 1.25886 0.07
3 8 4 1 o 2453.729 2763.718 180.00 1.25907 0.09
2 3 7 2 o 4627.174 5227.643 0.00 1.26139 0.07
6 6 2 1 o 21655.600 23739.236 180.00 1.25780 0.65
7 1 3 2 o 11261.688 12153.281 180.00 1.26040 0.18
4 8 3 2 o 2241.497 2425.728 0.00 1.26042 0.04
3 5 6 2 o 10806.589 11551.012 180.00 1.25981 0.15
5 4 5 2 o 2075.439 2438.591 180.00 1.25886 0.03
3 8 4 2 o 2411.462 2763.718 180.00 1.25907 0.04
6 6 2 2 o 20990.600 23739.236 180.00 1.25780 0.31
1 4 7 1 o 13748.276 15448.825 0.00 1.25428 0.42
3 1 7 1 o 411.712 474.982 180.00 1.25276 0.01
4 9 1 1 o 7782.125 8825.250 180.00 1.25232 0.26
2 6 6 1 o 9112.108 10543.979 180.00 1.25172 0.28
1 4 7 2 o 13144.759 15448.825 0.00 1.25428 0.20
5 8 1 1 o 19201.529 22431.283 180.00 1.25132 0.61
3 1 7 2 o 419.558 474.982 180.00 1.25276 0.01
1 9 4 1 o 2746.594 2972.061 0.00 1.24950 0.07
4 9 1 2 o 8038.202 8825.250 180.00 1.25232 0.13
2 6 6 2 o 9651.469 10543.979 180.00 1.25172 0.15
5 7 3 1 o 48915.66 53326.31 180.00 1.24831 1.58
5 8 1 2 o 20661.965 22431.283 180.00 1.25132 0.33
1 8 5 1 o 525.513 544.002 180.00 1.24682 0.01
1 9 4 2 o 2921.744 2972.061 0.00 1.24950 0.04
3 7 5 1 o 4133.616 4372.470 0.00 1.24533 0.13
5 7 3 2 o 50400.93 53326.31 180.00 1.24831 0.82
5 6 4 1 o 1315.656 1372.371 0.00 1.24503 0.03
7 2 3 1 o 9840.548 9758.298 0.00 1.24385 0.29
1 8 5 2 o 547.742 544.002 180.00 1.24682 0.01
4 6 5 1 o 4628.713 4629.034 180.00 1.24336 0.15
3 7 5 2 o 3889.753 4372.470 0.00 1.24533 0.06
5 6 4 2 o 1215.213 1372.371 0.00 1.24503 0.01
2 10 2 1 o 26701.797 31271.246 180.00 1.24186 0.94
7 2 3 2 o 9120.764 9758.298 0.00 1.24385 0.13
4 6 5 2 o 4660.879 4629.034 180.00 1.24336 0.07
3 9 3 1 o 245.260 250.092 180.00 1.24045 0.01
6 4 4 1 o 53050.41 51164.23 180.00 1.23963 1.61
2 10 2 2 o 30434.402 31271.246 180.00 1.24186 0.55
3 9 3 2 o 220.327 250.092 180.00 1.24045 0.01
6 4 4 2 o 50622.26 51164.23 180.00 1.23963 0.76
3 2 7 1 o 45083.99 45471.08 0.00 1.23652 1.38
4 4 6 1 o 2754.244 2768.964 180.00 1.23599 0.06
3 2 7 2 o 44227.96 45471.08 0.00 1.23652 0.67
4 4 6 2 o 2702.891 2768.964 180.00 1.23599 0.03
7 4 2 1 o 40489.86 39669.01 0.00 1.23169 1.18
5 0 6 1 o 66279.24 64092.99 0.00 1.22976 0.95
6 7 0 1 o 1247.992 1206.103 180.00 1.22956 0.03
7 4 2 2 o 39361.37 39669.01 0.00 1.23169 0.57
5 0 6 2 o 63914.29 64092.99 0.00 1.22976 0.45
6 1 5 1 o 30672.273 31017.248 0.00 1.22652 0.87
6 7 0 2 o 1188.304 1206.103 180.00 1.22956 0.01
5 1 6 1 o 35852.82 35180.30 0.00 1.22457 1.03
2 4 7 1 o 156.158 154.294 0.00 1.22368 0.01
6 1 5 2 o 31435.988 31017.248 0.00 1.22652 0.45
3 10 1 1 o 7982.981 7505.099 180.00 1.22234 0.32
5 1 6 2 o 37084.21 35180.30 0.00 1.22457 0.54
4 9 2 1 o 535.484 505.811 180.00 1.22134 0.02
2 4 7 2 o 168.233 154.294 0.00 1.22368 0.00
1 10 3 1 o 16871.229 15795.434 0.00 1.22094 0.64
5 8 2 1 o 123.271 117.025 180.00 1.22041 0.00
6 7 1 1 o 3099.514 2991.698 0.00 1.21954 0.09
3 10 1 2 o 7717.985 7505.099 180.00 1.22234 0.15
2 9 4 1 o 71265.66 69936.33 0.00 1.21925 2.32
4 9 2 2 o 499.774 505.811 180.00 1.22134 0.01
7 3 3 1 o 108134.55 108502.66 0.00 1.21767 3.10
1 10 3 2 o 15689.798 15795.434 0.00 1.22094 0.30
5 8 2 2 o 116.554 117.025 180.00 1.22041 0.00
0 5 7 1 o 2370.074 2429.758 180.00 1.21673 0.03
2 8 5 1 o 48589.44 49768.67 0.00 1.21676 1.47
6 7 1 2 o 2912.474 2991.698 0.00 1.21954 0.04
2 9 4 2 o 67980.59 69936.33 0.00 1.21925 1.09
7 5 1 1 o 43.250 43.309 0.00 1.21538 0.00
7 3 3 2 o 108571.77 108502.66 0.00 1.21767 1.55
0 5 7 2 o 2408.386 2429.758 180.00 1.21673 0.02
2 8 5 2 o 49364.10 49768.67 0.00 1.21676 0.75
1 7 6 1 o 116.781 118.559 180.00 1.21348 0.00
7 5 1 2 o 43.216 43.309 0.00 1.21538 0.00
6 2 5 1 o 69617.42 69585.60 180.00 1.21126 1.92
5 5 5 1 o 23835.268 23823.096 180.00 1.21126 0.73
3 3 7 1 o 157504.30 158896.61 0.00 1.21079 4.46
1 7 6 2 o 115.811 118.559 180.00 1.21348 0.00
5 2 6 1 o 13358.170 13784.688 0.00 1.20938 0.37
6 2 5 2 o 69923.41 69585.60 180.00 1.21126 0.96
5 5 5 2 o 23943.043 23823.096 180.00 1.21126 0.37
3 3 7 2 o 161379.91 158896.61 0.00 1.21079 2.29
1 5 7 1 o 7362.233 7201.158 180.00 1.20718 0.20
8 0 0 1 o 160400.61 155940.75 0.00 1.20693 1.09
6 6 3 1 o 11854.769 11457.580 0.00 1.20676 0.36
5 2 6 2 o 14433.438 13784.688 0.00 1.20938 0.20
1 5 7 2 o 7756.354 7201.158 180.00 1.20718 0.11
8 0 0 2 o 164833.66 155940.75 0.00 1.20693 0.56
6 6 3 2 o 11954.183 11457.580 0.00 1.20676 0.18
0 11 1 1 o 143100.48 143356.56 180.00 1.20322 2.47
8 1 0 1 o 21839.713 22924.771 0.00 1.20202 0.32
3 6 6 1 o 55014.88 57061.97 180.00 1.20222 1.54
0 11 1 2 o 140483.55 143356.56 180.00 1.20322 1.20
8 1 0 2 o 22702.740 22924.771 0.00 1.20202 0.17
3 6 6 2 o 56314.27 57061.97 180.00 1.20222 0.79
0 0 8 1 o 56203.33 55200.02 0.00 1.19625 0.40
7 0 4 1 o 53640.46 50376.61 180.00 1.19497 0.73
6 5 4 1 o 47359.60 45340.21 0.00 1.19411 1.28
1 11 1 1 o 16887.402 16208.731 180.00 1.19398 0.56
0 0 8 2 o 56592.41 55200.02 0.00 1.19625 0.20
3 10 2 1 o 67551.00 65830.11 180.00 1.19348 2.14
8 1 1 1 o 990.445 967.083 180.00 1.19265 0.03
2 10 3 1 o 5345.710 5219.530 0.00 1.19267 0.19
7 0 4 2 o 51639.89 50376.61 180.00 1.19497 0.35
6 5 4 2 o 46405.82 45340.21 0.00 1.19411 0.62
4 5 6 1 o 821.971 815.745 180.00 1.19085 0.02
6 7 2 1 o 2462.072 2425.860 0.00 1.19088 0.10
1 11 1 2 o 16523.322 16208.731 180.00 1.19398 0.27
7 1 4 1 o 579.614 587.377 0.00 1.19021 0.01
3 10 2 2 o 65521.16 65830.11 180.00 1.19348 1.02
4 8 4 1 o 81567.08 82789.02 0.00 1.19022 2.49
8 1 1 2 o 951.325 967.083 180.00 1.19265 0.01
2 10 3 2 o 5134.342 5219.530 0.00 1.19267 0.09
4 5 6 2 o 821.821 815.745 180.00 1.19085 0.01
6 7 2 2 o 2458.430 2425.860 0.00 1.19088 0.05
8 2 0 1 o 4481.816 4466.701 0.00 1.18764 0.06
7 1 4 2 o 589.160 587.377 0.00 1.19021 0.01
1 0 8 1 o 692.489 687.384 0.00 1.18717 0.01
6 3 5 1 o 478.593 473.501 180.00 1.18704 0.02
4 8 4 2 o 83055.05 82789.02 0.00 1.19022 1.27
7 5 2 1 o 9442.476 9351.101 180.00 1.18701 0.26
2 7 6 1 o 845.165 795.565 0.00 1.18571 0.03
5 3 6 1 o 8142.305 7643.423 0.00 1.18528 0.22
4 1 7 1 o 1057.597 1004.516 180.00 1.18489 0.02
8 2 0 2 o 4686.782 4466.701 0.00 1.18764 0.03
1 0 8 2 o 732.615 687.384 0.00 1.18717 0.01
6 3 5 2 o 504.898 473.501 180.00 1.18704 0.01
7 5 2 2 o 9874.646 9351.101 180.00 1.18701 0.14
7 4 3 1 o 3118.206 2894.959 180.00 1.18365 0.09
2 7 6 2 o 850.908 795.565 0.00 1.18571 0.02
1 1 8 1 o 18529.203 17360.061 180.00 1.18250 0.49
5 3 6 2 o 8219.392 7643.423 0.00 1.18528 0.11
4 1 7 2 o 1095.135 1004.516 180.00 1.18489 0.01
7 4 3 2 o 3743.561 2894.959 180.00 1.18365 0.06
5 7 4 1 o 83.826 62.422 0.00 1.18002 0.00
2 5 7 1 o 3070.978 2562.978 0.00 1.17983 0.09
1 1 8 2 o 19995.305 17360.061 180.00 1.18250 0.27
8 2 1 1 o 12057.765 11608.573 0.00 1.17860 0.32
4 7 5 1 o 36354.69 35001.355 0.00 1.17860 1.05
0 2 8 1 o 45.496 44.965 180.00 1.17747 0.00
3 4 7 1 o 6316.679 6177.492 180.00 1.17732 0.17
5 7 4 2 o 65.006 62.422 0.00 1.18002 0.00
2 5 7 2 o 2650.623 2562.978 0.00 1.17983 0.04
7 2 4 1 o 4876.007 4618.275 180.00 1.17625 0.13
8 2 1 2 o 12064.509 11608.573 0.00 1.17860 0.16
2 11 0 1 o 26316.377 24885.963 0.00 1.17629 0.45
4 7 5 2 o 36381.60 35001.355 0.00 1.17860 0.52
0 2 8 2 o 44.860 44.965 180.00 1.17747 0.00
3 4 7 2 o 6113.373 6177.492 180.00 1.17732 0.08
4 9 3 1 o 22905.545 23108.500 180.00 1.17446 0.67
7 2 4 2 o 4538.056 4618.275 180.00 1.17625 0.06
5 8 3 1 o 33443.824 34160.371 180.00 1.17363 0.96
3 9 4 1 o 5200.079 5293.955 180.00 1.17337 0.16
2 11 0 2 o 24428.898 24885.963 0.00 1.17629 0.20
0 9 5 1 o 89.856 90.816 180.00 1.17197 0.00
4 9 3 2 o 23111.740 23108.500 180.00 1.17446 0.34
4 2 7 1 o 144.134 136.804 180.00 1.17112 0.00
3 8 5 1 o 958.704 921.808 0.00 1.17115 0.03
5 8 3 2 o 37039.04 34160.371 180.00 1.17363 0.54
8 0 2 1 o 39802.33 35472.18 0.00 1.17028 0.53
3 9 4 2 o 5877.567 5293.955 180.00 1.17337 0.09
1 2 8 1 o 35088.67 31700.201 0.00 1.16881 0.93
0 9 5 2 o 100.411 90.816 180.00 1.17197 0.00
4 2 7 2 o 147.446 136.804 180.00 1.17112 0.00
3 8 5 2 o 982.730 921.808 0.00 1.17115 0.02
8 0 2 2 o 36040.64 35472.18 0.00 1.17028 0.23
4 10 0 1 o 165826.83 162133.92 0.00 1.16765 2.56
2 11 1 1 o 12770.227 12544.852 0.00 1.16750 0.40
5 9 1 1 o 1108.096 1082.967 0.00 1.16709 0.05
1 11 2 1 o 10611.046 10434.041 180.00 1.16704 0.34
1 2 8 2 o 33301.488 31700.201 0.00 1.16881 0.44
8 1 2 1 o 5.036 4.368 0.00 1.16580 0.00
8 3 0 1 o 13297.855 13978.588 0.00 1.16479 0.20
0 10 4 1 o 143461.23 144880.80 0.00 1.16521 2.23
4 10 0 2 o 155197.55 162133.92 0.00 1.16765 1.17
2 11 1 2 o 11946.866 12544.852 0.00 1.16750 0.18
5 9 1 2 o 1012.117 1082.967 0.00 1.16709 0.02
1 11 2 2 o 9972.874 10434.041 180.00 1.16704 0.16
7 6 1 1 o 2456.894 2513.399 180.00 1.16344 0.07
1 9 5 1 o 6409.236 6543.625 180.00 1.16343 0.17
8 1 2 2 o 4.274 4.368 0.00 1.16580 0.00
8 3 0 2 o 13971.335 13978.588 0.00 1.16479 0.11
0 10 4 2 o 145872.84 144880.80 0.00 1.16521 1.14
2 0 8 1 o 566.621 548.847 0.00 1.16113 0.01
7 6 1 2 o 2625.706 2513.399 180.00 1.16344 0.04
1 9 5 2 o 6814.285 6543.625 180.00 1.16343 0.09
5 6 5 1 o 781.458 718.359 180.00 1.15982 0.02
4 10 1 1 o 1333.165 1193.039 180.00 1.15905 0.04
2 0 8 2 o 581.238 548.847 0.00 1.16113 0.01
6 8 0 1 o 39564.16 38982.79 180.00 1.15800 0.55
5 6 5 2 o 721.597 718.359 180.00 1.15982 0.01
2 1 8 1 o 14137.155 14014.461 180.00 1.15676 0.34
1 10 4 1 o 319.617 316.898 0.00 1.15681 0.01
8 3 1 1 o 102557.70 100838.34 180.00 1.15626 2.65
1 6 7 1 o 15840.333 15598.531 0.00 1.15624 0.38
4 10 1 2 o 1216.319 1193.039 180.00 1.15905 0.02
6 4 5 1 o 14882.158 14443.330 0.00 1.15546 0.39
6 8 0 2 o 40346.57 38982.79 180.00 1.15800 0.28
7 3 4 1 o 1842.611 1743.141 0.00 1.15404 0.06
2 1 8 2 o 14668.292 14014.461 180.00 1.15676 0.18
5 4 6 1 o 1823.595 1731.973 0.00 1.15383 0.05
1 10 4 2 o 332.843 316.898 0.00 1.15681 0.01
8 3 1 2 o 107746.80 100838.34 180.00 1.15626 1.40
1 6 7 2 o 16572.643 15598.531 0.00 1.15624 0.20
8 2 2 1 o 19538.799 17486.398 0.00 1.15267 0.52
6 4 5 2 o 16157.136 14443.330 0.00 1.15546 0.22
0 8 6 1 o 9082.268 7965.142 180.00 1.15266 0.16
7 3 4 2 o 2333.447 1743.141 0.00 1.15404 0.04
5 4 6 2 o 2263.484 1731.973 0.00 1.15383 0.03
8 2 2 2 o 19802.953 17486.398 0.00 1.15267 0.26
0 8 6 2 o 9216.904 7965.142 180.00 1.15266 0.08
6 8 1 1 o 33848.160 30362.631 0.00 1.14962 0.98
3 10 3 1 o 824.108 765.444 180.00 1.14962 0.02
4 3 7 1 o 3780.177 3413.747 180.00 1.14919 0.10
6 7 3 1 o 32613.764 29335.400 0.00 1.14729 0.91
1 3 8 1 o 5659.152 5174.733 180.00 1.14701 0.15
6 8 1 2 o 32855.063 30362.631 0.00 1.14962 0.47
3 10 3 2 o 807.379 765.444 180.00 1.14962 0.01
4 3 7 2 o 3626.383 3413.747 180.00 1.14919 0.05
6 6 4 1 o 1352.771 1262.222 180.00 1.14474 0.03
6 7 3 2 o 31977.971 29335.400 0.00 1.14729 0.44
1 8 6 1 o 2186.710 2006.513 0.00 1.14454 0.06
1 3 8 2 o 5696.278 5174.733 180.00 1.14701 0.07
2 2 8 1 o 304.918 282.468 180.00 1.14393 0.01
7 5 3 1 o 23170.656 20999.002 0.00 1.14383 0.66
3 7 6 1 o 7.034 5.921 180.00 1.14339 0.00
6 6 4 2 o 1319.496 1262.222 180.00 1.14474 0.02
2 11 2 1 o 258.377 246.562 0.00 1.14228 0.01
4 6 6 1 o 34607.039 33127.242 0.00 1.14186 0.93
5 9 2 1 o 54958.99 52538.14 180.00 1.14189 1.57
1 8 6 2 o 2079.537 2006.513 0.00 1.14454 0.03
2 2 8 2 o 284.939 282.468 180.00 1.14393 0.00
7 5 3 2 o 21245.398 20999.002 0.00 1.14383 0.30
3 7 6 2 o 6.114 5.921 180.00 1.14339 0.00
2 11 2 2 o 247.766 246.562 0.00 1.14228 0.00
4 6 6 2 o 33359.727 33127.242 0.00 1.14186 0.44
5 9 2 2 o 52903.14 52538.14 180.00 1.14189 0.74
2 9 5 1 o 10612.619 10539.656 0.00 1.13889 0.30
7 6 2 1 o 38767.72 38937.07 180.00 1.13847 0.99
2 9 5 2 o 10396.094 10539.656 0.00 1.13889 0.15
3 5 7 1 o 42278.14 43483.14 0.00 1.13811 1.14
7 6 2 2 o 38511.70 38937.07 180.00 1.13847 0.49
3 5 7 2 o 42730.27 43483.14 0.00 1.13811 0.57
8 4 0 1 o 3994.851 4100.972 180.00 1.13491 0.05
4 10 2 1 o 29637.779 31024.848 0.00 1.13436 0.83
0 11 3 1 o 36.996 38.396 180.00 1.13367 0.00
6 0 6 1 o 484.959 467.343 180.00 1.13284 0.01
2 10 4 1 o 3922.006 3763.644 180.00 1.13268 0.10
8 4 0 2 o 4371.165 4100.972 180.00 1.13491 0.03
2 6 7 1 o 201.023 184.276 180.00 1.13214 0.01
8 3 2 1 o 564.904 520.116 180.00 1.13174 0.02
4 10 2 2 o 32399.664 31024.848 0.00 1.13436 0.46
0 11 3 2 o 40.045 38.396 180.00 1.13367 0.00
6 0 6 2 o 564.937 467.343 180.00 1.13284 0.00
2 10 4 2 o 4345.106 3763.644 180.00 1.13268 0.06
2 6 7 2 o 222.031 184.276 180.00 1.13214 0.00
8 3 2 2 o 657.833 520.116 180.00 1.13174 0.01
6 1 6 1 o 28976.713 24745.811 180.00 1.12877 0.78
8 4 1 1 o 2215.925 2093.087 180.00 1.12701 0.06
3 11 1 1 o 12187.384 11469.620 180.00 1.12703 0.38
6 1 6 2 o 25483.025 24745.811 180.00 1.12877 0.33
0 4 8 1 o 37510.96 36361.48 180.00 1.12602 0.52
1 11 3 1 o 36876.18 35983.41 180.00 1.12593 1.06
6 8 2 1 o 29588.936 29154.791 180.00 1.12551 0.84
7 4 4 1 o 7.080 6.996 0.00 1.12495 0.00
8 1 3 1 o 26617.789 25641.965 180.00 1.12482 0.63
8 4 1 2 o 2214.542 2093.087 180.00 1.12701 0.03
3 11 1 2 o 12161.724 11469.620 180.00 1.12703 0.19
2 3 8 1 o 4139.198 4116.101 180.00 1.12347 0.10
0 4 8 2 o 35861.63 36361.48 180.00 1.12602 0.25
1 11 3 2 o 35385.96 35983.41 180.00 1.12593 0.50
6 8 2 2 o 28449.791 29154.791 180.00 1.12551 0.40
7 4 4 2 o 7.018 6.996 0.00 1.12495 0.00
8 1 3 2 o 26054.465 25641.965 180.00 1.12482 0.31
3 0 8 1 o 94211.98 91393.22 180.00 1.12130 1.14
2 8 6 1 o 14924.238 14551.657 180.00 1.12115 0.45
2 3 8 2 o 4050.523 4116.101 180.00 1.12347 0.05
4 4 7 1 o 40.302 42.342 180.00 1.12046 0.00
3 0 8 2 o 95505.60 91393.22 180.00 1.12130 0.58
1 4 8 1 o 61680.46 59441.48 0.00 1.11844 1.51
6 5 5 1 o 2794.917 2721.752 0.00 1.11833 0.07
2 8 6 2 o 15123.375 14551.657 180.00 1.12115 0.23
4 4 7 2 o 41.732 42.342 180.00 1.12046 0.00
3 1 8 1 o 10892.777 10977.359 0.00 1.11736 0.27
6 2 6 1 o 11576.354 11556.652 180.00 1.11684 0.30
5 5 6 1 o 35933.67 35875.30 180.00 1.11685 0.90
4 9 4 1 o 7278.377 7279.854 0.00 1.11705 0.22
5 8 4 1 o 2151.054 2155.956 0.00 1.11634 0.05
1 4 8 2 o 59898.20 59441.48 0.00 1.11844 0.73
6 5 5 2 o 2749.164 2721.752 0.00 1.11833 0.03
7 1 5 1 o 34143.832 33310.523 0.00 1.11512 0.89
4 8 5 1 o 3482.943 3403.532 0.00 1.11513 0.09
3 1 8 2 o 11264.228 10977.359 0.00 1.11736 0.14
6 2 6 2 o 11834.041 11556.652 180.00 1.11684 0.15
5 5 6 2 o 36686.37 35875.30 180.00 1.11685 0.46
4 9 4 2 o 7465.805 7279.854 0.00 1.11705 0.11
5 8 4 2 o 2214.885 2155.956 0.00 1.11634 0.03
8 2 3 1 o 2445.170 2330.243 180.00 1.11301 0.06
7 1 5 2 o 36657.07 33310.523 0.00 1.11512 0.48
4 8 5 2 o 3722.181 3403.532 0.00 1.11513 0.05
5 1 7 1 o 6510.025 5763.168 180.00 1.11193 0.18
0 12 0 1 o 4349.036 3961.598 0.00 1.11177 0.03
0 7 7 1 o 2001.665 1713.479 180.00 1.11089 0.03
8 2 3 2 o 2632.413 2330.243 180.00 1.11301 0.03
7 7 1 1 o 12917.063 11668.072 180.00 1.10987 0.32
5 1 7 2 o 6058.822 5763.168 180.00 1.11193 0.08
0 12 0 2 o 4040.267 3961.598 0.00 1.11177 0.01
0 7 7 2 o 1845.610 1713.479 180.00 1.11089 0.01
7 7 1 2 o 12800.604 11668.072 180.00 1.10987 0.16
5 7 5 1 o 2497.099 2320.094 180.00 1.10673 0.05
3 2 8 1 o 7401.399 6749.053 180.00 1.10579 0.18
8 4 2 1 o 6517.441 6154.671 0.00 1.10427 0.16
3 11 2 1 o 5428.896 5114.612 0.00 1.10429 0.16
5 7 5 2 o 2379.434 2320.094 180.00 1.10673 0.03
7 2 5 1 o 696.473 706.858 180.00 1.10361 0.02
1 7 7 1 o 91723.62 93010.00 180.00 1.10361 2.34
2 11 3 1 o 18759.428 18940.396 0.00 1.10365 0.54
3 2 8 2 o 6330.173 6749.053 180.00 1.10579 0.07
5 9 3 1 o 7944.233 8435.804 180.00 1.10330 0.26
8 4 2 2 o 6262.078 6154.671 0.00 1.10427 0.08
3 11 2 2 o 5206.930 5114.612 0.00 1.10429 0.07
7 2 5 2 o 690.368 706.858 180.00 1.10361 0.01
3 9 5 1 o 16250.350 16216.894 0.00 1.10123 0.45
1 7 7 2 o 91017.35 93010.00 180.00 1.10361 1.15
5 2 7 1 o 62466.20 65898.00 0.00 1.10052 1.52
2 11 3 2 o 18578.705 18940.396 0.00 1.10365 0.27
5 9 3 2 o 7969.474 8435.804 180.00 1.10330 0.13
7 6 3 1 o 5760.548 6261.188 180.00 1.10021 0.15
8 5 0 1 o 24402.926 27438.344 180.00 1.09966 0.31
3 9 5 2 o 16112.562 16216.894 0.00 1.10123 0.22
5 2 7 2 o 66590.34 65898.00 0.00 1.10052 0.82
6 3 6 1 o 10392.738 10287.140 180.00 1.09778 0.28
7 6 3 2 o 6265.017 6261.188 180.00 1.10021 0.08
8 5 0 2 o 26892.672 27438.344 180.00 1.09966 0.18
1 12 1 1 o 19083.211 19270.121 180.00 1.09719 0.59
2 4 8 1 o 9819.859 10277.786 180.00 1.09658 0.29
4 10 3 1 o 242.410 253.581 0.00 1.09650 0.01
3 10 4 1 o 26905.848 28945.744 180.00 1.09562 0.71
6 3 6 2 o 9483.759 10287.140 180.00 1.09778 0.13
3 6 7 1 o 20072.070 21711.322 180.00 1.09512 0.53
8 3 3 1 o 200.665 208.374 180.00 1.09414 0.00
1 12 1 2 o 18054.859 19270.121 180.00 1.09719 0.27
2 4 8 2 o 9878.815 10277.786 180.00 1.09658 0.14
6 7 4 1 o 3142.792 3253.552 180.00 1.09360 0.10
4 10 3 2 o 245.399 253.581 0.00 1.09650 0.00
3 10 4 2 o 28617.088 28945.744 180.00 1.09562 0.39
8 5 1 1 o 28153.496 28658.414 180.00 1.09247 0.68
3 6 7 2 o 21256.252 21711.322 180.00 1.09512 0.28
8 3 3 2 o 212.129 208.374 180.00 1.09414 0.00
4 7 6 1 o 110.455 104.185 0.00 1.09109 0.00
6 7 4 2 o 3439.277 3253.552 180.00 1.09360 0.06
7 5 4 1 o 1708.183 1616.196 180.00 1.09060 0.04
5 10 1 1 o 5378.078 5071.376 180.00 1.09050 0.16
6 9 0 1 o 63976.49 61218.70 0.00 1.09029 0.87
8 5 1 2 o 28743.041 28658.414 180.00 1.09247 0.35
6 8 3 1 o 9911.978 8942.673 180.00 1.08850 0.27
4 7 6 2 o 122.993 104.185 0.00 1.09109 0.00
7 7 2 1 o 102.796 90.763 180.00 1.08813 0.00
7 5 4 2 o 1727.758 1616.196 180.00 1.09060 0.02
5 10 1 2 o 5356.694 5071.376 180.00 1.09050 0.08
6 9 0 2 o 61947.38 61218.70 0.00 1.09029 0.42
3 3 8 1 o 2334.353 2461.988 0.00 1.08727 0.05
1 10 5 1 o 7677.220 7739.011 180.00 1.08751 0.27
4 5 7 1 o 2288.345 2452.152 180.00 1.08650 0.06
6 8 3 2 o 8686.146 8942.673 180.00 1.08850 0.11
7 7 2 2 o 87.688 90.763 180.00 1.08813 0.00
7 3 5 1 o 216.914 218.731 0.00 1.08521 0.00
3 8 6 1 o 43673.88 44842.44 180.00 1.08517 1.10
3 3 8 2 o 2333.979 2461.988 0.00 1.08727 0.03
1 5 8 1 o 24186.078 25463.566 0.00 1.08466 0.58
1 10 5 2 o 7334.523 7739.011 180.00 1.08751 0.13
4 5 7 2 o 2367.590 2452.152 180.00 1.08650 0.03
4 11 0 1 o 3573.491 3695.415 0.00 1.08373 0.06
6 9 1 1 o 21422.234 21630.570 0.00 1.08328 0.55
2 12 0 1 o 36480.11 37014.80 180.00 1.08341 0.58
7 3 5 2 o 218.654 218.731 0.00 1.08521 0.00
2 7 7 1 o 1305.371 1307.656 0.00 1.08260 0.03
0 12 2 1 o 23636.545 23794.150 0.00 1.08292 0.37
3 8 6 2 o 44808.41 44842.44 180.00 1.08517 0.57
5 3 7 1 o 38700.56 38718.89 180.00 1.08227 0.86
1 5 8 2 o 25363.738 25463.566 0.00 1.08466 0.31
4 11 0 2 o 3555.854 3695.415 0.00 1.08373 0.03
6 9 1 2 o 20712.756 21630.570 0.00 1.08328 0.27
2 12 0 2 o 35355.86 37014.80 180.00 1.08341 0.28
2 7 7 2 o 1296.402 1307.656 0.00 1.08260 0.02
0 12 2 2 o 22939.635 23794.150 0.00 1.08292 0.18
5 3 7 2 o 39002.98 38718.89 180.00 1.08227 0.43
1 9 6 1 o 18921.857 18505.123 180.00 1.07902 0.48
8 0 4 1 o 11727.767 11117.047 180.00 1.07758 0.14
6 6 5 1 o 34183.625 32332.887 0.00 1.07746 0.84
4 11 1 1 o 2792.925 2659.760 0.00 1.07685 0.08
1 9 6 2 o 18809.799 18505.123 180.00 1.07902 0.24
2 12 1 1 o 36019.05 34963.773 0.00 1.07654 1.02
5 6 6 1 o 25518.445 25651.711 0.00 1.07614 0.61
1 12 2 1 o 767.219 768.688 0.00 1.07618 0.02
8 0 4 2 o 11161.566 11117.047 180.00 1.07758 0.06
6 6 5 2 o 32793.551 32332.887 0.00 1.07746 0.40
1 11 4 1 o 2308.304 2324.345 180.00 1.07505 0.07
8 1 4 1 o 2432.696 2383.864 180.00 1.07408 0.04
4 11 1 2 o 2758.287 2659.760 0.00 1.07685 0.04
2 12 1 2 o 35318.63 34963.773 0.00 1.07654 0.50
5 6 6 2 o 25000.748 25651.711 0.00 1.07614 0.29
1 12 2 2 o 748.737 768.688 0.00 1.07618 0.01
6 4 6 1 o 10060.087 10223.161 180.00 1.07265 0.22
1 11 4 2 o 2343.601 2324.345 180.00 1.07505 0.03
4 0 8 1 o 12072.440 11194.914 180.00 1.07185 0.13
8 5 2 1 o 20.866 20.663 180.00 1.07173 0.00
8 1 4 2 o 2518.108 2383.864 180.00 1.07408 0.02
6 4 6 2 o 10209.723 10223.161 180.00 1.07265 0.11
5 10 2 1 o 24700.125 24873.408 0.00 1.06986 0.66
8 4 3 1 o 72.424 73.251 0.00 1.06925 0.00
4 0 8 2 o 11003.826 11194.914 180.00 1.07185 0.06
8 5 2 2 o 20.616 20.663 180.00 1.07173 0.00
3 11 3 1 o 6573.345 6683.159 180.00 1.06927 0.16
4 1 8 1 o 21.637 24.521 0.00 1.06841 0.00
2 10 5 1 o 8732.408 9079.799 0.00 1.06739 0.23
5 10 2 2 o 23851.133 24873.408 0.00 1.06986 0.32
8 4 3 2 o 73.008 73.251 0.00 1.06925 0.00
3 11 3 2 o 6643.735 6683.159 180.00 1.06927 0.08
4 1 8 2 o 27.787 24.521 0.00 1.06841 0.00
2 5 8 1 o 17269.426 16704.035 0.00 1.06469 0.39
2 10 5 2 o 9441.703 9079.799 0.00 1.06739 0.13
8 2 4 1 o 20332.064 20181.871 0.00 1.06379 0.46
9 1 1 1 o 411.384 442.136 0.00 1.06276 0.01
6 9 2 1 o 1386.971 1432.796 0.00 1.06304 0.03
3 4 8 1 o 563.986 590.129 0.00 1.06285 0.01
2 5 8 2 o 15952.343 16704.035 0.00 1.06469 0.17
8 2 4 2 o 20205.049 20181.871 0.00 1.06379 0.23
7 4 5 1 o 707.411 712.170 0.00 1.06091 0.02
8 6 0 1 o 60597.32 61767.80 0.00 1.06074 0.70
9 1 1 2 o 408.261 442.136 0.00 1.06276 0.01
6 9 2 2 o 1378.342 1432.796 0.00 1.06304 0.01
3 4 8 2 o 559.982 590.129 0.00 1.06285 0.01
0 1 9 1 o 16673.451 17486.301 0.00 1.05997 0.18
2 9 6 1 o 23454.236 24657.275 0.00 1.05936 0.59
7 4 5 2 o 679.209 712.170 0.00 1.06091 0.01
4 2 8 1 o 3963.632 4131.942 0.00 1.05827 0.09
5 4 7 1 o 10258.590 10729.923 180.00 1.05817 0.23
8 6 0 2 o 58984.70 61767.80 0.00 1.06074 0.34
0 1 9 2 o 16390.359 17486.301 0.00 1.05997 0.09
4 11 2 1 o 556.138 620.777 180.00 1.05696 0.02
2 9 6 2 o 22765.467 24657.275 0.00 1.05936 0.28
7 8 1 1 o 1812.520 1980.099 0.00 1.05639 0.04
2 12 2 1 o 6508.846 6976.198 180.00 1.05667 0.15
4 2 8 2 o 4034.201 4131.942 0.00 1.05827 0.05
5 4 7 2 o 10594.773 10729.923 180.00 1.05817 0.12
2 11 4 1 o 9106.239 9246.780 180.00 1.05560 0.23
5 9 4 1 o 8078.223 8042.624 180.00 1.05530 0.20
7 7 3 1 o 30535.943 30001.643 180.00 1.05458 0.78
8 6 1 1 o 5788.228 5709.391 180.00 1.05428 0.14
4 9 5 1 o 19061.082 18806.898 180.00 1.05428 0.48
4 11 2 2 o 635.302 620.777 180.00 1.05696 0.01
7 8 1 2 o 1984.994 1980.099 0.00 1.05639 0.02
1 1 9 1 o 22951.074 22938.844 180.00 1.05364 0.52
2 12 2 2 o 7025.938 6976.198 180.00 1.05667 0.08
5 8 5 1 o 5536.457 5530.800 0.00 1.05368 0.16
0 6 8 1 o 12809.277 12800.713 0.00 1.05347 0.15
9 2 1 1 o 25296.678 24981.496 0.00 1.05278 0.59
2 11 4 2 o 9345.984 9246.780 180.00 1.05560 0.12
7 6 4 1 o 19276.844 19139.744 180.00 1.05260 0.45
5 9 4 2 o 8127.592 8042.624 180.00 1.05530 0.10
7 7 3 2 o 29482.998 30001.643 180.00 1.05458 0.37
8 6 1 2 o 5625.074 5709.391 180.00 1.05428 0.07
4 9 5 2 o 18538.256 18806.898 180.00 1.05428 0.23
1 1 9 2 o 23166.877 22938.844 180.00 1.05364 0.26
5 8 5 2 o 5583.322 5530.800 0.00 1.05368 0.08
1 8 7 1 o 28946.664 28584.295 180.00 1.05099 0.74
0 6 8 2 o 13001.602 12800.713 0.00 1.05347 0.07
9 2 1 2 o 25321.482 24981.496 0.00 1.05278 0.29
7 6 4 2 o 19302.346 19139.744 180.00 1.05260 0.22
3 7 7 1 o 10750.144 10630.587 180.00 1.05010 0.27
4 10 4 1 o 8361.449 8327.809 180.00 1.04935 0.20
4 6 7 1 o 41.515 41.255 180.00 1.04892 0.00
1 8 7 2 o 28616.920 28584.295 180.00 1.05099 0.36
3 7 7 2 o 11362.772 10630.587 180.00 1.05010 0.14
8 3 4 1 o 28.618 28.335 180.00 1.04727 0.00
1 6 8 1 o 1866.561 1761.978 0.00 1.04725 0.05
9 0 2 1 o 10829.880 10662.427 0.00 1.04684 0.13
4 10 4 2 o 8373.163 8327.809 180.00 1.04935 0.10
4 6 7 2 o 37.253 41.255 180.00 1.04892 0.00
8 3 4 2 o 28.704 28.335 180.00 1.04727 0.00
1 6 8 2 o 1901.134 1761.978 0.00 1.04725 0.02
9 0 2 2 o 11474.711 10662.427 0.00 1.04684 0.07
3 12 1 1 o 3180.104 2993.150 0.00 1.04456 0.07
1 2 9 1 o 8144.984 7574.509 180.00 1.04392 0.22
9 1 2 1 o 33271.242 32108.768 0.00 1.04363 0.74
7 0 6 1 o 5917.642 5874.493 0.00 1.04332 0.07
1 12 3 1 o 19537.502 18793.793 180.00 1.04369 0.50
6 5 6 1 o 24324.672 24490.516 0.00 1.04275 0.58
6 8 4 1 o 458.041 464.293 180.00 1.04233 0.01
4 3 8 1 o 661.975 714.301 0.00 1.04201 0.02
3 12 1 2 o 2879.374 2993.150 0.00 1.04456 0.03
1 2 9 2 o 7280.415 7574.509 180.00 1.04392 0.10
9 1 2 2 o 31698.563 32108.768 0.00 1.04363 0.35
7 0 6 2 o 5935.688 5874.493 0.00 1.04332 0.03
1 12 3 2 o 18496.365 18793.793 180.00 1.04369 0.23
7 1 6 1 o 2737.447 2722.153 180.00 1.04015 0.06
6 5 6 2 o 24718.271 24490.516 0.00 1.04275 0.30
4 8 6 1 o 17475.559 17366.990 0.00 1.04016 0.40
8 5 3 1 o 7266.017 7773.625 180.00 1.03963 0.16
6 8 4 2 o 450.427 464.293 180.00 1.04233 0.00
4 3 8 2 o 610.976 714.301 0.00 1.04201 0.01
6 1 7 1 o 2549.703 2810.256 0.00 1.03874 0.06
5 10 3 1 o 1900.955 1888.130 180.00 1.03792 0.04
7 1 6 2 o 2782.183 2722.153 180.00 1.04015 0.03
7 8 2 1 o 28514.918 27918.801 180.00 1.03760 0.69
4 8 6 2 o 17720.848 17366.990 0.00 1.04016 0.20
8 5 3 2 o 8000.046 7773.625 180.00 1.03963 0.09
9 3 1 1 o 7506.399 7207.471 180.00 1.03677 0.20
6 1 7 2 o 2903.006 2810.256 0.00 1.03874 0.03
3 10 5 1 o 562.315 534.657 180.00 1.03620 0.02
8 6 2 1 o 25981.334 25889.289 0.00 1.03560 0.62
2 1 9 1 o 88.581 89.073 0.00 1.03531 0.00
5 10 3 2 o 1878.352 1888.130 180.00 1.03792 0.02
7 8 2 2 o 27935.438 27918.801 180.00 1.03760 0.33
6 7 5 1 o 26326.064 25272.736 0.00 1.03449 0.62
9 3 1 2 o 7544.999 7207.471 180.00 1.03677 0.10
9 2 2 1 o 1055.782 1015.699 0.00 1.03418 0.02
0 3 9 1 o 46754.59 45008.19 180.00 1.03418 0.53
3 5 8 1 o 11723.936 11610.375 180.00 1.03373 0.27
3 10 5 2 o 538.608 534.657 180.00 1.03620 0.01
5 7 6 1 o 2.239 2.251 0.00 1.03333 0.00
8 6 2 2 o 25460.223 25889.289 0.00 1.03560 0.30
2 1 9 2 o 89.690 89.073 0.00 1.03531 0.00
2 8 7 1 o 5.501 5.456 180.00 1.03279 0.00
7 5 5 1 o 1178.784 1163.892 0.00 1.03196 0.02
6 7 5 2 o 25838.557 25272.736 0.00 1.03449 0.30
9 2 2 2 o 1018.740 1015.699 0.00 1.03418 0.01
0 3 9 2 o 45143.91 45008.19 180.00 1.03418 0.25
6 9 3 1 o 7539.972 7502.529 0.00 1.03169 0.18
3 5 8 2 o 11791.532 11610.375 180.00 1.03373 0.14
7 2 6 1 o 23064.629 22306.377 180.00 1.03079 0.52
5 7 6 2 o 2.278 2.251 0.00 1.03333 0.00
2 8 7 2 o 5.626 5.456 180.00 1.03279 0.00
6 2 7 1 o 6.469 5.732 0.00 1.02942 0.00
7 5 5 2 o 1217.514 1163.892 0.00 1.03196 0.01
5 5 7 1 o 9699.490 9059.190 180.00 1.02943 0.20
2 6 8 1 o 433.428 388.916 180.00 1.02925 0.01
6 9 3 2 o 8211.079 7502.529 0.00 1.03169 0.10
3 9 6 1 o 11668.378 10578.345 0.00 1.02885 0.30
7 2 6 2 o 24697.463 22306.377 180.00 1.03079 0.28
1 3 9 1 o 13350.218 11983.849 180.00 1.02830 0.32
6 2 7 2 o 5.668 5.732 0.00 1.02942 0.00
5 5 7 2 o 9005.042 9059.190 180.00 1.02943 0.09
6 10 0 1 o 618.021 617.428 180.00 1.02707 0.01
2 6 8 2 o 384.179 388.916 180.00 1.02925 0.01
3 9 6 2 o 10552.232 10578.345 0.00 1.02885 0.13
2 2 9 1 o 48776.87 48788.44 180.00 1.02608 1.08
3 12 2 1 o 4993.737 5012.545 180.00 1.02638 0.13
4 11 3 1 o 34208.980 34219.438 180.00 1.02613 0.88
1 3 9 2 o 11941.857 11983.849 180.00 1.02830 0.14
2 12 3 1 o 7364.941 7377.403 180.00 1.02586 0.19
8 4 4 1 o 67938.78 69113.53 0.00 1.02539 1.53
3 11 4 1 o 976.956 993.427 0.00 1.02541 0.03
6 10 0 2 o 611.148 617.428 180.00 1.02707 0.00
0 11 5 1 o 18641.982 18759.836 0.00 1.02448 0.25
2 2 9 2 o 49446.50 48788.44 180.00 1.02608 0.55
3 12 2 2 o 5127.866 5012.545 180.00 1.02638 0.07
4 11 3 2 o 34748.664 34219.438 180.00 1.02613 0.45
0 10 6 1 o 27611.191 27537.143 0.00 1.02334 0.32
2 12 3 2 o 7397.485 7377.403 180.00 1.02586 0.09
8 4 4 2 o 67310.81 69113.53 0.00 1.02539 0.75
3 11 4 2 o 968.192 993.427 0.00 1.02541 0.01
0 11 5 2 o 17456.252 18759.836 0.00 1.02448 0.11
6 10 1 1 o 4168.779 4597.771 0.00 1.02120 0.10
5 11 1 1 o 325.769 347.583 0.00 1.02121 0.01
0 10 6 2 o 25921.758 27537.143 0.00 1.02334 0.15
4 4 8 1 o 9835.462 10227.266 0.00 1.02045 0.18
0 13 1 1 o 87.306 91.364 0.00 1.02040 0.00
8 7 0 1 o 2447.342 2401.014 180.00 1.01967 0.04
0 13 1 2 o 92.604 91.364 0.00 1.02040 0.00
1 10 6 1 o 50992.26 51628.57 0.00 1.01764 1.29
9 3 2 1 o 5495.801 5610.068 0.00 1.01898 0.11
8 7 0 2 o 2251.023 2401.014 180.00 1.01967 0.02
5 0 8 1 o 40437.75 42564.10 0.00 1.01694 0.44
9 3 2 2 o 5383.856 5610.068 0.00 1.01898 0.05
6 10 1 2 o 4582.602 4597.771 0.00 1.02120 0.06
1 11 5 1 o 2923.869 2951.183 180.00 1.01876 0.07
5 11 1 2 o 346.731 347.583 0.00 1.02121 0.00
8 1 5 1 o 44887.42 44118.07 180.00 1.01793 1.00
4 4 8 2 o 10383.717 10227.266 0.00 1.02045 0.10
1 11 5 2 o 2874.716 2951.183 180.00 1.01876 0.04
7 3 6 1 o 1673.471 1628.045 180.00 1.01574 0.04
9 4 1 1 o 4224.903 4089.197 180.00 1.01553 0.09
8 1 5 2 o 45568.51 44118.07 180.00 1.01793 0.51
1 10 6 2 o 52778.34 51628.57 0.00 1.01764 0.67
5 0 8 2 o 42920.74 42564.10 0.00 1.01694 0.24
6 3 7 1 o 792.901 787.099 0.00 1.01444 0.02
1 13 1 1 o 1635.249 1616.129 0.00 1.01475 0.04
5 1 8 1 o 13874.482 14228.861 0.00 1.01400 0.29
9 1 3 1 o 4197.745 4389.690 180.00 1.01392 0.11
8 7 1 1 o 1509.748 1561.969 0.00 1.01393 0.03
7 3 6 2 o 1431.094 1628.045 180.00 1.01574 0.02
9 4 1 2 o 3596.378 4089.197 180.00 1.01553 0.04
7 7 4 1 o 54.598 60.484 0.00 1.01243 0.00
6 3 7 2 o 860.139 787.099 0.00 1.01444 0.01
1 13 1 2 o 1594.008 1616.129 0.00 1.01475 0.02
5 1 8 2 o 16456.770 14228.861 0.00 1.01400 0.18
9 1 3 2 o 5199.934 4389.690 180.00 1.01392 0.07
8 7 1 2 o 1794.366 1561.969 0.00 1.01393 0.02
2 3 9 1 o 1109.494 990.651 180.00 1.01124 0.03
7 7 4 2 o 62.792 60.484 0.00 1.01243 0.00
4 12 0 1 o 17891.098 17494.441 0.00 1.00981 0.22
6 6 6 1 o 350.525 348.627 180.00 1.00938 0.01
8 2 5 1 o 13566.145 13537.739 180.00 1.00915 0.30
4 7 7 1 o 1102.115 1099.903 180.00 1.00915 0.02
2 3 9 2 o 976.416 990.651 180.00 1.01124 0.01
7 8 3 1 o 4921.610 5101.838 0.00 1.00838 0.12
0 12 4 1 o 4973.062 5096.103 0.00 1.00823 0.05
1 7 8 1 o 0.184 0.175 180.00 1.00767 0.00
1 4 9 1 o 81.841 78.871 0.00 1.00756 0.00
4 12 0 2 o 19228.711 17494.441 0.00 1.00981 0.12
6 6 6 2 o 397.335 348.627 180.00 1.00938 0.00
3 1 9 1 o 12491.254 10787.046 0.00 1.00678 0.30
8 2 5 2 o 15529.399 13537.739 180.00 1.00915 0.18
4 7 7 2 o 1250.310 1099.903 180.00 1.00915 0.01
8 6 3 1 o 1097.842 974.082 0.00 1.00655 0.02
7 8 3 2 o 5616.976 5101.838 0.00 1.00838 0.07
0 12 4 2 o 5461.466 5096.103 0.00 1.00823 0.03
5 2 8 1 o 10053.304 9221.040 0.00 1.00532 0.23
9 2 3 1 o 41683.64 38378.09 0.00 1.00525 0.93
1 7 8 2 o 0.196 0.175 180.00 1.00767 0.00
1 4 9 2 o 82.959 78.871 0.00 1.00756 0.00
0 9 7 1 o 1522.595 1420.566 180.00 1.00498 0.02
3 1 9 2 o 11037.825 10787.046 0.00 1.00678 0.13
3 8 7 1 o 10022.922 9643.724 0.00 1.00446 0.23
7 9 1 1 o 10738.819 10595.398 0.00 1.00423 0.30
8 6 3 2 o 962.944 974.082 0.00 1.00655 0.01
6 10 2 1 o 7611.644 7559.556 180.00 1.00420 0.19
5 11 2 1 o 11673.694 11585.489 0.00 1.00420 0.30
4 12 1 1 o 3336.488 3291.249 0.00 1.00424 0.09
2 13 0 1 o 32584.930 34483.129 0.00 1.00382 0.45
5 2 8 2 o 8473.694 9221.040 0.00 1.00532 0.09
9 2 3 2 o 35492.03 38378.09 0.00 1.00525 0.38
1 12 4 1 o 3229.199 3487.703 0.00 1.00278 0.08
0 9 7 2 o 1336.437 1420.566 180.00 1.00498 0.01
2 11 5 1 o 8277.044 8698.703 0.00 1.00216 0.20
3 8 7 2 o 9200.043 9643.724 0.00 1.00446 0.10
5 9 5 1 o 3385.952 3514.306 180.00 1.00190 0.06
7 9 1 2 o 10026.709 10595.398 0.00 1.00423 0.14
6 10 2 2 o 7217.871 7559.556 180.00 1.00420 0.09
5 11 2 2 o 11044.221 11585.489 0.00 1.00420 0.14
4 12 1 2 o 3130.966 3291.249 0.00 1.00424 0.04
3 6 8 1 o 45556.44 48222.38 180.00 1.00120 1.03
2 13 0 2 o 32767.621 34483.129 0.00 1.00382 0.22
2 10 6 1 o 2298.290 2464.199 180.00 1.00109 0.06
1 12 4 2 o 3085.367 3487.703 0.00 1.00278 0.04
7 6 5 1 o 682.151 702.375 0.00 0.99959 0.02
2 11 5 2 o 8310.442 8698.703 0.00 1.00216 0.10
1 9 7 1 o 6558.773 6727.880 180.00 0.99958 0.17
5 9 5 2 o 3524.764 3514.306 180.00 1.00190 0.03
8 5 4 1 o 6113.657 5921.620 0.00 0.99917 0.12
9 4 2 1 o 30.747 28.993 180.00 0.99880 0.00
3 6 8 2 o 50654.48 48222.38 180.00 1.00120 0.59
2 10 6 2 o 2589.420 2464.199 180.00 1.00109 0.04
3 2 9 1 o 85.425 77.947 180.00 0.99829 0.01
2 13 1 1 o 18021.623 17454.467 0.00 0.99834 0.49
3 12 3 1 o 18742.168 18413.611 0.00 0.99808 0.52
1 13 2 1 o 12643.693 12459.798 180.00 0.99806 0.33
5 10 4 1 o 16428.182 16608.078 0.00 0.99766 0.42
5 6 7 1 o 32068.096 33102.418 180.00 0.99729 0.76
8 7 2 1 o 1106.276 1156.085 0.00 0.99728 0.04
7 6 5 2 o 674.515 702.375 0.00 0.99959 0.01
1 9 7 2 o 6488.190 6727.880 180.00 0.99958 0.08
8 5 4 2 o 5808.312 5921.620 0.00 0.99917 0.06
4 10 5 1 o 293.862 301.364 0.00 0.99680 0.01
9 4 2 2 o 29.499 28.993 180.00 0.99880 0.00
3 2 9 2 o 91.525 77.947 180.00 0.99829 0.00
7 4 6 1 o 66300.22 63024.97 180.00 0.99574 1.49
2 13 1 2 o 18363.639 17454.467 0.00 0.99834 0.25
3 12 3 2 o 19329.086 18413.611 0.00 0.99808 0.27
1 13 2 2 o 13006.619 12459.798 180.00 0.99806 0.17
8 3 5 1 o 9453.203 9665.736 0.00 0.99502 0.20
5 10 4 2 o 16632.127 16608.078 0.00 0.99766 0.21
5 6 7 2 o 31741.324 33102.418 180.00 0.99729 0.38
8 7 2 2 o 1090.388 1156.085 0.00 0.99728 0.02
4 5 8 1 o 682.067 706.440 0.00 0.99460 0.01
6 4 7 1 o 159.937 168.109 180.00 0.99451 0.00
4 10 5 2 o 294.887 301.364 0.00 0.99680 0.00
7 4 6 2 o 66860.08 63024.97 180.00 0.99574 0.75
8 3 5 2 o 9689.641 9665.736 0.00 0.99502 0.10
4 5 8 2 o 698.357 706.440 0.00 0.99460 0.01
6 4 7 2 o 164.577 168.109 180.00 0.99451 0.00
6 9 4 1 o 27382.455 27758.281 180.00 0.99212 0.63
2 7 8 1 o 211.242 215.731 180.00 0.99160 0.01
2 4 9 1 o 12227.044 12388.453 0.00 0.99150 0.28
5 3 8 1 o 3012.450 3032.634 0.00 0.99135 0.06
9 3 3 1 o 5747.633 5772.279 180.00 0.99128 0.11
6 8 5 1 o 30068.760 30542.580 180.00 0.99078 0.71
9 5 1 1 o 3771.390 4036.089 180.00 0.99004 0.10
4 9 6 1 o 60.106 60.686 0.00 0.99025 0.00
5 8 6 1 o 18243.156 19486.395 0.00 0.98975 0.41
6 9 4 2 o 26004.088 27758.281 180.00 0.99212 0.29
2 7 8 2 o 202.710 215.731 180.00 0.99160 0.00
2 4 9 2 o 11801.446 12388.453 0.00 0.99150 0.13
5 3 8 2 o 2886.284 3032.634 0.00 0.99135 0.03
9 3 3 2 o 5485.101 5772.279 180.00 0.99128 0.05
6 8 5 2 o 28047.707 30542.580 180.00 0.99078 0.33
7 9 2 1 o 4279.074 4706.693 0.00 0.98804 0.10
0 5 9 1 o 2063.679 2312.215 180.00 0.98779 0.02
4 12 2 1 o 18144.621 20120.598 0.00 0.98805 0.50
9 5 1 2 o 3454.561 4036.089 180.00 0.99004 0.05
4 9 6 2 o 59.338 60.686 0.00 0.99025 0.00
5 8 6 2 o 16779.334 19486.395 0.00 0.98975 0.18
4 11 4 1 o 2.884 19.179 0.00 0.98718 0.00
2 12 4 1 o 10198.458 12765.732 180.00 0.98694 0.28
7 9 2 2 o 3931.477 4706.693 0.00 0.98804 0.04
0 5 9 2 o 2019.735 2312.215 180.00 0.98779 0.01
4 12 2 2 o 16501.424 20120.598 0.00 0.98805 0.22
3 3 9 1 o 17688.475 17690.566 0.00 0.98460 0.37
4 11 4 2 o 18.398 19.179 0.00 0.98718 0.00
2 12 4 2 o 12778.423 12765.732 180.00 0.98694 0.18
2 9 7 1 o 1825.846 1836.431 0.00 0.98389 0.05
1 5 9 1 o 12677.815 11259.265 180.00 0.98266 0.29
3 3 9 2 o 19147.279 17690.566 0.00 0.98460 0.20
2 13 2 1 o 3378.674 2994.799 0.00 0.98243 0.10
2 9 7 2 o 1933.209 1836.431 0.00 0.98389 0.02
1 5 9 2 o 11398.302 11259.265 180.00 0.98266 0.13
2 13 2 2 o 2889.172 2994.799 0.00 0.98243 0.04
9 0 4 1 o 13199.012 11547.571 0.00 0.97891 0.15
8 8 0 1 o 58093.59 50977.56 0.00 0.97773 0.70
6 10 3 1 o 823.704 741.725 180.00 0.97764 0.02
5 11 3 1 o 1147.033 1009.828 0.00 0.97765 0.03
9 0 4 2 o 11600.415 11547.571 0.00 0.97891 0.07
0 13 3 1 o 30526.725 30347.633 180.00 0.97694 0.42
9 1 4 1 o 4261.285 4240.958 0.00 0.97629 0.09
8 4 5 1 o 2852.810 2839.007 0.00 0.97620 0.06
3 11 5 1 o 15186.510 15114.252 0.00 0.97621 0.38
8 8 0 2 o 50786.33 50977.56 0.00 0.97773 0.30
6 10 3 2 o 739.497 741.725 180.00 0.97764 0.01
3 10 6 1 o 1325.827 1330.088 0.00 0.97523 0.03
5 11 3 2 o 1006.106 1009.828 0.00 0.97765 0.01
9 5 2 1 o 41525.64 42016.88 180.00 0.97452 0.92
0 13 3 2 o 29997.973 30347.633 180.00 0.97694 0.20
9 1 4 2 o 4231.168 4240.958 0.00 0.97629 0.04
8 4 5 2 o 2847.906 2839.007 0.00 0.97620 0.03
6 7 6 1 o 1145.639 1141.142 0.00 0.97380 0.04
3 11 5 2 o 15144.447 15114.252 0.00 0.97621 0.19
5 4 8 1 o 2049.406 1915.324 0.00 0.97273 0.05
9 4 3 1 o 7066.344 6657.379 180.00 0.97266 0.16
3 10 6 2 o 1431.036 1330.088 0.00 0.97523 0.02
8 8 1 1 o 6290.675 5902.378 0.00 0.97267 0.15
3 13 1 1 o 4568.923 4335.115 0.00 0.97268 0.10
9 5 2 2 o 44017.81 42016.88 180.00 0.97452 0.50
0 8 8 1 o 14935.288 14154.865 0.00 0.97203 0.19
7 5 6 1 o 3239.037 3047.751 0.00 0.97168 0.07
1 13 3 1 o 2127.210 2011.385 0.00 0.97198 0.06
6 7 6 2 o 1246.967 1141.142 0.00 0.97380 0.02
7 8 4 1 o 16082.051 15176.855 180.00 0.97134 0.38
8 7 3 1 o 32797.809 31055.162 180.00 0.97126 0.76
4 1 9 1 o 17687.768 16916.865 180.00 0.97052 0.39
6 5 7 1 o 705.024 678.173 0.00 0.97054 0.01
5 4 8 2 o 2002.505 1915.324 0.00 0.97273 0.02
9 4 3 2 o 6934.823 6657.379 180.00 0.97266 0.08
8 8 1 2 o 6164.786 5902.378 0.00 0.97267 0.08
3 13 1 2 o 4492.336 4335.115 0.00 0.97268 0.05
8 6 4 1 o 328.348 324.596 180.00 0.96971 0.01
0 8 8 2 o 14337.216 14154.865 0.00 0.97203 0.09
7 5 6 2 o 3068.073 3047.751 0.00 0.97168 0.03
1 13 3 2 o 2034.934 2011.385 0.00 0.97198 0.03
7 8 4 2 o 15171.836 15176.855 180.00 0.97134 0.18
8 7 3 2 o 30974.344 31055.162 180.00 0.97126 0.35
9 2 4 1 o 5204.670 5332.762 0.00 0.96854 0.12
7 1 7 1 o 41106.41 42532.96 0.00 0.96844 0.84
4 8 7 1 o 6.123 6.412 0.00 0.96845 0.00
6 11 0 1 o 6956.027 7092.719 180.00 0.96856 0.08
4 1 9 2 o 15432.336 16916.865 180.00 0.97052 0.16
6 5 7 2 o 628.068 678.173 0.00 0.97054 0.01
2 5 9 1 o 40.030 47.277 180.00 0.96774 0.00
8 6 4 2 o 277.398 324.596 180.00 0.96971 0.00
1 8 8 1 o 1529.042 1822.490 0.00 0.96714 0.03
3 7 8 1 o 16.273 17.058 0.00 0.96645 0.00
3 4 9 1 o 383.721 398.176 180.00 0.96635 0.01
9 2 4 2 o 5213.884 5332.762 0.00 0.96854 0.06
7 1 7 2 o 41733.93 42532.96 0.00 0.96844 0.43
4 8 7 2 o 6.244 6.412 0.00 0.96845 0.00
6 11 0 2 o 6949.667 7092.719 180.00 0.96856 0.04
10 0 0 1 o 101.220 100.689 0.00 0.96554 0.00
4 6 8 1 o 3758.842 3720.473 180.00 0.96552 0.08
2 5 9 2 o 48.349 47.277 180.00 0.96774 0.00
7 7 5 1 o 24655.670 23889.217 0.00 0.96499 0.61
1 8 8 2 o 1865.992 1822.490 0.00 0.96714 0.02
3 7 8 2 o 17.055 17.058 0.00 0.96645 0.00
3 4 9 2 o 393.844 398.176 180.00 0.96635 0.00
6 11 1 1 o 25968.242 27047.484 0.00 0.96364 0.64
10 0 0 2 o 98.612 100.689 0.00 0.96554 0.00
10 1 0 1 o 13399.782 13726.480 180.00 0.96302 0.13
4 6 8 2 o 3594.979 3720.473 180.00 0.96552 0.04
4 2 9 1 o 2353.320 2396.116 180.00 0.96291 0.05
5 7 7 1 o 286.004 293.575 180.00 0.96293 0.01
7 9 3 1 o 5159.595 5209.395 0.00 0.96272 0.10
7 7 5 2 o 23553.510 23889.217 0.00 0.96499 0.29
8 0 6 1 o 3829.238 3922.162 180.00 0.96244 0.04
4 12 3 1 o 492.238 497.943 180.00 0.96273 0.01
3 12 4 1 o 5406.359 5630.331 180.00 0.96213 0.13
9 6 1 1 o 12662.166 12822.969 180.00 0.96135 0.30
6 11 1 2 o 26660.289 27047.484 0.00 0.96364 0.33
7 2 7 1 o 3434.642 3574.170 180.00 0.96088 0.07
10 1 0 2 o 13107.977 13726.480 180.00 0.96302 0.07
4 2 9 2 o 2288.917 2396.116 180.00 0.96291 0.02
5 7 7 2 o 275.375 293.575 180.00 0.96293 0.00
1 11 6 1 o 4660.443 4906.251 0.00 0.96064 0.12
7 9 3 2 o 5062.094 5209.395 0.00 0.96272 0.05
8 0 6 2 o 3860.802 3922.162 180.00 0.96244 0.02
6 0 8 1 o 2639.157 2672.528 180.00 0.96005 0.03
4 12 3 2 o 480.846 497.943 180.00 0.96273 0.01
8 1 6 1 o 10200.986 10288.624 180.00 0.95995 0.26
3 12 4 2 o 5657.500 5630.331 180.00 0.96213 0.07
3 9 7 1 o 18690.486 18286.260 0.00 0.95930 0.43
9 6 1 2 o 13275.886 12822.969 180.00 0.96135 0.16
7 2 7 2 o 3714.438 3574.170 180.00 0.96088 0.04
5 12 1 1 o 10296.035 9909.774 0.00 0.95865 0.25
10 1 1 1 o 35943.54 34611.039 0.00 0.95818 0.81
1 11 6 2 o 5106.970 4906.251 0.00 0.96064 0.07
8 8 2 1 o 17079.887 16625.477 0.00 0.95794 0.41
6 0 8 2 o 2683.820 2672.528 180.00 0.96005 0.01
8 1 6 2 o 10200.729 10288.624 180.00 0.95995 0.13
6 1 8 1 o 17927.545 18099.479 0.00 0.95757 0.43
3 13 2 1 o 8691.167 8450.446 0.00 0.95795 0.24
2 13 3 1 o 7456.411 7562.389 0.00 0.95753 0.20
0 0 10 1 o 16127.374 17001.484 0.00 0.95700 0.07
3 9 7 2 o 17246.354 18286.260 0.00 0.95930 0.19
1 12 5 1 o 141.846 144.252 0.00 0.95663 0.00
9 3 4 1 o 1748.057 1686.037 0.00 0.95603 0.04
5 12 1 2 o 9983.038 9909.774 0.00 0.95865 0.12
10 1 1 2 o 36025.73 34611.039 0.00 0.95818 0.41
10 2 0 1 o 28264.883 27319.637 180.00 0.95558 0.33
8 8 2 2 o 17174.396 16625.477 0.00 0.95794 0.20
6 1 8 2 o 18368.158 18099.479 0.00 0.95757 0.22
3 13 2 2 o 8737.932 8450.446 0.00 0.95795 0.12
2 13 3 2 o 7649.272 7562.389 0.00 0.95753 0.10
0 0 10 2 o 17225.414 17001.484 0.00 0.95700 0.04
1 6 9 1 o 2885.234 2819.776 0.00 0.95459 0.08
7 10 1 1 o 236.613 226.135 0.00 0.95418 0.01
1 12 5 2 o 146.697 144.252 0.00 0.95663 0.00
9 3 4 2 o 1825.989 1686.037 0.00 0.95603 0.02
8 5 5 1 o 1300.664 1191.082 180.00 0.95350 0.03
10 2 0 2 o 30282.113 27319.637 180.00 0.95558 0.18
2 8 8 1 o 461.867 390.262 0.00 0.95291 0.02
8 2 6 1 o 5682.374 5291.486 0.00 0.95258 0.12
0 14 0 1 o 109374.66 98830.98 0.00 0.95295 0.76
1 0 10 1 o 35121.29 34009.605 0.00 0.95233 0.40
1 6 9 2 o 2860.309 2819.776 0.00 0.95459 0.04
5 10 5 1 o 0.710 0.713 180.00 0.95218 0.00
7 10 1 2 o 216.133 226.135 0.00 0.95418 0.00
8 5 5 2 o 1237.403 1191.082 180.00 0.95350 0.01
10 2 1 1 o 14848.427 14026.267 180.00 0.95086 0.32
4 3 9 1 o 38886.37 37097.18 0.00 0.95061 0.88
2 8 8 2 o 418.707 390.262 0.00 0.95291 0.01
8 2 6 2 o 5271.352 5291.486 0.00 0.95258 0.06
6 2 8 1 o 55.609 55.621 0.00 0.95026 0.00
5 5 8 1 o 19441.219 19436.260 180.00 0.95026 0.43
9 5 3 1 o 867.774 872.774 180.00 0.95020 0.01
0 14 0 2 o 103380.93 98830.98 0.00 0.95295 0.36
1 0 10 2 o 32689.635 34009.605 0.00 0.95233 0.18
1 10 7 1 o 149.833 149.925 180.00 0.95019 0.00
1 1 10 1 o 2802.870 2936.050 0.00 0.94992 0.06
5 10 5 2 o -0.357 0.713 180.00 0.95218 0.00
6 11 2 1 o 2754.767 2886.386 180.00 0.94931 0.09
7 3 7 1 o 3417.036 3308.012 180.00 0.94865 0.06
10 2 1 2 o 14674.443 14026.267 180.00 0.95086 0.16
4 3 9 2 o 38844.96 37097.18 0.00 0.95061 0.44
6 2 8 2 o 59.017 55.621 0.00 0.95026 0.00
5 5 8 2 o 20104.840 19436.260 180.00 0.95026 0.22
9 5 3 2 o 891.954 872.774 180.00 0.95020 0.01
1 10 7 2 o 150.252 149.925 180.00 0.95019 0.00
1 1 10 2 o 3108.575 2936.050 0.00 0.94992 0.03
0 2 10 1 o 5322.423 4892.334 180.00 0.94730 0.06
6 9 5 1 o 3236.580 2985.309 0.00 0.94736 0.08
9 6 2 1 o 2776.286 2558.937 0.00 0.94712 0.06
6 11 2 2 o 3225.539 2886.386 180.00 0.94931 0.05
10 0 2 1 o 3361.206 3218.554 180.00 0.94647 0.03
2 11 6 1 o 8510.475 7820.220 180.00 0.94669 0.24
7 3 7 2 o 3368.027 3308.012 180.00 0.94865 0.03
5 9 6 1 o 24042.889 22888.658 0.00 0.94647 0.59
0 2 10 2 o 5092.036 4892.334 180.00 0.94730 0.03
6 9 5 2 o 3060.680 2985.309 0.00 0.94736 0.04
9 6 2 2 o 2760.416 2558.937 0.00 0.94712 0.03
7 6 6 1 o 87.326 76.880 0.00 0.94452 0.00
3 5 9 1 o 9371.447 8238.962 0.00 0.94431 0.20
5 12 2 1 o 3555.252 3123.495 0.00 0.94454 0.10
10 0 2 2 o 3658.176 3218.554 180.00 0.94647 0.02
10 1 2 1 o 3599.432 3046.299 180.00 0.94409 0.10
2 11 6 2 o 9117.300 7820.220 180.00 0.94669 0.13
4 13 0 1 o 385.358 351.387 0.00 0.94444 0.00
5 9 6 2 o 26450.092 22888.658 0.00 0.94647 0.34
10 3 0 1 o 2223.925 2020.256 180.00 0.94356 0.02
6 10 4 1 o 24417.719 21411.375 180.00 0.94378 0.62
5 11 4 1 o 2314.164 2020.064 0.00 0.94378 0.06
6 6 7 1 o 39.452 33.476 180.00 0.94346 0.00
4 13 0 2 o 349.429 351.387 0.00 0.94444 0.00
1 14 1 1 o 3674.353 3098.466 0.00 0.94372 0.14
10 3 0 2 o 2123.865 2020.256 180.00 0.94356 0.01
6 10 4 2 o 22367.432 21411.375 180.00 0.94378 0.28
5 11 4 2 o 2112.829 2020.064 0.00 0.94378 0.03
4 11 5 1 o 73852.64 67816.90 180.00 0.94305 1.94
1 2 10 1 o 9444.935 9091.456 0.00 0.94277 0.21
6 6 7 2 o 36.962 33.476 180.00 0.94346 0.00
1 14 1 2 o 3313.457 3098.466 0.00 0.94372 0.06
2 12 5 1 o 44945.81 42755.67 180.00 0.94284 1.18
2 6 9 1 o 28470.959 26337.879 0.00 0.94089 0.67
8 3 6 1 o 5469.909 5034.370 180.00 0.94066 0.15
7 6 6 2 o 76.082 76.880 0.00 0.94452 0.00
4 11 5 2 o 72962.04 67816.90 180.00 0.94305 0.96
1 2 10 2 o 9520.201 9091.456 0.00 0.94277 0.11
4 10 6 1 o 6999.965 7077.042 180.00 0.94217 0.19
3 5 9 2 o 8218.313 8238.962 0.00 0.94431 0.08
5 12 2 2 o 3088.528 3123.495 0.00 0.94454 0.04
10 1 2 2 o 3094.677 3046.299 180.00 0.94409 0.04
2 12 5 2 o 45131.14 42755.67 180.00 0.94284 0.60
7 10 2 1 o 18440.869 18144.842 0.00 0.94026 0.45
4 10 6 2 o 6668.585 7077.042 180.00 0.94217 0.09
4 13 1 1 o 40327.62 42416.22 180.00 0.93987 1.05
9 4 4 1 o 1574.380 1689.022 0.00 0.93929 0.03
10 3 1 1 o 7.946 8.093 0.00 0.93901 0.00
2 0 10 1 o 282.471 282.228 0.00 0.93873 0.00
2 6 9 2 o 26571.186 26337.879 0.00 0.94089 0.31
6 3 8 1 o 7767.606 7678.443 0.00 0.93843 0.20
8 3 6 2 o 5094.417 5034.370 180.00 0.94066 0.07
1 13 4 1 o 2483.806 2470.912 180.00 0.93868 0.07
8 7 4 1 o 1127.221 1117.072 180.00 0.93803 0.04
7 10 2 2 o 18257.275 18144.842 0.00 0.94026 0.22
4 13 1 2 o 42862.26 42416.22 180.00 0.93987 0.57
10 2 2 1 o 10080.327 9760.527 180.00 0.93708 0.22
9 4 4 2 o 1753.301 1689.022 0.00 0.93929 0.02
6 8 6 1 o 865.910 834.559 180.00 0.93708 0.02
10 3 1 2 o 8.361 8.093 0.00 0.93901 0.00
2 10 7 1 o 23.170 21.442 180.00 0.93668 0.00
2 0 10 2 o 288.717 282.228 0.00 0.93873 0.00
2 1 10 1 o 27961.371 26569.055 180.00 0.93642 0.65
6 3 8 2 o 7925.332 7678.443 0.00 0.93843 0.10
1 13 4 2 o 2586.077 2470.912 180.00 0.93868 0.03
8 9 0 1 o 14567.699 14290.923 0.00 0.93594 0.19
8 7 4 2 o 1152.033 1117.072 180.00 0.93803 0.02
10 2 2 2 o 9573.586 9760.527 180.00 0.93708 0.10
8 8 3 1 o 944.205 956.957 180.00 0.93481 0.02
6 8 6 2 o 815.815 834.559 180.00 0.93708 0.01
2 14 0 1 o 10943.889 10923.447 180.00 0.93491 0.17
3 13 3 1 o 32499.652 32912.480 0.00 0.93482 0.91
0 14 2 1 o 29099.691 30713.938 0.00 0.93459 0.42
2 10 7 2 o 19.062 21.442 180.00 0.93668 0.00
4 7 8 1 o 759.607 880.679 180.00 0.93424 0.03
4 4 9 1 o 387.726 431.757 0.00 0.93415 0.01
2 1 10 2 o 23541.418 26569.055 180.00 0.93642 0.26
9 1 5 1 o 1659.858 1813.987 180.00 0.93355 0.02
8 9 0 2 o 12307.572 14290.923 0.00 0.93594 0.08
8 8 3 2 o 873.026 956.957 180.00 0.93481 0.01
7 4 7 1 o 757.875 838.041 0.00 0.93230 0.02
2 14 0 2 o 9829.241 10923.447 180.00 0.93491 0.07
3 13 3 2 o 29736.736 32912.480 0.00 0.93482 0.41
0 14 2 2 o 27509.969 30713.938 0.00 0.93459 0.20
4 7 8 2 o 756.514 880.679 180.00 0.93424 0.01
4 4 9 2 o 391.129 431.757 0.00 0.93415 0.00
8 9 1 1 o 16989.516 18366.475 180.00 0.93149 0.40
9 1 5 2 o 1756.671 1813.987 180.00 0.93355 0.01
1 3 10 1 o 1518.982 1597.237 0.00 0.93122 0.04
9 7 1 1 o 883.236 886.347 0.00 0.93046 0.03
3 8 8 1 o 32402.729 32330.686 180.00 0.93052 0.77
7 9 4 1 o 1032.563 1051.203 0.00 0.93033 0.03
2 14 1 1 o 246.706 247.024 180.00 0.93048 0.01
4 12 4 1 o 740.666 748.910 0.00 0.93034 0.01
7 4 7 2 o 793.518 838.041 0.00 0.93230 0.01
1 14 2 1 o 30907.758 31811.941 0.00 0.93024 0.86
2 2 10 1 o 22.022 22.491 0.00 0.92957 0.00
5 1 9 1 o 3262.906 3240.961 180.00 0.92920 0.06
7 8 5 1 o 68.835 68.512 180.00 0.92922 0.00
8 9 1 2 o 18510.391 18366.475 180.00 0.93149 0.22
1 3 10 2 o 1653.816 1597.237 0.00 0.93122 0.02
0 7 9 1 o 41295.47 39623.04 0.00 0.92859 0.49
9 7 1 2 o 932.056 886.347 0.00 0.93046 0.01
3 8 8 2 o 33641.477 32330.686 180.00 0.93052 0.40
7 9 4 2 o 1089.412 1051.203 0.00 0.93033 0.01
8 6 5 1 o 6424.181 6308.808 0.00 0.92779 0.15
2 14 1 2 o 257.481 247.024 180.00 0.93048 0.00
4 12 4 2 o 766.849 748.910 0.00 0.93034 0.01
4 9 7 1 o 1977.912 1941.234 180.00 0.92778 0.05
1 14 2 2 o 32799.219 31811.941 0.00 0.93024 0.47
10 4 0 1 o 41896.89 42444.10 180.00 0.92746 0.46
2 2 10 2 o 22.137 22.491 0.00 0.92957 0.00
5 8 7 1 o 17554.711 17933.426 0.00 0.92737 0.40
5 1 9 2 o 3115.574 3240.961 180.00 0.92920 0.03
7 8 5 2 o 65.667 68.512 180.00 0.92922 0.00
9 2 5 1 o 696.506 719.963 180.00 0.92676 0.01
6 11 3 1 o 4398.905 4603.622 0.00 0.92678 0.11
1 9 8 1 o 12179.205 12515.000 180.00 0.92663 0.29
4 13 2 1 o 489.365 500.104 0.00 0.92656 0.02
0 7 9 2 o 40608.44 39623.04 0.00 0.92859 0.24
10 3 2 1 o 2998.753 2627.212 180.00 0.92573 0.09
8 6 5 2 o 7161.342 6308.808 0.00 0.92779 0.09
4 9 7 2 o 2214.979 1941.234 180.00 0.92778 0.03
2 13 4 1 o 25776.645 22945.672 180.00 0.92565 0.74
10 4 0 2 o 48714.02 42444.10 180.00 0.92746 0.28
5 8 7 2 o 20514.676 17933.426 0.00 0.92737 0.25
5 6 8 1 o 29501.934 26241.172 0.00 0.92481 0.72
9 6 3 1 o 18969.361 17121.400 180.00 0.92475 0.44
8 4 6 1 o 25095.482 22746.717 0.00 0.92471 0.59
9 2 5 2 o 751.120 719.963 180.00 0.92676 0.01
3 11 6 1 o 2542.487 2293.451 180.00 0.92472 0.07
6 11 3 2 o 4885.509 4603.622 0.00 0.92678 0.07
1 7 9 1 o 13565.281 13268.463 180.00 0.92432 0.30
1 9 8 2 o 12874.940 12515.000 180.00 0.92663 0.16
4 13 2 2 o 510.861 500.104 0.00 0.92656 0.01
10 3 2 2 o 2840.457 2627.212 180.00 0.92573 0.04
10 4 1 1 o 4992.369 4529.463 0.00 0.92314 0.12
2 13 4 2 o 24745.629 22945.672 180.00 0.92565 0.35
6 4 8 1 o 34.007 33.655 0.00 0.92259 0.00
5 2 9 1 o 157.634 154.629 0.00 0.92251 0.00
5 6 8 2 o 28001.449 26241.172 0.00 0.92481 0.34
9 6 3 2 o 18005.750 17121.400 180.00 0.92475 0.21
8 4 6 2 o 23751.307 22746.717 0.00 0.92471 0.27
3 11 6 2 o 2404.573 2293.451 180.00 0.92472 0.03
5 12 3 1 o 30145.236 29533.730 0.00 0.92235 0.81
10 1 3 1 o 2533.462 2856.389 0.00 0.92193 0.05
1 7 9 2 o 12315.573 13268.463 180.00 0.92432 0.13
10 4 1 2 o 3959.313 4529.463 0.00 0.92314 0.05
3 12 5 1 o 605.050 738.874 180.00 0.92114 0.02
6 4 8 2 o 33.384 33.655 0.00 0.92259 0.00
5 2 9 2 o 151.607 154.629 0.00 0.92251 0.00
0 4 10 1 o 17136.324 18952.928 180.00 0.91988 0.16
5 12 3 2 o 27215.926 29533.730 0.00 0.92235 0.36
10 1 3 2 o 2440.326 2856.389 0.00 0.92193 0.03
3 6 9 1 o 106.875 170.082 0.00 0.91932 0.01
9 5 4 1 o 7068.717 8261.818 180.00 0.91902 0.16
3 12 5 2 o 626.371 738.874 180.00 0.92114 0.01
2 3 10 1 o 6016.686 7393.896 180.00 0.91849 0.14
8 9 2 1 o 60.119 64.801 0.00 0.91853 0.00
7 10 3 1 o 1143.671 1494.336 0.00 0.91836 0.03
0 4 10 2 o 13785.996 18952.928 180.00 0.91988 0.06
9 7 2 1 o 3.406 4.108 0.00 0.91754 0.00
3 0 10 1 o 544.860 780.229 180.00 0.91731 0.01
2 14 2 1 o 3212.445 4396.549 180.00 0.91756 0.06
3 6 9 2 o 63.551 170.082 0.00 0.91932 0.00
9 5 4 2 o 6564.464 8261.818 180.00 0.91902 0.07
2 3 10 2 o 7594.486 7393.896 180.00 0.91849 0.09
8 9 2 2 o 65.114 64.801 0.00 0.91853 0.00
7 10 3 2 o 1602.933 1494.336 0.00 0.91836 0.02
9 3 5 1 o 10784.506 10083.537 180.00 0.91578 0.28
1 4 10 1 o 1477.833 1411.285 0.00 0.91574 0.03
10 2 3 1 o 3939.361 4237.073 0.00 0.91540 0.09
9 7 2 2 o 3.840 4.108 0.00 0.91754 0.00
3 10 7 1 o 6853.023 7500.367 0.00 0.91539 0.20
3 1 10 1 o 1550.070 1877.917 180.00 0.91515 0.03
7 7 6 1 o 135.039 170.679 180.00 0.91517 0.00
3 0 10 2 o 624.148 780.229 180.00 0.91731 0.00
2 14 2 2 o 3971.157 4396.549 180.00 0.91756 0.05
6 12 0 1 o 5474.578 7261.403 180.00 0.91470 0.06
4 5 9 1 o 1149.149 1319.331 0.00 0.91420 0.03
6 7 7 1 o 1543.695 1801.898 0.00 0.91421 0.04
2 9 8 1 o 8279.592 9002.271 180.00 0.91409 0.18
9 3 5 2 o 10050.735 10083.537 180.00 0.91578 0.13
1 4 10 2 o 1401.579 1411.285 0.00 0.91574 0.01
10 2 3 2 o 4095.257 4237.073 0.00 0.91540 0.05
3 10 7 2 o 7195.175 7500.367 0.00 0.91539 0.11
3 1 10 2 o 1853.873 1877.917 180.00 0.91515 0.02
7 7 6 2 o 167.052 170.679 180.00 0.91517 0.00
7 5 7 1 o 10101.690 9422.224 0.00 0.91246 0.28
6 12 0 2 o 7716.831 7261.403 180.00 0.91470 0.05
4 5 9 2 o 1440.962 1319.331 0.00 0.91420 0.02
6 7 7 2 o 1979.382 1801.898 0.00 0.91421 0.03
2 7 9 1 o 715.480 654.086 0.00 0.91187 0.02
0 12 6 1 o 14118.885 12795.552 0.00 0.91207 0.22
2 9 8 2 o 9762.663 9002.271 180.00 0.91409 0.11
5 3 9 1 o 23819.387 21848.025 180.00 0.91167 0.60
10 4 2 1 o 22165.102 19806.744 180.00 0.91052 0.56
6 12 1 1 o 24681.020 22105.703 180.00 0.91055 0.68
7 5 7 2 o 10308.133 9422.224 0.00 0.91246 0.14
2 7 9 2 o 712.991 654.086 0.00 0.91187 0.01
0 12 6 2 o 13923.290 12795.552 0.00 0.91207 0.11
5 3 9 2 o 24414.820 21848.025 180.00 0.91167 0.31
3 14 1 1 o 1568.900 1380.406 0.00 0.90960 0.06
3 2 10 1 o 16567.621 14965.372 180.00 0.90875 0.40
1 14 3 1 o 741.274 607.903 180.00 0.90902 0.03
10 4 2 2 o 19986.053 19806.744 180.00 0.91052 0.25
6 12 1 2 o 22480.182 22105.703 180.00 0.91055 0.30
10 5 0 1 o 15790.599 16787.012 0.00 0.90793 0.17
1 12 6 1 o 9476.196 9899.728 0.00 0.90802 0.25
0 11 7 1 o 333.824 383.077 180.00 0.90728 0.00
3 14 1 2 o 1068.895 1380.406 0.00 0.90960 0.02
7 11 1 1 o 9409.151 11528.968 0.00 0.90672 0.21
3 2 10 2 o 12065.691 14965.372 180.00 0.90875 0.13
1 14 3 2 o 414.579 607.903 180.00 0.90902 0.01
10 5 0 2 o 15588.841 16787.012 0.00 0.90793 0.08
1 12 6 2 o 9014.578 9899.728 0.00 0.90802 0.12
8 5 6 1 o 7803.742 8093.661 0.00 0.90535 0.21
4 13 3 1 o 1925.164 2070.562 180.00 0.90558 0.06
8 8 4 1 o 152.279 152.856 180.00 0.90507 0.00
10 3 3 1 o 21424.521 21178.789 0.00 0.90481 0.51
6 10 5 1 o 6660.593 6651.476 180.00 0.90500 0.18
0 11 7 2 o 382.471 383.077 180.00 0.90728 0.00
5 11 5 1 o 11734.950 11721.132 180.00 0.90500 0.32
3 13 4 1 o 488.160 490.216 0.00 0.90508 0.01
7 11 1 2 o 11631.207 11528.968 0.00 0.90672 0.14
0 13 5 1 o 36119.32 35853.90 180.00 0.90444 0.49
5 10 6 1 o 441.551 443.736 0.00 0.90422 0.01
10 5 1 1 o 5329.459 5486.266 0.00 0.90387 0.12
7 0 8 1 o 3290.951 3419.408 0.00 0.90373 0.04
2 4 10 1 o 1016.669 1078.226 0.00 0.90362 0.04
6 5 8 1 o 15105.948 15776.900 180.00 0.90335 0.37
8 5 6 2 o 7756.870 8093.661 0.00 0.90535 0.10
1 11 7 1 o 427.844 446.095 0.00 0.90330 0.01
4 13 3 2 o 1977.061 2070.562 180.00 0.90558 0.03
8 1 7 1 o 1971.497 1984.697 180.00 0.90272 0.05
8 8 4 2 o 150.527 152.856 180.00 0.90507 0.00
10 3 3 2 o 21208.908 21178.789 0.00 0.90481 0.25
6 10 5 2 o 6579.414 6651.476 180.00 0.90500 0.09
5 11 5 2 o 11591.574 11721.132 180.00 0.90500 0.16
3 13 4 2 o 483.152 490.216 0.00 0.90508 0.01
0 13 5 2 o 35910.01 35853.90 180.00 0.90444 0.24
5 13 1 1 o 7056.780 7050.787 180.00 0.90219 0.22
5 10 6 2 o 440.304 443.736 0.00 0.90422 0.01
7 1 8 1 o 1325.726 1360.563 180.00 0.90166 0.03
10 5 1 2 o 5340.286 5486.266 0.00 0.90387 0.06
4 8 8 1 o 566.129 574.663 180.00 0.90167 0.01
7 0 8 2 o 3308.981 3419.408 0.00 0.90373 0.02
2 4 10 2 o 1032.857 1078.226 0.00 0.90362 0.02
6 5 8 2 o 15789.017 15776.900 180.00 0.90335 0.20
9 4 5 1 o 633.239 623.583 0.00 0.90104 0.02
1 11 7 2 o 450.317 446.095 0.00 0.90330 0.01
8 1 7 2 o 2176.716 1984.697 180.00 0.90272 0.03
1 13 5 1 o 12323.979 11276.103 180.00 0.90050 0.36
6 9 6 1 o 19233.723 17826.699 180.00 0.90009 0.52
8 7 5 1 o 60978.85 58805.71 180.00 0.89993 1.52
5 13 1 2 o 7438.025 7050.787 180.00 0.90219 0.12
7 1 8 2 o 1221.062 1360.563 180.00 0.90166 0.01
4 8 8 2 o 540.642 574.663 180.00 0.90167 0.00
9 4 5 2 o 555.579 623.583 0.00 0.90104 0.01
3 3 10 1 o 138.649 136.303 180.00 0.89839 0.00
9 8 1 1 o 6440.033 6161.220 0.00 0.89827 0.15
6 12 2 1 o 5891.387 5831.042 180.00 0.89844 0.15
8 9 3 1 o 6248.398 5820.075 180.00 0.89808 0.17
1 13 5 2 o 11813.943 11276.103 180.00 0.90050 0.17
6 9 6 2 o 19127.672 17826.699 180.00 0.90009 0.26
8 7 5 2 o 61832.73 58805.71 180.00 0.89993 0.78
6 11 4 1 o 17876.758 16728.729 0.00 0.89778 0.55
3 14 2 1 o 15197.627 14935.819 0.00 0.89752 0.43
5 7 8 1 o 8.136 8.378 0.00 0.89721 0.00
9 7 3 1 o 403.420 424.554 180.00 0.89715 0.01
5 4 9 1 o 60.927 62.950 180.00 0.89713 0.00
1 5 10 1 o 5867.293 6186.607 180.00 0.89692 0.15
2 14 3 1 o 91.709 95.816 0.00 0.89717 0.00
8 2 7 1 o 2.861 2.846 180.00 0.89658 0.00
4 11 6 1 o 1892.474 1755.255 180.00 0.89639 0.06
3 3 10 2 o 149.508 136.303 180.00 0.89839 0.00
9 8 1 2 o 7035.661 6161.220 0.00 0.89827 0.09
6 12 2 2 o 6439.934 5831.042 180.00 0.89844 0.08
2 12 6 1 o 181.578 176.637 180.00 0.89621 0.00
9 6 4 1 o 9017.748 7638.811 0.00 0.89593 0.24
8 9 3 2 o 6901.692 5820.075 180.00 0.89808 0.10
7 2 8 1 o 19967.787 17305.705 180.00 0.89555 0.49
10 0 4 1 o 44703.54 40004.00 180.00 0.89538 0.56
6 11 4 2 o 19783.385 16728.729 0.00 0.89778 0.31
3 14 2 2 o 16320.066 14935.819 0.00 0.89752 0.24
5 7 8 2 o 8.352 8.378 0.00 0.89721 0.00
9 7 3 2 o 414.244 424.554 180.00 0.89715 0.01
5 4 9 2 o 61.673 62.950 180.00 0.89713 0.00
8 10 0 1 o 4584.911 4563.924 180.00 0.89503 0.06
1 5 10 2 o 5635.682 6186.607 180.00 0.89692 0.07
2 14 3 2 o 94.228 95.816 0.00 0.89717 0.00
7 11 2 1 o 2581.442 2816.927 180.00 0.89475 0.08
8 2 7 2 o 2.398 2.846 180.00 0.89658 0.00
3 9 8 1 o 6326.075 7156.101 0.00 0.89427 0.16
4 11 6 2 o 1525.894 1755.255 180.00 0.89639 0.03
2 12 6 2 o 174.182 176.637 180.00 0.89621 0.00
9 6 4 2 o 7775.732 7638.811 0.00 0.89593 0.10
7 11 2 2 o 2691.422 2816.927 180.00 0.89475 0.04
5 12 4 1 o 5828.832 5753.837 0.00 0.89375 0.16
3 7 9 1 o 5833.131 5912.852 0.00 0.89220 0.16
10 1 4 1 o 19633.125 18755.219 0.00 0.89337 0.50
10 5 2 1 o 2726.655 2715.619 0.00 0.89201 0.08
7 2 8 2 o 18018.221 17305.705 180.00 0.89555 0.22
3 9 8 2 o 7145.406 7156.101 0.00 0.89427 0.09
10 0 4 2 o 40624.14 40004.00 180.00 0.89538 0.25
7 9 5 1 o 10912.681 10843.053 0.00 0.89312 0.32
4 12 5 1 o 3673.522 3647.239 180.00 0.89313 0.11
2 11 7 1 o 1159.739 1139.565 0.00 0.89167 0.03
4 6 9 1 o 1693.503 1677.909 0.00 0.89147 0.04
5 9 7 1 o 20190.957 19978.133 180.00 0.89148 0.56
8 10 0 2 o 4399.720 4563.924 180.00 0.89503 0.03
5 12 4 2 o 5834.891 5753.837 0.00 0.89375 0.08
1 8 9 1 o 272.999 281.279 180.00 0.89274 0.01
10 1 4 2 o 18478.512 18755.219 0.00 0.89337 0.24
8 10 1 1 o 1191.402 1211.799 0.00 0.89114 0.03
7 9 5 2 o 10496.126 10843.053 0.00 0.89312 0.16
4 12 5 2 o 3540.463 3647.239 180.00 0.89313 0.05
10 4 3 1 o 1296.700 1344.242 180.00 0.89058 0.03
0 10 8 1 o 6847.754 7071.950 180.00 0.89064 0.08
1 8 9 2 o 274.186 281.279 180.00 0.89274 0.00
9 0 6 1 o 2550.740 2608.890 0.00 0.89019 0.03
5 13 2 1 o 14610.977 15070.039 0.00 0.89040 0.40
7 10 4 1 o 36.696 37.270 0.00 0.89012 0.00
3 7 9 2 o 5805.663 5912.852 0.00 0.89220 0.08
10 5 2 2 o 2657.136 2715.619 0.00 0.89201 0.04
7 6 7 1 o 1814.893 1845.778 0.00 0.88985 0.04
