#------------------------------------------------------------------------------
#$Date: 2016-03-21 01:21:50 +0200 (Mon, 21 Mar 2016) $
#$Revision: 178377 $
#$URL: svn://www.crystallography.net/cod/cif/4/00/12/4001202.cif $
#------------------------------------------------------------------------------
#
# This file is available in the Crystallography Open Database (COD),
# http://www.crystallography.net/
#
# All data on this site have been placed in the public domain by the
# contributors.
#
data_4001202
loop_
_publ_author_name
'Zhou, Yongkai'
'Adams, Stefan'
'Rao, R. Prasada'
'Edwards, Doreen D.'
'Neiman, Arkady'
'Pestereva, N.'
_publ_section_title
;
 Charge Transport by Polyatomic Anion Diffusion in Sc2(WO4)3
;
_journal_issue                   20
_journal_name_full               'Chemistry of Materials'
_journal_page_first              6335
_journal_paper_doi               10.1021/cm800466y
_journal_volume                  20
_journal_year                    2008
_chemical_formula_moiety         ' Sc2(WO4)3 '
_chemical_formula_sum            'O12 Sc2 W3'
_chemical_formula_weight         833.45
_chemical_melting_point          1913
_chemical_name_common            ' Scandium Tungstate '
_chemical_name_systematic        ' Scandium Tungstate '
_space_group_IT_number           60
_symmetry_cell_setting           orthorhombic
_symmetry_space_group_name_Hall  '-P 2a 2n'
_symmetry_space_group_name_H-M   'P n c a'
_audit_creation_date             2008-01-25T12:03
_audit_creation_method           'from EXP file using GSAS2CIF'
_audit_update_record
' 2008-01-25T12:03  Initial CIF as created by GSAS2CIF'
_cell_angle_alpha                90.0
_cell_angle_beta                 90.0
_cell_angle_gamma                90.0
_cell_formula_units_Z            4
_cell_length_a                   9.62547(5)
_cell_length_b                   13.35545(8)
_cell_length_c                   9.55038(5)
_cell_measurement_temperature    1050
_cell_volume                     1227.725(12)
_computing_structure_refinement  GSAS
_diffrn_radiation_polarisn_ratio 0.68
_diffrn_radiation_probe          x-ray
_exptl_absorpt_correction_T_max  1.00000
_exptl_absorpt_correction_T_min  1.00000
_exptl_absorpt_process_details
;   GSAS Absorption/surface roughness correction: function number 0
 No correction is applied.
;
_pd_block_id
2008-01-25T12:03|T11K|Zhou_Yongkai|Philips_Xpert
_pd_calc_method                  'Rietveld Refinement'
_pd_instr_location               ' ?'
_pd_meas_2theta_range_inc        0.017
_pd_meas_2theta_range_max        119.9874
_pd_meas_2theta_range_min        10.0144
_pd_meas_number_of_points        6470
_pd_proc_2theta_range_inc        0.017
_pd_proc_2theta_range_max        119.9874
_pd_proc_2theta_range_min        10.0144
_pd_proc_info_datetime           2008-01-25T12:30:46
_pd_proc_info_excluded_regions   ' ?'
_pd_proc_ls_background_function
;   GSAS Background function number 1 with 12 terms.
 Shifted Chebyshev function of 1st kind
      1:    385.012     2:   -23.9601     3:   -7.76589     4:    54.7664    
      5:   -6.93079     6:    10.8819     7:   -12.2698     8:    6.97940    
      9:    9.34731    10:   -24.7793    11:    22.1684    12:   -5.79838    
;
_pd_proc_ls_peak_cutoff          0.00250
_pd_proc_ls_pref_orient_corr
;   March-Dollase
 AXIS  1 Ratio=   0.95921  h= 0.000  k= 1.000  l= 0.000
 Prefered orientation correction range: Min=   0.93945, Max=   1.13305
;
_pd_proc_ls_profile_function
;
 CW Profile function number 3 with  19 terms
 Pseudovoigt profile coefficients as parameterized in
 P. Thompson, D.E. Cox & J.B. Hastings (1987). J. Appl. Cryst.,20,79-83.
 Asymmetry correction of L.W. Finger, D.E. Cox & A. P. Jephcoat (1994).
 J. Appl. Cryst.,27,892-900.
 Peak tails are ignored  where the intensity is below 0.0025 times the peak
   Aniso. broadening axis   0.0   0.0   1.0
;
_pd_proc_ls_prof_R_factor        0.0502
_pd_proc_ls_prof_wR_expected     0.0363
_pd_proc_ls_prof_wR_factor       0.0657
_pd_proc_number_of_points        6470
_pd_spec_mounting                ' ?'
_refine_ls_goodness_of_fit_all   1.85
_refine_ls_matrix_type           full
_refine_ls_number_parameters     51
_refine_ls_number_restraints     0
_refine_ls_R_Fsqd_factor         0.07153
_refine_ls_shift/su_max          0.03
_refine_ls_shift/su_mean         0.01
_reflns_d_resolution_high        0.890
_reflns_d_resolution_low         6.678
_reflns_limit_h_max              10
_reflns_limit_h_min              0
_reflns_limit_k_max              15
_reflns_limit_k_min              0
_reflns_limit_l_max              10
_reflns_limit_l_min              0
_reflns_number_total             1825
_cod_data_source_file            cm800466y_si_022.cif
_cod_data_source_block           T1050K
_cod_depositor_comments
;
The following automatic conversions were performed:

'_chemical_melting_point' value ' 1913K ' was changed to '1913' - the
value should be numeric and without a unit
designator.

'_geom_bond_publ_flag' value 'N' changed to 'n'
according to /home/saulius/struct/CIF-dictionaries/cif_core.dic
dictionary named 'cif_core.dic' version 2.4.1 from 2010-06-29 (26
times).

'_geom_angle_publ_flag' value 'N' changed to 'n' according
to /home/saulius/struct/CIF-dictionaries/cif_core.dic dictionary
named 'cif_core.dic' version 2.4.1 from 2010-06-29 (33 times).

Automatic conversion script
Id: cif_fix_values 1715 2011-07-08 13:25:40Z adriana 
;
_cod_original_cell_volume        1227.725(14)
_cod_database_code               4001202
#BEGIN Tags that were not found in dictionaries:
_gsas_exptl_extinct_corr_t_min   1.00000
_gsas_exptl_extinct_corr_t_max   1.00000
#END Tags that were not found in dictionaries
loop_
_symmetry_equiv_pos_site_id
_symmetry_equiv_pos_as_xyz
1 +x,+y,+z
2 -x+1/2,+y+1/2,+z+1/2
3 +x,-y+1/2,+z+1/2
4 -x+1/2,-y,+z
-1 -x,-y,-z
-2 +x+1/2,-y+1/2,-z+1/2
-3 -x,+y+1/2,-z+1/2
-4 +x+1/2,+y,-z
loop_
_atom_site_type_symbol
_atom_site_label
_atom_site_fract_x
_atom_site_fract_y
_atom_site_fract_z
_atom_site_occupancy
_atom_site_thermal_displace_type
_atom_site_U_iso_or_equiv
_atom_site_symmetry_multiplicity
Sc Sc1 0.4708(4) 0.38198(26) 0.2477(5) 1.0 Uiso 0.0290(12) 8
W W1 0.25 0.0 0.47111(16) 1.0 Uiso 0.03109(34) 4
W W2 0.11256(12) 0.35641(8) 0.39095(12) 1.0 Uiso 0.03109(34) 8
O O1 0.0929(14) 0.1264(10) 0.0668(14) 1.0 Uiso 0.0721(21) 8
O O2 0.1523(14) 0.0753(9) 0.3718(15) 1.0 Uiso 0.0721(21) 8
O O3 0.0053(13) 0.2655(10) 0.3138(13) 1.0 Uiso 0.0721(21) 8
O O4 0.3353(14) 0.4061(9) 0.0759(14) 1.0 Uiso 0.0721(21) 8
O O5 0.0515(13) 0.4729(10) 0.3190(14) 1.0 Uiso 0.0721(21) 8
O O6 0.2888(15) 0.3484(10) 0.3385(14) 1.0 Uiso 0.0721(21) 8
loop_
_atom_type_symbol
_atom_type_number_in_cell
_atom_type_scat_dispersion_real
_atom_type_scat_dispersion_imag
_atom_type_scat_Cromer_Mann_a1
_atom_type_scat_Cromer_Mann_a2
_atom_type_scat_Cromer_Mann_a3
_atom_type_scat_Cromer_Mann_a4
_atom_type_scat_Cromer_Mann_b1
_atom_type_scat_Cromer_Mann_b2
_atom_type_scat_Cromer_Mann_b3
_atom_type_scat_Cromer_Mann_b4
_atom_type_scat_Cromer_Mann_c
_atom_type_scat_source
Sc 8.0 0.000 0.000 9.18900 9.02130 7.36790 0.57290 1.64090 136.108 1.46800
51.3531 1.33290 International_Tables_Vol_C
W 12.0 0.000 0.000 29.0818 1.72029 15.4300 9.22590 14.4327 0.32170 5.11982
57.0560 9.88750 International_Tables_Vol_C
O 48.0 0.000 0.000 3.04850 13.2771 2.28680 5.70110 1.54630 0.32390 0.86700
32.9089 0.25080 International_Tables_Vol_C
loop_
_diffrn_radiation_wavelength
_diffrn_radiation_wavelength_wt
_diffrn_radiation_type
_diffrn_radiation_wavelength_id
1.540500 1.000 K\a~1~ 1
1.544300 0.000 K\a~2~ 2
loop_
_geom_angle_atom_site_label_1
_geom_angle_atom_site_label_2
_geom_angle_atom_site_label_3
_geom_angle
_geom_angle_site_symmetry_1
_geom_angle_site_symmetry_3
_geom_angle_publ_flag
O1 Sc1 O2 90.4(5) -2_666 -2_666 n
O1 Sc1 O3 95.6(5) -2_666 -2_666 n
O1 Sc1 O4 172.5(6) -2_666 1_555 n
O1 Sc1 O5 80.4(5) -2_666 4_565 n
O1 Sc1 O6 96.3(6) -2_666 1_555 n
O2 Sc1 O3 88.4(5) -2_666 -2_666 n
O2 Sc1 O4 92.8(6) -2_666 1_555 n
O2 Sc1 O5 90.6(5) -2_666 4_565 n
O2 Sc1 O6 173.0(6) -2_666 1_555 n
O3 Sc1 O4 91.3(5) -2_666 1_555 n
O3 Sc1 O5 175.8(6) -2_666 4_565 n
O3 Sc1 O6 92.8(5) -2_666 1_555 n
O4 Sc1 O5 92.8(5) 1_555 4_565 n
O4 Sc1 O6 80.3(5) 1_555 1_555 n
O5 Sc1 O6 88.7(5) 4_565 1_555 n
O2 W1 O2 110.9(10) 1_555 4_555 n
O2 W1 O4 118.5(6) 1_555 2_545 n
O2 W1 O4 98.7(6) 1_555 3_555 n
O2 W1 O4 98.7(6) 4_555 2_545 n
O2 W1 O4 118.5(6) 4_555 3_555 n
O4 W1 O4 112.6(8) 2_545 3_555 n
O1 W2 O3 116.1(6) 3_555 1_555 n
O1 W2 O5 102.9(6) 3_555 1_555 n
O1 W2 O6 113.1(6) 3_555 1_555 n
O3 W2 O5 104.2(7) 1_555 1_555 n
O3 W2 O6 113.8(6) 1_555 1_555 n
O5 W2 O6 104.9(6) 1_555 1_555 n
Sc1 O1 W2 152.6(8) -2_466 3_554 n
Sc1 O2 W1 155.8(8) -2_555 1_555 n
Sc1 O3 W2 150.0(8) -2_466 1_555 n
Sc1 O4 W1 144.6(7) 1_555 2_554 n
Sc1 O5 W2 166.2(8) 4_565 1_555 n
Sc1 O6 W2 160.9(8) 1_555 1_555 n
loop_
_geom_bond_atom_site_label_1
_geom_bond_atom_site_label_2
_geom_bond_distance
_geom_bond_site_symmetry_2
_geom_bond_publ_flag
Sc1 O1 2.128(14) -2_555 n
Sc1 O2 2.163(14) -2_555 n
Sc1 O3 2.083(14) -2_555 n
Sc1 O4 2.121(13) 1_555 n
Sc1 O5 2.066(13) 4_565 n
Sc1 O6 2.005(14) 1_555 n
W1 O2 1.672(13) 1_555 n
W1 O2 1.672(13) 4_555 n
W1 O4 1.802(12) 2_545 n
W1 O4 1.802(12) 3_555 n
W2 O1 1.706(13) 3_555 n
W2 O3 1.755(13) 1_555 n
W2 O5 1.799(13) 1_555 n
W2 O6 1.772(14) 1_555 n
O1 Sc1 2.128(14) -2_455 n
O1 W2 1.706(13) 3_554 n
O2 Sc1 2.163(14) -2_455 n
O2 W1 1.672(13) 1_555 n
O3 Sc1 2.083(14) -2_455 n
O3 W2 1.755(13) 1_555 n
O4 Sc1 2.121(13) 1_555 n
O4 W1 1.802(12) 2_554 n
O5 Sc1 2.066(13) 4_565 n
O5 W2 1.799(13) 1_555 n
O6 Sc1 2.005(14) 1_555 n
O6 W2 1.772(14) 1_555 n
loop_
_pd_meas_counts_total
_pd_proc_ls_weight
_pd_proc_intensity_bkg_calc
_pd_calc_intensity_total
311.0 0.0 644.82654 .
311.0 0.0 641.11761 .
324.0 0.0 637.43756 .
307.0 0.0 633.78595 .
287.0 0.0 630.16229 .
291.0 0.0 626.56738 .
279.0 0.0 623.00024 .
327.0 0.0 619.46094 .
307.0 0.0 615.94977 .
298.0 0.0 612.46564 .
301.0 0.0 609.00952 .
315.0 0.0 605.58051 .
309.0 0.0 602.17865 .
295.0 0.0 598.80408 .
302.0 0.0 595.45624 .
320.0 0.0 592.13525 .
295.0 0.0 588.84088 .
301.0 0.0 585.57275 .
326.0 0.0 582.33160 .
334.0 0.0 579.11652 .
315.0 0.0 575.92749 .
300.0 0.0 572.76440 .
296.0 0.0 569.62695 .
291.0 0.0 566.51550 .
313.0 0.0 563.42975 .
327.0 0.0 560.36938 .
332.0 0.0 557.33417 .
313.0 0.0 554.32416 .
301.0 0.0 551.33911 .
308.0 0.0 548.37952 .
315.0 0.0 545.44409 .
328.0 0.0 542.53363 .
335.0 0.0 539.64752 .
327.0 0.0 536.78613 .
304.0 0.0 533.94904 .
307.0 0.0 531.13593 .
314.0 0.0 528.34680 .
324.0 0.0 525.58148 .
326.0 0.0 522.84015 .
314.0 0.0 520.12262 .
296.0 0.0 517.42841 .
299.0 0.0 514.75763 .
315.0 0.0 512.10992 .
315.0 0.0 509.48569 .
333.0 0.0 506.88452 .
328.0 0.0 504.30612 .
293.0 0.0 501.75046 .
309.0 0.0 499.21729 .
314.0 0.0 496.70712 .
293.0 0.0 494.21915 .
324.0 0.0 491.75366 .
312.0 0.0 489.31003 .
337.0 0.0 486.88846 .
310.0 0.0 484.48904 .
330.0 0.0 482.11151 .
323.0 0.0 479.75571 .
334.0 0.0 477.42130 .
316.0 0.0 475.10825 .
375.0 0.0 472.81689 .
338.0 0.0 470.54681 .
312.0 0.0 468.29770 .
311.0 0.0 466.06952 .
334.0 0.0 463.86221 .
324.0 0.0 461.67584 .
286.0 0.0 459.51016 .
293.0 0.0 457.36508 .
325.0 0.0 455.24020 .
324.0 0.0 453.13574 .
306.0 0.0 451.05154 .
331.0 0.0 448.98758 .
321.0 0.0 446.94357 .
297.0 0.0 444.91928 .
303.0 0.0 442.91486 .
323.0 0.0 440.93002 .
328.0 0.0 438.96494 .
318.0 0.0 437.01920 .
313.0 0.0 435.09262 .
305.0 0.0 433.18552 .
305.0 0.0 431.29733 .
318.0 0.0 429.42834 .
336.0 0.0 427.57834 .
338.0 0.0 425.74680 .
326.0 0.0 423.93408 .
310.0 0.0 422.13995 .
331.0 0.0 420.36453 .
359.0 0.0 418.60727 .
367.0 0.0 416.86832 .
358.0 0.0 415.14752 .
345.0 0.0 413.44473 .
350.0 0.0 411.76007 .
338.0 0.0 410.09320 .
318.0 0.0 408.44400 .
317.0 0.0 406.81247 .
321.0 0.0 405.19843 .
322.0 0.0 403.60199 .
333.0 0.0 402.02298 .
310.0 0.0 400.46100 .
307.0 0.0 398.91620 .
317.0 0.0 397.38849 .
313.0 0.0 395.87778 .
302.0 0.0 394.38391 .
317.0 0.0 392.90668 .
323.0 0.0 391.44614 .
332.0 0.0 390.00226 .
352.0 0.0 388.57471 .
319.0 0.0 387.16360 .
303.0 0.0 385.76865 .
331.0 0.0 384.39005 .
353.0 0.0 383.02737 .
346.0 0.0 381.68073 .
343.0 0.0 380.35001 .
312.0 0.0 379.03497 .
333.0 0.0 377.73557 .
292.0 0.0 376.45203 .
328.0 0.0 375.18378 .
313.0 0.0 373.93100 .
301.0 0.0 372.69357 .
298.0 0.003356 371.47119 371.47031
306.0 0.003268 370.26419 370.26343
327.0 0.003058 369.07211 369.07132
326.0 0.003067 367.89502 367.89426
313.0 0.003195 366.73279 366.73206
313.0 0.003195 365.58524 365.58450
327.0 0.003058 364.45242 364.45172
301.0 0.003322 363.33429 363.33359
323.0 0.003096 362.23056 362.22992
317.0 0.003155 361.14120 361.14059
352.0 0.002841 360.06622 360.06561
348.0 0.002874 359.00543 359.00494
332.0 0.003012 357.95886 357.95834
304.0 0.003289 356.92633 356.92578
318.0 0.003145 355.90775 355.90723
328.0 0.003049 354.90298 354.90253
335.0 0.002985 353.91211 353.91165
311.0 0.003215 352.93494 352.93448
325.0 0.003077 351.97144 351.97098
320.0 0.003125 351.02136 351.02097
322.0 0.003106 350.08469 350.08441
306.0 0.003268 349.16156 349.16122
317.0 0.003155 348.25171 348.25131
320.0 0.003125 347.35495 347.35461
327.0 0.003058 346.47137 346.47107
323.0 0.003096 345.60068 345.60043
314.0 0.003185 344.74313 344.74292
322.0 0.003106 343.89844 343.89822
346.0 0.002890 343.06653 343.06622
339.0 0.002950 342.24722 342.24695
317.0 0.003155 341.44043 341.44025
331.0 0.003021 340.64645 340.64633
344.0 0.002907 339.86484 339.86469
332.0 0.003012 339.09555 339.09549
328.0 0.003049 338.33862 338.33853
333.0 0.003003 337.59384 337.59369
325.0 0.003077 336.86127 336.86111
329.0 0.003040 336.14069 336.14069
330.0 0.003030 335.43216 335.43204
320.0 0.003125 334.73547 334.73544
321.0 0.003115 334.05057 334.05057
349.0 0.002865 333.37753 333.37753
341.0 0.002933 332.71613 332.71609
324.0 0.003086 332.06622 332.06631
337.0 0.002967 331.42801 331.42804
306.0 0.003268 330.80106 330.80109
343.0 0.002915 330.18558 330.18567
327.0 0.003058 329.58130 329.58142
331.0 0.003021 328.98828 328.98840
328.0 0.003049 328.40637 332.08313
362.0 0.002762 327.83551 331.82611
309.0 0.003236 327.27576 333.46576
333.0 0.003003 326.72678 333.49438
370.0 0.002703 326.18869 333.63318
334.0 0.002994 325.66132 333.91260
370.0 0.002703 325.14462 334.37906
342.0 0.002924 324.63861 335.11169
388.0 0.002577 324.14313 336.30661
407.0 0.002457 323.65808 338.78888
421.0 0.002375 323.18344 345.09094
452.0 0.002212 322.71912 358.06091
442.0 0.002262 322.26505 377.76624
431.0 0.002320 321.82117 403.18625
470.0 0.002128 321.38748 433.00095
475.0 0.002105 320.96371 466.15414
462.0 0.002165 320.54999 502.48575
521.0 0.001919 320.14612 542.27997
572.0 0.001748 319.75217 586.05597
611.0 0.001637 319.36792 634.44446
639.0 0.001565 318.99332 688.20898
717.0 0.001395 318.62830 748.44720
784.0 0.001276 318.27304 816.45679
859.0 0.001164 317.92715 894.05542
921.0 0.001086 317.59064 983.71063
1078.0 0.000928 317.26355 1088.84961
1244.0 0.000804 316.94568 1214.51929
1412.0 0.000708 316.63708 1368.44006
1723.0 0.000580 316.33765 1563.32568
2088.0 0.000479 316.04727 1822.53491
2725.0 0.000367 315.76593 2198.70410
3431.0 0.0002915 315.49353 2819.76196
4021.0 0.0002487 315.23001 3700.01050
3900.0 0.0002564 314.97531 3892.53931
2932.0 0.0003411 314.72943 2874.56787
1940.0 0.000515 314.49213 1921.11829
1125.0 0.000889 314.26355 1009.90356
633.0 0.001580 314.04343 558.56842
487.0 0.002053 313.83188 436.76831
433.0 0.002309 313.62885 396.79684
395.0 0.002532 313.43414 374.90579
388.0 0.002577 313.24765 360.80145
409.0 0.002445 313.06949 351.08405
379.0 0.002639 312.89951 344.05981
353.0 0.002833 312.73767 338.79074
356.0 0.002809 312.58389 334.71957
341.0 0.002933 312.43802 331.49789
341.0 0.002933 312.30023 328.89716
340.0 0.002941 312.17023 326.76212
341.0 0.002933 312.04807 324.98428
349.0 0.002865 311.93365 323.48581
365.0 0.002740 311.82693 322.20944
350.0 0.002857 311.72787 321.11276
339.0 0.002950 311.63644 320.16302
342.0 0.002924 311.55240 319.33502
336.0 0.002976 311.47586 314.11819
357.0 0.002801 311.40683 311.40720
333.0 0.003003 311.34506 311.34540
348.0 0.002874 311.29059 311.29102
356.0 0.002809 311.24326 311.24374
336.0 0.002976 311.20325 311.20361
352.0 0.002841 311.17029 311.17065
357.0 0.002801 311.14435 311.14474
339.0 0.002950 311.12540 311.12579
327.0 0.003058 311.11340 311.11386
334.0 0.002994 311.10846 311.10876
325.0 0.003077 311.11008 311.11050
339.0 0.002950 311.11859 311.11899
322.0 0.003106 311.13385 311.13422
329.0 0.003040 311.15573 311.15604
316.0 0.003165 311.18423 311.18460
368.0 0.002717 311.21930 311.21967
345.0 0.002899 311.26083 311.26120
362.0 0.002762 311.30884 311.30923
321.0 0.003115 311.36325 311.36359
344.0 0.002907 311.42395 311.42432
345.0 0.002899 311.49097 311.49130
360.0 0.002778 311.56418 311.56454
366.0 0.002732 311.64359 311.64392
357.0 0.002801 311.72910 311.72949
341.0 0.002933 311.82074 311.82111
354.0 0.002825 311.91840 311.91873
345.0 0.002899 312.02197 316.86005
346.0 0.002890 312.13147 317.35657
354.0 0.002825 312.24686 320.29315
359.0 0.002786 312.36801 321.10571
391.0 0.002558 312.49500 322.02649
384.0 0.002604 312.62759 323.07962
379.0 0.002639 312.76596 324.29868
397.0 0.002519 312.90991 325.73096
419.0 0.002387 313.05936 327.44855
437.0 0.002288 313.21436 329.56882
442.0 0.002262 313.37482 332.33759
433.0 0.002309 313.54071 336.67538
419.0 0.002387 313.71194 345.87454
438.0 0.002283 313.88849 365.05594
495.0 0.002020 314.07034 395.41354
513.0 0.001949 314.25742 435.62283
506.0 0.001976 314.44965 484.50043
524.0 0.001908 314.64688 540.15948
615.0 0.001626 314.84927 601.98163
677.0 0.001477 315.05667 670.51141
733.0 0.001364 315.26917 746.69635
821.0 0.001218 315.48645 832.02771
872.0 0.001147 315.70862 928.47858
917.0 0.001091 315.93567 1038.41101
1049.0 0.000953 316.16763 1165.43396
1200.0 0.000833 316.40414 1314.35132
1418.0 0.000705 316.64548 1492.32166
1658.0 0.000603 316.89145 1710.35535
1974.0 0.000507 317.14203 1986.61304
2413.0 0.000414 317.39719 2354.63159
3112.0 0.0003213 317.65680 2890.73071
3972.0 0.0002518 317.92099 3775.59106
4923.0 0.0002031 318.18951 4981.29395
4712.0 0.0002122 318.46240 5103.24707
3542.0 0.0002823 318.73972 3688.71362
2499.0 0.000400 319.02136 2610.89722
1360.0 0.000735 319.30716 1416.33289
685.0 0.001460 319.59717 708.39716
495.0 0.002020 319.89148 504.41052
440.0 0.002273 320.18985 442.28271
469.0 0.002132 320.49228 410.05429
434.0 0.002304 320.79874 389.74670
414.0 0.002415 321.10922 376.02798
378.0 0.002646 321.42368 366.31360
336.0 0.002976 321.74207 359.18881
378.0 0.002646 322.06430 353.82080
408.0 0.002451 322.39032 349.69009
371.0 0.002695 322.72012 346.45886
353.0 0.002833 323.05374 343.89841
325.0 0.003077 323.39111 341.84995
319.0 0.003135 323.73203 340.19940
323.0 0.003096 324.07669 338.86337
361.0 0.002770 324.42490 337.77945
340.0 0.002941 324.77661 336.90042
353.0 0.002833 325.13193 329.29996
369.0 0.002710 325.49072 329.28760
345.0 0.002899 325.85278 325.85275
340.0 0.002941 326.21835 326.21829
338.0 0.002959 326.58719 326.58725
358.0 0.002793 326.95947 326.95944
350.0 0.002857 327.33496 327.33496
342.0 0.002924 327.71371 327.71362
354.0 0.002825 328.09561 328.09555
336.0 0.002976 328.48080 328.48071
336.0 0.002976 328.86899 328.86893
339.0 0.002950 329.26028 329.26019
360.0 0.002778 329.65463 329.65454
374.0 0.002674 330.05200 330.05191
351.0 0.002849 330.45239 330.45227
346.0 0.002890 330.85565 330.85553
370.0 0.002703 331.26190 331.26169
368.0 0.002717 331.67087 331.67075
348.0 0.002874 332.08279 332.08264
338.0 0.002959 332.49750 332.49731
337.0 0.002967 332.91492 332.91476
356.0 0.002809 333.33508 333.33493
355.0 0.002817 333.75793 333.75778
352.0 0.002841 334.18347 334.18323
372.0 0.002688 334.61154 334.61136
353.0 0.002833 335.04227 335.04208
330.0 0.003030 335.47552 335.47534
323.0 0.003096 335.91132 335.91110
355.0 0.002817 336.34955 336.34927
360.0 0.002778 336.79028 336.79001
355.0 0.002817 337.23340 337.23312
382.0 0.002618 337.67889 337.67871
369.0 0.002710 338.12668 338.12643
343.0 0.002915 338.57687 338.57654
338.0 0.002959 339.02930 339.02899
347.0 0.002882 339.48398 339.48373
332.0 0.003012 339.94095 339.94055
354.0 0.002825 340.39996 340.39966
343.0 0.002915 340.86118 340.86081
341.0 0.002933 341.32455 341.32422
328.0 0.003049 341.78998 341.78967
341.0 0.002933 342.25745 342.25714
369.0 0.002710 342.72693 342.72659
324.0 0.003086 343.19843 343.19803
348.0 0.002874 343.67191 343.67157
360.0 0.002778 344.14731 344.14688
322.0 0.003106 344.62457 344.62421
340.0 0.002941 345.10373 345.10330
351.0 0.002849 345.58472 345.58426
343.0 0.002915 346.06750 346.06708
365.0 0.002740 346.55209 346.55164
366.0 0.002732 347.03836 347.03793
330.0 0.003030 347.52652 347.52591
367.0 0.002725 348.01614 348.01572
337.0 0.002967 348.50754 348.50702
337.0 0.002967 349.00055 349.00006
351.0 0.002849 349.49518 349.49466
315.0 0.003175 349.99130 349.99075
335.0 0.002985 350.48898 350.48846
354.0 0.002825 350.98825 350.98767
358.0 0.002793 351.48898 351.48846
345.0 0.002899 351.99109 351.99051
346.0 0.002890 352.49469 352.49414
326.0 0.003067 352.99969 352.99915
358.0 0.002793 353.50613 353.50552
346.0 0.002890 354.01382 354.01321
363.0 0.002755 354.52286 354.52222
377.0 0.002653 355.03308 355.03247
333.0 0.003003 355.54474 355.54413
335.0 0.002985 356.05756 356.05692
351.0 0.002849 356.57159 356.57098
341.0 0.002933 357.08682 357.08615
337.0 0.002967 357.60318 357.60245
356.0 0.002809 358.12064 358.11993
368.0 0.002717 358.63925 358.63861
367.0 0.002725 359.15894 359.15826
365.0 0.002740 359.67972 359.67899
360.0 0.002778 360.20148 360.20065
358.0 0.002793 360.72415 360.72345
351.0 0.002849 361.24792 361.24713
355.0 0.002817 361.77258 361.77185
348.0 0.002874 362.29822 362.29745
346.0 0.002890 362.82477 362.82391
355.0 0.002817 363.35202 363.35120
361.0 0.002770 363.88028 363.87955
364.0 0.002747 364.40939 364.40857
341.0 0.002933 364.93927 364.93845
342.0 0.002924 365.46985 365.46902
350.0 0.002857 366.00122 366.00037
376.0 0.002660 366.53336 366.53253
355.0 0.002817 367.06616 367.06525
358.0 0.002793 367.59967 367.59882
334.0 0.002994 368.13385 368.13293
308.0 0.003247 368.66858 368.66769
390.0 0.002564 369.20407 369.20322
351.0 0.002849 369.74008 369.73917
369.0 0.002710 370.27661 370.27570
367.0 0.002725 370.81372 370.81281
364.0 0.002747 371.35135 371.35043
365.0 0.002740 371.88950 371.88855
360.0 0.002778 372.42813 372.42715
351.0 0.002849 372.96722 372.96625
369.0 0.002710 373.50668 373.50571
354.0 0.002825 374.04663 374.04553
354.0 0.002825 374.58698 374.58597
335.0 0.002985 375.12766 375.12668
355.0 0.002817 375.66861 375.66760
361.0 0.002770 376.20993 376.20892
353.0 0.002833 376.75153 376.75055
309.0 0.003236 377.29355 377.29251
349.0 0.002865 377.83572 377.83475
346.0 0.002890 378.37814 378.37714
338.0 0.002959 378.92081 378.91980
312.0 0.003205 379.46368 379.46252
344.0 0.002907 380.00677 380.00565
387.0 0.002584 380.54993 380.54880
373.0 0.002681 381.09326 381.09219
360.0 0.002778 381.63672 381.63559
354.0 0.002825 382.18030 382.17917
361.0 0.002770 382.72394 382.72284
341.0 0.002933 383.26758 383.26651
339.0 0.002950 383.81140 383.81024
341.0 0.002933 384.35519 384.35403
345.0 0.002899 384.89886 384.89767
367.0 0.002725 385.44278 385.44153
374.0 0.002674 385.98651 385.98526
349.0 0.002865 386.53009 386.52893
347.0 0.002882 387.07370 387.07251
344.0 0.002907 387.61731 387.61609
359.0 0.002786 388.16068 388.15942
376.0 0.002660 388.70398 388.70276
371.0 0.002695 389.24710 389.24582
369.0 0.002710 389.79007 389.78888
365.0 0.002740 390.33289 390.33157
350.0 0.002857 390.87549 390.87421
350.0 0.002857 391.41794 391.41663
363.0 0.002755 391.96002 391.95877
366.0 0.002732 392.50198 392.50064
360.0 0.002778 393.04364 393.04230
371.0 0.002695 393.58502 393.58371
369.0 0.002710 394.12610 394.12479
389.0 0.002571 394.66678 394.66550
375.0 0.002667 395.20728 395.20593
342.0 0.002924 395.74725 395.74597
360.0 0.002778 396.28705 396.28568
365.0 0.002740 396.82645 396.82498
350.0 0.002857 397.36530 397.36383
338.0 0.002959 397.90372 397.90237
344.0 0.002907 398.44186 398.44049
356.0 0.002809 398.97949 398.97809
377.0 0.002653 399.51672 399.51526
364.0 0.002747 400.05338 400.05191
331.0 0.003021 400.58948 400.58804
338.0 0.002959 401.12521 401.12378
390.0 0.002564 401.66043 401.65897
375.0 0.002667 402.19510 402.19363
385.0 0.002597 402.72910 402.72763
412.0 0.002427 403.26266 403.26117
387.0 0.002584 403.79562 403.79407
355.0 0.002817 404.32791 404.32648
351.0 0.002849 404.85962 404.85815
305.0 0.003279 405.39069 405.38919
364.0 0.002747 405.92114 405.91962
356.0 0.002809 406.45099 406.44940
339.0 0.002950 406.98001 406.97852
393.0 0.002545 407.50861 407.50693
348.0 0.002874 408.03629 408.03470
370.0 0.002703 408.56335 408.56174
373.0 0.002681 409.08963 409.09320
357.0 0.002801 409.61517 409.61908
335.0 0.002985 410.14001 410.14438
350.0 0.002857 410.66409 410.67157
369.0 0.002710 411.18729 411.19543
358.0 0.002793 411.70981 411.71875
356.0 0.002809 412.23148 412.24136
358.0 0.002793 412.75244 412.76337
361.0 0.002770 413.27243 413.28455
329.0 0.003040 413.79160 414.90930
335.0 0.002985 414.30997 415.51065
357.0 0.002801 414.82742 416.12109
367.0 0.002725 415.34396 417.30280
377.0 0.002653 415.85968 418.64511
409.0 0.002445 416.37442 419.39044
392.0 0.002551 416.88837 420.16693
373.0 0.002681 417.40128 421.32108
366.0 0.002732 417.91336 422.21692
363.0 0.002755 418.42441 423.18774
362.0 0.002762 418.93451 424.24829
359.0 0.002786 419.44360 425.41696
382.0 0.002618 419.95175 426.72403
405.0 0.002469 420.45892 428.21274
422.0 0.002370 420.96506 429.95880
432.0 0.002315 421.47006 432.15964
421.0 0.002375 421.97415 435.55075
418.0 0.002392 422.47717 441.88989
449.0 0.002227 422.97928 452.43802
448.0 0.002232 423.48007 466.95190
453.0 0.002208 423.97995 485.74582
483.0 0.002070 424.47873 510.08841
534.0 0.001873 424.97641 540.82361
577.0 0.001733 425.47299 578.09088
602.0 0.001661 425.96844 621.25452
596.0 0.001678 426.46271 670.36169
686.0 0.001458 426.95593 729.84747
830.0 0.001205 427.44791 802.46039
894.0 0.001119 427.93881 892.64301
1079.0 0.000927 428.42856 1011.33618
1233.0 0.000811 428.91705 1181.02087
1549.0 0.000646 429.40439 1447.59583
1894.0 0.000528 429.89053 1763.94922
1761.0 0.000568 430.37552 1740.09021
1518.0 0.000659 430.85928 1480.42981
1503.0 0.000665 431.34177 1488.29675
1472.0 0.000679 431.82306 1458.20251
1175.0 0.000851 432.30313 1222.56262
899.0 0.001112 432.78192 926.51508
817.0 0.001224 433.25946 817.87860
651.0 0.001536 433.73569 698.24329
550.0 0.001818 434.21066 549.86719
408.0 0.002451 434.68448 487.87442
390.0 0.002564 435.15683 469.62778
394.0 0.002538 435.62796 461.46692
400.0 0.002500 436.09772 456.47034
395.0 0.002532 436.56616 453.15579
388.0 0.002577 437.03336 450.86230
413.0 0.002421 437.49918 449.23294
407.0 0.002457 437.96371 448.06812
400.0 0.002500 438.42682 447.23218
386.0 0.002591 438.88858 446.63876
418.0 0.002392 439.34900 446.22870
424.0 0.002358 439.80807 445.96014
420.0 0.002381 440.26569 444.05032
415.0 0.002410 440.72189 444.12408
386.0 0.002591 441.17673 444.25256
390.0 0.002564 441.63028 443.57294
419.0 0.002387 442.08228 442.77246
405.0 0.002469 442.53290 443.15909
425.0 0.002353 442.98215 454.64093
414.0 0.002415 443.42984 455.31403
417.0 0.002398 443.87628 456.65012
434.0 0.002304 444.32114 463.65955
435.0 0.002299 444.76450 465.62646
426.0 0.002347 445.20654 467.78561
420.0 0.002381 445.64700 470.17273
436.0 0.002294 446.08603 472.83313
449.0 0.002227 446.52356 475.82397
466.0 0.002146 446.95963 479.21957
458.0 0.002183 447.39426 483.11847
473.0 0.002114 447.82724 487.65448
517.0 0.001934 448.25888 493.01605
548.0 0.001825 448.68890 499.47711
565.0 0.001770 449.11746 507.46231
582.0 0.001718 449.54449 517.70013
620.0 0.001613 449.96997 531.94214
694.0 0.001441 450.39389 556.79291
752.0 0.001330 450.81635 610.33472
787.0 0.001271 451.23727 709.38715
911.0 0.001098 451.65652 851.29016
1040.0 0.000962 452.07431 1033.61353
1161.0 0.000861 452.49048 1261.90991
1364.0 0.000733 452.90515 1536.08301
1614.0 0.000620 453.31824 1857.18445
1992.0 0.000502 453.72968 2234.56299
2529.0 0.000395 454.13962 2685.36548
3193.0 0.0003132 454.54788 3236.63330
3920.0 0.0002551 454.95462 3931.56665
4778.0 0.0002093 455.35974 4849.59473
6283.0 0.0001592 455.76321 6166.88867
8594.0 0.0001164 456.16516 8294.96875
11717.0 0.0000853 456.56543 11240.38672
11813.0 0.0000847 456.96417 11707.83008
8158.0 0.0001226 457.36115 8063.27100
6441.0 0.0001553 457.75659 6402.33887
5293.0 0.0001889 458.15045 5204.98584
2629.0 0.000380 458.54260 2638.13086
1159.0 0.000863 458.93307 1273.26245
797.0 0.001255 459.32199 889.47455
683.0 0.001464 459.70923 754.09644
601.0 0.001664 460.09479 678.85620
593.0 0.001686 460.47873 630.45703
584.0 0.001712 460.86105 597.23602
573.0 0.001745 461.24164 573.36017
571.0 0.001751 461.62054 555.58893
528.0 0.001894 461.99780 541.99377
499.0 0.002004 462.37341 531.36157
508.0 0.001969 462.74731 522.89630
495.0 0.002020 463.11951 516.05560
478.0 0.002092 463.49005 510.45776
458.0 0.002183 463.85889 505.82855
450.0 0.002222 464.22607 501.96561
422.0 0.002370 464.59158 498.71777
441.0 0.002268 464.95529 477.20953
454.0 0.002203 465.31744 476.41995
434.0 0.002304 465.67776 475.78491
448.0 0.002232 466.03644 466.03418
457.0 0.002188 466.39334 466.39108
464.0 0.002155 466.74854 466.74637
500.0 0.002000 467.10205 467.09976
475.0 0.002105 467.45386 467.45166
449.0 0.002227 467.80392 467.80167
462.0 0.002165 468.15231 468.15005
483.0 0.002070 468.49890 468.49664
490.0 0.002041 468.84372 468.84146
492.0 0.002033 469.18683 469.18466
468.0 0.002137 469.52829 469.52600
489.0 0.002045 469.86795 483.82693
489.0 0.002045 470.20593 485.15518
472.0 0.002119 470.54202 486.59302
466.0 0.002146 470.87650 495.08862
458.0 0.002183 471.20917 497.29337
488.0 0.002049 471.54016 499.72842
516.0 0.001938 471.86932 502.43503
502.0 0.001992 472.19678 505.46484
512.0 0.001953 472.52240 508.88290
491.0 0.002037 472.84634 512.77234
512.0 0.001953 473.16852 517.24249
550.0 0.001818 473.48892 522.43390
561.0 0.001783 473.80759 528.54584
592.0 0.001689 474.12442 535.85052
633.0 0.001580 474.43945 544.75500
680.0 0.001471 474.75290 555.88953
739.0 0.001353 475.06442 570.32379
771.0 0.001297 475.37424 590.65131
845.0 0.001183 475.68219 626.38086
943.0 0.001060 475.98846 703.29895
1063.0 0.000941 476.29300 845.38013
1245.0 0.000803 476.59561 1047.66309
1347.0 0.000742 476.89655 1306.86792
1529.0 0.000654 477.19565 1634.09668
1826.0 0.000548 477.49304 2033.37671
2366.0 0.000423 477.78867 2509.16455
2776.0 0.000360 478.08234 3078.77905
3359.0 0.0002977 478.37442 3774.14673
4216.0 0.0002372 478.66464 4648.80811
5331.0 0.0001876 478.95303 5801.12549
6896.0 0.0001450 479.23965 7442.28174
9993.0 0.0001001 479.52457 10073.62695
13973.0 0.0000716 479.80762 13814.07520
14600.0 0.0000685 480.08887 14768.66602
9575.0 0.0001044 480.36844 10137.91992
7440.0 0.0001344 480.64618 7858.22754
6636.0 0.0001507 480.92206 7037.13525
3756.0 0.0002662 481.19617 3931.54810
1537.0 0.000651 481.46838 1765.23132
930.0 0.001075 481.73898 1100.36426
757.0 0.001321 482.00781 890.26794
691.0 0.001447 482.27469 781.54895
703.0 0.001422 482.53986 713.01685
646.0 0.001548 482.80322 666.53156
614.0 0.001629 483.06485 633.36835
626.0 0.001597 483.32468 608.79767
588.0 0.001701 483.58261 590.06171
560.0 0.001786 483.83881 575.42188
618.0 0.001618 484.09317 563.76544
585.0 0.001709 484.34583 554.32886
578.0 0.001730 484.59671 546.58307
597.0 0.001675 484.84567 540.15472
611.0 0.001637 485.09286 534.76178
594.0 0.001684 485.33835 530.20001
590.0 0.001695 485.58194 501.86252
565.0 0.001770 485.82385 500.55188
559.0 0.001789 486.06390 512.98291
588.0 0.001701 486.30222 500.77243
587.0 0.001704 486.53860 502.05502
577.0 0.001733 486.77335 503.45575
604.0 0.001656 487.00629 512.10760
628.0 0.001592 487.23737 514.31683
644.0 0.001553 487.46671 530.83905
648.0 0.001543 487.69418 534.58630
666.0 0.001502 487.91992 538.79553
703.0 0.001422 488.14398 550.46509
679.0 0.001473 488.36612 556.37445
710.0 0.001408 488.58649 563.15015
738.0 0.001355 488.80505 570.98871
754.0 0.001326 489.02188 580.16333
774.0 0.001292 489.23697 591.04901
821.0 0.001218 489.45020 604.17480
897.0 0.001115 489.66171 620.36646
982.0 0.001018 489.87137 640.98615
1023.0 0.000978 490.07928 669.24731
1139.0 0.000878 490.28546 746.76111
1260.0 0.000794 490.48978 843.95581
1430.0 0.000699 490.69241 1012.98505
1687.0 0.000593 490.89325 1265.37634
1907.0 0.000524 491.09222 1571.33069
2259.0 0.000443 491.28952 1964.12354
2491.0 0.000401 491.48505 2470.77783
3122.0 0.0003203 491.67871 3131.39673
3779.0 0.0002646 491.87067 3981.75439
4736.0 0.0002111 492.06085 5057.76611
6067.0 0.0001648 492.24936 6446.97021
8166.0 0.0001225 492.43597 8327.69336
11450.0 0.0000873 492.62091 11111.54980
16033.0 0.0000624 492.80399 15241.62988
19033.0 0.0000525 492.98538 18296.37305
16188.0 0.0000618 493.16507 15491.77539
13743.0 0.0000728 493.34296 13432.13184
15204.0 0.0000658 493.51907 14911.97656
16812.0 0.0000595 493.69333 15727.62793
16800.0 0.0000595 493.86606 16661.77148
15230.0 0.0000657 494.03693 15318.07227
10569.0 0.0000946 494.20602 10699.15039
9520.0 0.0001050 494.37338 9679.71387
9191.0 0.0001088 494.53903 9619.96582
6892.0 0.0001451 494.70294 7395.82373
5647.0 0.0001771 494.86511 6458.68799
6341.0 0.0001577 495.02554 7186.71826
7552.0 0.0001324 495.18423 8671.51270
9634.0 0.0001038 495.34116 10761.13379
13162.0 0.0000760 495.49634 13738.21387
18628.0 0.0000537 495.64984 18415.53125
25555.0 0.0000391 495.80161 25710.02344
28465.0 0.0000351 495.95175 30672.99023
22733.0 0.0000440 496.09998 22950.78711
15935.0 0.0000628 496.24661 15766.04883
14119.0 0.0000708 496.39148 15089.90234
10525.0 0.0000950 496.53467 10947.47949
5073.0 0.0001971 496.67612 4825.42578
2249.0 0.000445 496.81586 2290.90991
1509.0 0.000663 496.95386 1562.40308
1266.0 0.000790 497.09024 1259.81274
1106.0 0.000904 497.22488 1055.21143
1051.0 0.000951 497.35782 937.53668
985.0 0.001015 497.48901 859.48840
865.0 0.001156 497.61853 787.10199
812.0 0.001232 497.74640 742.73901
751.0 0.001332 497.87250 708.48340
711.0 0.001406 497.99701 683.76208
729.0 0.001372 498.11978 662.27295
722.0 0.001385 498.24088 644.86603
686.0 0.001458 498.36026 633.43793
699.0 0.001431 498.47800 621.93536
682.0 0.001466 498.59412 612.50775
681.0 0.001468 498.70847 604.81921
653.0 0.001531 498.82120 551.58527
674.0 0.001484 498.93225 550.73041
685.0 0.001460 499.04163 550.64789
634.0 0.001577 499.14935 526.71246
671.0 0.001490 499.25537 530.33270
669.0 0.001495 499.35980 534.77380
672.0 0.001488 499.46265 540.37744
728.0 0.001374 499.56375 547.77716
763.0 0.001311 499.66318 558.85760
789.0 0.001267 499.76102 579.99597
812.0 0.001232 499.85721 622.55542
866.0 0.001155 499.95181 690.90070
904.0 0.001106 500.04465 781.43048
963.0 0.001038 500.13593 896.86609
1070.0 0.000935 500.22559 1043.87292
1251.0 0.000799 500.31363 1227.31360
1501.0 0.000666 500.40002 1457.24426
1728.0 0.000579 500.48480 1755.68750
2121.0 0.000471 500.56805 2154.55859
2842.0 0.000352 500.64957 2710.21069
3767.0 0.0002655 500.72949 3566.17285
5084.0 0.0001967 500.80789 4827.22607
5413.0 0.0001847 500.88464 5507.26709
4161.0 0.0002403 500.95984 4261.18115
3390.0 0.0002950 501.03336 3485.51367
3568.0 0.0002803 501.10529 3690.50098
3237.0 0.0003089 501.17566 3365.37256
2883.0 0.0003469 501.24448 2925.66870
3146.0 0.0003179 501.31168 3285.77563
3380.0 0.0002959 501.37732 3568.58936
2680.0 0.000373 501.44138 2663.62695
1915.0 0.000522 501.50388 2007.60107
1785.0 0.000560 501.56473 1977.97778
1561.0 0.000641 501.62411 1588.91785
982.0 0.001018 501.68188 975.82477
683.0 0.001464 501.73819 713.17303
624.0 0.001603 501.79285 635.42401
604.0 0.001656 501.84595 601.17249
599.0 0.001669 501.89761 580.07556
601.0 0.001664 501.94766 565.66534
587.0 0.001704 501.99615 555.24097
578.0 0.001730 502.04312 547.38434
573.0 0.001745 502.08853 541.28070
574.0 0.001742 502.13248 536.41895
565.0 0.001770 502.17487 524.95587
540.0 0.001852 502.21564 522.30334
536.0 0.001866 502.25504 520.11249
573.0 0.001745 502.29288 514.42267
546.0 0.001832 502.32922 513.19025
525.0 0.001905 502.36401 512.14844
524.0 0.001908 502.39737 511.25952
549.0 0.001821 502.42917 505.69580
561.0 0.001783 502.45953 505.42047
527.0 0.001898 502.48834 505.18478
541.0 0.001848 502.51569 502.51382
570.0 0.001754 502.54160 502.53964
576.0 0.001736 502.56601 511.32736
550.0 0.001818 502.58884 511.95776
552.0 0.001812 502.61038 512.65320
537.0 0.001862 502.63034 513.42322
541.0 0.001848 502.64890 518.78595
520.0 0.001923 502.66595 520.06323
541.0 0.001848 502.68149 521.49500
539.0 0.001855 502.69571 523.11029
541.0 0.001848 502.70837 524.94220
547.0 0.001828 502.71970 527.03503
563.0 0.001776 502.72949 529.44379
565.0 0.001770 502.73795 532.23749
572.0 0.001748 502.74493 535.51050
626.0 0.001597 502.75043 539.38531
655.0 0.001527 502.75455 544.03400
619.0 0.001616 502.75729 549.69971
645.0 0.001550 502.75861 556.73523
650.0 0.001538 502.75842 565.70367
693.0 0.001443 502.75693 577.55713
777.0 0.001287 502.75403 594.51599
903.0 0.001107 502.74973 624.31354
894.0 0.001119 502.74399 687.68323
980.0 0.001020 502.73691 804.89673
1102.0 0.000907 502.72845 973.45898
1310.0 0.000763 502.71854 1189.57031
1614.0 0.000620 502.70731 1467.40002
1995.0 0.000501 502.69476 1822.31506
2223.0 0.000450 502.68073 2267.39819
2734.0 0.000366 502.66541 2831.49512
3536.0 0.0002828 502.64871 3576.88452
4854.0 0.0002060 502.63071 4640.48535
6779.0 0.0001475 502.61130 6335.36133
8939.0 0.0001119 502.59064 8663.83887
9288.0 0.0001077 502.56857 9070.01270
6470.0 0.0001546 502.54514 6041.82031
4846.0 0.0002064 502.52036 4641.99561
4765.0 0.0002099 502.49432 4786.94824
3664.0 0.0002729 502.46686 3537.12085
1888.0 0.000530 502.43817 1744.25159
985.0 0.001015 502.40817 1018.60950
792.0 0.001263 502.37683 810.10669
757.0 0.001321 502.34424 720.47449
713.0 0.001403 502.31015 684.27716
657.0 0.001522 502.27496 650.22919
642.0 0.001558 502.23846 626.85297
658.0 0.001520 502.20065 610.23828
656.0 0.001524 502.16156 606.94788
611.0 0.001637 502.12125 598.78668
607.0 0.001647 502.07953 593.05811
623.0 0.001605 502.03668 589.28247
576.0 0.001736 501.99240 587.12915
562.0 0.001779 501.94699 586.42273
595.0 0.001681 501.90033 587.01105
590.0 0.001695 501.85233 588.89233
574.0 0.001742 501.80316 592.11639
604.0 0.001656 501.75275 582.07318
649.0 0.001541 501.70108 589.64270
705.0 0.001418 501.64819 599.12384
754.0 0.001326 501.59406 603.38910
762.0 0.001312 501.53870 619.28778
823.0 0.001215 501.48209 639.82086
858.0 0.001166 501.42438 667.49408
961.0 0.001041 501.36530 709.09229
1083.0 0.000923 501.30511 788.37927
1280.0 0.000781 501.24371 955.07886
1562.0 0.000640 501.18112 1235.28992
1832.0 0.000546 501.11734 1622.27441
2169.0 0.000461 501.05240 2120.95044
2528.0 0.000396 500.98621 2765.73145
3209.0 0.0003116 500.91885 3592.02271
4238.0 0.0002360 500.85034 4640.35840
5517.0 0.0001813 500.78073 6004.11963
7723.0 0.0001295 500.70981 7891.74365
10885.0 0.0000919 500.63794 10796.82813
16143.0 0.0000619 500.56479 15225.26074
19457.0 0.0000514 500.49045 18131.20313
13652.0 0.0000732 500.41501 13345.95898
8563.0 0.0001168 500.33841 8875.50195
9241.0 0.0001082 500.26071 8853.90625
8537.0 0.0001171 500.18188 8107.17725
4374.0 0.0002286 500.10193 4285.36035
1799.0 0.000556 500.02084 1970.33435
1129.0 0.000886 499.93863 1264.17859
963.0 0.001038 499.85535 1023.19910
871.0 0.001148 499.77094 889.44977
767.0 0.001304 499.68533 795.42365
747.0 0.001339 499.59882 732.53223
679.0 0.001473 499.51105 689.73309
651.0 0.001536 499.42227 658.43848
587.0 0.001704 499.33246 634.49866
593.0 0.001686 499.24149 615.68683
535.0 0.001869 499.14941 600.60632
569.0 0.001757 499.05637 588.29889
564.0 0.001773 498.96225 578.11322
566.0 0.001767 498.86703 569.57330
543.0 0.001842 498.77069 562.33325
516.0 0.001938 498.67337 556.13965
526.0 0.001901 498.57504 520.24298
489.0 0.002045 498.47565 518.07086
489.0 0.002045 498.37524 516.18280
527.0 0.001898 498.27371 498.44485
505.0 0.001980 498.17130 498.32593
536.0 0.001866 498.06781 498.12491
521.0 0.001919 497.96326 498.01486
510.0 0.001961 497.85767 497.90454
485.0 0.002062 497.75122 497.74988
469.0 0.002132 497.64368 497.64240
514.0 0.001946 497.53510 497.53387
498.0 0.002008 497.42569 497.42432
490.0 0.002041 497.31509 497.31387
481.0 0.002079 497.20364 497.20233
502.0 0.001992 497.09122 497.08990
523.0 0.001912 496.97772 496.97641
491.0 0.002037 496.86334 496.86212
497.0 0.002012 496.74799 496.74677
469.0 0.002132 496.63165 496.63037
473.0 0.002114 496.51437 496.51312
473.0 0.002114 496.39618 496.39493
503.0 0.001988 496.27707 496.27576
501.0 0.001996 496.15695 496.15573
519.0 0.001927 496.03589 496.03464
494.0 0.002024 495.91394 495.91272
491.0 0.002037 495.79111 495.78989
490.0 0.002041 495.66730 495.66611
511.0 0.001957 495.54257 495.54138
495.0 0.002020 495.41693 495.41574
501.0 0.001996 495.29047 495.28931
482.0 0.002075 495.16302 495.16190
459.0 0.002179 495.03467 495.03354
466.0 0.002146 494.90555 494.90442
485.0 0.002062 494.77542 494.77423
513.0 0.001949 494.64444 494.64331
449.0 0.002227 494.51266 494.51151
488.0 0.002049 494.37997 494.37881
516.0 0.001938 494.24646 494.24527
483.0 0.002070 494.11191 494.11081
465.0 0.002151 493.97675 493.97559
479.0 0.002088 493.84048 493.83942
469.0 0.002132 493.70355 493.70245
467.0 0.002141 493.56577 493.56467
507.0 0.001972 493.42703 499.82544
458.0 0.002183 493.28760 500.12830
486.0 0.002058 493.14731 500.47839
511.0 0.001957 493.00620 500.88275
451.0 0.002217 492.86423 504.56235
463.0 0.002160 492.72147 505.32657
481.0 0.002079 492.57791 506.20117
509.0 0.001965 492.43359 507.20627
542.0 0.001845 492.28839 508.36505
532.0 0.001880 492.14246 509.70801
480.0 0.002083 491.99576 511.27310
505.0 0.001980 491.84821 513.10742
515.0 0.001942 491.69989 515.27484
510.0 0.001961 491.55084 517.85663
537.0 0.001862 491.40103 520.96570
565.0 0.001770 491.25040 524.75745
552.0 0.001812 491.09912 529.45044
568.0 0.001761 490.94696 535.37769
589.0 0.001698 490.79407 543.05579
626.0 0.001597 490.64056 553.38861
634.0 0.001577 490.48615 568.48615
699.0 0.001431 490.33109 595.55878
807.0 0.001239 490.17532 652.90558
902.0 0.001109 490.01880 755.69904
1057.0 0.000946 489.86160 909.79987
1245.0 0.000803 489.70352 1104.76355
1477.0 0.000677 489.54498 1356.81970
1709.0 0.000585 489.38559 1687.40601
2088.0 0.000479 489.22549 2125.10620
2706.0 0.000370 489.06473 2715.04639
3716.0 0.0002691 488.90326 3580.13477
5554.0 0.0001801 488.74118 4951.97949
7155.0 0.0001398 488.57831 6499.25342
6236.0 0.0001604 488.41486 5931.25000
4111.0 0.0002432 488.25070 3771.35474
3463.0 0.0002888 488.08582 3187.29199
3733.0 0.0002679 487.92041 3478.58813
2932.0 0.0003411 487.75418 2760.80151
1588.0 0.000630 487.58740 1469.98315
941.0 0.001063 487.42001 904.49115
751.0 0.001332 487.25186 740.53558
639.0 0.001565 487.08316 674.98425
612.0 0.001634 486.91376 639.06158
653.0 0.001531 486.74380 618.52502
632.0 0.001582 486.57318 608.52618
656.0 0.001524 486.40195 609.59546
652.0 0.001534 486.23013 629.91760
704.0 0.001420 486.05771 678.85272
765.0 0.001307 485.88464 759.06689
889.0 0.001125 485.71094 865.69952
1030.0 0.000971 485.53665 1006.65326
1148.0 0.000871 485.36185 1194.20642
1363.0 0.000734 485.18640 1446.39502
1852.0 0.000540 485.01044 1789.27783
2460.0 0.000407 484.83386 2282.83569
3459.0 0.0002891 484.65662 3084.75952
4186.0 0.0002389 484.47897 3970.10156
3703.0 0.0002701 484.30066 3601.79907
2406.0 0.000416 484.12186 2349.66797
2141.0 0.000467 483.94250 2023.54126
2240.0 0.000446 483.76251 2207.00293
1822.0 0.000549 483.58197 1829.81018
1065.0 0.000939 483.40094 1073.17395
680.0 0.001471 483.21942 729.96161
598.0 0.001672 483.03735 628.96747
566.0 0.001767 482.85464 588.54950
572.0 0.001748 482.67154 565.70544
538.0 0.001859 482.48788 551.42029
542.0 0.001845 482.30374 542.25415
512.0 0.001953 482.11917 536.55853
509.0 0.001965 481.93390 533.64630
499.0 0.002004 481.74829 533.90900
531.0 0.001883 481.56201 539.87384
558.0 0.001792 481.37543 554.96716
607.0 0.001647 481.18835 580.29181
649.0 0.001541 481.00073 614.46960
650.0 0.001538 480.81262 659.47723
679.0 0.001473 480.62411 720.25775
753.0 0.001328 480.43512 795.81525
886.0 0.001129 480.24564 909.75818
1050.0 0.000952 480.05563 1080.47278
1337.0 0.000748 479.86526 1353.95630
1602.0 0.000624 479.67444 1643.02173
1500.0 0.000667 479.48318 1529.36548
1207.0 0.000829 479.29150 1215.32959
1116.0 0.000896 479.09930 1212.04016
1293.0 0.000773 478.90677 1376.46191
1367.0 0.000732 478.71371 1396.51941
1336.0 0.000749 478.52042 1358.83398
1525.0 0.000656 478.32657 1551.74841
1915.0 0.000522 478.13226 1970.74011
2136.0 0.000468 477.93759 2263.76782
1671.0 0.000598 477.74261 1778.30457
1241.0 0.000806 477.54721 1285.48315
1228.0 0.000814 477.35132 1262.81201
1253.0 0.000798 477.15503 1331.28650
1002.0 0.000998 476.95847 1036.16028
650.0 0.001538 476.76151 706.66034
501.0 0.001996 476.56412 582.26300
477.0 0.002096 476.36639 543.69543
463.0 0.002160 476.16830 525.44855
452.0 0.002212 475.96979 514.15814
394.0 0.002538 475.77100 506.47229
434.0 0.002304 475.57181 500.92709
466.0 0.002146 475.37241 494.65289
443.0 0.002257 475.17245 491.56244
410.0 0.002439 474.97226 489.09885
455.0 0.002198 474.77170 487.08707
492.0 0.002033 474.57089 484.36853
456.0 0.002193 474.36975 483.03564
415.0 0.002410 474.16809 481.89087
425.0 0.002353 473.96631 480.89450
401.0 0.002494 473.76416 480.01590
426.0 0.002347 473.56177 475.96118
452.0 0.002212 473.35901 475.52328
451.0 0.002217 473.15582 475.11795
402.0 0.002488 472.95251 474.73969
433.0 0.002309 472.74884 472.74854
471.0 0.002123 472.54498 472.54468
418.0 0.002392 472.34073 472.34042
420.0 0.002381 472.13617 472.13583
412.0 0.002427 471.93146 471.93118
433.0 0.002309 471.72641 471.72607
440.0 0.002273 471.52106 471.52081
438.0 0.002283 471.31552 471.31525
423.0 0.002364 471.10962 471.10941
433.0 0.002309 470.90356 470.90329
443.0 0.002257 470.69720 470.69696
453.0 0.002208 470.49060 470.49042
473.0 0.002114 470.28387 470.28363
470.0 0.002128 470.07672 470.07645
422.0 0.002370 469.86945 469.86923
450.0 0.002222 469.66196 469.66174
467.0 0.002141 469.45422 469.45398
458.0 0.002183 469.24628 469.24603
438.0 0.002283 469.03799 469.03784
427.0 0.002342 468.82965 468.82950
437.0 0.002288 468.62106 468.62091
434.0 0.002304 468.41229 468.41208
428.0 0.002336 468.20322 468.20306
438.0 0.002283 467.99402 467.99387
468.0 0.002137 467.78473 467.78455
465.0 0.002151 467.57507 467.57492
450.0 0.002222 467.36530 467.36517
421.0 0.002375 467.15540 467.15518
438.0 0.002283 466.94525 466.94513
437.0 0.002288 466.73502 466.73486
415.0 0.002410 466.52444 466.52435
433.0 0.002309 466.31387 466.31378
458.0 0.002183 466.10312 471.43890
434.0 0.002304 465.89218 471.59058
452.0 0.002212 465.68106 471.78049
442.0 0.002262 465.46985 475.27328
446.0 0.002242 465.25848 478.39407
452.0 0.002212 465.04709 479.16241
488.0 0.002049 464.83527 480.04593
508.0 0.001969 464.62354 484.73309
536.0 0.001866 464.41162 486.15900
538.0 0.001859 464.19968 487.79742
500.0 0.002000 463.98749 489.68878
523.0 0.001912 463.77515 492.89804
520.0 0.001923 463.56284 495.52527
517.0 0.001934 463.35034 498.60672
515.0 0.001942 463.13776 502.24734
507.0 0.001972 462.92505 506.59045
528.0 0.001894 462.71222 511.83078
531.0 0.001883 462.49939 518.23499
597.0 0.001675 462.28644 526.20032
543.0 0.001842 462.07336 536.31946
638.0 0.001567 461.86029 549.57001
652.0 0.001534 461.64703 567.86005
719.0 0.001391 461.43378 596.76007
808.0 0.001238 461.22037 652.18964
888.0 0.001126 461.00702 754.74396
1065.0 0.000939 460.79352 916.55072
1198.0 0.000835 460.58002 1142.94836
1441.0 0.000694 460.36636 1458.78491
1762.0 0.000568 460.15274 1896.96887
2340.0 0.000427 459.93906 2491.57837
3230.0 0.0003096 459.72537 3344.90234
4565.0 0.0002191 459.51154 4663.92432
5924.0 0.0001688 459.29779 6379.58301
6500.0 0.0001538 459.08392 6943.82227
5990.0 0.0001669 458.87015 5941.42480
5912.0 0.0001691 458.65622 5907.28760
5711.0 0.0001751 458.44229 5747.19336
5016.0 0.0001994 458.22839 5141.15771
4705.0 0.0002125 458.01440 4405.81592
4552.0 0.0002197 457.80048 4286.46973
3858.0 0.0002592 457.58655 3659.07104
2454.0 0.000407 457.37253 2211.27051
1773.0 0.000564 457.15866 1587.44983
1698.0 0.000589 456.94467 1570.73706
1568.0 0.000638 456.73074 1498.32117
1102.0 0.000907 456.51682 1054.57813
759.0 0.001318 456.30289 747.76941
613.0 0.001631 456.08896 640.21527
561.0 0.001783 455.87503 595.96173
536.0 0.001866 455.66129 569.87146
512.0 0.001953 455.44745 552.09003
510.0 0.001961 455.23364 539.27795
506.0 0.001976 455.01993 529.75507
509.0 0.001965 454.80615 522.55432
510.0 0.001961 454.59253 506.86053
474.0 0.002110 454.37894 503.64795
458.0 0.002183 454.16528 501.49130
482.0 0.002075 453.95181 494.39197
474.0 0.002110 453.73837 489.35141
487.0 0.002053 453.52502 492.39508
508.0 0.001969 453.31165 494.98157
511.0 0.001957 453.09833 491.88940
504.0 0.001984 452.88522 497.91519
527.0 0.001898 452.67203 507.02661
552.0 0.001812 452.45905 519.59039
611.0 0.001637 452.24612 540.24420
651.0 0.001536 452.03314 588.08398
759.0 0.001318 451.82037 673.54126
911.0 0.001098 451.60767 802.95697
951.0 0.001052 451.39514 971.09912
1137.0 0.000880 451.18268 1191.59851
1446.0 0.000692 450.97018 1497.23718
1880.0 0.000532 450.75787 1935.08167
2661.0 0.000376 450.54568 2606.38745
3703.0 0.0002701 450.33365 3615.81934
4522.0 0.0002211 450.12170 4328.73633
3242.0 0.0003085 449.90976 3293.94409
1935.0 0.000517 449.69809 2151.45801
2003.0 0.000499 449.48651 2035.70935
2402.0 0.000416 449.27502 2333.25146
2120.0 0.000472 449.06366 2037.93665
1216.0 0.000822 448.85245 1203.65161
767.0 0.001304 448.64142 792.76453
653.0 0.001531 448.43045 689.63025
675.0 0.001481 448.21967 681.58881
648.0 0.001543 448.00903 709.67963
728.0 0.001374 447.79852 766.25275
796.0 0.001256 447.58820 856.41095
939.0 0.001065 447.37799 992.48846
1187.0 0.000842 447.16797 1205.23633
1501.0 0.000666 446.95813 1540.35425
1751.0 0.000571 446.74829 1857.28064
1546.0 0.000647 446.53885 1610.07727
1106.0 0.000904 446.32947 1138.93188
983.0 0.001017 446.12030 1032.81372
1079.0 0.000927 445.91138 1137.43665
1090.0 0.000917 445.70242 1117.59802
875.0 0.001143 445.49384 819.43805
690.0 0.001449 445.28534 637.44183
634.0 0.001577 445.07709 592.76520
675.0 0.001481 444.86902 607.00177
723.0 0.001383 444.66104 664.21051
801.0 0.001248 444.45346 774.23810
925.0 0.001081 444.24591 928.79388
1065.0 0.000939 444.03870 1136.95483
1360.0 0.000735 443.83157 1423.35120
1895.0 0.000528 443.62469 1829.77075
2707.0 0.000369 443.41806 2449.38550
3842.0 0.0002603 443.21158 3411.43970
4634.0 0.0002158 443.00543 4340.56641
3791.0 0.0002638 442.79947 3680.79565
2394.0 0.000418 442.59366 2313.83252
1991.0 0.000502 442.38806 1976.28137
2280.0 0.000439 442.18277 2259.80176
2243.0 0.000446 441.97772 2249.45874
1480.0 0.000676 441.77289 1420.55896
864.0 0.001157 441.56821 838.76422
603.0 0.001658 441.36383 647.71368
534.0 0.001873 441.15976 584.21973
551.0 0.001815 440.95590 556.50116
582.0 0.001718 440.75232 540.01184
531.0 0.001883 440.54883 518.51379
523.0 0.001912 440.34576 499.47421
480.0 0.002083 440.14282 490.25275
460.0 0.002174 439.94031 486.27365
462.0 0.002165 439.73795 480.50555
454.0 0.002203 439.53583 470.69458
446.0 0.002242 439.33414 463.93155
380.0 0.002632 439.13254 460.09338
426.0 0.002347 438.93127 457.38394
413.0 0.002421 438.73038 455.18634
424.0 0.002358 438.52960 445.25766
408.0 0.002451 438.32922 444.32507
382.0 0.002618 438.12903 443.51239
433.0 0.002309 437.92926 442.79324
400.0 0.002500 437.72971 437.95612
380.0 0.002632 437.53036 437.72589
409.0 0.002445 437.33145 437.50214
402.0 0.002488 437.13272 437.28314
443.0 0.002257 436.93439 437.06802
423.0 0.002364 436.73630 436.85583
409.0 0.002445 436.53848 436.64618
427.0 0.002342 436.34109 436.38397
420.0 0.002381 436.14389 436.18253
404.0 0.002475 435.94708 435.98196
396.0 0.002525 435.75064 435.78238
384.0 0.002604 435.55429 435.55496
379.0 0.002639 435.35855 435.35910
376.0 0.002660 435.16293 435.16348
390.0 0.002564 434.96771 434.96835
382.0 0.002618 434.77283 434.77344
400.0 0.002500 434.57822 434.57880
398.0 0.002513 434.38397 434.38455
418.0 0.002392 434.18994 434.19064
422.0 0.002370 433.99646 433.99713
395.0 0.002532 433.80319 433.80389
383.0 0.002611 433.61032 433.61090
389.0 0.002571 433.41779 433.41843
394.0 0.002538 433.22552 433.22623
389.0 0.002571 433.03372 433.03439
386.0 0.002591 432.84225 432.84286
405.0 0.002469 432.65103 432.65173
427.0 0.002342 432.46024 432.46088
409.0 0.002445 432.26978 432.27048
377.0 0.002653 432.07971 432.08041
393.0 0.002545 431.89005 431.89069
394.0 0.002538 431.70062 431.70132
388.0 0.002577 431.51169 431.51236
387.0 0.002584 431.32306 431.32370
353.0 0.002833 431.13483 431.13550
365.0 0.002740 430.94693 430.94763
396.0 0.002525 430.75940 430.76007
382.0 0.002618 430.57236 430.57303
366.0 0.002732 430.38556 430.38626
360.0 0.002778 430.19925 430.19992
374.0 0.002674 430.01324 430.01398
390.0 0.002564 429.82764 429.82831
388.0 0.002577 429.64246 429.64316
428.0 0.002336 429.45761 429.45837
418.0 0.002392 429.27322 429.27402
361.0 0.002770 429.08923 429.09000
381.0 0.002625 428.90558 428.90628
414.0 0.002415 428.72235 428.72314
412.0 0.002427 428.53952 428.54025
378.0 0.002646 428.35715 428.35785
400.0 0.002500 428.17514 428.17584
465.0 0.002151 427.99344 427.99420
414.0 0.002415 427.81229 427.81305
419.0 0.002387 427.63147 427.63226
414.0 0.002415 427.45114 427.45190
426.0 0.002347 427.27112 427.27194
410.0 0.002439 427.09158 427.09238
377.0 0.002653 426.91254 426.91327
415.0 0.002410 426.73380 426.73453
417.0 0.002398 426.55554 426.55630
400.0 0.002500 426.37772 426.37839
417.0 0.002398 426.20023 426.20096
419.0 0.002387 426.02319 426.02396
410.0 0.002439 425.84665 425.84738
394.0 0.002538 425.67053 425.67139
413.0 0.002421 425.49478 425.49564
432.0 0.002315 425.31949 425.32025
407.0 0.002457 425.14471 425.14551
423.0 0.002364 424.97031 424.97110
408.0 0.002451 424.79633 424.79715
433.0 0.002309 424.62289 424.62366
430.0 0.002326 424.44983 426.32712
411.0 0.002433 424.27719 426.27884
403.0 0.002481 424.10495 426.24380
409.0 0.002445 423.93329 426.22391
411.0 0.002433 423.76202 426.22119
417.0 0.002398 423.59122 427.18402
407.0 0.002457 423.42087 427.28726
421.0 0.002375 423.25095 427.42395
409.0 0.002445 423.08154 427.59946
396.0 0.002525 422.91251 427.82071
414.0 0.002415 422.74402 428.09622
420.0 0.002381 422.57596 436.40891
406.0 0.002463 422.40839 437.36990
425.0 0.002353 422.24130 438.48315
431.0 0.002320 422.07465 439.77966
436.0 0.002294 421.90842 441.29883
429.0 0.002331 421.74277 447.10193
410.0 0.002439 421.57745 449.51083
424.0 0.002358 421.41275 455.78772
437.0 0.002288 421.24847 459.49225
447.0 0.002237 421.08469 464.02502
436.0 0.002294 420.92126 469.69754
467.0 0.002141 420.75848 477.04626
534.0 0.001873 420.59616 490.05209
527.0 0.001898 420.43427 506.90665
550.0 0.001818 420.27283 538.89551
611.0 0.001637 420.11200 592.67761
688.0 0.001453 419.95157 674.10681
772.0 0.001295 419.79160 780.12488
908.0 0.001101 419.63226 924.05646
1164.0 0.000859 419.47324 1133.37976
1506.0 0.000664 419.31488 1455.64368
2009.0 0.000498 419.15689 1933.95447
2425.0 0.000412 418.99951 2267.78003
2076.0 0.000482 418.84256 1836.64856
1534.0 0.000652 418.68607 1418.69067
1557.0 0.000642 418.53021 1524.16821
1924.0 0.000520 418.37473 1955.74011
2259.0 0.000443 418.21982 2377.00317
2364.0 0.000423 418.06540 2563.59985
2795.0 0.000358 417.91141 3037.24219
3707.0 0.0002698 417.75806 4093.79395
5590.0 0.0001789 417.60510 5853.96582
7040.0 0.0001420 417.45273 7438.47998
5746.0 0.0001740 417.30087 6119.46729
3337.0 0.0002997 417.14951 3925.53271
3147.0 0.0003178 416.99866 3553.30371
4029.0 0.0002482 416.84833 4345.53662
4892.0 0.0002044 416.69855 5185.19922
4735.0 0.0002112 416.54932 4753.15137
4437.0 0.0002254 416.40048 4316.98145
3876.0 0.0002580 416.25226 3731.38794
2432.0 0.000411 416.10455 2531.90283
1966.0 0.000509 415.95734 2110.15088
2389.0 0.000419 415.81067 2401.44507
3031.0 0.0003299 415.66449 2895.50562
2648.0 0.000378 415.51892 2579.56543
1594.0 0.000627 415.37378 1555.13525
1038.0 0.000963 415.22925 1060.23621
922.0 0.001085 415.08527 981.83215
963.0 0.001038 414.94174 1023.46442
886.0 0.001129 414.79883 922.79041
702.0 0.001425 414.65634 691.92938
578.0 0.001730 414.51450 568.98041
518.0 0.001931 414.37311 523.52094
467.0 0.002141 414.23236 486.57202
473.0 0.002114 414.09207 473.38855
476.0 0.002101 413.95230 464.03500
455.0 0.002198 413.81311 457.05206
430.0 0.002326 413.67447 451.66147
431.0 0.002320 413.53635 440.11255
434.0 0.002304 413.39883 437.33597
452.0 0.002212 413.26187 428.53827
430.0 0.002326 413.12537 427.50250
450.0 0.002222 412.98947 426.95090
445.0 0.002247 412.85403 427.06161
413.0 0.002421 412.71927 428.51822
410.0 0.002439 412.58496 429.42435
413.0 0.002421 412.45132 437.55472
417.0 0.002398 412.31808 449.64828
429.0 0.002331 412.18549 466.11353
443.0 0.002257 412.05350 488.85614
490.0 0.002041 411.92188 523.66840
498.0 0.002008 411.79102 579.12708
541.0 0.001848 411.66061 640.96082
527.0 0.001898 411.53076 621.11090
495.0 0.002020 411.40155 533.49774
446.0 0.002242 411.27283 499.55054
444.0 0.002252 411.14468 510.55457
468.0 0.002137 411.01709 532.57660
463.0 0.002160 410.88998 513.44000
458.0 0.002183 410.76358 463.65366
456.0 0.002193 410.63770 439.39792
432.0 0.002315 410.51242 432.52658
430.0 0.002326 410.38760 430.75153
425.0 0.002353 410.26334 430.74298
416.0 0.002404 410.13974 431.86978
430.0 0.002326 410.01669 434.03879
454.0 0.002203 409.89423 438.81860
479.0 0.002088 409.77231 443.92047
516.0 0.001938 409.65097 451.69113
513.0 0.001949 409.53015 465.32028
554.0 0.001805 409.40994 495.66562
540.0 0.001852 409.29031 550.69727
681.0 0.001468 409.17120 634.94391
785.0 0.001274 409.05270 752.56177
853.0 0.001172 408.93484 917.38196
1154.0 0.000867 408.81747 1151.51038
1563.0 0.000640 408.70068 1521.86914
2231.0 0.000448 408.58453 2055.20337
2428.0 0.000412 408.46890 2322.84204
1801.0 0.000555 408.35385 1700.08386
1204.0 0.000831 408.23938 1164.93396
1163.0 0.000860 408.12558 1104.80591
1327.0 0.000754 408.01227 1279.58191
1397.0 0.000716 407.89951 1362.29382
1059.0 0.000944 407.78735 1003.92444
665.0 0.001504 407.67584 670.50555
568.0 0.001761 407.56485 547.84027
526.0 0.001901 407.45450 510.39542
494.0 0.002024 407.34464 496.21033
524.0 0.001908 407.23544 492.73734
528.0 0.001894 407.12680 500.53372
553.0 0.001808 407.01874 525.64764
630.0 0.001587 406.91122 569.81140
713.0 0.001403 406.80435 642.33905
809.0 0.001236 406.69806 745.63861
969.0 0.001032 406.59238 905.66809
1213.0 0.000824 406.48724 1155.92761
1613.0 0.000620 406.38269 1542.28137
1971.0 0.000507 406.27878 1972.40857
2002.0 0.000500 406.17538 1990.38818
1952.0 0.000512 406.07257 1836.01587
2231.0 0.000448 405.97043 2105.94336
2484.0 0.000403 405.86884 2436.39429
2189.0 0.000457 405.76779 2098.03833
1581.0 0.000633 405.66742 1535.39038
1232.0 0.000812 405.56760 1195.04761
1210.0 0.000826 405.46835 1191.20239
1258.0 0.000795 405.36981 1256.88574
1037.0 0.000964 405.27167 1002.12128
739.0 0.001353 405.17422 699.73669
624.0 0.001603 405.07733 586.91089
620.0 0.001613 404.98108 575.38934
602.0 0.001661 404.88541 606.16400
649.0 0.001541 404.79028 670.94006
720.0 0.001389 404.69586 767.50067
884.0 0.001131 404.60196 910.61694
1136.0 0.000880 404.50873 1146.38123
1541.0 0.000649 404.41599 1507.70435
1728.0 0.000579 404.32385 1777.79602
1474.0 0.000678 404.23233 1496.32703
1185.0 0.000844 404.14142 1204.11707
1208.0 0.000828 404.05112 1266.93579
1660.0 0.000602 403.96146 1581.89917
2135.0 0.000468 403.87225 2002.39124
2212.0 0.000452 403.78375 2055.11401
1522.0 0.000657 403.69586 1478.80652
936.0 0.001068 403.60849 986.60876
816.0 0.001225 403.52179 871.59485
944.0 0.001059 403.43561 948.52228
1023.0 0.000978 403.35004 1037.42346
890.0 0.001124 403.26511 876.13068
601.0 0.001664 403.18076 624.58746
508.0 0.001969 403.09702 512.97583
508.0 0.001969 403.01385 476.50104
487.0 0.002053 402.93130 460.90134
431.0 0.002320 402.84937 452.41229
411.0 0.002433 402.76810 447.52292
468.0 0.002137 402.68732 444.63693
457.0 0.002188 402.60718 443.83255
469.0 0.002132 402.52756 442.27536
493.0 0.002028 402.44864 446.64328
471.0 0.002123 402.37027 455.26273
489.0 0.002045 402.29248 473.78439
540.0 0.001852 402.21533 513.20660
597.0 0.001675 402.13879 578.23505
643.0 0.001555 402.06281 675.11310
779.0 0.001284 401.98746 807.55817
989.0 0.001011 401.91269 1000.64337
1385.0 0.000722 401.83850 1309.25098
1828.0 0.000547 401.76495 1747.79175
1942.0 0.000515 401.69199 1951.84937
1437.0 0.000696 401.61963 1424.83521
980.0 0.001020 401.54785 990.13391
975.0 0.001026 401.47662 935.14929
1073.0 0.000932 401.40613 1072.82507
1123.0 0.000890 401.33615 1183.86572
928.0 0.001078 401.26685 941.25592
641.0 0.001560 401.19806 634.22565
512.0 0.001953 401.12985 507.07813
478.0 0.002092 401.06229 465.49796
447.0 0.002237 400.99536 446.66162
423.0 0.002364 400.92899 435.45963
406.0 0.002463 400.86319 428.06528
389.0 0.002571 400.79794 422.87430
373.0 0.002681 400.73343 419.06546
399.0 0.002506 400.66943 416.16791
427.0 0.002342 400.60608 413.90228
421.0 0.002375 400.54330 412.08871
378.0 0.002646 400.48114 410.60873
416.0 0.002404 400.41949 410.79480
404.0 0.002475 400.35849 409.85785
413.0 0.002421 400.29813 409.08432
400.0 0.002500 400.23837 404.91956
410.0 0.002439 400.17914 404.68091
448.0 0.002232 400.12061 405.19208
442.0 0.002262 400.06256 405.11664
421.0 0.002375 400.00519 405.09760
419.0 0.002387 399.94836 403.34341
399.0 0.002506 399.89212 409.70770
405.0 0.002469 399.83655 410.39835
398.0 0.002513 399.78149 411.18158
409.0 0.002445 399.72714 412.07373
417.0 0.002398 399.67322 413.09546
406.0 0.002463 399.61996 414.27316
395.0 0.002532 399.56738 418.81165
441.0 0.002268 399.51538 420.62570
417.0 0.002398 399.46384 422.75211
438.0 0.002283 399.41299 425.27429
415.0 0.002410 399.36282 428.30832
404.0 0.002475 399.31308 432.01947
424.0 0.002358 399.26398 436.66672
459.0 0.002179 399.21555 442.66843
447.0 0.002237 399.16769 451.23181
442.0 0.002262 399.12039 463.93390
524.0 0.001908 399.07361 487.43738
566.0 0.001767 399.02747 530.00433
613.0 0.001631 398.98203 594.13226
676.0 0.001479 398.93707 688.20624
885.0 0.001130 398.89270 819.25024
1065.0 0.000939 398.84894 1010.92426
1379.0 0.000725 398.80573 1313.21191
1746.0 0.000573 398.76321 1627.43335
1664.0 0.000601 398.72116 1511.77625
1287.0 0.000777 398.67975 1145.51660
1148.0 0.000871 398.63901 1123.44946
1431.0 0.000699 398.59879 1391.81982
1894.0 0.000528 398.55911 1868.76697
2338.0 0.000428 398.52008 2334.12207
2832.0 0.000353 398.48154 2792.29688
3932.0 0.0002543 398.44373 3740.91357
5207.0 0.0001920 398.40643 5103.99219
5015.0 0.0001994 398.36966 5244.08789
3189.0 0.0003136 398.33359 3307.71167
2008.0 0.000498 398.29807 2179.51514
2009.0 0.000498 398.26309 2143.55615
2608.0 0.000383 398.22870 2630.26636
2851.0 0.000351 398.19492 2962.61377
2154.0 0.000464 398.16168 2131.28613
1236.0 0.000809 398.12900 1174.43188
787.0 0.001271 398.09702 797.49890
665.0 0.001504 398.06555 691.03418
656.0 0.001524 398.03467 666.02728
696.0 0.001437 398.00433 682.65045
774.0 0.001292 397.97464 737.78192
801.0 0.001248 397.94547 794.55048
702.0 0.001425 397.91687 725.35291
603.0 0.001658 397.88885 612.94879
574.0 0.001742 397.86145 584.22919
591.0 0.001692 397.83453 618.45258
647.0 0.001546 397.80838 684.90448
716.0 0.001397 397.78262 733.99731
751.0 0.001332 397.75748 744.55920
871.0 0.001148 397.73297 819.89514
971.0 0.001030 397.70895 999.47211
1199.0 0.000834 397.68555 1216.48315
1109.0 0.000902 397.66272 1189.50183
916.0 0.001092 397.64047 990.65747
905.0 0.001105 397.61877 994.01807
1197.0 0.000835 397.59756 1189.21216
1523.0 0.000657 397.57706 1533.68188
1814.0 0.000551 397.55707 1769.61279
1319.0 0.000758 397.53769 1380.89124
874.0 0.001144 397.51883 910.02319
685.0 0.001460 397.50055 766.34351
805.0 0.001242 397.48282 807.40948
942.0 0.001062 397.46567 909.23029
907.0 0.001103 397.44910 879.29193
628.0 0.001592 397.43301 651.61560
492.0 0.002033 397.41754 510.11597
438.0 0.002283 397.40268 460.34766
424.0 0.002358 397.38840 441.11749
410.0 0.002439 397.37451 430.55304
407.0 0.002457 397.36133 423.71567
421.0 0.002375 397.34869 418.95139
418.0 0.002392 397.33661 415.46320
405.0 0.002469 397.32501 412.43588
384.0 0.002604 397.31406 410.38123
428.0 0.002336 397.30362 408.73691
436.0 0.002294 397.29376 407.39581
399.0 0.002506 397.28439 406.28546
396.0 0.002525 397.27560 405.16205
401.0 0.002494 397.26740 404.38269
408.0 0.002451 397.25974 403.71506
393.0 0.002545 397.25262 403.29532
419.0 0.002387 397.24606 402.80365
424.0 0.002358 397.24011 401.47864
407.0 0.002457 397.23462 401.15787
394.0 0.002538 397.22974 400.87756
372.0 0.002688 397.22534 400.63205
385.0 0.002597 397.22159 400.49704
403.0 0.002481 397.21829 399.85410
388.0 0.002577 397.21552 398.48676
374.0 0.002674 397.21332 398.45016
390.0 0.002564 397.21173 398.42511
402.0 0.002488 397.21066 398.41141
401.0 0.002494 397.21011 398.40921
391.0 0.002558 397.21005 397.78433
401.0 0.002494 397.21057 397.84625
380.0 0.002632 397.21164 397.91934
361.0 0.002770 397.21326 398.00629
375.0 0.002667 397.21539 398.11060
385.0 0.002597 397.21805 398.23730
401.0 0.002494 397.22131 398.90115
394.0 0.002538 397.22507 399.13077
394.0 0.002538 397.22934 399.41824
380.0 0.002632 397.23413 399.78812
358.0 0.002793 397.23944 400.28070
419.0 0.002387 397.24536 401.21539
429.0 0.002331 397.25171 402.32108
405.0 0.002469 397.25867 404.41284
422.0 0.002370 397.26614 409.91388
374.0 0.002674 397.27414 416.80798
410.0 0.002439 397.28268 427.49677
454.0 0.002203 397.29172 442.31647
509.0 0.001965 397.30130 464.62769
566.0 0.001767 397.31140 499.02902
602.0 0.001661 397.32190 531.73920
516.0 0.001938 397.33310 508.75519
438.0 0.002283 397.34479 460.69952
460.0 0.002174 397.35699 444.46194
478.0 0.002092 397.36960 450.28140
486.0 0.002058 397.38281 465.66644
520.0 0.001923 397.39658 472.03702
471.0 0.002123 397.41080 448.11749
419.0 0.002387 397.42560 427.39713
423.0 0.002364 397.44089 421.35767
397.0 0.002519 397.45660 422.47638
434.0 0.002304 397.47290 428.19714
428.0 0.002336 397.48972 441.14987
459.0 0.002179 397.50705 462.79819
512.0 0.001953 397.52487 496.57837
538.0 0.001859 397.54321 544.22375
605.0 0.001653 397.56207 616.32220
775.0 0.001290 397.58136 725.63361
894.0 0.001119 397.60123 819.13000
864.0 0.001157 397.62155 741.74689
647.0 0.001546 397.64246 624.50800
635.0 0.001575 397.66376 624.09656
685.0 0.001460 397.68561 709.96692
816.0 0.001225 397.70795 852.52454
1024.0 0.000977 397.73080 1012.67963
1160.0 0.000862 397.75418 1162.20996
1351.0 0.000740 397.77805 1395.26794
1378.0 0.000726 397.80234 1439.71716
1034.0 0.000967 397.82715 1040.79663
731.0 0.001368 397.85248 773.30890
707.0 0.001414 397.87833 743.10681
811.0 0.001233 397.90463 837.11707
913.0 0.001095 397.93140 962.84998
912.0 0.001096 397.95868 909.60278
765.0 0.001307 397.98639 708.02234
657.0 0.001522 398.01474 629.60181
712.0 0.001404 398.04346 653.48120
719.0 0.001391 398.07260 677.21259
613.0 0.001631 398.10239 592.68811
514.0 0.001946 398.13254 513.14441
502.0 0.001992 398.16324 492.90765
535.0 0.001869 398.19431 505.22012
590.0 0.001695 398.22592 530.57941
583.0 0.001715 398.25803 529.71027
523.0 0.001912 398.29062 477.54227
447.0 0.002237 398.32364 441.83401
428.0 0.002336 398.35718 428.99789
411.0 0.002433 398.39117 424.42722
449.0 0.002227 398.42566 422.34009
443.0 0.002257 398.46054 420.91022
415.0 0.002410 398.49597 420.75845
435.0 0.002299 398.53183 421.18362
458.0 0.002183 398.56818 422.12399
451.0 0.002217 398.60495 423.58170
475.0 0.002105 398.64218 425.35269
454.0 0.002203 398.67996 428.67880
462.0 0.002165 398.71814 432.30029
473.0 0.002114 398.75668 435.67468
466.0 0.002146 398.79584 442.10059
504.0 0.001984 398.83539 450.83347
541.0 0.001848 398.87543 463.17191
559.0 0.001789 398.91592 482.28925
600.0 0.001667 398.95685 516.23871
696.0 0.001437 398.99817 586.30396
838.0 0.001193 399.04007 716.18164
1008.0 0.000992 399.08228 917.80939
1298.0 0.000770 399.12500 1218.98474
1777.0 0.000563 399.16818 1673.84399
2671.0 0.000374 399.21179 2355.41797
3538.0 0.0002826 399.25589 3109.72974
3067.0 0.0003261 399.30035 2879.44434
1876.0 0.000533 399.34534 1777.99780
1274.0 0.000785 399.39078 1267.65759
1341.0 0.000746 399.43655 1291.25195
1650.0 0.000606 399.48282 1570.65442
1987.0 0.000503 399.52945 1840.65576
1690.0 0.000592 399.57663 1522.81445
998.0 0.001002 399.62427 929.12158
608.0 0.001645 399.67224 647.41071
574.0 0.001742 399.72070 554.31879
539.0 0.001855 399.76956 521.60352
535.0 0.001869 399.81885 507.63815
525.0 0.001905 399.86856 510.79321
546.0 0.001832 399.91876 529.09381
585.0 0.001709 399.96933 567.81940
645.0 0.001550 400.02032 625.33917
777.0 0.001287 400.07178 721.19952
963.0 0.001038 400.12360 854.70581
1022.0 0.000978 400.17584 914.32599
843.0 0.001186 400.22861 752.47107
668.0 0.001497 400.28162 616.52557
608.0 0.001645 400.33524 590.25964
654.0 0.001529 400.38916 624.25220
721.0 0.001387 400.44348 684.99091
759.0 0.001318 400.49826 698.15869
718.0 0.001393 400.55350 607.70526
660.0 0.001515 400.60910 545.69232
628.0 0.001592 400.66504 534.90796
650.0 0.001538 400.72144 548.65759
708.0 0.001412 400.77829 580.15137
813.0 0.001230 400.83548 640.47980
950.0 0.001053 400.89310 777.28662
1111.0 0.000900 400.95111 1028.31470
1433.0 0.000698 401.00949 1425.99365
1952.0 0.000512 401.06833 2010.74683
3021.0 0.0003310 401.12759 2920.36841
4449.0 0.0002248 401.18716 4250.17773
5795.0 0.0001726 401.24722 5463.36426
4646.0 0.0002152 401.30759 4523.14990
2624.0 0.000381 401.36835 2618.25708
1858.0 0.000538 401.42957 1917.13452
1949.0 0.000513 401.49109 2058.96729
2610.0 0.000383 401.55307 2599.38574
3134.0 0.0003191 401.61545 3054.61841
2504.0 0.000399 401.67822 2383.33130
1487.0 0.000672 401.74127 1371.02222
1001.0 0.000999 401.80484 951.65814
926.0 0.001080 401.86871 875.34637
1009.0 0.000991 401.93292 925.93610
1162.0 0.000861 401.99756 1079.19336
1520.0 0.000658 402.06259 1335.42554
1937.0 0.000516 402.12802 1550.16174
1606.0 0.000623 402.19376 1377.91077
1198.0 0.000835 402.25986 1180.56628
1281.0 0.000781 402.32645 1222.09753
1676.0 0.000597 402.39328 1453.27478
2022.0 0.000495 402.46054 1786.95227
2088.0 0.000479 402.52814 1771.38928
1516.0 0.000660 402.59610 1270.61877
1075.0 0.000930 402.66449 943.42749
949.0 0.001054 402.73322 874.15308
1039.0 0.000962 402.80225 931.48712
1174.0 0.000852 402.87164 1040.07141
1153.0 0.000867 402.94147 1017.61737
1063.0 0.000941 403.01163 903.46570
1081.0 0.000925 403.08209 945.10413
1205.0 0.000830 403.15292 1142.17053
1567.0 0.000638 403.22415 1514.15808
2167.0 0.000461 403.29568 2083.69727
2588.0 0.000386 403.36758 2584.12207
2639.0 0.000379 403.43985 2641.94336
2803.0 0.000357 403.51245 2935.60791
3285.0 0.0003044 403.58545 3492.34888
3339.0 0.0002995 403.65872 3375.68237
2997.0 0.0003337 403.73233 3018.27271
2475.0 0.000404 403.80630 2534.53198
1923.0 0.000520 403.88065 1964.05493
1717.0 0.000582 403.95529 1826.86926
1798.0 0.000556 404.03030 1955.93542
1711.0 0.000584 404.10556 1763.78394
1419.0 0.000705 404.18124 1424.15991
1036.0 0.000965 404.25726 1050.46204
769.0 0.001300 404.33356 752.91364
658.0 0.001520 404.41016 627.13263
637.0 0.001570 404.48721 590.66437
655.0 0.001527 404.56448 595.37622
651.0 0.001536 404.64206 637.68066
736.0 0.001359 404.72006 721.71411
882.0 0.001134 404.79834 855.59180
1163.0 0.000860 404.87698 1073.95593
1578.0 0.000634 404.95584 1384.09424
1717.0 0.000582 405.03506 1579.66125
1373.0 0.000728 405.11469 1261.09473
939.0 0.001065 405.19455 902.69604
810.0 0.001235 405.27463 824.76953
937.0 0.001067 405.35513 920.27271
1167.0 0.000857 405.43591 1118.81274
1361.0 0.000735 405.51706 1318.10706
1337.0 0.000748 405.59848 1315.65198
1248.0 0.000801 405.68018 1248.64233
1031.0 0.000970 405.76224 1040.79956
765.0 0.001307 405.84454 772.60028
696.0 0.001437 405.92712 671.81958
734.0 0.001362 406.01010 678.64758
773.0 0.001294 406.09335 744.26233
902.0 0.001109 406.17691 824.51685
845.0 0.001183 406.26065 794.30212
780.0 0.001282 406.34479 708.60321
783.0 0.001277 406.42917 734.30255
926.0 0.001080 406.51389 870.07440
1179.0 0.000848 406.59888 1123.10498
1605.0 0.000623 406.68411 1535.38696
2265.0 0.000442 406.76968 2154.96240
2943.0 0.0003398 406.85556 2760.16797
2968.0 0.0003369 406.94171 2749.37939
2965.0 0.0003373 407.02808 2600.08008
2709.0 0.000369 407.11475 2456.10229
1939.0 0.000516 407.20175 1866.74841
1598.0 0.000626 407.28894 1624.88489
1739.0 0.000575 407.37650 1731.44446
1716.0 0.000583 407.46423 1673.51904
1649.0 0.000606 407.55234 1509.13623
1508.0 0.000663 407.64069 1381.79968
1066.0 0.000938 407.72928 993.31549
715.0 0.001399 407.81818 689.34882
557.0 0.001795 407.90732 566.40131
480.0 0.002083 407.99670 518.05536
504.0 0.001984 408.08633 492.59641
497.0 0.002012 408.17627 476.13269
449.0 0.002227 408.26654 465.64267
455.0 0.002198 408.35693 457.68253
468.0 0.002137 408.44763 453.25894
461.0 0.002169 408.53864 450.56744
456.0 0.002193 408.62988 449.75632
464.0 0.002155 408.72131 451.33365
466.0 0.002146 408.81299 457.36942
466.0 0.002146 408.90497 472.49045
524.0 0.001908 408.99725 502.33078
559.0 0.001789 409.08972 552.30475
600.0 0.001667 409.18240 626.45081
720.0 0.001389 409.27530 744.26465
868.0 0.001152 409.36856 895.34546
921.0 0.001086 409.46198 932.87372
780.0 0.001282 409.55563 733.04370
606.0 0.001650 409.64960 589.56323
548.0 0.001825 409.74377 561.72833
573.0 0.001745 409.83810 594.28461
648.0 0.001543 409.93271 655.87726
681.0 0.001468 410.02759 689.16125
593.0 0.001686 410.12271 598.56854
487.0 0.002053 410.21796 503.63696
472.0 0.002119 410.31345 470.53659
500.0 0.002000 410.40924 471.59183
477.0 0.002096 410.50528 487.99319
517.0 0.001934 410.60144 525.21356
545.0 0.001835 410.69788 580.72803
649.0 0.001541 410.79456 670.02240
710.0 0.001408 410.89139 749.96173
623.0 0.001605 410.98853 692.35443
546.0 0.001832 411.08582 561.71271
504.0 0.001984 411.18326 508.30789
487.0 0.002053 411.28098 510.45883
508.0 0.001969 411.37897 541.80847
560.0 0.001786 411.47705 580.98798
544.0 0.001838 411.57541 569.01263
494.0 0.002024 411.67398 495.43631
425.0 0.002353 411.77267 449.80368
451.0 0.002217 411.87167 433.14117
421.0 0.002375 411.97083 426.65369
388.0 0.002577 412.07019 423.19000
422.0 0.002370 412.16977 421.01434
427.0 0.002342 412.26950 419.54407
411.0 0.002433 412.36938 417.76468
360.0 0.002778 412.46954 417.04779
379.0 0.002639 412.56989 416.51639
405.0 0.002469 412.67041 416.11664
407.0 0.002457 412.77109 415.81284
409.0 0.002445 412.87201 415.58127
403.0 0.002481 412.97308 415.02521
412.0 0.002427 413.07440 414.92456
408.0 0.002451 413.17575 414.84909
411.0 0.002433 413.27737 414.80017
391.0 0.002558 413.37918 414.84702
382.0 0.002618 413.48120 414.84259
400.0 0.002500 413.58334 414.99304
378.0 0.002646 413.68567 415.02658
395.0 0.002532 413.78818 415.07285
380.0 0.002632 413.89081 415.13089
416.0 0.002404 413.99371 414.73016
398.0 0.002513 414.09671 414.87653
407.0 0.002457 414.19989 414.99509
426.0 0.002347 414.30319 415.19461
408.0 0.002451 414.40674 415.33710
394.0 0.002538 414.51041 415.49203
405.0 0.002469 414.61426 415.42465
409.0 0.002445 414.71823 415.62958
423.0 0.002364 414.82236 415.86087
428.0 0.002336 414.92670 416.13348
404.0 0.002475 415.03110 416.48642
387.0 0.002584 415.13580 417.02145
401.0 0.002494 415.24054 417.88812
426.0 0.002347 415.34546 419.13272
400.0 0.002500 415.45056 421.09857
405.0 0.002469 415.55569 423.85260
422.0 0.002370 415.66107 427.58456
428.0 0.002336 415.76651 429.86969
423.0 0.002364 415.87216 426.68326
411.0 0.002433 415.97800 423.92825
397.0 0.002519 416.08392 424.28931
415.0 0.002410 416.19000 427.02518
414.0 0.002415 416.29614 432.55283
466.0 0.002146 416.40247 440.93222
463.0 0.002160 416.50894 452.84766
502.0 0.001992 416.61557 469.85141
535.0 0.001869 416.72226 498.56662
533.0 0.001876 416.82913 527.51923
570.0 0.001754 416.93607 540.32935
579.0 0.001727 417.04318 542.57721
524.0 0.001908 417.15045 514.02637
481.0 0.002079 417.25781 478.69464
449.0 0.002227 417.36523 472.12631
524.0 0.001908 417.47278 481.23065
469.0 0.002132 417.58057 488.34549
520.0 0.001923 417.68845 489.45129
477.0 0.002096 417.79636 481.50217
449.0 0.002227 417.90436 457.32605
403.0 0.002481 418.01254 443.51395
381.0 0.002625 418.12082 439.19064
415.0 0.002410 418.22925 438.45102
437.0 0.002288 418.33768 439.10611
429.0 0.002331 418.44632 440.73306
434.0 0.002304 418.55496 443.49451
437.0 0.002288 418.66382 448.30063
454.0 0.002203 418.77267 457.13736
458.0 0.002183 418.88174 471.28439
479.0 0.002088 418.99081 494.65219
513.0 0.001949 419.10004 527.55859
565.0 0.001770 419.20929 576.32379
625.0 0.001600 419.31873 618.39966
617.0 0.001621 419.42819 594.04095
559.0 0.001789 419.53778 545.54126
553.0 0.001808 419.64740 537.82550
563.0 0.001776 419.75711 563.27258
627.0 0.001595 419.86703 614.27081
742.0 0.001348 419.97696 698.41168
819.0 0.001221 420.08694 820.51947
1012.0 0.000988 420.19699 1000.57111
1309.0 0.000764 420.30719 1335.31226
1843.0 0.000543 420.41748 1873.66467
2719.0 0.000368 420.52774 2700.45386
3346.0 0.0002989 420.63812 3422.91724
2798.0 0.000357 420.74857 2888.23120
1716.0 0.000583 420.85913 1715.55811
1167.0 0.000857 420.96976 1214.54553
1193.0 0.000838 421.08047 1221.44128
1464.0 0.000683 421.19122 1465.94348
1805.0 0.000554 421.30203 1851.71667
1824.0 0.000548 421.41296 1937.59448
1365.0 0.000733 421.52383 1339.66040
917.0 0.001091 421.63489 844.65833
661.0 0.001513 421.74594 650.69238
581.0 0.001721 421.85703 585.88910
615.0 0.001626 421.96826 568.04492
629.0 0.001590 422.07953 578.42517
631.0 0.001585 422.19086 615.68677
752.0 0.001330 422.30215 693.00287
920.0 0.001087 422.41351 813.67474
1205.0 0.000830 422.52502 976.31427
1259.0 0.000794 422.63651 1028.35828
934.0 0.001071 422.74814 818.29919
690.0 0.001449 422.85971 646.92712
618.0 0.001618 422.97131 603.23376
644.0 0.001553 423.08301 627.63049
738.0 0.001355 423.19470 692.31305
867.0 0.001153 423.30652 759.49280
810.0 0.001235 423.41833 719.73682
651.0 0.001536 423.53012 600.84631
547.0 0.001828 423.64203 539.40173
566.0 0.001767 423.75397 523.96643
555.0 0.001802 423.86597 527.04248
549.0 0.001821 423.97791 540.86249
606.0 0.001650 424.08990 563.89819
698.0 0.001433 424.20193 619.87506
776.0 0.001289 424.31403 739.43146
935.0 0.001070 424.42615 958.89246
1287.0 0.000777 424.53821 1319.64478
1764.0 0.000567 424.65030 1883.57532
2613.0 0.000383 424.76251 2725.97656
3512.0 0.0002847 424.87473 3475.69922
2911.0 0.0003435 424.98688 2968.63940
1760.0 0.000568 425.09915 1801.73804
1261.0 0.000793 425.21130 1319.91711
1222.0 0.000818 425.32358 1373.03906
1490.0 0.000671 425.43588 1657.02368
1872.0 0.000534 425.54813 2002.77454
1957.0 0.000511 425.66043 2077.74756
1514.0 0.000661 425.77264 1487.51941
923.0 0.001083 425.88498 941.57678
726.0 0.001377 425.99725 728.52466
624.0 0.001603 426.10959 674.53467
596.0 0.001678 426.22189 646.40771
561.0 0.001783 426.33420 582.07477
515.0 0.001942 426.44650 530.15991
488.0 0.002049 426.55878 512.54462
486.0 0.002058 426.67117 511.73715
495.0 0.002020 426.78342 524.42358
549.0 0.001821 426.89572 551.50580
611.0 0.001637 427.00803 595.07550
630.0 0.001587 427.12030 624.70447
585.0 0.001709 427.23264 578.16577
518.0 0.001931 427.34482 516.90948
479.0 0.002088 427.45703 493.20377
491.0 0.002037 427.56927 494.59177
493.0 0.002028 427.68158 508.44250
514.0 0.001946 427.79376 529.89246
513.0 0.001949 427.90594 535.31256
470.0 0.002128 428.01804 503.25555
453.0 0.002208 428.13025 478.44629
453.0 0.002208 428.24234 472.82166
494.0 0.002024 428.35446 473.38074
511.0 0.001957 428.46652 486.95605
520.0 0.001923 428.57852 508.62885
548.0 0.001825 428.69058 538.29596
534.0 0.001873 428.80258 550.66461
514.0 0.001946 428.91455 519.83716
498.0 0.002008 429.02640 493.21982
496.0 0.002016 429.13834 491.70157
536.0 0.001866 429.25009 504.53046
547.0 0.001828 429.36209 528.38928
557.0 0.001795 429.47382 564.26959
628.0 0.001592 429.58557 608.79706
682.0 0.001466 429.69727 682.54767
804.0 0.001244 429.80884 832.73932
1060.0 0.000943 429.92053 1096.07825
1426.0 0.000701 430.03217 1499.68225
2025.0 0.000494 430.14362 1989.31177
2398.0 0.000417 430.25513 2120.77271
1807.0 0.000553 430.36658 1564.00452
1114.0 0.000898 430.47800 1030.84814
784.0 0.001276 430.58923 869.44299
869.0 0.001151 430.70053 929.92725
1069.0 0.000935 430.81174 1111.09131
1352.0 0.000740 430.92300 1325.20178
1411.0 0.000709 431.03412 1306.55615
1092.0 0.000916 431.14514 1004.60168
890.0 0.001124 431.25613 818.59167
840.0 0.001190 431.36710 818.43866
986.0 0.001014 431.47800 909.28259
979.0 0.001021 431.58878 920.73755
790.0 0.001266 431.69962 742.49500
585.0 0.001709 431.81024 606.73834
560.0 0.001786 431.92087 567.66351
533.0 0.001876 432.03140 581.61481
611.0 0.001637 432.14188 624.90240
679.0 0.001473 432.25232 678.95581
658.0 0.001520 432.36270 665.45306
573.0 0.001745 432.47287 570.27167
496.0 0.002016 432.58313 509.14929
479.0 0.002088 432.69321 486.62796
475.0 0.002105 432.80325 479.05560
481.0 0.002079 432.91321 476.61310
474.0 0.002110 433.02310 477.16544
463.0 0.002160 433.13293 480.28055
476.0 0.002101 433.24265 486.54321
515.0 0.001942 433.35233 498.99008
549.0 0.001821 433.46176 522.59387
610.0 0.001639 433.57132 565.64233
713.0 0.001403 433.68069 636.67249
812.0 0.001232 433.78989 764.64819
1000.0 0.001000 433.89917 952.45764
1234.0 0.000810 434.00827 1180.61792
1280.0 0.000781 434.11725 1222.31531
1295.0 0.000772 434.22617 1186.37329
1463.0 0.000684 434.33499 1337.43445
1648.0 0.000607 434.44373 1582.70691
1614.0 0.000620 434.55234 1515.27893
1408.0 0.000710 434.66083 1316.87939
1289.0 0.000776 434.76935 1331.13989
1151.0 0.000869 434.87762 1246.30029
1007.0 0.000993 434.98590 1041.15271
1024.0 0.000977 435.09402 994.52319
1061.0 0.000943 435.20203 1035.98865
957.0 0.001045 435.30994 921.59216
756.0 0.001323 435.41779 773.75806
699.0 0.001431 435.52542 731.59912
639.0 0.001565 435.63309 679.06512
572.0 0.001748 435.74048 585.18823
532.0 0.001880 435.84790 533.39215
523.0 0.001912 435.95508 517.67072
528.0 0.001894 436.06229 512.51379
538.0 0.001859 436.16928 505.48932
528.0 0.001894 436.27615 509.79346
528.0 0.001894 436.38297 537.03192
583.0 0.001715 436.48969 587.96069
618.0 0.001618 436.59619 680.12323
762.0 0.001312 436.70267 815.87268
1048.0 0.000954 436.80887 963.75708
935.0 0.001070 436.91507 929.82355
730.0 0.001370 437.02109 712.84058
555.0 0.001802 437.12708 588.02783
547.0 0.001828 437.23288 564.57483
544.0 0.001838 437.33844 590.69757
583.0 0.001715 437.44403 647.87128
663.0 0.001508 437.54950 715.53497
686.0 0.001458 437.65469 686.17035
558.0 0.001792 437.75983 572.35260
478.0 0.002092 437.86484 505.48901
498.0 0.002008 437.96973 481.94223
409.0 0.002445 438.07443 471.31238
469.0 0.002132 438.17908 466.66577
442.0 0.002262 438.28345 465.57758
459.0 0.002179 438.38776 464.47644
473.0 0.002114 438.49194 463.54846
480.0 0.002083 438.59592 464.01547
477.0 0.002096 438.69983 465.04541
453.0 0.002208 438.80359 466.31708
459.0 0.002179 438.90710 468.46127
451.0 0.002217 439.01059 471.23428
449.0 0.002227 439.11386 474.75592
448.0 0.002232 439.21698 479.17859
500.0 0.002000 439.32004 484.85083
505.0 0.001980 439.42285 492.16364
499.0 0.002004 439.52548 501.78601
515.0 0.001942 439.62802 514.80585
568.0 0.001761 439.73041 533.14197
612.0 0.001634 439.83258 560.82898
688.0 0.001453 439.93469 608.77820
788.0 0.001269 440.03665 702.84503
986.0 0.001014 440.13840 881.09766
1276.0 0.000784 440.23996 1167.61072
1731.0 0.000578 440.34134 1687.18799
2480.0 0.000403 440.44260 2392.27905
3003.0 0.0003330 440.54364 2973.02100
2968.0 0.0003369 440.64456 2833.93457
2917.0 0.0003428 440.74539 2686.45630
2790.0 0.000358 440.84592 2647.16602
2174.0 0.000460 440.94635 2022.78979
1655.0 0.000604 441.04663 1613.02100
1638.0 0.000611 441.14667 1673.00574
1783.0 0.000561 441.24658 1854.77246
1792.0 0.000558 441.34634 1732.32556
1676.0 0.000597 441.44586 1598.92078
1526.0 0.000655 441.54526 1527.25659
1169.0 0.000855 441.64447 1144.37036
805.0 0.001242 441.74350 797.35559
596.0 0.001678 441.84235 643.01416
565.0 0.001770 441.94095 581.55353
557.0 0.001795 442.03949 550.86133
500.0 0.002000 442.13788 532.40137
486.0 0.002058 442.23599 520.55750
498.0 0.002008 442.33386 515.75897
513.0 0.001949 442.43158 511.15182
471.0 0.002123 442.52917 508.76776
548.0 0.001825 442.62662 508.26770
504.0 0.001984 442.72379 509.54160
546.0 0.001832 442.82077 512.67139
501.0 0.001996 442.91766 517.94812
517.0 0.001934 443.01419 527.36395
498.0 0.002008 443.11069 539.17542
529.0 0.001890 443.20691 556.50934
594.0 0.001684 443.30295 583.02661
680.0 0.001471 443.39886 626.65302
752.0 0.001330 443.49445 711.58789
857.0 0.001167 443.58994 887.74414
1129.0 0.000886 443.68521 1210.16467
1608.0 0.000622 443.78030 1742.82739
2425.0 0.000412 443.87515 2589.12427
3279.0 0.0003050 443.96982 3548.91797
3373.0 0.0002965 444.06427 3568.37500
2253.0 0.000444 444.15851 2267.28076
1330.0 0.000752 444.25259 1387.77039
1055.0 0.000948 444.34637 1163.95569
1140.0 0.000877 444.44006 1271.35034
1416.0 0.000706 444.53351 1613.42126
1828.0 0.000547 444.62671 2060.30371
1940.0 0.000515 444.71973 2160.59961
1505.0 0.000664 444.81253 1543.47095
1051.0 0.000951 444.90515 1053.52625
898.0 0.001114 444.99759 932.17206
977.0 0.001024 445.08978 1036.50000
1168.0 0.000856 445.18167 1306.92773
1595.0 0.000627 445.27344 1782.39612
2128.0 0.000470 445.36502 2328.89893
2145.0 0.000466 445.45627 2327.82715
1515.0 0.000660 445.54742 1555.05554
974.0 0.001027 445.63824 1030.28809
809.0 0.001236 445.72891 890.43445
870.0 0.001149 445.81937 944.93048
1053.0 0.000950 445.90961 1143.20728
1352.0 0.000740 445.99960 1410.25793
1426.0 0.000701 446.08939 1498.13953
1122.0 0.000891 446.17889 1166.13257
867.0 0.001153 446.26825 884.58203
783.0 0.001277 446.35739 769.96167
650.0 0.001538 446.44629 671.32751
557.0 0.001795 446.53482 597.25598
532.0 0.001880 446.62326 568.28271
539.0 0.001855 446.71152 566.90106
565.0 0.001770 446.79947 582.07813
641.0 0.001560 446.88718 629.08362
689.0 0.001451 446.97461 708.47522
787.0 0.001271 447.06189 800.36267
952.0 0.001050 447.14902 967.54474
1287.0 0.000777 447.23578 1216.17859
1483.0 0.000674 447.32236 1405.49524
1228.0 0.000814 447.40866 1170.44482
845.0 0.001183 447.49475 818.00232
633.0 0.001580 447.58060 667.41516
629.0 0.001590 447.66620 651.70050
665.0 0.001504 447.75162 709.71698
820.0 0.001220 447.83667 820.26196
881.0 0.001135 447.92160 931.63660
877.0 0.001140 448.00626 864.34857
681.0 0.001468 448.09073 664.84546
544.0 0.001838 448.17487 551.91394
460.0 0.002174 448.25870 508.44522
495.0 0.002020 448.34241 490.68335
468.0 0.002137 448.42587 481.19370
442.0 0.002262 448.50909 475.59894
467.0 0.002141 448.59198 472.55878
468.0 0.002137 448.67465 469.95288
490.0 0.002041 448.75708 471.68518
468.0 0.002137 448.83932 475.34836
502.0 0.001992 448.92123 479.85138
535.0 0.001869 449.00287 481.50592
504.0 0.001984 449.08435 484.24225
533.0 0.001876 449.16550 494.97226
568.0 0.001761 449.24640 509.05136
553.0 0.001808 449.32706 508.63797
513.0 0.001949 449.40753 491.37836
481.0 0.002079 449.48764 480.17200
469.0 0.002132 449.56760 476.89511
509.0 0.001965 449.64719 476.35809
494.0 0.002024 449.72659 480.77292
499.0 0.002004 449.80566 487.07025
484.0 0.002066 449.88455 492.32016
465.0 0.002151 449.96313 488.26224
473.0 0.002114 450.04147 491.29828
473.0 0.002114 450.11960 505.26984
498.0 0.002008 450.19739 533.70142
504.0 0.001984 450.27490 577.72925
548.0 0.001825 450.35211 622.53302
538.0 0.001859 450.42914 613.25806
493.0 0.002028 450.50589 567.08069
516.0 0.001938 450.58243 558.61920
577.0 0.001733 450.65866 594.91614
683.0 0.001464 450.73450 658.27167
731.0 0.001368 450.81024 718.30103
702.0 0.001425 450.88562 701.12268
637.0 0.001570 450.96082 653.83325
589.0 0.001698 451.03564 627.45105
624.0 0.001603 451.11017 653.66339
749.0 0.001335 451.18451 738.97449
885.0 0.001130 451.25861 848.54169
859.0 0.001164 451.33234 867.40826
755.0 0.001325 451.40579 751.31024
694.0 0.001441 451.47903 658.37872
707.0 0.001414 451.55197 659.05096
774.0 0.001292 451.62469 747.48956
950.0 0.001053 451.69711 922.75098
1198.0 0.000835 451.76904 1216.33325
1563.0 0.000640 451.84091 1536.54724
1584.0 0.000631 451.91251 1577.33313
1154.0 0.000867 451.98376 1168.15051
812.0 0.001232 452.05478 850.79468
794.0 0.001259 452.12546 775.72760
866.0 0.001155 452.19589 855.51117
942.0 0.001062 452.26596 1058.98914
1275.0 0.000784 452.33585 1394.67358
1732.0 0.000577 452.40543 1732.26843
1656.0 0.000604 452.47476 1644.66895
1168.0 0.000856 452.54370 1204.31506
991.0 0.001009 452.61246 1001.04846
1072.0 0.000933 452.68088 1045.47583
1185.0 0.000844 452.74902 1151.61304
1112.0 0.000899 452.81680 1096.57166
955.0 0.001047 452.88434 1002.70129
958.0 0.001044 452.95160 973.29688
807.0 0.001239 453.01862 846.27484
724.0 0.001381 453.08533 726.87164
688.0 0.001453 453.15170 714.70203
744.0 0.001344 453.21783 754.24579
775.0 0.001290 453.28360 738.67834
690.0 0.001449 453.34915 632.86383
543.0 0.001842 453.41446 558.19318
516.0 0.001938 453.47922 529.35999
511.0 0.001957 453.54395 522.13763
521.0 0.001919 453.60828 526.76678
573.0 0.001745 453.67230 544.11096
626.0 0.001597 453.73599 586.85266
699.0 0.001431 453.79953 668.52393
877.0 0.001140 453.86267 810.67328
1096.0 0.000912 453.92551 1011.48157
1390.0 0.000719 453.98804 1168.19373
1380.0 0.000725 454.05032 1069.15662
1004.0 0.000996 454.11224 809.37274
698.0 0.001433 454.17389 650.96570
627.0 0.001595 454.23532 611.69391
651.0 0.001536 454.29633 638.58771
757.0 0.001321 454.35706 712.57983
859.0 0.001164 454.41754 804.54437
895.0 0.001117 454.47763 823.65399
823.0 0.001215 454.53748 712.52002
673.0 0.001486 454.59702 594.51556
546.0 0.001832 454.65625 540.75140
501.0 0.001996 454.71512 525.46301
523.0 0.001912 454.77380 532.41455
546.0 0.001832 454.83206 561.10986
558.0 0.001792 454.89011 615.35834
674.0 0.001484 454.94775 710.20496
767.0 0.001304 455.00513 819.65570
775.0 0.001290 455.06223 833.61462
640.0 0.001563 455.11902 698.43665
561.0 0.001783 455.17551 602.89081
555.0 0.001802 455.23160 587.20184
597.0 0.001675 455.28741 630.63379
703.0 0.001422 455.34293 734.22400
881.0 0.001135 455.39822 910.95984
1094.0 0.000914 455.45303 1145.04736
1292.0 0.000774 455.50769 1283.99646
1124.0 0.000890 455.56192 1113.83203
773.0 0.001294 455.61591 804.21973
646.0 0.001548 455.66949 643.94836
533.0 0.001876 455.72293 602.93781
593.0 0.001686 455.77591 621.84766
664.0 0.001506 455.82864 686.74048
795.0 0.001258 455.88095 779.32050
796.0 0.001256 455.93307 820.93402
730.0 0.001370 455.98480 707.48077
545.0 0.001835 456.03629 588.01953
508.0 0.001969 456.08737 535.22986
476.0 0.002101 456.13818 518.36334
472.0 0.002119 456.18866 517.29181
545.0 0.001835 456.23883 529.24628
528.0 0.001894 456.28867 555.48383
574.0 0.001742 456.33823 602.79138
705.0 0.001418 456.38739 661.09808
742.0 0.001348 456.43631 684.70197
660.0 0.001515 456.48486 643.64819
624.0 0.001603 456.53308 641.11053
667.0 0.001499 456.58096 712.88293
882.0 0.001134 456.62860 854.34229
1143.0 0.000875 456.67584 1079.77576
1274.0 0.000785 456.72281 1204.96533
1149.0 0.000870 456.76938 1037.42407
859.0 0.001164 456.81580 804.96094
686.0 0.001458 456.86172 697.26959
694.0 0.001441 456.90738 718.99335
840.0 0.001190 456.95273 830.78796
1069.0 0.000935 456.99774 1044.45630
1330.0 0.000752 457.04239 1319.59351
1395.0 0.000717 457.08673 1362.30310
1114.0 0.000898 457.13077 1015.87988
749.0 0.001335 457.17447 732.49377
584.0 0.001712 457.21780 622.74268
556.0 0.001799 457.26086 606.45386
604.0 0.001656 457.30359 632.65253
655.0 0.001527 457.34598 702.81744
740.0 0.001351 457.38803 774.16095
732.0 0.001366 457.42975 746.18488
634.0 0.001577 457.47122 620.88550
554.0 0.001805 457.51224 542.36121
501.0 0.001996 457.55304 509.90683
469.0 0.002132 457.59335 496.52853
480.0 0.002083 457.63342 489.53058
475.0 0.002105 457.67322 485.32449
460.0 0.002174 457.71265 482.70874
468.0 0.002137 457.75174 480.82599
459.0 0.002179 457.79047 480.01431
449.0 0.002227 457.82895 482.98959
471.0 0.002123 457.86703 483.50943
500.0 0.002000 457.90475 484.56580
512.0 0.001953 457.94220 486.19812
503.0 0.001988 457.97928 487.35043
505.0 0.001980 458.01608 490.54617
500.0 0.002000 458.05243 495.84882
463.0 0.002160 458.08853 501.68066
496.0 0.002016 458.12427 511.27844
511.0 0.001957 458.15973 522.69751
515.0 0.001942 458.19479 539.67938
551.0 0.001815 458.22955 568.91791
633.0 0.001580 458.26398 622.66772
719.0 0.001391 458.29807 737.93750
851.0 0.001175 458.33179 954.26385
1132.0 0.000883 458.36517 1286.50696
1682.0 0.000595 458.39825 1811.00537
2041.0 0.000490 458.43097 2106.94312
1628.0 0.000614 458.46332 1694.29822
1034.0 0.000967 458.49542 1099.28784
780.0 0.001282 458.52716 829.75616
805.0 0.001242 458.55853 785.65485
802.0 0.001247 458.58957 859.62183
901.0 0.001110 458.62024 1025.42639
1179.0 0.000848 458.65060 1278.55188
1346.0 0.000743 458.68069 1368.25354
1180.0 0.000847 458.71033 1110.73755
892.0 0.001121 458.73972 875.47260
838.0 0.001193 458.76871 831.82043
1009.0 0.000991 458.79739 958.42487
1249.0 0.000801 458.82574 1243.09033
1743.0 0.000574 458.85376 1718.12634
2420.0 0.000413 458.88132 2366.71655
2693.0 0.000371 458.90872 2553.10352
1970.0 0.000508 458.93564 1884.47876
1367.0 0.000732 458.96234 1329.55823
1272.0 0.000786 458.98859 1220.14148
1456.0 0.000687 459.01447 1434.69397
1698.0 0.000589 459.04013 1740.76489
1894.0 0.000528 459.06537 1908.09399
1999.0 0.000500 459.09030 1997.58020
2005.0 0.000499 459.11487 1985.15259
1808.0 0.000553 459.13913 1785.96741
1715.0 0.000583 459.16306 1721.84119
1567.0 0.000638 459.18658 1568.41504
1313.0 0.000762 459.20978 1305.85242
1173.0 0.000853 459.23270 1174.87708
1065.0 0.000939 459.25516 1048.35022
1002.0 0.000998 459.27734 979.47205
1121.0 0.000892 459.29922 1078.23743
1394.0 0.000717 459.32071 1347.81091
1713.0 0.000584 459.34183 1681.00342
1777.0 0.000563 459.36267 1691.63745
1388.0 0.000720 459.38309 1284.65454
1055.0 0.000948 459.40329 990.34680
1027.0 0.000974 459.42303 972.35657
1191.0 0.000840 459.44247 1175.66492
1587.0 0.000630 459.46152 1570.72888
2289.0 0.000437 459.48032 2165.67554
2535.0 0.000394 459.49869 2457.66162
2068.0 0.000484 459.51678 1942.51282
1283.0 0.000779 459.53445 1257.62927
862.0 0.001160 459.55185 912.46210
786.0 0.001272 459.56885 829.72156
871.0 0.001148 459.58551 897.17773
1078.0 0.000928 459.60187 1073.44714
1305.0 0.000766 459.61789 1335.64697
1390.0 0.000719 459.63348 1395.23315
1111.0 0.000900 459.64877 1069.77112
769.0 0.001300 459.66376 773.54083
582.0 0.001718 459.67841 648.59430
551.0 0.001815 459.69260 602.86615
541.0 0.001848 459.70657 576.69543
529.0 0.001890 459.72009 559.78668
551.0 0.001815 459.73331 557.03430
518.0 0.001931 459.74619 553.24744
513.0 0.001949 459.75870 531.20325
517.0 0.001934 459.77090 513.73627
488.0 0.002049 459.78275 508.17987
498.0 0.002008 459.79425 506.05887
486.0 0.002058 459.80542 501.87790
483.0 0.002070 459.81622 493.98495
466.0 0.002146 459.82666 487.67148
488.0 0.002049 459.83679 486.08704
452.0 0.002212 459.84653 485.70856
478.0 0.002092 459.85593 486.24030
484.0 0.002066 459.86502 487.36688
497.0 0.002012 459.87378 489.27954
526.0 0.001901 459.88211 493.76761
509.0 0.001965 459.89017 499.17700
559.0 0.001789 459.89789 504.80353
551.0 0.001815 459.90515 517.75873
551.0 0.001815 459.91217 534.77234
583.0 0.001715 459.91882 548.50458
588.0 0.001701 459.92511 560.23883
656.0 0.001524 459.93115 593.29431
723.0 0.001383 459.93671 677.07953
891.0 0.001122 459.94199 838.25745
1165.0 0.000858 459.94690 1096.52710
1571.0 0.000637 459.95142 1458.53845
1691.0 0.000591 459.95569 1589.42114
1316.0 0.000760 459.95956 1231.31750
898.0 0.001114 459.96304 864.97797
733.0 0.001364 459.96625 713.73291
670.0 0.001493 459.96909 695.24988
730.0 0.001370 459.97159 755.44507
918.0 0.001089 459.97369 881.00458
1131.0 0.000884 459.97552 1079.11243
1286.0 0.000778 459.97699 1204.25037
1268.0 0.000789 459.97812 1160.52844
1196.0 0.000836 459.97885 1220.23267
1425.0 0.000702 459.97931 1530.05432
1929.0 0.000518 459.97934 2015.32019
2036.0 0.000491 459.97910 2109.65894
1544.0 0.000648 459.97845 1525.62500
1076.0 0.000929 459.97748 1033.60718
830.0 0.001205 459.97614 860.32727
866.0 0.001155 459.97452 878.09473
979.0 0.001021 459.97247 997.06445
1199.0 0.000834 459.97012 1168.69019
1415.0 0.000707 459.96747 1418.87366
1529.0 0.000654 459.96442 1543.10986
1438.0 0.000695 459.96103 1376.15283
1213.0 0.000824 459.95728 1183.82703
1046.0 0.000956 459.95325 1035.38318
1095.0 0.000913 459.94876 1013.98108
1238.0 0.000808 459.94409 1097.31213
1174.0 0.000852 459.93896 1063.62219
909.0 0.001100 459.93347 868.74274
740.0 0.001351 459.92761 753.24011
722.0 0.001385 459.92154 748.79401
786.0 0.001272 459.91501 774.91351
745.0 0.001342 459.90820 772.14984
783.0 0.001277 459.90106 809.49603
936.0 0.001068 459.89349 924.70581
999.0 0.001001 459.88565 1026.23218
988.0 0.001012 459.87744 964.96008
773.0 0.001294 459.86887 777.35974
593.0 0.001686 459.85999 636.70416
591.0 0.001692 459.85080 580.50720
570.0 0.001754 459.84119 569.72955
557.0 0.001795 459.83127 586.11108
584.0 0.001712 459.82098 626.04584
651.0 0.001536 459.81039 692.46118
768.0 0.001302 459.79947 759.45703
821.0 0.001218 459.78818 805.67065
948.0 0.001055 459.77655 912.22266
1158.0 0.000864 459.76456 1146.60828
1394.0 0.000717 459.75220 1363.46326
1314.0 0.000761 459.73956 1238.55420
841.0 0.001189 459.72650 886.32440
666.0 0.001502 459.71320 681.68884
604.0 0.001656 459.69955 615.33496
584.0 0.001712 459.68546 620.93018
655.0 0.001527 459.67102 678.38531
747.0 0.001339 459.65640 787.97253
876.0 0.001142 459.64136 909.16571
864.0 0.001157 459.62592 883.03937
678.0 0.001475 459.61020 705.57709
553.0 0.001808 459.59412 584.18201
510.0 0.001961 459.57773 533.52881
504.0 0.001984 459.56097 510.79977
507.0 0.001972 459.54388 496.96188
478.0 0.002092 459.52646 488.42657
457.0 0.002188 459.50870 483.26318
465.0 0.002151 459.49054 479.65094
446.0 0.002242 459.47208 477.17990
444.0 0.002252 459.45334 476.36108
455.0 0.002198 459.43423 476.23071
441.0 0.002268 459.41473 475.59351
436.0 0.002294 459.39493 477.49243
441.0 0.002268 459.37479 476.75027
450.0 0.002222 459.35434 476.95624
469.0 0.002132 459.33350 477.91052
440.0 0.002273 459.31232 479.61932
489.0 0.002045 459.29089 482.12015
483.0 0.002070 459.26904 486.92514
460.0 0.002174 459.24692 495.90189
498.0 0.002008 459.22437 514.36719
510.0 0.001961 459.20157 540.75549
596.0 0.001678 459.17838 585.95392
632.0 0.001582 459.15488 634.34399
633.0 0.001580 459.13098 671.33038
676.0 0.001479 459.10687 737.29688
799.0 0.001252 459.08240 815.40936
791.0 0.001264 459.05756 791.24603
691.0 0.001447 459.03238 673.65900
558.0 0.001792 459.00684 593.25195
553.0 0.001808 458.98102 574.14124
589.0 0.001698 458.95483 584.35974
604.0 0.001656 458.92831 598.75568
620.0 0.001613 458.90143 623.88593
661.0 0.001513 458.87436 667.78247
688.0 0.001453 458.84683 679.57141
654.0 0.001529 458.81894 634.22571
583.0 0.001715 458.79074 594.17639
589.0 0.001698 458.76233 591.09210
686.0 0.001458 458.73343 620.81451
743.0 0.001346 458.70422 696.23730
895.0 0.001117 458.67477 866.45050
1161.0 0.000861 458.64496 1197.98022
1679.0 0.000596 458.61484 1726.04102
2298.0 0.000435 458.58429 2374.68750
2440.0 0.000410 458.55353 2446.52881
1699.0 0.000589 458.52237 1688.28479
1085.0 0.000922 458.49094 1075.96240
776.0 0.001289 458.45911 827.85852
784.0 0.001276 458.42697 782.94696
822.0 0.001217 458.39453 865.46869
999.0 0.001001 458.36172 1059.58752
1268.0 0.000789 458.32864 1368.66565
1500.0 0.000667 458.29517 1536.04602
1336.0 0.000749 458.26141 1258.68677
911.0 0.001098 458.22739 884.37982
672.0 0.001488 458.19296 703.94330
635.0 0.001575 458.15820 655.67902
632.0 0.001582 458.12311 674.87952
690.0 0.001449 458.08774 739.49860
751.0 0.001332 458.05203 800.84039
721.0 0.001387 458.01599 769.54340
702.0 0.001425 457.97964 703.12695
715.0 0.001399 457.94296 703.50018
759.0 0.001318 457.90591 745.68390
730.0 0.001370 457.86862 731.99646
671.0 0.001490 457.83093 661.31317
638.0 0.001567 457.79300 633.96613
610.0 0.001639 457.75470 650.90210
594.0 0.001684 457.71609 650.29382
605.0 0.001653 457.67712 611.57629
611.0 0.001637 457.63788 595.17957
619.0 0.001616 457.59830 612.40973
674.0 0.001484 457.55844 620.46869
621.0 0.001610 457.51819 585.33276
576.0 0.001736 457.47760 546.03607
528.0 0.001894 457.43680 533.08032
536.0 0.001866 457.39557 534.30267
521.0 0.001919 457.35410 543.74329
549.0 0.001821 457.31232 561.06305
598.0 0.001672 457.27017 590.08875
647.0 0.001546 457.22769 642.60986
795.0 0.001258 457.18497 749.17194
1055.0 0.000948 457.14191 976.99542
1497.0 0.000668 457.09854 1406.67090
2226.0 0.000449 457.05484 2076.52856
2878.0 0.0003475 457.01077 2748.01196
2720.0 0.000368 456.96646 2567.66650
1634.0 0.000612 456.92184 1654.61841
1075.0 0.000930 456.87689 1062.48999
816.0 0.001225 456.83157 840.93225
730.0 0.001370 456.78595 813.56390
837.0 0.001195 456.74005 922.89258
1110.0 0.000901 456.69385 1161.11365
1512.0 0.000661 456.64737 1516.41833
1754.0 0.000570 456.60056 1662.25391
1383.0 0.000723 456.55338 1294.71765
914.0 0.001094 456.50589 879.74445
705.0 0.001418 456.45813 674.36298
516.0 0.001938 456.41010 590.52045
515.0 0.001942 456.36169 551.74878
512.0 0.001953 456.31299 529.49213
511.0 0.001957 456.26398 515.23492
513.0 0.001949 456.21469 505.65994
494.0 0.002024 456.16510 498.93195
503.0 0.001988 456.11517 494.66791
454.0 0.002203 456.06488 495.10303
512.0 0.001953 456.01440 496.79190
512.0 0.001953 455.96359 498.71451
526.0 0.001901 455.91238 504.78726
549.0 0.001821 455.86093 520.01764
577.0 0.001733 455.80923 554.03137
670.0 0.001493 455.75714 613.59229
771.0 0.001297 455.70480 700.12695
829.0 0.001206 455.65210 749.57257
734.0 0.001362 455.59915 680.54932
637.0 0.001570 455.54587 583.92145
561.0 0.001783 455.49228 531.12238
495.0 0.002020 455.43842 516.82019
505.0 0.001980 455.38428 520.63965
541.0 0.001848 455.32980 540.16022
610.0 0.001639 455.27505 575.47809
668.0 0.001497 455.21997 618.15204
673.0 0.001486 455.16461 622.45306
599.0 0.001669 455.10895 576.35748
556.0 0.001799 455.05301 543.69659
571.0 0.001751 454.99673 542.33398
563.0 0.001776 454.94016 559.92981
582.0 0.001718 454.88333 587.28387
603.0 0.001658 454.82620 599.46692
588.0 0.001701 454.76871 588.37708
558.0 0.001792 454.71100 588.55231
646.0 0.001548 454.65295 613.28174
742.0 0.001348 454.59464 664.66083
873.0 0.001145 454.53610 768.09106
1078.0 0.000928 454.47711 989.95813
1474.0 0.000678 454.41794 1441.57922
2208.0 0.000453 454.35849 2178.26416
3174.0 0.0003151 454.29865 3108.75781
3255.0 0.0003072 454.23859 3347.63501
2266.0 0.000441 454.17819 2369.47632
1340.0 0.000746 454.11755 1433.07471
945.0 0.001058 454.05658 1010.67914
867.0 0.001153 453.99545 893.27478
921.0 0.001086 453.93387 948.98969
1133.0 0.000883 453.87207 1170.49695
1503.0 0.000665 453.80994 1558.10193
1829.0 0.000547 453.74756 1952.22083
1856.0 0.000539 453.68494 1829.53979
1271.0 0.000787 453.62195 1270.83618
836.0 0.001196 453.55878 902.23340
734.0 0.001362 453.49518 765.44836
743.0 0.001346 453.43137 762.20673
800.0 0.001250 453.36734 860.16992
1040.0 0.000962 453.30298 1051.22205
1223.0 0.000818 453.23831 1309.15295
1243.0 0.000805 453.17340 1369.53650
975.0 0.001026 453.10818 1069.06641
762.0 0.001312 453.04266 790.77985
596.0 0.001678 452.97693 667.63281
653.0 0.001531 452.91086 638.86346
686.0 0.001458 452.84451 671.33466
781.0 0.001280 452.77792 772.05920
945.0 0.001058 452.71103 946.72150
1134.0 0.000882 452.64389 1154.57471
1160.0 0.000862 452.57642 1165.42615
946.0 0.001057 452.50873 910.44128
690.0 0.001449 452.44067 692.39594
580.0 0.001724 452.37244 591.62128
504.0 0.001984 452.30386 550.78833
539.0 0.001855 452.23505 539.52600
545.0 0.001835 452.16595 551.22028
543.0 0.001842 452.09659 582.12622
600.0 0.001667 452.02695 623.45435
634.0 0.001577 451.95709 626.91711
598.0 0.001672 451.88684 576.42041
527.0 0.001898 451.81641 538.04620
529.0 0.001890 451.74567 530.93451
551.0 0.001815 451.67474 546.77594
600.0 0.001667 451.60352 600.31323
676.0 0.001479 451.53201 708.79517
767.0 0.001304 451.46017 839.13116
885.0 0.001130 451.38812 964.36731
816.0 0.001225 451.31580 868.98376
683.0 0.001464 451.24319 679.25854
576.0 0.001736 451.17032 576.92249
536.0 0.001866 451.09726 540.40253
532.0 0.001880 451.02380 538.63379
547.0 0.001828 450.95020 564.77594
573.0 0.001745 450.87628 620.75464
662.0 0.001511 450.80212 688.06207
732.0 0.001366 450.72766 742.16205
687.0 0.001456 450.65298 684.77563
629.0 0.001590 450.57800 630.78448
654.0 0.001529 450.50281 638.30957
745.0 0.001342 450.42737 676.66669
747.0 0.001339 450.35162 686.90027
664.0 0.001506 450.27563 610.38623
546.0 0.001832 450.19931 549.56683
521.0 0.001919 450.12286 525.25555
500.0 0.002000 450.04614 521.90155
519.0 0.001927 449.96912 531.95020
560.0 0.001786 449.89182 557.28802
627.0 0.001595 449.81424 596.13354
678.0 0.001475 449.73648 646.53082
756.0 0.001323 449.65851 690.10919
813.0 0.001230 449.58020 747.44141
886.0 0.001129 449.50162 914.90808
1134.0 0.000882 449.42285 1181.66479
1492.0 0.000670 449.34387 1499.17896
1605.0 0.000623 449.26459 1595.10547
1361.0 0.000735 449.18503 1403.03613
1419.0 0.000705 449.10522 1361.83447
1604.0 0.000623 449.02518 1425.24744
1325.0 0.000755 448.94492 1188.63721
1005.0 0.000995 448.86441 933.38013
846.0 0.001182 448.78357 871.72675
848.0 0.001179 448.70251 938.91858
1000.0 0.001000 448.62134 1062.72559
981.0 0.001019 448.53986 1060.67480
913.0 0.001095 448.45810 956.30170
1007.0 0.000993 448.37601 941.88593
1021.0 0.000979 448.29382 963.31268
929.0 0.001076 448.21140 840.21271
856.0 0.001168 448.12857 737.94958
791.0 0.001264 448.04562 718.75726
778.0 0.001285 447.96246 740.28558
742.0 0.001348 447.87900 697.16534
679.0 0.001473 447.79532 631.82233
612.0 0.001634 447.71143 574.51971
558.0 0.001792 447.62729 534.96478
512.0 0.001953 447.54288 519.33868
511.0 0.001957 447.45819 522.90753
556.0 0.001799 447.37338 541.44141
567.0 0.001764 447.28836 568.62683
633.0 0.001580 447.20297 595.05023
630.0 0.001587 447.11743 580.85773
613.0 0.001631 447.03159 557.69507
603.0 0.001658 446.94559 540.00134
561.0 0.001783 446.85931 537.58972
572.0 0.001748 446.77286 560.97809
651.0 0.001536 446.68610 631.92688
793.0 0.001261 446.59909 761.03046
968.0 0.001033 446.51202 909.20862
1044.0 0.000958 446.42459 1011.85815
893.0 0.001120 446.33694 858.62109
691.0 0.001447 446.24905 677.19159
616.0 0.001623 446.16101 593.54407
581.0 0.001721 446.07269 572.86060
592.0 0.001689 445.98419 588.67865
605.0 0.001653 445.89539 648.01227
756.0 0.001323 445.80637 775.87909
1012.0 0.000988 445.71716 992.02454
1301.0 0.000769 445.62784 1268.48669
1489.0 0.000672 445.53818 1438.31616
1504.0 0.000665 445.44824 1422.57886
1126.0 0.000888 445.35818 1058.77026
814.0 0.001229 445.26782 778.37799
631.0 0.001585 445.17737 668.15448
676.0 0.001479 445.08661 660.86871
770.0 0.001299 444.99567 710.00653
831.0 0.001203 444.90445 805.87109
929.0 0.001076 444.81302 883.28613
948.0 0.001055 444.72150 944.50049
1041.0 0.000961 444.62961 952.56348
883.0 0.001133 444.53760 791.18744
663.0 0.001508 444.44531 668.74146
632.0 0.001582 444.35287 627.70197
583.0 0.001715 444.26025 611.63733
573.0 0.001745 444.16733 592.87982
604.0 0.001656 444.07422 588.72449
542.0 0.001845 443.98096 566.21826
538.0 0.001859 443.88742 535.13123
496.0 0.002016 443.79367 523.14935
521.0 0.001919 443.69983 530.22101
533.0 0.001876 443.60568 553.59680
565.0 0.001770 443.51135 604.28375
619.0 0.001616 443.41675 690.29602
765.0 0.001307 443.32199 814.55316
932.0 0.001073 443.22711 966.27966
1053.0 0.000950 443.13193 1029.47473
919.0 0.001088 443.03653 922.45721
881.0 0.001135 442.94095 843.79504
735.0 0.001361 442.84525 727.20428
645.0 0.001550 442.74924 625.98438
588.0 0.001701 442.65314 589.69684
602.0 0.001661 442.55673 610.59821
641.0 0.001560 442.46021 673.86029
766.0 0.001305 442.36343 761.18176
853.0 0.001172 442.26648 830.10193
863.0 0.001159 442.16931 846.44885
945.0 0.001058 442.07199 941.51495
1085.0 0.000922 441.97443 1065.67871
1185.0 0.000844 441.87671 1176.34753
1035.0 0.000966 441.77878 1053.63538
752.0 0.001330 441.68066 788.06482
605.0 0.001653 441.58237 633.20026
568.0 0.001761 441.48383 572.36432
542.0 0.001845 441.38516 557.78113
525.0 0.001905 441.28629 575.33893
586.0 0.001706 441.18716 632.97363
691.0 0.001447 441.08795 722.57324
753.0 0.001328 440.98843 816.12177
740.0 0.001351 440.88882 807.10712
709.0 0.001410 440.78903 709.71466
695.0 0.001439 440.68900 688.88947
794.0 0.001259 440.58881 779.94525
939.0 0.001065 440.48843 952.41113
1117.0 0.000895 440.38791 1143.88672
1111.0 0.000900 440.28717 1173.40564
908.0 0.001101 440.18622 944.21326
795.0 0.001258 440.08505 775.47382
643.0 0.001555 439.98383 661.92926
568.0 0.001761 439.88242 593.85657
553.0 0.001808 439.78073 579.04980
638.0 0.001567 439.67889 614.50146
680.0 0.001471 439.57690 693.04291
732.0 0.001366 439.47473 785.17511
738.0 0.001355 439.37238 825.37085
683.0 0.001464 439.26990 720.12653
554.0 0.001805 439.16721 624.52765
540.0 0.001852 439.06433 562.42456
503.0 0.001988 438.96121 519.78345
474.0 0.002110 438.85803 499.15735
468.0 0.002137 438.75467 494.15723
498.0 0.002008 438.65109 495.26422
535.0 0.001869 438.54739 496.22971
527.0 0.001898 438.44348 508.10291
513.0 0.001949 438.33939 532.06873
597.0 0.001675 438.23520 557.03528
557.0 0.001795 438.13074 543.99237
497.0 0.002012 438.02618 504.11224
453.0 0.002208 437.92145 480.70374
445.0 0.002247 437.81656 472.14450
459.0 0.002179 437.71155 471.37155
484.0 0.002066 437.60626 471.54456
483.0 0.002070 437.50089 476.49677
494.0 0.002024 437.39529 488.07724
548.0 0.001825 437.28961 501.89664
538.0 0.001859 437.18375 501.76819
473.0 0.002114 437.07770 483.69519
440.0 0.002273 436.97150 470.95749
449.0 0.002227 436.86517 468.09424
478.0 0.002092 436.75861 471.98581
474.0 0.002110 436.65198 481.37524
486.0 0.002058 436.54510 497.89825
501.0 0.001996 436.43823 524.46619
542.0 0.001845 436.33109 565.06866
622.0 0.001608 436.22385 622.60883
645.0 0.001550 436.11636 687.13910
706.0 0.001416 436.00876 765.19678
842.0 0.001188 435.90100 876.47919
883.0 0.001133 435.79312 950.95032
784.0 0.001276 435.68506 811.62793
623.0 0.001605 435.57687 648.10889
546.0 0.001832 435.46851 571.67200
531.0 0.001883 435.36005 554.33203
544.0 0.001838 435.25146 569.73798
602.0 0.001661 435.14267 604.09802
671.0 0.001490 435.03378 647.45758
716.0 0.001397 434.92468 710.85046
747.0 0.001339 434.81546 760.26917
689.0 0.001451 434.70609 712.74091
613.0 0.001631 434.59653 607.99536
559.0 0.001789 434.48694 551.91022
560.0 0.001786 434.37717 547.26770
584.0 0.001712 434.26727 590.12408
666.0 0.001502 434.15717 679.63501
758.0 0.001319 434.04700 779.82373
788.0 0.001269 433.93658 809.58484
675.0 0.001481 433.82617 691.31653
589.0 0.001698 433.71552 583.67346
522.0 0.001916 433.60477 528.44861
488.0 0.002049 433.49393 505.58701
480.0 0.002083 433.38297 502.66324
519.0 0.001927 433.27179 516.84045
487.0 0.002053 433.16052 553.51813
613.0 0.001631 433.04901 601.94751
607.0 0.001647 432.93753 638.13440
586.0 0.001706 432.82587 601.01599
527.0 0.001898 432.71405 544.93488
501.0 0.001996 432.60208 519.37317
506.0 0.001976 432.49008 516.05786
536.0 0.001866 432.37784 530.84113
594.0 0.001684 432.26559 568.48022
659.0 0.001517 432.15308 650.47266
791.0 0.001264 432.04056 797.18781
1030.0 0.000971 431.92776 991.40649
1231.0 0.000812 431.81500 1154.68286
1182.0 0.000846 431.70209 1154.50549
1114.0 0.000898 431.58902 1100.20117
996.0 0.001004 431.47586 918.20880
767.0 0.001304 431.36249 770.76434
824.0 0.001214 431.24911 755.48773
950.0 0.001053 431.13553 877.57971
1219.0 0.000820 431.02188 1129.07434
1671.0 0.000598 430.90811 1441.16370
1832.0 0.000546 430.79419 1627.65588
1669.0 0.000599 430.68024 1547.07275
1495.0 0.000669 430.56607 1420.00000
1205.0 0.000830 430.45184 1137.73254
910.0 0.001099 430.33749 850.85510
727.0 0.001376 430.22302 709.83386
674.0 0.001484 430.10846 683.40619
739.0 0.001353 429.99380 735.63763
924.0 0.001082 429.87897 832.05493
1038.0 0.000963 429.76404 918.70819
973.0 0.001028 429.64902 892.53540
877.0 0.001140 429.53384 841.95483
774.0 0.001292 429.41864 774.04059
674.0 0.001484 429.30331 692.86487
632.0 0.001582 429.18787 690.14343
658.0 0.001520 429.07230 755.63922
685.0 0.001460 428.95660 831.96033
668.0 0.001497 428.84088 803.32288
650.0 0.001538 428.72504 702.25128
594.0 0.001684 428.60901 639.76593
550.0 0.001818 428.49292 594.58936
565.0 0.001770 428.37680 580.02881
569.0 0.001757 428.26053 615.60187
654.0 0.001529 428.14413 707.46820
769.0 0.001300 428.02765 833.40070
830.0 0.001205 427.91107 915.72906
762.0 0.001312 427.79443 861.40717
668.0 0.001497 427.67770 751.25458
625.0 0.001600 427.56079 671.42413
615.0 0.001626 427.44376 621.84039
581.0 0.001721 427.32678 605.99707
611.0 0.001637 427.20972 648.55804
702.0 0.001425 427.09241 770.44446
884.0 0.001131 426.97513 949.07483
982.0 0.001018 426.85770 1106.91150
997.0 0.001003 426.74017 1043.32263
932.0 0.001073 426.62259 885.96893
847.0 0.001181 426.50491 843.13599
898.0 0.001114 426.38712 928.04419
1180.0 0.000847 426.26932 1148.02026
1495.0 0.000669 426.15128 1417.73633
1498.0 0.000668 426.03329 1514.03833
1300.0 0.000769 425.91519 1322.46973
963.0 0.001038 425.79700 1057.33679
846.0 0.001182 425.67865 898.80438
725.0 0.001379 425.56027 759.31708
622.0 0.001608 425.44186 681.70959
681.0 0.001468 425.32343 674.79187
723.0 0.001383 425.20468 739.98071
851.0 0.001175 425.08597 864.38684
943.0 0.001060 424.96719 967.42859
998.0 0.001002 424.84842 947.67407
798.0 0.001253 424.72955 803.61633
677.0 0.001477 424.61047 713.24268
669.0 0.001495 424.49139 725.59485
735.0 0.001361 424.37222 775.32965
745.0 0.001342 424.25296 752.54980
645.0 0.001550 424.13370 634.01892
516.0 0.001938 424.01431 548.91608
501.0 0.001996 423.89484 509.96588
495.0 0.002020 423.77536 496.26068
501.0 0.001996 423.65573 496.30347
520.0 0.001923 423.53613 510.75830
543.0 0.001842 423.41638 546.56110
589.0 0.001698 423.29660 601.74469
652.0 0.001534 423.17667 661.75256
707.0 0.001414 423.05673 698.03687
807.0 0.001239 422.93677 757.05237
907.0 0.001103 422.81677 846.56305
890.0 0.001124 422.69653 857.01764
745.0 0.001342 422.57632 704.91888
598.0 0.001672 422.45612 574.80756
508.0 0.001969 422.33582 512.87219
465.0 0.002151 422.21539 489.35818
461.0 0.002169 422.09500 484.08661
479.0 0.002088 421.97443 495.54568
535.0 0.001869 421.85391 530.87598
602.0 0.001661 421.73325 588.63824
643.0 0.001555 421.61261 641.57245
630.0 0.001587 421.49182 622.38739
563.0 0.001776 421.37103 544.22711
501.0 0.001996 421.25024 492.80545
454.0 0.002203 421.12933 471.19424
471.0 0.002123 421.00833 464.72885
491.0 0.002037 420.88730 466.64032
474.0 0.002110 420.76620 477.99365
490.0 0.002041 420.64514 507.38474
546.0 0.001832 420.52402 573.02124
665.0 0.001504 420.40274 670.52106
709.0 0.001410 420.28137 754.54999
694.0 0.001441 420.16013 715.78461
572.0 0.001748 420.03876 593.89081
471.0 0.002123 419.91742 514.91510
461.0 0.002169 419.79590 480.70258
441.0 0.002268 419.67438 469.16107
454.0 0.002203 419.55289 469.89151
461.0 0.002169 419.43121 484.30069
532.0 0.001880 419.30957 519.19885
571.0 0.001751 419.18784 567.35266
561.0 0.001783 419.06619 599.24042
570.0 0.001754 418.94437 562.34534
489.0 0.002045 418.82251 503.98096
450.0 0.002222 418.70068 471.02286
443.0 0.002257 418.57883 457.65607
456.0 0.002193 418.45685 453.36615
459.0 0.002179 418.33484 453.23471
440.0 0.002273 418.21286 455.99414
472.0 0.002119 418.09082 462.25296
469.0 0.002132 417.96875 472.63715
490.0 0.002041 417.84668 490.99319
559.0 0.001789 417.72443 529.33856
611.0 0.001637 417.60229 612.87592
716.0 0.001397 417.48010 774.83563
900.0 0.001111 417.35788 985.71960
1033.0 0.000968 417.23550 1121.73254
923.0 0.001083 417.11319 972.04608
687.0 0.001456 416.99088 755.46954
607.0 0.001647 416.86850 665.24280
625.0 0.001600 416.74606 680.41956
734.0 0.001362 416.62369 727.56781
743.0 0.001346 416.50116 723.30872
680.0 0.001471 416.37869 674.35590
671.0 0.001490 416.25610 692.10840
712.0 0.001404 416.13364 762.66675
713.0 0.001403 416.01105 797.51819
644.0 0.001553 415.88849 697.06177
579.0 0.001727 415.76584 590.39594
546.0 0.001832 415.64325 549.36707
556.0 0.001799 415.52060 556.22137
574.0 0.001742 415.39792 572.27563
553.0 0.001808 415.27515 551.96893
498.0 0.002008 415.15250 504.85016
449.0 0.002227 415.02979 474.40707
473.0 0.002114 414.90704 461.21738
472.0 0.002119 414.78421 457.62845
478.0 0.002092 414.66141 460.44287
508.0 0.001969 414.53857 473.86826
512.0 0.001953 414.41583 502.76477
572.0 0.001748 414.29291 555.67139
615.0 0.001626 414.17010 614.90662
587.0 0.001704 414.04727 631.58020
573.0 0.001745 413.92438 569.75641
535.0 0.001869 413.80145 514.42480
459.0 0.002179 413.67859 491.22339
455.0 0.002198 413.55563 488.30829
500.0 0.002000 413.43274 502.76526
577.0 0.001733 413.30984 539.76465
669.0 0.001495 413.18692 618.75580
738.0 0.001355 413.06393 773.84235
936.0 0.001068 412.94098 1000.26270
1115.0 0.000897 412.81796 1187.93030
1041.0 0.000961 412.69504 1113.50269
775.0 0.001290 412.57214 834.31030
594.0 0.001684 412.44916 642.56714
545.0 0.001835 412.32617 558.82501
499.0 0.002004 412.20316 531.29987
542.0 0.001845 412.08017 533.99200
559.0 0.001789 411.95724 562.11914
601.0 0.001664 411.83426 622.08887
617.0 0.001621 411.71127 712.16571
776.0 0.001289 411.58832 797.43103
742.0 0.001348 411.46530 772.72186
643.0 0.001555 411.34235 653.21838
555.0 0.001802 411.21933 576.95612
592.0 0.001689 411.09634 558.53827
578.0 0.001730 410.97336 585.45551
751.0 0.001332 410.85043 674.10016
866.0 0.001155 410.72745 863.66547
1072.0 0.000933 410.60455 1134.76685
1221.0 0.000819 410.48151 1337.37476
1176.0 0.000850 410.35861 1190.92603
867.0 0.001153 410.23575 891.09039
686.0 0.001458 410.11282 722.92041
603.0 0.001658 409.98981 659.15973
562.0 0.001779 409.86691 617.29144
568.0 0.001761 409.74405 597.02911
591.0 0.001692 409.62122 619.66376
668.0 0.001497 409.49832 709.81689
797.0 0.001255 409.37549 859.60907
933.0 0.001072 409.25262 991.81104
954.0 0.001048 409.12976 951.74609
821.0 0.001218 409.00693 804.32904
759.0 0.001318 408.88422 730.77405
811.0 0.001233 408.76135 764.80157
944.0 0.001059 408.63867 914.97504
1130.0 0.000885 408.51587 1208.63171
1401.0 0.000714 408.39322 1532.61841
1468.0 0.000681 408.27051 1579.94348
1213.0 0.000824 408.14774 1222.16675
955.0 0.001047 408.02509 948.79053
884.0 0.001131 407.90237 857.63898
883.0 0.001133 407.77979 831.93427
816.0 0.001225 407.65720 771.05646
759.0 0.001318 407.53458 730.73737
827.0 0.001209 407.41205 789.53082
912.0 0.001096 407.28949 955.86981
1082.0 0.000924 407.16702 1144.54346
1119.0 0.000894 407.04453 1170.18726
971.0 0.001030 406.92206 971.25708
871.0 0.001148 406.79962 822.70996
831.0 0.001203 406.67715 810.43286
902.0 0.001109 406.55478 891.39832
1039.0 0.000962 406.43250 997.98773
1122.0 0.000891 406.31015 1119.98987
1320.0 0.000758 406.18784 1340.46057
1855.0 0.000539 406.06561 1860.32410
2636.0 0.000379 405.94342 2560.33813
3056.0 0.0003272 405.82117 2881.40356
2296.0 0.000436 405.69897 2229.08521
1436.0 0.000696 405.57687 1428.62451
958.0 0.001044 405.45474 998.25696
767.0 0.001304 405.33276 841.05261
731.0 0.001368 405.21072 816.68774
842.0 0.001188 405.08871 851.70593
910.0 0.001099 404.96680 937.84375
1110.0 0.000901 404.84482 1162.29626
1445.0 0.000692 404.72293 1492.96643
1720.0 0.000581 404.60110 1684.32410
1486.0 0.000673 404.47928 1415.55994
1115.0 0.000897 404.35754 986.26276
790.0 0.001266 404.23572 722.03760
610.0 0.001639 404.11414 597.85864
556.0 0.001799 403.99243 541.59583
558.0 0.001792 403.87088 514.05157
525.0 0.001905 403.74930 501.40674
491.0 0.002037 403.62775 496.74060
490.0 0.002041 403.50635 491.20117
430.0 0.002326 403.38492 477.17273
476.0 0.002101 403.26346 466.56656
498.0 0.002008 403.14215 462.53534
478.0 0.002092 403.02078 458.84528
489.0 0.002045 402.89966 458.38452
513.0 0.001949 402.77838 463.70471
528.0 0.001894 402.65720 478.32953
538.0 0.001859 402.53613 514.29858
628.0 0.001592 402.41510 587.00604
708.0 0.001412 402.29404 685.74500
756.0 0.001323 402.17316 747.18005
661.0 0.001513 402.05225 672.29987
576.0 0.001736 401.93140 566.21295
530.0 0.001887 401.81055 505.67197
522.0 0.001916 401.68982 483.60309
527.0 0.001898 401.56915 483.68549
552.0 0.001812 401.44849 501.36075
608.0 0.001645 401.32785 539.60529
669.0 0.001495 401.20740 598.27539
737.0 0.001357 401.08694 665.97028
815.0 0.001227 400.96652 737.44348
850.0 0.001176 400.84619 776.49622
866.0 0.001155 400.72580 783.71936
887.0 0.001127 400.60556 794.73914
906.0 0.001104 400.48544 820.53894
814.0 0.001229 400.36530 770.02484
674.0 0.001484 400.24524 670.37921
646.0 0.001548 400.12515 629.03235
642.0 0.001558 400.00525 637.66681
673.0 0.001486 399.88541 651.87286
689.0 0.001451 399.76566 673.35632
799.0 0.001252 399.64587 768.79651
1014.0 0.000986 399.52612 986.91040
1334.0 0.000750 399.40656 1318.87683
1576.0 0.000635 399.28690 1611.22058
1447.0 0.000691 399.16745 1506.66443
1023.0 0.000978 399.04800 1080.41907
736.0 0.001359 398.92862 781.08246
649.0 0.001541 398.80933 645.25092
584.0 0.001712 398.69012 590.35626
561.0 0.001783 398.57098 562.41974
584.0 0.001712 398.45181 565.66168
630.0 0.001587 398.33282 623.83295
711.0 0.001406 398.21384 752.45532
934.0 0.001071 398.09497 902.69470
962.0 0.001040 397.97617 932.42896
763.0 0.001311 397.85736 763.01196
616.0 0.001623 397.73877 601.61426
518.0 0.001931 397.62012 514.39795
494.0 0.002024 397.50162 475.83698
499.0 0.002004 397.38312 460.00528
520.0 0.001923 397.26480 452.39838
478.0 0.002092 397.14642 444.79633
463.0 0.002160 397.02829 435.36475
451.0 0.002217 396.91006 429.51883
460.0 0.002174 396.79199 429.41724
476.0 0.002101 396.67401 435.01883
500.0 0.002000 396.55606 444.00867
490.0 0.002041 396.43823 449.04279
450.0 0.002222 396.32050 440.77509
444.0 0.002252 396.20282 428.66052
453.0 0.002208 396.08521 422.27679
425.0 0.002353 395.96762 419.14047
427.0 0.002342 395.85019 416.96289
440.0 0.002273 395.73285 414.36237
439.0 0.002278 395.61560 412.20657
436.0 0.002294 395.49838 416.52945
440.0 0.002273 395.38123 425.53015
463.0 0.002160 395.26419 435.63541
466.0 0.002146 395.14725 436.94870
459.0 0.002179 395.03036 425.80066
456.0 0.002193 394.91357 415.89575
447.0 0.002237 394.79688 411.04114
464.0 0.002155 394.68024 410.44989
464.0 0.002155 394.56378 410.41217
441.0 0.002268 394.44733 410.13773
439.0 0.002278 394.33099 412.39081
433.0 0.002309 394.21478 416.40033
480.0 0.002083 394.09851 422.02338
479.0 0.002088 393.98245 425.70267
450.0 0.002222 393.86652 427.45123
468.0 0.002137 393.75055 431.26282
497.0 0.002012 393.63477 439.58356
498.0 0.002008 393.51901 455.12888
513.0 0.001949 393.40335 487.15469
548.0 0.001825 393.28793 556.89124
644.0 0.001553 393.17242 694.16718
755.0 0.001325 393.05707 867.93085
874.0 0.001144 392.94171 867.52594
791.0 0.001264 392.82663 708.41815
631.0 0.001585 392.71155 593.80334
583.0 0.001715 392.59659 554.71893
580.0 0.001724 392.48166 578.93475
605.0 0.001653 392.36688 681.49951
810.0 0.001235 392.25223 893.20782
989.0 0.001011 392.13763 1134.03064
1102.0 0.000907 392.02310 1101.00525
978.0 0.001022 391.90875 937.00580
821.0 0.001218 391.79446 833.45874
725.0 0.001379 391.68021 704.13489
625.0 0.001600 391.56622 597.13892
595.0 0.001681 391.45221 545.14307
560.0 0.001786 391.33829 540.28925
586.0 0.001706 391.22446 585.94318
679.0 0.001473 391.11078 706.21405
794.0 0.001259 390.99722 892.56122
976.0 0.001025 390.88370 955.02948
912.0 0.001096 390.77026 787.30597
740.0 0.001351 390.65704 627.97382
640.0 0.001563 390.54382 553.80261
591.0 0.001692 390.43079 549.98663
634.0 0.001577 390.31775 596.89685
671.0 0.001490 390.20490 667.96130
697.0 0.001435 390.09213 668.30200
683.0 0.001464 389.97949 624.86768
664.0 0.001506 389.86697 636.91913
688.0 0.001453 389.75446 688.60950
740.0 0.001351 389.64221 666.85693
654.0 0.001529 389.52985 581.00818
569.0 0.001757 389.41785 526.47876
540.0 0.001852 389.30582 510.76459
546.0 0.001832 389.19397 527.16925
587.0 0.001704 389.08212 570.98395
657.0 0.001522 388.97040 620.93115
686.0 0.001458 388.85886 646.30469
723.0 0.001383 388.74747 706.88428
806.0 0.001241 388.63605 850.16461
1048.0 0.000954 388.52484 1092.65662
1260.0 0.000794 388.41373 1269.70923
1201.0 0.000833 388.30267 1106.96545
997.0 0.001003 388.19180 889.81061
853.0 0.001172 388.08105 834.80206
893.0 0.001120 387.97025 897.94843
955.0 0.001047 387.85977 876.19696
886.0 0.001129 387.74936 749.21362
753.0 0.001328 387.63901 673.38684
697.0 0.001435 387.52881 675.69342
740.0 0.001351 387.41873 749.10260
835.0 0.001198 387.30875 886.05762
912.0 0.001096 387.19888 979.32404
1009.0 0.000991 387.08911 988.30902
1101.0 0.000908 386.97952 1144.32385
1336.0 0.000749 386.87003 1513.93225
1687.0 0.000593 386.76065 1721.06299
1578.0 0.000634 386.65146 1388.46655
1148.0 0.000871 386.54227 1008.43256
877.0 0.001140 386.43323 811.73364
826.0 0.001211 386.32434 759.63739
870.0 0.001149 386.21552 814.04840
1046.0 0.000956 386.10681 1012.73114
1416.0 0.000706 385.99832 1475.25378
2074.0 0.000482 385.88989 2261.43213
2785.0 0.000359 385.78165 2833.48047
2731.0 0.000366 385.67343 2492.63770
2003.0 0.000499 385.56534 1807.97473
1391.0 0.000719 385.45749 1215.91516
938.0 0.001066 385.34964 883.62897
819.0 0.001221 385.24197 734.16949
704.0 0.001420 385.13440 679.64789
728.0 0.001374 385.02698 693.65338
758.0 0.001319 384.91974 799.29120
975.0 0.001026 384.81250 1056.05896
1292.0 0.000774 384.70541 1443.11084
1685.0 0.000593 384.59848 1569.89941
1590.0 0.000629 384.49173 1241.30127
1127.0 0.000887 384.38504 928.92816
818.0 0.001222 384.27850 794.58801
722.0 0.001385 384.17209 727.46429
703.0 0.001422 384.06580 626.82458
591.0 0.001692 383.95966 543.05017
547.0 0.001828 383.85361 497.76810
494.0 0.002024 383.74771 476.62714
512.0 0.001953 383.64197 471.91760
509.0 0.001965 383.53625 476.26047
502.0 0.001992 383.43076 481.61981
522.0 0.001916 383.32544 475.99734
512.0 0.001953 383.22021 482.00723
535.0 0.001869 383.11502 503.27295
535.0 0.001869 383.01004 501.49554
498.0 0.002008 382.90524 467.10095
474.0 0.002110 382.80057 438.09573
440.0 0.002273 382.69592 423.23486
465.0 0.002151 382.59152 412.26141
458.0 0.002183 382.48715 406.82953
451.0 0.002217 382.38306 403.77960
433.0 0.002309 382.27902 402.79337
433.0 0.002309 382.17508 402.46057
422.0 0.002370 382.07126 402.68292
424.0 0.002358 381.96771 403.43475
436.0 0.002294 381.86417 404.75641
444.0 0.002252 381.76077 406.75262
423.0 0.002364 381.65759 409.61188
407.0 0.002457 381.55453 413.76804
435.0 0.002299 381.45154 417.99219
442.0 0.002262 381.34875 425.42535
451.0 0.002217 381.24606 438.41156
489.0 0.002045 381.14352 460.43698
510.0 0.001961 381.04114 503.10159
588.0 0.001701 380.93881 588.33252
758.0 0.001319 380.83679 738.73962
890.0 0.001124 380.73477 909.23199
1049.0 0.000953 380.63293 1023.30237
1181.0 0.000847 380.53119 1100.99072
1191.0 0.000840 380.42960 969.50812
967.0 0.001034 380.32822 775.17395
754.0 0.001326 380.22705 687.80920
688.0 0.001453 380.12576 666.04510
627.0 0.001595 380.02487 613.10870
549.0 0.001821 379.92398 564.37219
542.0 0.001845 379.82327 566.74408
614.0 0.001629 379.72272 625.98492
673.0 0.001486 379.62228 710.46228
825.0 0.001212 379.52203 787.08417
840.0 0.001190 379.42191 855.91602
872.0 0.001147 379.32184 787.39032
747.0 0.001339 379.22205 652.65723
625.0 0.001600 379.12241 574.74622
577.0 0.001733 379.02277 541.53168
514.0 0.001946 378.92337 499.81760
486.0 0.002058 378.82407 461.05060
484.0 0.002066 378.72495 438.83063
467.0 0.002141 378.62601 430.30200
495.0 0.002020 378.52716 433.13254
482.0 0.002075 378.42850 449.52682
562.0 0.001779 378.32999 479.86957
531.0 0.001883 378.23160 504.10663
529.0 0.001890 378.13342 502.94019
507.0 0.001972 378.03525 471.07401
491.0 0.002037 377.93735 436.74829
429.0 0.002331 377.83954 416.77756
451.0 0.002217 377.74194 407.43118
401.0 0.002494 377.64438 402.72467
415.0 0.002410 377.54703 401.13861
434.0 0.002304 377.44989 399.84106
426.0 0.002347 377.35284 402.52835
445.0 0.002247 377.25586 409.56583
428.0 0.002336 377.15915 421.72781
453.0 0.002208 377.06256 432.96112
482.0 0.002075 376.96606 428.94522
452.0 0.002212 376.86981 420.54788
472.0 0.002119 376.77371 418.50085
442.0 0.002262 376.67767 423.58386
455.0 0.002198 376.58185 435.94525
487.0 0.002053 376.48615 461.83633
519.0 0.001927 376.39063 517.69836
601.0 0.001664 376.29523 638.70813
739.0 0.001353 376.20004 841.85559
861.0 0.001161 376.10492 996.50989
865.0 0.001156 376.00998 870.75671
730.0 0.001370 375.91525 662.94800
583.0 0.001715 375.82068 533.77917
499.0 0.002004 375.72614 473.78149
443.0 0.002257 375.63187 449.27682
437.0 0.002288 375.53772 441.32108
447.0 0.002237 375.44370 445.32321
473.0 0.002114 375.34976 466.95944
508.0 0.001969 375.25616 522.99066
568.0 0.001761 375.16266 624.01099
682.0 0.001466 375.06924 721.41656
712.0 0.001404 374.97604 694.46350
693.0 0.001443 374.88300 608.85693
606.0 0.001650 374.79010 524.92377
524.0 0.001908 374.69730 463.58307
457.0 0.002188 374.60471 430.13602
428.0 0.002336 374.51224 413.36145
422.0 0.002370 374.42001 404.64789
421.0 0.002375 374.32791 399.86172
430.0 0.002326 374.23587 398.09222
405.0 0.002469 374.14413 398.62042
431.0 0.002320 374.05246 403.37561
454.0 0.002203 373.96097 413.83426
474.0 0.002110 373.86963 424.79614
434.0 0.002304 373.77844 420.14157
457.0 0.002188 373.68741 406.61163
415.0 0.002410 373.59656 397.33536
374.0 0.002674 373.50589 393.05157
404.0 0.002475 373.41528 391.68665
402.0 0.002488 373.32492 391.84570
438.0 0.002283 373.23477 391.58090
412.0 0.002427 373.14471 394.04227
437.0 0.002288 373.05481 398.25082
434.0 0.002304 372.96503 405.54349
425.0 0.002353 372.87546 418.01678
420.0 0.002381 372.78604 436.68942
455.0 0.002198 372.69675 455.32809
466.0 0.002146 372.60770 479.98477
520.0 0.001923 372.51868 543.11591
636.0 0.001572 372.42996 676.62445
782.0 0.001279 372.34131 860.19672
868.0 0.001152 372.25290 896.48010
762.0 0.001312 372.16461 725.95013
582.0 0.001718 372.07648 570.08075
494.0 0.002024 371.98856 486.68991
475.0 0.002105 371.90076 452.42831
430.0 0.002326 371.81308 441.87589
442.0 0.002262 371.72565 440.56006
463.0 0.002160 371.63824 444.14572
490.0 0.002041 371.55115 465.00903
483.0 0.002070 371.46417 519.70428
572.0 0.001748 371.37732 609.41614
636.0 0.001572 371.29065 659.00409
604.0 0.001656 371.20419 588.40381
551.0 0.001815 371.11783 498.10989
496.0 0.002016 371.03168 443.23157
444.0 0.002252 370.94568 417.08661
384.0 0.002604 370.85986 404.86002
384.0 0.002604 370.77417 398.56897
415.0 0.002410 370.68866 395.21307
391.0 0.002558 370.60330 393.83636
401.0 0.002494 370.51813 394.37329
415.0 0.002410 370.43311 397.41034
413.0 0.002421 370.34833 404.10745
440.0 0.002273 370.26355 415.45996
479.0 0.002088 370.17908 434.81912
506.0 0.001976 370.09470 471.40601
572.0 0.001748 370.01056 516.66809
607.0 0.001647 369.92654 514.25293
576.0 0.001736 369.84262 466.90677
499.0 0.002004 369.75894 430.22281
459.0 0.002179 369.67545 411.33984
446.0 0.002242 369.59210 407.54172
439.0 0.002278 369.50885 412.02231
474.0 0.002110 369.42581 418.47510
442.0 0.002262 369.34293 420.47495
438.0 0.002283 369.26038 427.43118
454.0 0.002203 369.17783 450.84567
508.0 0.001969 369.09543 493.04449
558.0 0.001792 369.01315 522.18317
543.0 0.001842 368.93118 496.55096
525.0 0.001905 368.84933 457.29153
463.0 0.002160 368.76764 436.27747
447.0 0.002237 368.68619 435.37485
482.0 0.002075 368.60477 454.80087
501.0 0.001996 368.52356 501.46216
597.0 0.001675 368.44263 590.60950
681.0 0.001468 368.36185 716.75464
754.0 0.001326 368.28110 765.03156
665.0 0.001504 368.20056 666.00043
522.0 0.001916 368.12021 565.42853
506.0 0.001976 368.04004 508.69986
491.0 0.002037 367.95999 482.77280
473.0 0.002114 367.88016 483.44626
502.0 0.001992 367.80051 491.10889
464.0 0.002155 367.72095 482.23962
479.0 0.002088 367.64166 482.06403
463.0 0.002160 367.56247 516.64783
585.0 0.001709 367.48349 594.04419
623.0 0.001605 367.40466 669.23224
681.0 0.001468 367.32602 638.30292
590.0 0.001695 367.24747 548.28009
524.0 0.001908 367.16916 484.08908
471.0 0.002123 367.09103 455.36868
461.0 0.002169 367.01306 451.82837
449.0 0.002227 366.93518 459.87692
462.0 0.002165 366.85757 465.11801
482.0 0.002075 366.78012 471.44769
509.0 0.001965 366.70285 500.36337
577.0 0.001733 366.62564 568.63129
663.0 0.001508 366.54871 673.45587
727.0 0.001376 366.47189 751.77106
793.0 0.001261 366.39532 791.18201
820.0 0.001220 366.31882 829.72650
752.0 0.001330 366.24249 756.01605
640.0 0.001563 366.16638 621.08429
559.0 0.001789 366.09048 530.80914
500.0 0.002000 366.01477 488.43658
486.0 0.002058 365.93912 476.04663
513.0 0.001949 365.86365 483.03497
521.0 0.001919 365.78836 509.51080
549.0 0.001821 365.71341 559.87744
602.0 0.001661 365.63837 626.76880
677.0 0.001477 365.56363 698.89386
808.0 0.001238 365.48907 827.65710
985.0 0.001015 365.41458 1024.95007
1140.0 0.000877 365.34033 1243.36340
1269.0 0.000788 365.26630 1309.64087
1153.0 0.000867 365.19238 1106.85986
987.0 0.001013 365.11868 954.33594
1016.0 0.000984 365.04507 972.71326
1066.0 0.000938 364.97168 1087.53894
1071.0 0.000934 364.89850 1073.71716
946.0 0.001057 364.82541 868.38501
683.0 0.001464 364.75250 696.81909
623.0 0.001605 364.67978 624.39355
603.0 0.001658 364.60727 641.79517
693.0 0.001443 364.53494 736.46320
794.0 0.001259 364.46265 850.11761
832.0 0.001202 364.39069 831.17456
782.0 0.001279 364.31888 736.71582
761.0 0.001314 364.24716 711.67004
750.0 0.001333 364.17563 771.00055
798.0 0.001253 364.10431 853.69293
886.0 0.001129 364.03311 846.26483
858.0 0.001166 363.96213 826.40240
900.0 0.001111 363.89127 916.40088
1065.0 0.000939 363.82065 1050.46167
1085.0 0.000922 363.75012 987.64331
853.0 0.001172 363.67981 810.68048
694.0 0.001441 363.60962 717.89532
710.0 0.001408 363.53970 712.57208
711.0 0.001406 363.46988 686.99402
642.0 0.001558 363.40024 613.43805
590.0 0.001695 363.33072 568.03424
556.0 0.001799 363.26138 562.83551
597.0 0.001675 363.19235 568.30011
601.0 0.001664 363.12338 596.96393
658.0 0.001520 363.05463 669.79437
699.0 0.001431 362.98599 715.52368
661.0 0.001513 362.91751 648.78772
594.0 0.001684 362.84924 570.72644
509.0 0.001965 362.78119 543.28009
510.0 0.001961 362.71323 543.84155
506.0 0.001976 362.64545 518.02643
489.0 0.002045 362.57785 480.91904
473.0 0.002114 362.51041 461.62122
451.0 0.002217 362.44321 456.14398
447.0 0.002237 362.37613 451.62027
457.0 0.002188 362.30920 460.14789
486.0 0.002058 362.24243 497.72061
558.0 0.001792 362.17590 580.63715
647.0 0.001546 362.10950 696.15283
702.0 0.001425 362.04333 730.60046
668.0 0.001497 361.97720 629.43060
560.0 0.001786 361.91129 528.81805
498.0 0.002008 361.84558 476.43970
489.0 0.002045 361.78006 454.74203
492.0 0.002033 361.71469 437.92068
453.0 0.002208 361.64938 424.14871
424.0 0.002358 361.58435 420.36819
426.0 0.002347 361.51956 429.15579
447.0 0.002237 361.45486 456.84457
471.0 0.002123 361.39032 509.72186
567.0 0.001764 361.32590 568.53967
583.0 0.001715 361.26172 566.37207
573.0 0.001745 361.19772 517.05145
531.0 0.001883 361.13382 493.72800
534.0 0.001873 361.07013 513.57770
578.0 0.001730 361.00668 558.06134
615.0 0.001626 360.94333 558.52350
545.0 0.001835 360.88013 501.84637
448.0 0.002232 360.81711 449.88715
459.0 0.002179 360.75436 419.72229
424.0 0.002358 360.69162 406.58789
418.0 0.002392 360.62909 402.38770
409.0 0.002445 360.56677 401.22067
440.0 0.002273 360.50467 401.97040
433.0 0.002309 360.44263 407.98920
424.0 0.002358 360.38080 424.23090
459.0 0.002179 360.31909 455.65411
485.0 0.002062 360.25763 492.22415
487.0 0.002053 360.19638 498.99014
480.0 0.002083 360.13516 489.97055
511.0 0.001957 360.07419 507.39236
554.0 0.001805 360.01340 552.36328
603.0 0.001658 359.95276 564.96399
513.0 0.001949 359.89227 513.70740
454.0 0.002203 359.83191 463.05060
410.0 0.002439 359.77179 436.32291
416.0 0.002404 359.71182 429.43555
433.0 0.002309 359.65192 437.64636
478.0 0.002092 359.59241 463.55753
536.0 0.001866 359.53284 515.02985
542.0 0.001845 359.47357 594.03387
698.0 0.001433 359.41440 670.46259
700.0 0.001429 359.35541 701.03870
740.0 0.001351 359.29660 750.36127
759.0 0.001318 359.23801 802.84399
770.0 0.001299 359.17950 746.89148
603.0 0.001658 359.12119 620.50110
513.0 0.001949 359.06305 527.04102
440.0 0.002273 359.00510 482.11865
460.0 0.002174 358.94733 471.50409
510.0 0.001961 358.88959 488.38000
550.0 0.001818 358.83215 541.16040
621.0 0.001610 358.77481 647.48132
767.0 0.001304 358.71774 797.49463
886.0 0.001129 358.66071 917.23383
891.0 0.001122 358.60388 891.16516
791.0 0.001264 358.54724 776.96289
688.0 0.001453 358.49075 651.88885
567.0 0.001764 358.43445 543.82086
468.0 0.002137 358.37827 478.16998
427.0 0.002342 358.32227 445.40421
397.0 0.002519 358.26648 431.87317
399.0 0.002506 358.21075 431.32208
415.0 0.002410 358.15530 445.80768
440.0 0.002273 358.09998 483.56793
506.0 0.001976 358.04486 548.00537
575.0 0.001739 357.98975 602.63379
576.0 0.001736 357.93503 574.91595
523.0 0.001912 357.88028 507.05869
454.0 0.002203 357.82574 462.70758
431.0 0.002320 357.77139 449.71063
437.0 0.002288 357.71722 461.22388
485.0 0.002062 357.66327 483.18353
490.0 0.002041 357.60938 503.49753
532.0 0.001880 357.55566 532.82153
584.0 0.001712 357.50208 579.40979
661.0 0.001513 357.44876 648.81586
707.0 0.001414 357.39554 670.63989
616.0 0.001623 357.34253 603.76483
509.0 0.001965 357.28964 517.45862
414.0 0.002415 357.23688 457.52872
399.0 0.002506 357.18436 427.73297
382.0 0.002618 357.13190 418.36478
405.0 0.002469 357.07968 421.83295
416.0 0.002404 357.02762 430.84805
402.0 0.002488 356.97571 439.32706
463.0 0.002160 356.92389 453.47958
480.0 0.002083 356.87231 476.27301
488.0 0.002049 356.82092 511.85211
529.0 0.001890 356.76968 528.15491
469.0 0.002132 356.71851 506.18781
471.0 0.002123 356.66757 475.40768
411.0 0.002433 356.61676 443.55569
392.0 0.002551 356.56616 414.68192
382.0 0.002618 356.51575 396.00662
363.0 0.002755 356.46533 386.42209
351.0 0.002849 356.41525 380.95364
370.0 0.002703 356.36520 377.66003
359.0 0.002786 356.31540 376.38031
365.0 0.002740 356.26566 376.24707
358.0 0.002793 356.21619 377.66281
350.0 0.002857 356.16681 381.36005
337.0 0.002967 356.11761 388.52908
374.0 0.002674 356.06860 397.27676
403.0 0.002481 356.01968 402.17230
388.0 0.002577 355.97095 405.51077
392.0 0.002551 355.92239 416.45758
424.0 0.002358 355.87399 436.41595
449.0 0.002227 355.82571 452.86713
452.0 0.002212 355.77759 465.17422
494.0 0.002024 355.72968 496.75204
500.0 0.002000 355.68182 551.02197
555.0 0.001802 355.63425 593.85492
581.0 0.001721 355.58679 593.06317
540.0 0.001852 355.53946 577.14856
475.0 0.002105 355.49225 531.63281
427.0 0.002342 355.44531 483.73419
414.0 0.002415 355.39844 457.74850
420.0 0.002381 355.35178 446.06631
405.0 0.002469 355.30521 444.96094
406.0 0.002463 355.25882 449.41971
414.0 0.002415 355.21252 453.10864
416.0 0.002404 355.16650 467.72067
465.0 0.002151 355.12054 500.11865
488.0 0.002049 355.07483 541.07745
520.0 0.001923 355.02917 581.01471
585.0 0.001709 354.98373 651.79285
682.0 0.001466 354.93842 762.86908
793.0 0.001261 354.89328 876.18500
781.0 0.001280 354.84827 847.49164
634.0 0.001577 354.80341 690.29584
518.0 0.001931 354.75867 557.54675
440.0 0.002273 354.71417 483.52957
416.0 0.002404 354.66977 449.36130
407.0 0.002457 354.62555 435.95670
382.0 0.002618 354.58148 432.88071
384.0 0.002604 354.53754 433.61804
398.0 0.002513 354.49377 443.21594
434.0 0.002304 354.45007 473.47626
498.0 0.002008 354.40665 533.55035
537.0 0.001862 354.36325 611.21045
605.0 0.001653 354.32010 636.59521
562.0 0.001779 354.27710 592.93286
517.0 0.001934 354.23416 569.72980
533.0 0.001876 354.19138 604.28162
599.0 0.001669 354.14883 661.65741
556.0 0.001799 354.10632 652.16553
534.0 0.001873 354.06415 602.86139
525.0 0.001905 354.02197 574.09497
520.0 0.001923 353.97992 545.13391
508.0 0.001969 353.93811 522.07312
490.0 0.002041 353.89636 526.63208
473.0 0.002114 353.85486 529.61670
466.0 0.002146 353.81348 496.48874
421.0 0.002375 353.77219 462.00491
402.0 0.002488 353.73102 452.24374
424.0 0.002358 353.69009 470.37091
459.0 0.002179 353.64929 504.04947
451.0 0.002217 353.60864 512.22021
453.0 0.002208 353.56815 488.52597
481.0 0.002079 353.52774 472.47656
435.0 0.002299 353.48746 462.78571
421.0 0.002375 353.44745 452.25024
400.0 0.002500 353.40747 450.36008
395.0 0.002532 353.36761 451.36093
400.0 0.002500 353.32800 436.14404
382.0 0.002618 353.28848 413.09146
370.0 0.002703 353.24911 397.53394
365.0 0.002740 353.20990 390.50061
380.0 0.002632 353.17084 389.78873
392.0 0.002551 353.13190 395.85318
414.0 0.002415 353.09308 412.13388
445.0 0.002247 353.05444 447.09003
479.0 0.002088 353.01590 507.56494
508.0 0.001969 352.97760 572.66431
538.0 0.001859 352.93936 567.64203
491.0 0.002037 352.90128 500.40619
429.0 0.002331 352.86328 443.20480
403.0 0.002481 352.82547 411.68677
371.0 0.002695 352.78787 398.36673
374.0 0.002674 352.75034 395.56198
392.0 0.002551 352.71292 400.26489
413.0 0.002421 352.67572 416.26920
455.0 0.002198 352.63858 449.22153
492.0 0.002033 352.60165 498.11154
523.0 0.001912 352.56479 534.20367
489.0 0.002045 352.52814 541.65558
467.0 0.002141 352.49158 529.17810
442.0 0.002262 352.45520 483.25452
404.0 0.002475 352.41888 434.63861
379.0 0.002639 352.38275 403.67917
365.0 0.002740 352.34671 387.72406
396.0 0.002525 352.31094 380.67044
348.0 0.002874 352.27518 378.62225
362.0 0.002762 352.23959 381.50626
384.0 0.002604 352.20419 391.00989
411.0 0.002433 352.16879 407.91043
434.0 0.002304 352.13358 422.73492
373.0 0.002681 352.09860 418.71225
362.0 0.002762 352.06369 406.74033
370.0 0.002703 352.02893 394.34671
347.0 0.002882 351.99426 381.25763
404.0 0.002475 351.95978 371.28262
367.0 0.002725 351.92542 365.52570
333.0 0.003003 351.89120 362.31027
344.0 0.002907 351.85703 360.40936
355.0 0.002817 351.82303 359.34714
376.0 0.002660 351.78925 358.74225
337.0 0.002967 351.75558 358.55872
363.0 0.002755 351.72198 358.93219
354.0 0.002825 351.68854 360.05792
331.0 0.003021 351.65518 361.73743
334.0 0.002994 351.62207 362.34286
346.0 0.002890 351.58902 360.85159
373.0 0.002681 351.55609 359.15771
377.0 0.002653 351.52325 357.80978
343.0 0.002915 351.49060 357.48285
351.0 0.002849 351.45807 357.55377
339.0 0.002950 351.42572 357.88370
329.0 0.003040 351.39346 358.43613
322.0 0.003106 351.36136 359.23611
337.0 0.002967 351.32928 360.36658
380.0 0.002632 351.29736 361.93765
365.0 0.002740 351.26566 364.14178
360.0 0.002778 351.23401 367.41226
356.0 0.002809 351.20251 372.66553
393.0 0.002545 351.17114 381.76028
381.0 0.002625 351.13992 398.75168
409.0 0.002445 351.10880 428.76807
456.0 0.002193 351.07779 471.81610
507.0 0.001972 351.04691 517.24084
553.0 0.001808 351.01620 546.04858
575.0 0.001739 350.98560 557.83710
560.0 0.001786 350.95505 529.39093
505.0 0.001980 350.92468 469.45496
445.0 0.002247 350.89450 422.66370
403.0 0.002481 350.86435 396.53867
385.0 0.002597 350.83432 384.36710
383.0 0.002611 350.80444 380.09793
392.0 0.002551 350.77466 381.66873
382.0 0.002618 350.74509 389.51828
416.0 0.002404 350.71558 405.16974
424.0 0.002358 350.68619 426.41434
418.0 0.002392 350.65692 445.37549
448.0 0.002232 350.62778 455.02765
414.0 0.002415 350.59875 454.31155
476.0 0.002101 350.56985 430.40485
428.0 0.002336 350.54108 400.82864
378.0 0.002646 350.51242 380.92715
396.0 0.002525 350.48389 370.00461
357.0 0.002801 350.45538 364.32138
325.0 0.003077 350.42712 361.20026
351.0 0.002849 350.39896 359.27966
356.0 0.002809 350.37091 357.94821
354.0 0.002825 350.34296 357.08038
368.0 0.002717 350.31512 356.49142
344.0 0.002907 350.28741 356.10687
335.0 0.002985 350.25986 355.81775
368.0 0.002717 350.23239 355.73663
377.0 0.002653 350.20502 356.10574
352.0 0.002841 350.17776 356.91754
338.0 0.002959 350.15060 358.80200
384.0 0.002604 350.12360 362.41397
342.0 0.002924 350.09668 367.89899
362.0 0.002762 350.06995 372.14700
355.0 0.002817 350.04324 372.21457
355.0 0.002817 350.01669 367.93405
352.0 0.002841 349.99023 362.66959
346.0 0.002890 349.96390 359.42688
370.0 0.002703 349.93762 357.72083
372.0 0.002688 349.91159 357.14728
346.0 0.002890 349.88559 357.22104
369.0 0.002710 349.85968 357.71320
366.0 0.002732 349.83395 358.92841
361.0 0.002770 349.80823 360.87607
371.0 0.002695 349.78275 364.60828
366.0 0.002732 349.75729 370.18002
363.0 0.002755 349.73196 376.87448
360.0 0.002778 349.70679 385.62903
391.0 0.002558 349.68161 398.72311
415.0 0.002410 349.65668 415.89456
433.0 0.002309 349.63174 430.83539
438.0 0.002283 349.60699 443.84811
435.0 0.002299 349.58231 440.06412
399.0 0.002506 349.55768 414.79065
386.0 0.002591 349.53329 391.67990
373.0 0.002681 349.50891 378.12927
366.0 0.002732 349.48471 372.27145
366.0 0.002732 349.46051 371.24365
371.0 0.002695 349.43652 374.05167
395.0 0.002532 349.41260 381.35303
401.0 0.002494 349.38879 392.72559
410.0 0.002439 349.36502 404.88931
433.0 0.002309 349.34146 416.45840
434.0 0.002304 349.31796 426.82938
412.0 0.002427 349.29449 433.78232
405.0 0.002469 349.27124 431.97079
420.0 0.002381 349.24802 424.36978
420.0 0.002381 349.22495 420.39911
405.0 0.002469 349.20200 425.07678
430.0 0.002326 349.17902 437.33844
459.0 0.002179 349.15631 455.52518
441.0 0.002268 349.13364 460.82751
414.0 0.002415 349.11102 449.43280
429.0 0.002331 349.08856 447.60342
462.0 0.002165 349.06613 465.00043
458.0 0.002183 349.04385 491.50952
508.0 0.001969 349.02167 498.59988
487.0 0.002053 348.99960 490.08261
492.0 0.002033 348.97766 495.33496
494.0 0.002024 348.95569 519.47913
465.0 0.002151 348.93393 532.86932
488.0 0.002049 348.91226 504.73972
431.0 0.002320 348.89066 468.92221
413.0 0.002421 348.86917 448.67932
432.0 0.002315 348.84784 433.70102
398.0 0.002513 348.82648 419.17755
393.0 0.002545 348.80527 414.34225
386.0 0.002591 348.78418 421.97903
404.0 0.002475 348.76318 435.00613
424.0 0.002358 348.74225 439.47168
436.0 0.002294 348.72137 441.73578
456.0 0.002193 348.70062 458.36517
434.0 0.002304 348.68005 496.23035
504.0 0.001984 348.65945 542.90338
529.0 0.001890 348.63904 565.65887
502.0 0.001992 348.61868 537.30060
412.0 0.002427 348.59836 481.83124
402.0 0.002488 348.57822 441.84802
413.0 0.002421 348.55814 425.85605
434.0 0.002304 348.53812 432.27814
451.0 0.002217 348.51822 461.62979
488.0 0.002049 348.49841 511.47803
536.0 0.001866 348.47876 551.81903
486.0 0.002058 348.45905 537.44861
478.0 0.002092 348.43954 498.81451
470.0 0.002128 348.42004 474.74304
438.0 0.002283 348.40073 468.95920
433.0 0.002309 348.38144 471.13132
420.0 0.002381 348.36224 457.71262
418.0 0.002392 348.34311 433.21524
414.0 0.002415 348.32416 417.00760
415.0 0.002410 348.30527 413.82333
418.0 0.002392 348.28641 425.37329
451.0 0.002217 348.26764 456.51419
482.0 0.002075 348.24896 514.75983
533.0 0.001876 348.23041 595.23633
621.0 0.001610 348.21188 669.63477
657.0 0.001522 348.19348 690.52386
581.0 0.001721 348.17511 617.10687
492.0 0.002033 348.15689 522.75092
449.0 0.002227 348.13876 456.64371
425.0 0.002353 348.12067 420.31805
393.0 0.002545 348.10266 402.64252
365.0 0.002740 348.08475 394.90366
371.0 0.002695 348.06696 393.00360
391.0 0.002558 348.04916 396.63171
419.0 0.002387 348.03149 407.91324
425.0 0.002353 348.01395 430.81711
459.0 0.002179 347.99637 466.60205
487.0 0.002053 347.97900 508.46390
515.0 0.001942 347.96161 534.41486
495.0 0.002020 347.94427 519.89056
493.0 0.002028 347.92712 503.94031
452.0 0.002212 347.91010 516.62988
480.0 0.002083 347.89301 558.51947
522.0 0.001916 347.87604 596.46564
506.0 0.001976 347.85913 568.67529
459.0 0.002179 347.84235 507.16461
428.0 0.002336 347.82562 464.69781
431.0 0.002320 347.80899 443.52896
432.0 0.002315 347.79245 428.64554
396.0 0.002525 347.77588 418.00409
404.0 0.002475 347.75946 412.96301
423.0 0.002364 347.74316 415.70810
423.0 0.002364 347.72681 426.92792
400.0 0.002500 347.71066 438.12436
444.0 0.002252 347.69449 447.18445
431.0 0.002320 347.67850 464.49451
434.0 0.002304 347.66254 483.61038
456.0 0.002193 347.64658 474.31677
447.0 0.002237 347.63074 444.54520
440.0 0.002273 347.61496 422.81085
413.0 0.002421 347.59930 413.39462
400.0 0.002500 347.58368 408.48154
409.0 0.002445 347.56805 407.82614
447.0 0.002237 347.55267 416.23099
450.0 0.002222 347.53723 439.88522
487.0 0.002053 347.52191 488.76010
614.0 0.001629 347.50656 569.33026
713.0 0.001403 347.49136 670.99744
777.0 0.001287 347.47626 718.46594
676.0 0.001479 347.46118 644.31781
535.0 0.001869 347.44620 539.36536
485.0 0.002062 347.43127 467.31149
436.0 0.002294 347.41641 429.15222
406.0 0.002463 347.40158 412.23471
427.0 0.002342 347.38687 407.07272
425.0 0.002353 347.37225 409.41617
425.0 0.002353 347.35754 420.64078
457.0 0.002188 347.34305 447.54150
501.0 0.001996 347.32855 503.43863
617.0 0.001621 347.31409 601.27094
706.0 0.001416 347.29974 726.29926
749.0 0.001335 347.28549 779.20593
708.0 0.001412 347.27130 691.64728
576.0 0.001736 347.25711 567.53845
492.0 0.002033 347.24298 480.45166
452.0 0.002212 347.22900 431.76627
401.0 0.002494 347.21497 407.70718
390.0 0.002564 347.20105 396.00470
404.0 0.002475 347.18719 390.52017
376.0 0.002660 347.17343 389.71851
394.0 0.002538 347.15976 394.52972
452.0 0.002212 347.14606 408.36731
449.0 0.002227 347.13235 435.57309
463.0 0.002160 347.11887 473.00815
487.0 0.002053 347.10532 493.56027
458.0 0.002183 347.09195 470.75238
426.0 0.002347 347.07849 435.04065
429.0 0.002331 347.06522 410.86020
397.0 0.002519 347.05188 400.44504
391.0 0.002558 347.03870 401.46109
405.0 0.002469 347.02557 414.49011
432.0 0.002315 347.01242 445.09616
476.0 0.002101 346.99939 499.34824
573.0 0.001745 346.98639 567.76477
569.0 0.001757 346.97345 591.54175
516.0 0.001938 346.96060 541.68616
474.0 0.002110 346.94778 481.86176
434.0 0.002304 346.93494 444.62592
396.0 0.002525 346.92227 427.28265
425.0 0.002353 346.90958 428.35385
476.0 0.002101 346.89694 448.76035
487.0 0.002053 346.88440 488.13910
496.0 0.002016 346.87186 527.27502
487.0 0.002053 346.85934 523.39331
470.0 0.002128 346.84705 491.37216
457.0 0.002188 346.83466 475.90500
443.0 0.002257 346.82236 486.15955
482.0 0.002075 346.81006 500.34903
465.0 0.002151 346.79782 482.27621
441.0 0.002268 346.78571 449.10648
474.0 0.002110 346.77347 425.99561
438.0 0.002283 346.76147 414.97015
386.0 0.002591 346.74945 415.90927
438.0 0.002283 346.73743 429.79047
479.0 0.002088 346.72549 462.19751
526.0 0.001901 346.71365 513.30542
553.0 0.001808 346.70178 570.26514
614.0 0.001629 346.69000 612.43457
633.0 0.001580 346.67828 614.20184
590.0 0.001695 346.66653 574.10309
554.0 0.001805 346.65488 529.61658
525.0 0.001905 346.64328 499.87390
517.0 0.001934 346.63168 502.11374
564.0 0.001773 346.62015 545.37384
641.0 0.001560 346.60867 625.21307
711.0 0.001406 346.59723 693.27264
684.0 0.001462 346.58585 665.45227
588.0 0.001701 346.57452 583.47046
544.0 0.001838 346.56314 524.63550
502.0 0.001992 346.55185 505.13626
494.0 0.002024 346.54062 518.95795
521.0 0.001919 346.52945 545.38660
585.0 0.001709 346.51831 564.86816
638.0 0.001567 346.50723 599.81677
725.0 0.001379 346.49612 674.50458
882.0 0.001134 346.48508 782.47900
907.0 0.001103 346.47409 833.86243
800.0 0.001250 346.46317 775.74988
707.0 0.001414 346.45218 704.81787
655.0 0.001527 346.44131 641.74780
587.0 0.001704 346.43045 567.09393
537.0 0.001862 346.41962 508.20233
517.0 0.001934 346.40884 475.12704
480.0 0.002083 346.39810 458.02997
453.0 0.002208 346.38742 455.01669
460.0 0.002174 346.37674 468.75284
532.0 0.001880 346.36606 507.99527
625.0 0.001600 346.35550 586.94379
726.0 0.001377 346.34491 712.73718
884.0 0.001131 346.33441 837.95459
865.0 0.001156 346.32391 834.43677
770.0 0.001299 346.31339 716.29681
614.0 0.001629 346.30301 612.80792
580.0 0.001724 346.29257 569.08417
603.0 0.001658 346.28229 589.42126
644.0 0.001553 346.27185 676.04517
787.0 0.001271 346.26157 824.19189
974.0 0.001027 346.25128 964.43359
858.0 0.001166 346.24103 936.60706
740.0 0.001351 346.23077 776.71539
624.0 0.001603 346.22055 641.82520
559.0 0.001789 346.21048 576.98871
559.0 0.001789 346.20032 566.74512
585.0 0.001709 346.19016 570.31561
547.0 0.001828 346.18011 542.60321
552.0 0.001812 346.17007 500.89468
478.0 0.002092 346.16003 474.51813
442.0 0.002262 346.15002 471.99234
489.0 0.002045 346.14008 496.59552
585.0 0.001709 346.13013 552.13214
659.0 0.001517 346.12027 631.83368
686.0 0.001458 346.11029 680.89771
628.0 0.001592 346.10040 635.31207
586.0 0.001706 346.09061 553.18610
474.0 0.002110 346.08075 493.15814
449.0 0.002227 346.07098 462.34445
465.0 0.002151 346.06125 451.81113
483.0 0.002070 346.05148 454.15775
498.0 0.002008 346.04175 469.91483
523.0 0.001912 346.03195 500.94897
563.0 0.001776 346.02237 557.62878
668.0 0.001497 346.01270 652.64795
790.0 0.001266 346.00302 791.57715
991.0 0.001009 345.99347 975.89655
1225.0 0.000816 345.98389 1231.88708
1421.0 0.000704 345.97427 1457.43835
1346.0 0.000743 345.96472 1409.37622
1059.0 0.000944 345.95514 1134.79749
800.0 0.001250 345.94568 856.71887
652.0 0.001534 345.93613 675.40228
539.0 0.001855 345.92670 581.08594
497.0 0.002012 345.91721 543.65002
505.0 0.001980 345.90775 543.30530
563.0 0.001776 345.89835 567.26300
638.0 0.001567 345.88892 600.20581
633.0 0.001580 345.87958 636.44116
675.0 0.001481 345.87018 694.95746
808.0 0.001238 345.86075 792.79333
961.0 0.001041 345.85150 937.55389
1002.0 0.000998 345.84216 1048.12512
945.0 0.001058 345.83279 1023.68011
920.0 0.001087 345.82346 948.16266
948.0 0.001055 345.81421 930.70844
967.0 0.001034 345.80496 953.52954
837.0 0.001195 345.79572 900.84509
714.0 0.001401 345.78647 769.60944
652.0 0.001534 345.77719 665.86523
620.0 0.001613 345.76801 625.42181
619.0 0.001616 345.75882 630.92126
625.0 0.001600 345.74960 644.41083
609.0 0.001642 345.74045 617.91113
574.0 0.001742 345.73123 562.80322
574.0 0.001742 345.72205 522.07581
517.0 0.001934 345.71289 504.44070
530.0 0.001887 345.70377 509.81448
525.0 0.001905 345.69464 544.54016
610.0 0.001639 345.68552 606.63068
668.0 0.001497 345.67639 668.42084
752.0 0.001330 345.66727 687.92902
717.0 0.001395 345.65820 695.17670
797.0 0.001255 345.64905 741.58868
782.0 0.001279 345.63998 787.22113
725.0 0.001379 345.63095 750.12384
628.0 0.001592 345.62189 665.05353
576.0 0.001736 345.61276 576.37097
490.0 0.002041 345.60376 503.90433
445.0 0.002247 345.59467 455.79367
460.0 0.002174 345.58566 431.87393
404.0 0.002475 345.57657 422.75748
425.0 0.002353 345.56754 425.43051
459.0 0.002179 345.55853 440.39246
485.0 0.002062 345.54956 468.35056
526.0 0.001901 345.54047 501.87933
540.0 0.001852 345.53146 525.74365
561.0 0.001783 345.52249 549.09583
562.0 0.001779 345.51343 558.97083
531.0 0.001883 345.50439 522.99573
479.0 0.002088 345.49539 471.10712
419.0 0.002387 345.48642 433.15240
429.0 0.002331 345.47739 410.91367
414.0 0.002415 345.46844 400.96881
421.0 0.002375 345.45935 398.56708
436.0 0.002294 345.45041 401.72424
415.0 0.002410 345.44135 411.52982
450.0 0.002222 345.43237 431.59500
461.0 0.002169 345.42340 463.97260
509.0 0.001965 345.41437 505.52850
600.0 0.001667 345.40543 534.56549
590.0 0.001695 345.39636 532.20984
564.0 0.001773 345.38736 518.27777
584.0 0.001712 345.37836 532.23157
614.0 0.001629 345.36932 594.85144
760.0 0.001316 345.36035 709.44598
905.0 0.001105 345.35129 829.04657
836.0 0.001196 345.34229 831.23810
686.0 0.001458 345.33322 716.83875
584.0 0.001712 345.32422 605.76312
525.0 0.001905 345.31516 536.82825
463.0 0.002160 345.30615 502.07565
490.0 0.002041 345.29712 496.07205
517.0 0.001934 345.28802 519.41626
607.0 0.001647 345.27893 570.12756
657.0 0.001522 345.26990 638.93744
763.0 0.001311 345.26089 716.44061
762.0 0.001312 345.25180 755.67755
748.0 0.001337 345.24265 729.54803
669.0 0.001495 345.23361 703.73724
676.0 0.001479 345.22452 705.18011
726.0 0.001377 345.21539 679.18079
660.0 0.001515 345.20633 613.85956
578.0 0.001730 345.19714 564.18359
583.0 0.001715 345.18808 555.10767
626.0 0.001597 345.17892 593.88910
707.0 0.001414 345.16971 688.80573
796.0 0.001256 345.16064 823.71173
923.0 0.001083 345.15146 904.16846
869.0 0.001151 345.14224 851.54541
682.0 0.001466 345.13309 757.98407
616.0 0.001623 345.12384 673.70441
538.0 0.001859 345.11465 585.87476
500.0 0.002000 345.10547 510.59958
452.0 0.002212 345.09619 461.09802
468.0 0.002137 345.08698 433.25375
458.0 0.002183 345.07767 420.05981
411.0 0.002433 345.06839 417.49081
446.0 0.002242 345.05917 426.10223
477.0 0.002096 345.04980 450.69482
509.0 0.001965 345.04053 497.17117
559.0 0.001789 345.03116 560.79620
619.0 0.001616 345.02182 600.12286
546.0 0.001832 345.01248 567.03650
504.0 0.001984 345.00317 500.74710
458.0 0.002183 344.99374 446.55112
438.0 0.002283 344.98434 413.00497
403.0 0.002481 344.97491 395.20844
371.0 0.002695 344.96548 386.74966
423.0 0.002364 344.95602 385.69971
417.0 0.002398 344.94656 389.77713
404.0 0.002475 344.93710 396.80701
399.0 0.002506 344.92761 402.17020
398.0 0.002513 344.91815 399.99225
403.0 0.002481 344.90860 390.97949
394.0 0.002538 344.89896 381.09665
383.0 0.002611 344.88943 375.08078
399.0 0.002506 344.87982 373.61426
418.0 0.002392 344.87024 378.32816
397.0 0.002519 344.86060 388.11014
419.0 0.002387 344.85089 399.61935
433.0 0.002309 344.84128 402.54852
416.0 0.002404 344.83157 395.78864
435.0 0.002299 344.82184 388.37051
424.0 0.002358 344.81213 383.49341
416.0 0.002404 344.80240 382.70901
418.0 0.002392 344.79260 384.51987
391.0 0.002558 344.78284 385.51407
419.0 0.002387 344.77310 385.40369
409.0 0.002445 344.76318 385.63397
425.0 0.002353 344.75333 392.12335
429.0 0.002331 344.74344 405.87473
442.0 0.002262 344.73358 427.36407
454.0 0.002203 344.72360 443.80154
446.0 0.002242 344.71368 439.04883
416.0 0.002404 344.70370 421.70837
405.0 0.002469 344.69373 403.26447
390.0 0.002564 344.68369 389.79404
415.0 0.002410 344.67374 381.74686
370.0 0.002703 344.66354 378.43564
403.0 0.002481 344.65341 379.39807
403.0 0.002481 344.64337 384.74359
456.0 0.002193 344.63318 395.95291
417.0 0.002398 344.62305 414.81232
489.0 0.002045 344.61285 447.31857
581.0 0.001721 344.60260 499.77933
632.0 0.001582 344.59235 567.14240
682.0 0.001466 344.58206 604.21631
560.0 0.001786 344.57175 566.56781
472.0 0.002119 344.56146 498.62228
404.0 0.002475 344.55109 445.66351
453.0 0.002208 344.54071 415.07785
427.0 0.002342 344.53027 401.79214
388.0 0.002577 344.51984 398.83093
405.0 0.002469 344.50937 404.98022
400.0 0.002500 344.49887 421.31787
441.0 0.002268 344.48837 448.99899
514.0 0.001946 344.47778 481.00009
520.0 0.001923 344.46713 498.68954
531.0 0.001883 344.45660 504.70908
539.0 0.001855 344.44592 525.19495
580.0 0.001724 344.43518 559.83063
587.0 0.001704 344.42456 579.89783
561.0 0.001783 344.41379 569.17078
527.0 0.001898 344.40305 528.94135
471.0 0.002123 344.39221 490.73035
464.0 0.002155 344.38141 477.10172
499.0 0.002004 344.37054 490.72980
537.0 0.001862 344.35959 521.96167
623.0 0.001605 344.34872 561.57501
657.0 0.001522 344.33774 597.15405
580.0 0.001724 344.32672 590.91815
514.0 0.001946 344.31570 545.07452
472.0 0.002119 344.30463 492.83563
446.0 0.002242 344.29352 455.39676
454.0 0.002203 344.28238 439.09711
457.0 0.002188 344.27127 440.13113
454.0 0.002203 344.25998 447.87033
452.0 0.002212 344.24881 446.02231
444.0 0.002252 344.23755 434.85580
443.0 0.002257 344.22629 429.42676
436.0 0.002294 344.21487 434.84207
460.0 0.002174 344.20355 447.79922
464.0 0.002155 344.19214 463.55173
499.0 0.002004 344.18066 480.62360
499.0 0.002004 344.16922 486.64722
481.0 0.002079 344.15768 471.07730
485.0 0.002062 344.14612 453.50842
476.0 0.002101 344.13458 449.30389
464.0 0.002155 344.12296 464.13214
484.0 0.002066 344.11127 500.66089
534.0 0.001873 344.09958 558.39453
655.0 0.001527 344.08783 632.61920
780.0 0.001282 344.07602 726.94019
858.0 0.001166 344.06424 816.05646
790.0 0.001266 344.05240 818.44122
635.0 0.001575 344.04056 724.95172
616.0 0.001623 344.02853 632.31006
602.0 0.001661 344.01660 589.56995
656.0 0.001524 344.00464 596.79364
719.0 0.001391 343.99252 627.26190
705.0 0.001418 343.98050 641.79120
694.0 0.001441 343.96835 633.18518
677.0 0.001477 343.95621 645.32233
706.0 0.001416 343.94400 707.94098
834.0 0.001199 343.93179 799.33069
805.0 0.001242 343.91943 833.22583
775.0 0.001290 343.90717 785.89624
674.0 0.001484 343.89481 736.82043
647.0 0.001546 343.88242 699.17261
576.0 0.001736 343.86990 636.03369
576.0 0.001736 343.85742 561.70001
512.0 0.001953 343.84491 512.29858
479.0 0.002088 343.83234 494.90268
558.0 0.001792 343.81973 501.99390
557.0 0.001795 343.80707 516.45251
498.0 0.002008 343.79440 521.26611
537.0 0.001862 343.78156 520.04785
535.0 0.001869 343.76883 526.99005
552.0 0.001812 343.75601 547.55707
561.0 0.001783 343.74313 565.58813
534.0 0.001873 343.73026 542.11694
492.0 0.002033 343.71725 490.31564
455.0 0.002198 343.70428 447.15414
430.0 0.002326 343.69125 422.76108
428.0 0.002336 343.67819 414.19821
436.0 0.002294 343.66501 412.83670
425.0 0.002353 343.65179 408.16672
419.0 0.002387 343.63864 397.00455
413.0 0.002421 343.62537 386.99680
392.0 0.002551 343.61200 381.54266
377.0 0.002653 343.59872 380.38309
393.0 0.002545 343.58533 380.27365
390.0 0.002564 343.57187 376.91507
377.0 0.002653 343.55838 371.73422
383.0 0.002611 343.54483 367.93530
391.0 0.002558 343.53125 365.82004
388.0 0.002577 343.51761 367.16245
382.0 0.002618 343.50397 370.93250
425.0 0.002353 343.49020 376.19165
434.0 0.002304 343.47641 381.62521
384.0 0.002604 343.46265 384.93973
391.0 0.002558 343.44876 382.90067
389.0 0.002571 343.43488 377.55887
405.0 0.002469 343.42093 373.71732
409.0 0.002445 343.40689 372.15891
419.0 0.002387 343.39285 372.99292
424.0 0.002358 343.37875 377.13611
416.0 0.002404 343.36459 388.10883
431.0 0.002320 343.35040 406.38696
445.0 0.002247 343.33618 429.51944
480.0 0.002083 343.32187 446.28256
446.0 0.002242 343.30756 439.20300
412.0 0.002427 343.29312 418.18436
423.0 0.002364 343.27869 400.46521
407.0 0.002457 343.26419 390.42004
398.0 0.002513 343.24969 386.80960
399.0 0.002506 343.23508 388.60388
428.0 0.002336 343.22049 396.59909
430.0 0.002326 343.20572 412.55673
463.0 0.002160 343.19101 436.76147
491.0 0.002037 343.17630 463.08356
536.0 0.001866 343.16141 482.04153
541.0 0.001848 343.14658 497.22095
504.0 0.001984 343.13159 504.15631
497.0 0.002012 343.11664 502.61252
480.0 0.002083 343.10162 506.12280
502.0 0.001992 343.08652 523.45764
587.0 0.001704 343.07141 570.63544
736.0 0.001359 343.05624 658.01965
828.0 0.001208 343.04102 755.46143
771.0 0.001297 343.02563 773.34003
651.0 0.001536 343.01031 687.58746
558.0 0.001792 342.99496 586.23199
508.0 0.001969 342.97955 519.54816
499.0 0.002004 342.96402 489.66110
484.0 0.002066 342.94846 479.11038
475.0 0.002105 342.93283 471.32596
449.0 0.002227 342.91727 464.85593
443.0 0.002257 342.90152 454.83954
466.0 0.002146 342.88574 440.91611
446.0 0.002242 342.86996 433.88904
450.0 0.002222 342.85406 441.58179
491.0 0.002037 342.83820 468.71793
562.0 0.001779 342.82227 516.15137
614.0 0.001629 342.80621 566.62738
591.0 0.001692 342.79016 576.60321
540.0 0.001852 342.77402 540.50488
516.0 0.001938 342.75787 503.53491
519.0 0.001927 342.74167 487.19586
520.0 0.001923 342.72537 482.59720
494.0 0.002024 342.70898 471.56250
461.0 0.002169 342.69263 458.64850
476.0 0.002101 342.67621 459.33102
513.0 0.001949 342.65967 474.37485
514.0 0.001946 342.64313 487.36392
485.0 0.002062 342.62656 473.90744
447.0 0.002237 342.60986 441.59460
431.0 0.002320 342.59320 413.15344
403.0 0.002481 342.57645 395.13931
396.0 0.002525 342.55960 386.30713
397.0 0.002519 342.54276 384.27966
404.0 0.002475 342.52582 387.59741
416.0 0.002404 342.50882 395.95218
435.0 0.002299 342.49179 407.85303
490.0 0.002041 342.47467 420.48972
432.0 0.002315 342.45749 431.12738
461.0 0.002169 342.44031 448.34732
511.0 0.001957 342.42310 482.38916
557.0 0.001795 342.40576 527.30762
580.0 0.001724 342.38840 549.19879
510.0 0.001961 342.37097 521.44275
507.0 0.001972 342.35342 475.86957
458.0 0.002183 342.33597 440.60696
427.0 0.002342 342.31836 416.88528
421.0 0.002375 342.30075 399.47510
398.0 0.002513 342.28296 388.02347
420.0 0.002381 342.26526 382.88889
388.0 0.002577 342.24741 381.24170
415.0 0.002410 342.22955 381.55338
436.0 0.002294 342.21164 382.73492
397.0 0.002519 342.19370 386.50546
437.0 0.002288 342.17560 395.74921
409.0 0.002445 342.15753 412.03705
426.0 0.002347 342.13940 432.70255
464.0 0.002155 342.12122 445.33087
428.0 0.002336 342.10287 440.54709
452.0 0.002212 342.08456 433.00632
440.0 0.002273 342.06622 435.56885
468.0 0.002137 342.04776 454.05048
537.0 0.001862 342.02930 493.69662
627.0 0.001595 342.01074 563.10352
789.0 0.001267 341.99210 656.13702
835.0 0.001198 341.97354 723.51849
703.0 0.001422 341.95480 697.29419
598.0 0.001672 341.93604 614.21436
545.0 0.001835 341.91714 546.13739
534.0 0.001873 341.89832 516.32776
552.0 0.001812 341.87939 516.04395
559.0 0.001789 341.86035 516.20648
504.0 0.001984 341.84128 491.76447
459.0 0.002179 341.82214 457.85220
416.0 0.002404 341.80301 433.16376
409.0 0.002445 341.78378 422.53339
431.0 0.002320 341.76447 426.88354
477.0 0.002096 341.74512 447.80444
494.0 0.002024 341.72574 488.00793
521.0 0.001919 341.70633 542.64777
579.0 0.001727 341.68683 584.01233
583.0 0.001715 341.66721 573.45227
509.0 0.001965 341.64764 524.76324
469.0 0.002132 341.62790 481.57693
442.0 0.002262 341.60812 460.64267
446.0 0.002242 341.58838 459.74249
466.0 0.002146 341.56851 466.90787
462.0 0.002165 341.54849 468.99097
503.0 0.001988 341.52856 474.02716
510.0 0.001961 341.50858 500.62494
574.0 0.001742 341.48846 559.98932
711.0 0.001406 341.46832 648.99115
738.0 0.001355 341.44812 724.14301
662.0 0.001511 341.42783 710.24420
549.0 0.001821 341.40750 625.56793
526.0 0.001901 341.38715 540.77197
478.0 0.002092 341.36670 478.72852
418.0 0.002392 341.34622 440.51489
375.0 0.002667 341.32562 422.03568
394.0 0.002538 341.30499 418.20667
388.0 0.002577 341.28436 427.37595
457.0 0.002188 341.26361 449.28900
509.0 0.001965 341.24286 479.47830
518.0 0.001931 341.22198 500.26639
527.0 0.001898 341.20102 499.44986
473.0 0.002114 341.18015 498.22656
515.0 0.001942 341.15912 516.29242
554.0 0.001805 341.13797 545.34204
564.0 0.001773 341.11688 546.91211
487.0 0.002053 341.09570 507.01981
433.0 0.002309 341.07455 459.85825
397.0 0.002519 341.05316 424.97397
392.0 0.002551 341.03183 402.36221
354.0 0.002825 341.01035 389.81259
332.0 0.003012 340.98889 385.33090
391.0 0.002558 340.96738 387.52817
408.0 0.002451 340.94577 395.47632
415.0 0.002410 340.92407 406.27133
403.0 0.002481 340.90231 413.83121
420.0 0.002381 340.88062 408.67709
404.0 0.002475 340.85873 393.16394
365.0 0.002740 340.83688 378.26053
343.0 0.002915 340.81491 368.52002
369.0 0.002710 340.79291 362.95782
386.0 0.002591 340.77087 360.36011
340.0 0.002941 340.74881 359.61624
362.0 0.002762 340.72662 359.75977
387.0 0.002584 340.70438 359.56476
393.0 0.002545 340.68204 358.76855
364.0 0.002747 340.65967 358.24316
347.0 0.002882 340.63730 358.61914
367.0 0.002725 340.61481 359.77646
402.0 0.002488 340.59229 361.02621
384.0 0.002604 340.56967 361.37360
388.0 0.002577 340.54706 363.30554
375.0 0.002667 340.52448 366.37936
380.0 0.002632 340.50165 370.79150
411.0 0.002433 340.47888 378.89157
438.0 0.002283 340.45596 392.26459
488.0 0.002049 340.43298 410.27585
500.0 0.002000 340.41003 426.20734
451.0 0.002217 340.38699 431.82550
450.0 0.002222 340.36392 436.00192
473.0 0.002114 340.34070 453.12567
527.0 0.001898 340.31754 487.36935
578.0 0.001730 340.29428 527.62708
569.0 0.001757 340.27097 540.91742
526.0 0.001901 340.24756 519.26361
485.0 0.002062 340.22415 495.71423
496.0 0.002016 340.20056 485.08823
489.0 0.002045 340.17703 473.84665
467.0 0.002141 340.15341 452.10260
461.0 0.002169 340.12976 431.99640
436.0 0.002294 340.10599 422.83633
433.0 0.002309 340.08228 426.63596
452.0 0.002212 340.05841 442.94891
463.0 0.002160 340.03445 470.00763
519.0 0.001927 340.01059 510.27625
587.0 0.001704 339.98651 569.28058
605.0 0.001653 339.96249 629.43781
631.0 0.001585 339.93842 648.18927
530.0 0.001887 339.91422 615.15692
510.0 0.001961 339.88992 556.54510
518.0 0.001931 339.86563 501.46088
474.0 0.002110 339.84131 466.70959
431.0 0.002320 339.81693 447.87891
433.0 0.002309 339.79242 432.05011
433.0 0.002309 339.76791 416.31650
393.0 0.002545 339.74335 405.58981
423.0 0.002364 339.71875 402.30643
439.0 0.002278 339.69409 407.87570
434.0 0.002304 339.66931 425.18393
459.0 0.002179 339.64450 458.47256
557.0 0.001795 339.61969 509.88626
573.0 0.001745 339.59473 566.80829
586.0 0.001706 339.56976 591.39642
508.0 0.001969 339.54471 561.96136
462.0 0.002165 339.51974 510.35413
439.0 0.002278 339.49460 471.13016
413.0 0.002421 339.46939 454.16748
426.0 0.002347 339.44418 454.25604
447.0 0.002237 339.41888 455.56058
434.0 0.002304 339.39355 443.45493
427.0 0.002342 339.36810 425.78964
407.0 0.002457 339.34268 414.39417
422.0 0.002370 339.31717 414.04434
427.0 0.002342 339.29163 427.60516
468.0 0.002137 339.26596 457.65683
499.0 0.002004 339.24030 505.55920
560.0 0.001786 339.21457 557.54456
574.0 0.001742 339.18881 575.47131
521.0 0.001919 339.16293 542.40411
469.0 0.002132 339.13705 491.48969
434.0 0.002304 339.11115 451.34924
425.0 0.002353 339.08508 429.46753
425.0 0.002353 339.05914 423.37271
427.0 0.002342 339.03299 426.97009
406.0 0.002463 339.00681 431.49173
399.0 0.002506 338.98056 434.22241
424.0 0.002358 338.95432 444.38266
481.0 0.002079 338.92810 472.27936
533.0 0.001876 338.90164 523.60614
637.0 0.001570 338.87524 592.60388
658.0 0.001520 338.84869 645.30426
599.0 0.001669 338.82227 642.49615
547.0 0.001828 338.79568 603.39026
494.0 0.002024 338.76901 552.16479
476.0 0.002101 338.74234 502.64279
461.0 0.002169 338.71558 471.35355
455.0 0.002198 338.68887 463.70755
448.0 0.002232 338.66196 478.17218
521.0 0.001919 338.63510 509.20462
617.0 0.001621 338.60818 546.86700
591.0 0.001692 338.58112 567.74042
537.0 0.001862 338.55408 553.07086
490.0 0.002041 338.52704 526.25653
479.0 0.002088 338.49985 515.09375
500.0 0.002000 338.47266 520.84656
521.0 0.001919 338.44543 530.48407
531.0 0.001883 338.41809 526.81519
469.0 0.002132 338.39081 498.59570
454.0 0.002203 338.36337 463.02499
403.0 0.002481 338.33594 436.60199
435.0 0.002299 338.30841 423.44348
401.0 0.002494 338.28082 424.42508
477.0 0.002096 338.25323 440.99426
500.0 0.002000 338.22562 475.41647
584.0 0.001712 338.19791 526.57654
652.0 0.001534 338.17017 578.80566
610.0 0.001639 338.14233 592.72485
478.0 0.002092 338.11450 552.36578
483.0 0.002070 338.08664 497.12595
429.0 0.002331 338.05862 454.54297
441.0 0.002268 338.03064 426.04816
405.0 0.002469 338.00259 405.01926
389.0 0.002571 337.97452 389.89124
362.0 0.002762 337.94632 380.31555
401.0 0.002494 337.91815 375.25528
398.0 0.002513 337.88989 374.07071
387.0 0.002584 337.86160 376.56540
425.0 0.002353 337.83331 383.36328
423.0 0.002364 337.80493 395.55801
425.0 0.002353 337.77649 412.37045
441.0 0.002268 337.74799 433.74631
476.0 0.002101 337.71942 454.95248
477.0 0.002096 337.69092 459.43536
454.0 0.002203 337.66226 439.60245
406.0 0.002463 337.63367 413.37637
375.0 0.002667 337.60495 393.77475
392.0 0.002551 337.57611 383.97598
393.0 0.002545 337.54739 382.90475
393.0 0.002545 337.51852 388.33316
413.0 0.002421 337.48969 395.18234
402.0 0.002488 337.46069 394.84592
383.0 0.002611 337.43170 385.91379
383.0 0.002611 337.40274 375.86670
370.0 0.002703 337.37357 369.69431
379.0 0.002639 337.34457 368.05841
394.0 0.002538 337.31531 368.07443
386.0 0.002591 337.28610 369.01373
397.0 0.002519 337.25693 370.74646
390.0 0.002564 337.22754 371.69806
389.0 0.002571 337.19824 369.59885
380.0 0.002632 337.16882 366.37488
388.0 0.002577 337.13937 364.70224
390.0 0.002564 337.10989 365.72589
390.0 0.002564 337.08041 370.45236
436.0 0.002294 337.05081 378.65851
438.0 0.002283 337.02121 388.73996
441.0 0.002268 336.99158 396.02661
412.0 0.002427 336.96198 399.26413
407.0 0.002457 336.93219 403.23132
401.0 0.002494 336.90244 410.14362
414.0 0.002415 336.87253 420.17828
468.0 0.002137 336.84274 434.56592
428.0 0.002336 336.81287 446.89377
415.0 0.002410 336.78287 445.92026
431.0 0.002320 336.75287 436.93777
461.0 0.002169 336.72290 432.68219
445.0 0.002247 336.69278 435.85971
455.0 0.002198 336.66272 443.92651
432.0 0.002315 336.63251 462.63397
454.0 0.002203 336.60245 503.40366
595.0 0.001681 336.57220 573.51422
655.0 0.001527 336.54187 665.18652
796.0 0.001256 336.51163 732.12115
646.0 0.001548 336.48120 712.40002
549.0 0.001821 336.45087 631.62415
482.0 0.002075 336.42041 554.70715
433.0 0.002309 336.38992 505.93240
443.0 0.002257 336.35947 485.25104
466.0 0.002146 336.32895 482.34665
463.0 0.002160 336.29840 480.80737
492.0 0.002033 336.26773 476.90448
479.0 0.002088 336.23712 480.47592
509.0 0.001965 336.20645 491.54990
502.0 0.001992 336.17569 495.08203
458.0 0.002183 336.14496 485.25461
487.0 0.002053 336.11407 479.80582
486.0 0.002058 336.08328 492.89508
496.0 0.002016 336.05246 524.78485
525.0 0.001905 336.02148 557.39935
544.0 0.001838 335.99054 556.05707
511.0 0.001957 335.95956 519.25055
453.0 0.002208 335.92853 479.73767
430.0 0.002326 335.89749 455.58578
420.0 0.002381 335.86639 450.70248
455.0 0.002198 335.83533 465.55536
509.0 0.001965 335.80417 500.69751
565.0 0.001770 335.77292 558.33752
673.0 0.001486 335.74170 636.78577
762.0 0.001312 335.71048 714.37250
730.0 0.001370 335.67920 748.55164
637.0 0.001570 335.64783 705.99451
531.0 0.001883 335.61639 619.30908
465.0 0.002151 335.58511 544.44092
430.0 0.002326 335.55365 500.16296
450.0 0.002222 335.52219 481.76999
461.0 0.002169 335.49069 472.65359
451.0 0.002217 335.45914 457.06116
431.0 0.002320 335.42758 438.28445
405.0 0.002469 335.39597 425.62259
405.0 0.002469 335.36438 423.34933
447.0 0.002237 335.33270 433.71841
439.0 0.002278 335.30106 460.37625
490.0 0.002041 335.26938 507.24713
557.0 0.001795 335.23758 572.60535
658.0 0.001520 335.20584 635.21716
653.0 0.001531 335.17401 661.41168
629.0 0.001590 335.14218 640.29431
534.0 0.001873 335.11035 587.05975
521.0 0.001919 335.07843 535.43378
532.0 0.001880 335.04651 502.61072
478.0 0.002092 335.01462 482.10648
454.0 0.002203 334.98260 465.75269
421.0 0.002375 334.95059 451.56390
439.0 0.002278 334.91864 441.97958
420.0 0.002381 334.88651 442.49707
451.0 0.002217 334.85434 451.85510
473.0 0.002114 334.82224 460.08823
403.0 0.002481 334.79013 454.31516
439.0 0.002278 334.75797 442.47360
426.0 0.002347 334.72577 437.54138
463.0 0.002160 334.69354 439.14401
417.0 0.002398 334.66129 437.54285
395.0 0.002532 334.62900 428.68039
424.0 0.002358 334.59668 417.95154
451.0 0.002217 334.56442 409.73358
408.0 0.002451 334.53204 406.13788
411.0 0.002433 334.49966 403.52179
408.0 0.002451 334.46729 397.06049
397.0 0.002519 334.43488 389.31134
415.0 0.002410 334.40244 385.60236
415.0 0.002410 334.36996 387.87177
435.0 0.002299 334.33746 395.48972
408.0 0.002451 334.30490 405.50522
431.0 0.002320 334.27231 411.33243
450.0 0.002222 334.23981 412.68704
438.0 0.002283 334.20718 418.22495
457.0 0.002188 334.17459 433.87732
470.0 0.002128 334.14200 457.92908
486.0 0.002058 334.10938 484.06744
529.0 0.001890 334.07666 502.35400
507.0 0.001972 334.04398 507.12772
530.0 0.001887 334.01129 506.83087
527.0 0.001898 333.97855 500.07959
492.0 0.002033 333.94568 474.13193
434.0 0.002304 333.91299 439.13867
399.0 0.002506 333.88019 410.13516
376.0 0.002660 333.84738 391.40985
375.0 0.002667 333.81461 381.07266
373.0 0.002681 333.78168 377.22891
384.0 0.002604 333.74884 378.14590
387.0 0.002584 333.71594 383.82489
407.0 0.002457 333.68307 395.60565
432.0 0.002315 333.65015 414.60172
467.0 0.002141 333.61716 438.35010
486.0 0.002058 333.58423 459.02179
488.0 0.002049 333.55127 471.00146
462.0 0.002165 333.51825 469.84702
471.0 0.002123 333.48529 458.58698
428.0 0.002336 333.45227 446.99533
434.0 0.002304 333.41919 433.09381
422.0 0.002370 333.38617 413.79715
406.0 0.002463 333.35312 395.80164
393.0 0.002545 333.32001 383.31723
390.0 0.002564 333.28693 376.79666
363.0 0.002755 333.25385 374.70840
395.0 0.002532 333.22073 376.46567
376.0 0.002660 333.18756 381.83640
397.0 0.002519 333.15439 391.52487
379.0 0.002639 333.12125 407.00491
402.0 0.002488 333.08798 430.70300
462.0 0.002165 333.05484 465.47668
502.0 0.001992 333.02167 514.14136
611.0 0.001637 332.98849 576.31451
638.0 0.001567 332.95523 636.06396
628.0 0.001592 332.92197 657.03650
581.0 0.001721 332.88873 625.18390
509.0 0.001965 332.85550 569.68951
451.0 0.002217 332.82214 514.13489
420.0 0.002381 332.78894 472.54279
403.0 0.002481 332.75568 451.61523
423.0 0.002364 332.72229 449.44827
440.0 0.002273 332.68900 458.66742
423.0 0.002364 332.65573 466.58191
441.0 0.002268 332.62244 466.20328
393.0 0.002545 332.58908 467.07584
428.0 0.002336 332.55576 474.56870
462.0 0.002165 332.52246 480.50250
455.0 0.002198 332.48914 479.28284
460.0 0.002174 332.45566 482.20520
473.0 0.002114 332.42227 497.17126
502.0 0.001992 332.38895 515.52686
495.0 0.002020 332.35559 516.70245
454.0 0.002203 332.32224 495.81906
451.0 0.002217 332.28882 466.38016
394.0 0.002538 332.25543 438.95370
373.0 0.002681 332.22205 420.57037
392.0 0.002551 332.18863 414.86411
428.0 0.002336 332.15524 421.50388
430.0 0.002326 332.12183 438.26105
470.0 0.002128 332.08841 459.92004
538.0 0.001859 332.05496 482.61655
545.0 0.001835 332.02155 500.77045
501.0 0.001996 331.98816 499.37375
471.0 0.002123 331.95468 476.31604
428.0 0.002336 331.92136 446.00723
417.0 0.002398 331.88788 422.19550
404.0 0.002475 331.85446 410.70313
418.0 0.002392 331.82101 411.76077
461.0 0.002169 331.78754 422.91150
473.0 0.002114 331.75418 436.94852
465.0 0.002151 331.72070 440.97546
445.0 0.002247 331.68726 430.79861
423.0 0.002364 331.65387 419.07956
404.0 0.002475 331.62045 416.60635
454.0 0.002203 331.58701 428.39874
508.0 0.001969 331.55356 455.44257
581.0 0.001721 331.52023 493.32553
604.0 0.001656 331.48676 523.93829
578.0 0.001730 331.45331 523.79584
549.0 0.001821 331.41995 494.49463
499.0 0.002004 331.38651 456.05383
417.0 0.002398 331.35306 424.15222
398.0 0.002513 331.31976 404.33450
389.0 0.002571 331.28629 396.30219
409.0 0.002445 331.25296 398.71042
416.0 0.002404 331.21951 410.48209
416.0 0.002404 331.18616 429.49344
472.0 0.002119 331.15286 449.94040
478.0 0.002092 331.11942 468.46140
508.0 0.001969 331.08606 479.46729
473.0 0.002114 331.05264 473.83304
455.0 0.002198 331.01932 459.30579
460.0 0.002174 330.98599 452.72171
500.0 0.002000 330.95264 459.79007
517.0 0.001934 330.91934 473.86395
523.0 0.001912 330.88596 484.09262
494.0 0.002024 330.85269 486.17181
489.0 0.002045 330.81946 473.37851
429.0 0.002331 330.78613 444.68619
397.0 0.002519 330.75287 414.48959
369.0 0.002710 330.71954 391.94006
375.0 0.002667 330.68637 378.36935
401.0 0.002494 330.65308 372.51685
349.0 0.002865 330.61981 372.82675
368.0 0.002717 330.58661 378.76077
396.0 0.002525 330.55338 388.25034
422.0 0.002370 330.52014 395.78857
386.0 0.002591 330.48697 393.89999
385.0 0.002597 330.45386 384.34225
390.0 0.002564 330.42072 375.30045
375.0 0.002667 330.38751 371.19510
380.0 0.002632 330.35434 373.02103
397.0 0.002519 330.32126 380.06668
409.0 0.002445 330.28812 388.44910
381.0 0.002625 330.25504 391.26114
397.0 0.002519 330.22192 385.10464
382.0 0.002618 330.18890 376.34048
382.0 0.002618 330.15591 370.41800
382.0 0.002618 330.12286 367.64667
384.0 0.002604 330.08987 366.34531
380.0 0.002632 330.05682 366.14703
353.0 0.002833 330.02380 368.51395
365.0 0.002740 329.99094 373.70544
377.0 0.002653 329.95792 379.48105
390.0 0.002564 329.92502 384.23502
385.0 0.002597 329.89215 391.38095
392.0 0.002551 329.85919 405.61722
420.0 0.002381 329.82632 426.63135
444.0 0.002252 329.79352 444.99512
427.0 0.002342 329.76071 444.30844
411.0 0.002433 329.72791 423.18820
380.0 0.002632 329.69510 397.87549
361.0 0.002770 329.66235 378.14529
367.0 0.002725 329.62958 365.71994
347.0 0.002882 329.59689 359.34171
349.0 0.002865 329.56421 356.73807
346.0 0.002890 329.53152 355.90677
344.0 0.002907 329.49887 356.06644
334.0 0.002994 329.46628 358.11578
349.0 0.002865 329.43359 362.93579
368.0 0.002717 329.40103 370.23096
378.0 0.002646 329.36850 378.82178
415.0 0.002410 329.33597 388.55795
386.0 0.002591 329.30344 397.46964
433.0 0.002309 329.27103 403.26697
434.0 0.002304 329.23849 406.39847
420.0 0.002381 329.20605 402.86383
358.0 0.002793 329.17368 390.36533
349.0 0.002865 329.14130 374.57089
329.0 0.003040 329.10895 361.29257
326.0 0.003067 329.07666 352.09705
336.0 0.002976 329.04431 346.36621
360.0 0.002778 329.01205 342.94833
350.0 0.002857 328.97983 341.00998
329.0 0.003040 328.94766 340.03967
325.0 0.003077 328.91541 339.88144
335.0 0.002985 328.88330 340.52905
349.0 0.002865 328.85117 342.20355
342.0 0.002924 328.81909 344.92136
355.0 0.002817 328.78696 348.48062
311.0 0.003215 328.75500 351.14359
350.0 0.002857 328.72302 350.77353
328.0 0.003049 328.69107 348.13287
323.0 0.003096 328.65909 345.71741
345.0 0.002899 328.62723 344.61246
330.0 0.003030 328.59534 345.06943
338.0 0.002959 328.56351 347.29965
310.0 0.003226 328.53177 352.26260
337.0 0.002967 328.49997 361.04782
388.0 0.002577 328.46829 374.40234
381.0 0.002625 328.43652 390.88205
379.0 0.002639 328.40488 403.51288
364.0 0.002747 328.37326 401.89682
341.0 0.002933 328.34171 387.90897
336.0 0.002976 328.31009 372.37778
351.0 0.002849 328.27866 360.66464
362.0 0.002762 328.24716 353.54147
355.0 0.002817 328.21573 349.82257
364.0 0.002747 328.18430 348.05420
365.0 0.002740 328.15298 347.56500
347.0 0.002882 328.12161 348.59262
349.0 0.002865 328.09030 351.73587
338.0 0.002959 328.05911 358.08267
363.0 0.002755 328.02789 368.61771
407.0 0.002457 327.99670 383.48923
440.0 0.002273 327.96555 399.92719
433.0 0.002309 327.93448 410.29477
408.0 0.002451 327.90347 410.21008
397.0 0.002519 327.87244 405.40088
388.0 0.002577 327.84152 397.75977
364.0 0.002747 327.81055 386.31470
348.0 0.002874 327.77960 375.09421
359.0 0.002786 327.74881 367.59192
372.0 0.002688 327.71799 364.65359
381.0 0.002625 327.68735 366.12750
361.0 0.002770 327.65659 371.64478
357.0 0.002801 327.62592 382.05405
388.0 0.002577 327.59531 399.29352
377.0 0.002653 327.56479 423.89835
430.0 0.002326 327.53424 451.25174
460.0 0.002174 327.50378 473.54855
517.0 0.001934 327.47327 488.25360
488.0 0.002049 327.44293 490.54120
458.0 0.002183 327.41260 476.84155
452.0 0.002212 327.38226 455.76044
454.0 0.002203 327.35211 436.44333
412.0 0.002427 327.32187 421.65765
378.0 0.002646 327.29175 409.14560
421.0 0.002375 327.26160 398.73007
356.0 0.002809 327.23154 390.14606
358.0 0.002793 327.20157 382.32138
350.0 0.002857 327.17160 376.49683
370.0 0.002703 327.14169 373.92331
338.0 0.002959 327.11185 375.55362
376.0 0.002660 327.08206 382.99725
440.0 0.002273 327.05231 397.83868
433.0 0.002309 327.02258 420.00073
458.0 0.002183 326.99295 445.34164
472.0 0.002119 326.96335 466.11105
503.0 0.001988 326.93384 472.75256
455.0 0.002198 326.90430 459.16855
397.0 0.002519 326.87491 434.58362
390.0 0.002564 326.84552 413.14960
367.0 0.002725 326.81622 399.68207
390.0 0.002564 326.78693 392.29834
369.0 0.002710 326.75769 388.77081
374.0 0.002674 326.72852 387.91177
381.0 0.002625 326.69946 388.41574
357.0 0.002801 326.67044 389.34195
351.0 0.002849 326.64136 389.08725
349.0 0.002865 326.61246 387.00916
360.0 0.002778 326.58362 386.95435
381.0 0.002625 326.55487 392.89130
397.0 0.002519 326.52603 406.35089
392.0 0.002551 326.49728 425.38080
414.0 0.002415 326.46863 442.58133
436.0 0.002294 326.44003 450.25439
423.0 0.002364 326.41153 450.78876
416.0 0.002404 326.38309 452.81085
447.0 0.002237 326.35468 461.81033
462.0 0.002165 326.32632 473.08914
464.0 0.002155 326.29803 473.70551
447.0 0.002237 326.26981 462.45074
400.0 0.002500 326.24167 449.63275
420.0 0.002381 326.21353 442.56378
447.0 0.002237 326.18546 442.21445
436.0 0.002294 326.15753 443.06454
420.0 0.002381 326.12961 442.19150
437.0 0.002288 326.10175 442.43372
459.0 0.002179 326.07394 443.33923
414.0 0.002415 326.04620 440.26404
445.0 0.002247 326.01855 435.90555
425.0 0.002353 325.99100 436.71774
417.0 0.002398 325.96341 443.91376
431.0 0.002320 325.93600 456.80450
479.0 0.002088 325.90857 477.60553
485.0 0.002062 325.88126 503.06552
512.0 0.001953 325.85397 527.53992
550.0 0.001818 325.82675 547.45508
540.0 0.001852 325.79968 551.76294
524.0 0.001908 325.77255 538.57269
493.0 0.002028 325.74554 522.16003
532.0 0.001880 325.71863 507.31717
489.0 0.002045 325.69177 489.51859
471.0 0.002123 325.66507 471.63766
467.0 0.002141 325.63821 460.70316
487.0 0.002053 325.61160 457.99167
507.0 0.001972 325.58511 455.68686
432.0 0.002315 325.55847 444.26706
403.0 0.002481 325.53207 424.93848
408.0 0.002451 325.50571 406.94992
386.0 0.002591 325.47940 396.42642
401.0 0.002494 325.45322 394.28098
403.0 0.002481 325.42706 398.82495
414.0 0.002415 325.40097 405.51797
407.0 0.002457 325.37497 410.99619
410.0 0.002439 325.34900 415.18823
425.0 0.002353 325.32315 415.44937
382.0 0.002618 325.29742 410.62567
417.0 0.002398 325.27158 405.04010
408.0 0.002451 325.24600 399.08746
420.0 0.002381 325.22046 390.47519
397.0 0.002519 325.19492 381.95282
386.0 0.002591 325.16962 377.15448
387.0 0.002584 325.14423 376.10797
397.0 0.002519 325.11902 375.85117
397.0 0.002519 325.09375 373.26822
372.0 0.002688 325.06870 368.11652
356.0 0.002809 325.04364 362.50479
347.0 0.002882 325.01871 358.01404
346.0 0.002890 324.99384 354.29654
352.0 0.002841 324.96906 352.25693
346.0 0.002890 324.94434 352.18515
349.0 0.002865 324.91971 353.38239
365.0 0.002740 324.89511 355.72330
356.0 0.002809 324.87067 360.02466
384.0 0.002604 324.84625 367.84048
407.0 0.002457 324.82196 379.10501
425.0 0.002353 324.79770 389.95978
394.0 0.002538 324.77365 392.51691
372.0 0.002688 324.74951 384.07767
364.0 0.002747 324.72556 371.69226
337.0 0.002967 324.70163 361.72702
347.0 0.002882 324.67780 355.61224
351.0 0.002849 324.65408 351.88654
353.0 0.002833 324.63043 349.16452
357.0 0.002801 324.60687 346.98596
352.0 0.002841 324.58334 345.40161
349.0 0.002865 324.55997 344.09845
373.0 0.002681 324.53662 343.68378
359.0 0.002786 324.51340 344.37381
370.0 0.002703 324.49026 345.86880
345.0 0.002899 324.46725 348.70490
332.0 0.003012 324.44431 353.26465
348.0 0.002874 324.42139 360.44650
388.0 0.002577 324.39853 370.66061
413.0 0.002421 324.37589 381.22897
382.0 0.002618 324.35327 386.31583
407.0 0.002457 324.33075 382.98837
383.0 0.002611 324.30826 376.72757
374.0 0.002674 324.28586 373.84348
350.0 0.002857 324.26364 377.59586
383.0 0.002611 324.24142 389.58484
457.0 0.002188 324.21933 410.57162
480.0 0.002083 324.19733 439.32574
499.0 0.002004 324.17545 468.83890
547.0 0.001828 324.15363 483.77313
465.0 0.002151 324.13193 473.30417
391.0 0.002558 324.11029 444.09525
377.0 0.002653 324.08871 413.12009
365.0 0.002740 324.06729 389.75424
365.0 0.002740 324.04590 375.46808
362.0 0.002762 324.02460 368.63315
350.0 0.002857 324.00345 367.99454
376.0 0.002660 323.98236 371.83090
375.0 0.002667 323.96133 377.67743
403.0 0.002481 323.94043 381.63605
359.0 0.002786 323.91971 380.17410
337.0 0.002967 323.89902 374.52344
362.0 0.002762 323.87842 369.84204
370.0 0.002703 323.85785 369.68317
374.0 0.002674 323.83749 375.57642
414.0 0.002415 323.81720 387.34427
409.0 0.002445 323.79694 402.43521
405.0 0.002469 323.77670 414.02454
374.0 0.002674 323.75677 415.22971
378.0 0.002646 323.73682 406.42389
395.0 0.002532 323.71704 395.60443
417.0 0.002398 323.69720 388.34369
412.0 0.002427 323.67758 384.72592
380.0 0.002632 323.65802 382.42120
380.0 0.002632 323.63864 379.51224
389.0 0.002571 323.61926 377.65909
383.0 0.002611 323.60004 380.32455
399.0 0.002506 323.58090 388.86658
409.0 0.002445 323.56180 402.47055
430.0 0.002326 323.54285 419.31537
422.0 0.002370 323.52405 435.79037
409.0 0.002445 323.50528 441.49109
400.0 0.002500 323.48663 428.77588
381.0 0.002625 323.46814 406.07736
350.0 0.002857 323.44971 384.81857
325.0 0.003077 323.43140 369.28241
352.0 0.002841 323.41309 359.60620
338.0 0.002959 323.39502 354.75711
351.0 0.002849 323.37695 353.41318
378.0 0.002646 323.35904 354.48340
367.0 0.002725 323.34128 356.70139
372.0 0.002688 323.32352 358.96457
372.0 0.002688 323.30594 360.40588
369.0 0.002710 323.28839 361.58194
366.0 0.002732 323.27097 364.80051
383.0 0.002611 323.25372 372.28131
380.0 0.002632 323.23657 385.57971
413.0 0.002421 323.21948 405.15482
448.0 0.002232 323.20239 429.50754
471.0 0.002123 323.18561 453.88794
500.0 0.002000 323.16885 471.11124
480.0 0.002083 323.15216 475.41208
471.0 0.002123 323.13565 471.30597
480.0 0.002083 323.11920 468.06277
440.0 0.002273 323.10287 466.12692
485.0 0.002062 323.08667 457.87500
439.0 0.002278 323.07056 444.39694
434.0 0.002304 323.05460 435.01730
467.0 0.002141 323.03867 432.75671
455.0 0.002198 323.02289 431.76483
427.0 0.002342 323.00723 424.75827
364.0 0.002747 322.99167 411.85760
368.0 0.002717 322.97620 396.80179
354.0 0.002825 322.96082 384.10345
387.0 0.002584 322.94562 376.64099
402.0 0.002488 322.93054 375.28189
416.0 0.002404 322.91550 378.73901
411.0 0.002433 322.90057 385.81259
398.0 0.002513 322.88583 395.36270
413.0 0.002421 322.87112 405.28314
407.0 0.002457 322.85660 411.58893
394.0 0.002538 322.84216 412.74713
384.0 0.002604 322.82785 411.22931
401.0 0.002494 322.81363 407.41287
426.0 0.002347 322.79953 400.15225
460.0 0.002174 322.78552 392.29254
406.0 0.002463 322.77170 388.27600
382.0 0.002618 322.75797 387.66077
403.0 0.002481 322.74429 386.38345
380.0 0.002632 322.73077 381.76025
347.0 0.002882 322.71732 374.92807
357.0 0.002801 322.70401 368.09192
379.0 0.002639 322.69086 363.46082
371.0 0.002695 322.67776 362.28961
372.0 0.002688 322.66489 366.02283
401.0 0.002494 322.65204 374.97177
425.0 0.002353 322.63931 389.88269
440.0 0.002273 322.62674 410.28113
452.0 0.002212 322.61426 432.33807
479.0 0.002088 322.60193 445.25027
444.0 0.002252 322.58963 439.79578
388.0 0.002577 322.57761 423.04294
404.0 0.002475 322.56558 407.37283
418.0 0.002392 322.55368 397.57211
415.0 0.002410 322.54196 392.14038
380.0 0.002632 322.53030 388.74026
350.0 0.002857 322.51880 388.00824
409.0 0.002445 322.50739 391.76550
416.0 0.002404 322.49609 400.38809
410.0 0.002439 322.48492 413.40790
461.0 0.002169 322.47394 432.17966
488.0 0.002049 322.46301 457.88034
517.0 0.001934 322.45218 485.67960
511.0 0.001957 322.44153 506.46713
504.0 0.001984 322.43097 512.68665
491.0 0.002037 322.42062 500.67096
462.0 0.002165 322.41025 478.88739
460.0 0.002174 322.40005 458.84485
424.0 0.002358 322.39001 441.63034
397.0 0.002519 322.38013 424.29361
409.0 0.002445 322.37030 409.46054
405.0 0.002469 322.36060 400.61945
395.0 0.002532 322.35101 398.75143
392.0 0.002551 322.34161 402.41418
453.0 0.002208 322.33228 410.20941
411.0 0.002433 322.32312 421.24805
471.0 0.002123 322.31406 435.70731
477.0 0.002096 322.30518 455.63239
514.0 0.001946 322.29626 483.98868
571.0 0.001751 322.28763 517.57776
511.0 0.001957 322.27908 542.80573
514.0 0.001946 322.27066 545.78284
471.0 0.002123 322.26239 531.67560
522.0 0.001916 322.25418 512.56921
491.0 0.002037 322.24612 495.14542
473.0 0.002114 322.23825 486.40656
503.0 0.001988 322.23044 491.72266
531.0 0.001883 322.22275 508.20557
553.0 0.001808 322.21524 526.53241
511.0 0.001957 322.20782 530.92188
452.0 0.002212 322.20056 509.53549
427.0 0.002342 322.19336 473.50253
408.0 0.002451 322.18640 440.52866
377.0 0.002653 322.17947 417.35300
390.0 0.002564 322.17273 403.89557
400.0 0.002500 322.16611 397.71173
410.0 0.002439 322.15955 397.98438
399.0 0.002506 322.15320 404.08243
424.0 0.002358 322.14700 412.93512
430.0 0.002326 322.14090 417.23010
416.0 0.002404 322.13486 411.29266
402.0 0.002488 322.12906 399.62607
397.0 0.002519 322.12338 390.38892
379.0 0.002639 322.11774 387.69510
378.0 0.002646 322.11230 392.66104
406.0 0.002463 322.10699 404.28073
407.0 0.002457 322.10181 418.82535
447.0 0.002237 322.09677 430.58466
454.0 0.002203 322.09180 432.75912
430.0 0.002326 322.08704 420.92575
394.0 0.002538 322.08234 400.93509
327.0 0.003058 322.07785 381.69388
337.0 0.002967 322.07346 367.24490
348.0 0.002874 322.06927 357.71359
347.0 0.002882 322.06512 352.26901
334.0 0.002994 322.06113 349.73792
348.0 0.002874 322.05728 349.75793
364.0 0.002747 322.05356 351.45731
358.0 0.002793 322.04990 355.03958
382.0 0.002618 322.04651 359.69196
390.0 0.002564 322.04318 365.03802
383.0 0.002611 322.04001 370.86249
367.0 0.002725 322.03696 375.24432
377.0 0.002653 322.03403 376.62845
383.0 0.002611 322.03131 377.40427
413.0 0.002421 322.02866 381.31580
395.0 0.002532 322.02618 390.61807
447.0 0.002237 322.02383 406.88235
467.0 0.002141 322.02158 430.38712
496.0 0.002016 322.01947 457.44711
473.0 0.002114 322.01758 476.14111
455.0 0.002198 322.01575 471.55157
432.0 0.002315 322.01407 446.21204
416.0 0.002404 322.01254 416.94638
413.0 0.002421 322.01114 393.27957
378.0 0.002646 322.00986 377.84793
387.0 0.002584 322.00873 369.78693
375.0 0.002667 322.00775 367.82596
363.0 0.002755 322.00696 370.13043
384.0 0.002604 322.00623 375.04242
370.0 0.002703 322.00565 380.45984
401.0 0.002494 322.00519 383.92310
427.0 0.002342 322.00488 385.95892
407.0 0.002457 322.00479 389.23050
404.0 0.002475 322.00479 397.75165
418.0 0.002392 322.00491 414.63925
485.0 0.002062 322.00516 440.81149
524.0 0.001908 322.00562 472.08273
510.0 0.001961 322.00620 497.24161
489.0 0.002045 322.00687 505.45248
477.0 0.002096 322.00763 496.26117
472.0 0.002119 322.00864 475.84424
458.0 0.002183 322.00977 451.35574
427.0 0.002342 322.01099 425.07736
370.0 0.002703 322.01236 400.50677
362.0 0.002762 322.01395 381.42813
360.0 0.002778 322.01556 368.62552
353.0 0.002833 322.01746 361.18381
354.0 0.002825 322.01947 357.66202
350.0 0.002857 322.02155 356.47821
355.0 0.002817 322.02380 356.12042
355.0 0.002817 322.02615 356.63406
359.0 0.002786 322.02869 358.40039
376.0 0.002660 322.03143 362.35349
388.0 0.002577 322.03421 369.27280
390.0 0.002564 322.03714 379.22937
411.0 0.002433 322.04022 390.21906
412.0 0.002427 322.04352 397.71796
395.0 0.002532 322.04694 398.03729
377.0 0.002653 322.05045 393.65329
385.0 0.002597 322.05411 390.10318
389.0 0.002571 322.05792 388.98441
392.0 0.002551 322.06192 388.18521
415.0 0.002410 322.06601 386.69870
409.0 0.002445 322.07025 384.93951
361.0 0.002770 322.07471 381.40921
365.0 0.002740 322.07916 374.82541
381.0 0.002625 322.08383 367.91656
368.0 0.002717 322.08875 363.59232
370.0 0.002703 322.09378 362.46506
378.0 0.002646 322.09882 362.98148
366.0 0.002732 322.10413 362.45453
358.0 0.002793 322.10953 360.12720
382.0 0.002618 322.11511 357.81256
379.0 0.002639 322.12085 357.81454
357.0 0.002801 322.12662 359.63916
389.0 0.002571 322.13266 361.01312
372.0 0.002688 322.13879 359.61029
350.0 0.002857 322.14508 355.79919
383.0 0.002611 322.15152 351.81644
351.0 0.002849 322.15811 349.62988
360.0 0.002778 322.16483 349.62143
344.0 0.002907 322.17169 351.41046
364.0 0.002747 322.17874 354.38095
379.0 0.002639 322.18588 356.44843
344.0 0.002907 322.19324 356.31607
359.0 0.002786 322.20065 354.64841
361.0 0.002770 322.20831 352.95486
361.0 0.002770 322.21603 351.75906
364.0 0.002747 322.22397 350.63071
356.0 0.002809 322.23206 349.68286
352.0 0.002841 322.24023 348.21780
341.0 0.002933 322.24854 346.77835
379.0 0.002639 322.25702 346.33243
369.0 0.002710 322.26569 347.36740
363.0 0.002755 322.27444 349.16672
377.0 0.002653 322.28342 349.87369
362.0 0.002762 322.29251 348.75491
336.0 0.002976 322.30176 346.95065
324.0 0.003086 322.31116 345.96936
341.0 0.002933 322.32062 346.87064
358.0 0.002793 322.33029 350.03079
358.0 0.002793 322.34012 355.39050
382.0 0.002618 322.35013 362.63980
393.0 0.002545 322.36026 371.22299
407.0 0.002457 322.37048 379.89145
393.0 0.002545 322.38095 384.71246
349.0 0.002865 322.39148 381.32425
341.0 0.002933 322.40225 372.39453
344.0 0.002907 322.41306 362.87994
365.0 0.002740 322.42416 355.75565
389.0 0.002571 322.43530 351.70520
384.0 0.002604 322.44656 350.42090
376.0 0.002660 322.45810 351.72580
373.0 0.002681 322.46973 355.57089
379.0 0.002639 322.48141 362.28015
402.0 0.002488 322.49338 372.56802
427.0 0.002342 322.50543 387.44904
462.0 0.002165 322.51764 406.88037
496.0 0.002016 322.53006 427.56030
494.0 0.002024 322.54254 441.81339
472.0 0.002119 322.55521 444.02148
444.0 0.002252 322.56802 438.08408
451.0 0.002217 322.58096 432.16995
421.0 0.002375 322.59409 430.90494
436.0 0.002294 322.60733 433.36401
414.0 0.002415 322.62076 434.90146
433.0 0.002309 322.63434 434.20209
421.0 0.002375 322.64801 435.53098
442.0 0.002262 322.66187 440.65771
434.0 0.002304 322.67584 446.56161
439.0 0.002278 322.69009 451.06174
467.0 0.002141 322.70438 454.23383
447.0 0.002237 322.71887 454.70517
403.0 0.002481 322.73343 451.47556
421.0 0.002375 322.74823 450.04050
444.0 0.002252 322.76312 457.57782
479.0 0.002088 322.77820 476.17935
524.0 0.001908 322.79346 499.95306
566.0 0.001767 322.80881 514.99103
496.0 0.002016 322.82434 508.67160
434.0 0.002304 322.84000 484.26041
417.0 0.002398 322.85580 454.56036
402.0 0.002488 322.87183 429.72882
421.0 0.002375 322.88788 412.82901
415.0 0.002410 322.90417 403.26245
385.0 0.002597 322.92062 398.65933
388.0 0.002577 322.93719 397.99091
393.0 0.002545 322.95389 401.54507
405.0 0.002469 322.97079 407.97119
419.0 0.002387 322.98785 414.09241
421.0 0.002375 323.00497 417.97693
430.0 0.002326 323.02231 419.82169
447.0 0.002237 323.03973 419.86688
425.0 0.002353 323.05743 419.31192
422.0 0.002370 323.07520 422.45197
431.0 0.002320 323.09320 434.07968
464.0 0.002155 323.11115 456.08728
467.0 0.002141 323.12943 485.94998
503.0 0.001988 323.14780 515.32965
521.0 0.001919 323.16638 531.88452
481.0 0.002079 323.18506 528.82458
466.0 0.002146 323.20392 513.91791
454.0 0.002203 323.22287 500.64786
470.0 0.002128 323.24207 493.44550
458.0 0.002183 323.26135 487.84821
475.0 0.002105 323.28076 480.19937
485.0 0.002062 323.30038 468.77573
432.0 0.002315 323.32010 456.01816
446.0 0.002242 323.34003 446.23715
468.0 0.002137 323.36002 438.40341
417.0 0.002398 323.38025 427.53635
370.0 0.002703 323.40060 412.87115
374.0 0.002674 323.42111 398.70825
388.0 0.002577 323.44180 388.72705
392.0 0.002551 323.46249 384.41080
385.0 0.002597 323.48346 386.13669
396.0 0.002525 323.50458 394.17365
393.0 0.002545 323.52585 408.31171
452.0 0.002212 323.54727 427.67590
490.0 0.002041 323.56885 448.04382
506.0 0.001976 323.59052 462.37851
451.0 0.002217 323.61237 466.77515
449.0 0.002227 323.63443 464.10071
440.0 0.002273 323.65659 457.79785
443.0 0.002257 323.67889 449.16254
437.0 0.002288 323.70135 439.80423
412.0 0.002427 323.72388 431.17194
424.0 0.002358 323.74670 424.85580
458.0 0.002183 323.76959 423.14191
436.0 0.002294 323.79269 426.46893
453.0 0.002208 323.81592 433.78445
475.0 0.002105 323.83932 443.17383
471.0 0.002123 323.86279 451.94427
426.0 0.002347 323.88644 452.86026
398.0 0.002513 323.91022 441.03265
402.0 0.002488 323.93420 422.05386
380.0 0.002632 323.95831 403.74121
376.0 0.002660 323.98260 390.20132
386.0 0.002591 324.00702 382.48712
395.0 0.002532 324.03159 380.03061
384.0 0.002604 324.05630 381.11691
405.0 0.002469 324.08115 382.99631
410.0 0.002439 324.10620 383.74469
373.0 0.002681 324.13138 383.45203
391.0 0.002558 324.15668 383.82861
404.0 0.002475 324.18207 387.91153
397.0 0.002519 324.20773 398.32294
446.0 0.002242 324.23352 417.22574
483.0 0.002070 324.25946 445.46408
568.0 0.001761 324.28549 480.69180
610.0 0.001639 324.31171 514.62488
573.0 0.001745 324.33801 531.19501
517.0 0.001934 324.36456 522.29877
453.0 0.002208 324.39120 497.48755
441.0 0.002268 324.41800 466.95923
409.0 0.002445 324.44501 437.72012
389.0 0.002571 324.47211 414.65317
398.0 0.002513 324.49927 398.79886
382.0 0.002618 324.52670 389.14035
379.0 0.002639 324.55426 382.66751
363.0 0.002755 324.58206 376.74438
351.0 0.002849 324.60980 370.98563
348.0 0.002874 324.63782 366.65466
349.0 0.002865 324.66602 364.59042
358.0 0.002793 324.69431 365.68378
385.0 0.002597 324.72272 370.66150
390.0 0.002564 324.75131 380.65222
404.0 0.002475 324.78009 396.91592
439.0 0.002278 324.80899 419.97958
484.0 0.002066 324.83795 447.96518
498.0 0.002008 324.86710 473.56845
484.0 0.002066 324.89645 483.79105
455.0 0.002198 324.92596 471.78339
418.0 0.002392 324.95557 446.47086
396.0 0.002525 324.98532 420.71716
383.0 0.002611 325.01526 400.97324
356.0 0.002809 325.04532 388.77850
376.0 0.002660 325.07550 383.53857
368.0 0.002717 325.10590 384.32672
380.0 0.002632 325.13635 390.19885
401.0 0.002494 325.16705 400.03024
430.0 0.002326 325.19778 412.54715
442.0 0.002262 325.22876 425.74625
443.0 0.002257 325.25989 436.35568
443.0 0.002257 325.29111 440.93216
458.0 0.002183 325.32251 437.20169
404.0 0.002475 325.35397 428.40405
361.0 0.002770 325.38568 421.19205
396.0 0.002525 325.41754 420.34714
396.0 0.002525 325.44943 428.02557
453.0 0.002208 325.48157 442.96439
482.0 0.002075 325.51379 459.62534
452.0 0.002212 325.54623 470.10086
451.0 0.002217 325.57877 470.24985
421.0 0.002375 325.61145 460.69888
401.0 0.002494 325.64426 443.44119
405.0 0.002469 325.67725 424.03214
320.0 0.003125 325.71039 408.85715
374.0 0.002674 325.74368 401.02728
363.0 0.002755 325.77701 400.83060
413.0 0.002421 325.81067 406.84882
430.0 0.002326 325.84433 416.32816
442.0 0.002262 325.87820 425.37680
418.0 0.002392 325.91214 429.35794
405.0 0.002469 325.94629 426.63446
393.0 0.002545 325.98053 418.72086
378.0 0.002646 326.01495 407.29651
423.0 0.002364 326.04950 394.99072
381.0 0.002625 326.08426 384.73032
385.0 0.002597 326.11911 378.85712
394.0 0.002538 326.15402 377.82153
383.0 0.002611 326.18918 381.02560
386.0 0.002591 326.22449 386.33020
412.0 0.002427 326.25992 390.39026
409.0 0.002445 326.29544 390.78296
369.0 0.002710 326.33115 386.67313
370.0 0.002703 326.36700 378.52347
361.0 0.002770 326.40298 369.83459
373.0 0.002681 326.43915 363.10410
354.0 0.002825 326.47534 359.38400
362.0 0.002762 326.51181 358.49750
355.0 0.002817 326.54834 359.47089
353.0 0.002833 326.58499 360.86603
366.0 0.002732 326.62183 361.03769
340.0 0.002941 326.65878 358.71350
334.0 0.002994 326.69589 354.57126
328.0 0.003049 326.73312 350.21939
341.0 0.002933 326.77051 346.45905
356.0 0.002809 326.80804 343.35831
352.0 0.002841 326.84567 340.95596
353.0 0.002833 326.88358 339.32581
355.0 0.002817 326.92142 338.55948
370.0 0.002703 326.95956 338.34039
361.0 0.002770 326.99777 338.78391
352.0 0.002841 327.03613 339.75504
337.0 0.002967 327.07458 341.43118
348.0 0.002874 327.11325 343.59091
347.0 0.002882 327.15207 346.50320
363.0 0.002755 327.19095 349.39655
359.0 0.002786 327.22995 352.22772
414.0 0.002415 327.26917 355.63998
409.0 0.002445 327.30850 359.52313
370.0 0.002703 327.34799 362.21866
357.0 0.002801 327.38760 361.32739
355.0 0.002817 327.42725 356.85971
343.0 0.002915 327.46716 351.21741
328.0 0.003049 327.50717 346.28644
311.0 0.003215 327.54736 342.65933
352.0 0.002841 327.58762 340.48639
327.0 0.003058 327.62799 339.58273
397.0 0.002519 327.66861 339.74365
377.0 0.002653 327.70923 341.20731
314.0 0.003185 327.75012 344.05359
382.0 0.002618 327.79105 348.44156
371.0 0.002695 327.83206 354.17892
365.0 0.002740 327.87332 360.29919
352.0 0.002841 327.91467 364.57562
381.0 0.002625 327.95615 364.75595
390.0 0.002564 327.99780 361.56583
370.0 0.002703 328.03952 357.43869
350.0 0.002857 328.08139 353.87634
340.0 0.002941 328.12347 351.89502
369.0 0.002710 328.16565 351.31256
361.0 0.002770 328.20789 351.06219
371.0 0.002695 328.25027 349.67593
347.0 0.002882 328.29288 346.87595
345.0 0.002899 328.33557 343.72583
364.0 0.002747 328.37836 341.19992
336.0 0.002976 328.42130 339.24625
326.0 0.003067 328.46436 338.01660
341.0 0.002933 328.50763 337.48401
353.0 0.002833 328.55090 337.63458
367.0 0.002725 328.59442 338.40182
367.0 0.002725 328.63803 339.88763
364.0 0.002747 328.68173 342.12552
361.0 0.002770 328.72565 345.07901
372.0 0.002688 328.76956 348.35098
377.0 0.002653 328.81375 351.00015
354.0 0.002825 328.85794 351.82938
362.0 0.002762 328.90231 351.42551
367.0 0.002725 328.94684 351.27792
356.0 0.002809 328.99146 352.64902
350.0 0.002857 329.03629 356.28326
354.0 0.002825 329.08115 362.15668
374.0 0.002674 329.12610 369.36682
382.0 0.002618 329.17130 375.43112
372.0 0.002688 329.21652 376.77725
350.0 0.002857 329.26199 372.83267
346.0 0.002890 329.30750 366.49887
334.0 0.002994 329.35318 360.78107
337.0 0.002967 329.39893 356.72174
384.0 0.002604 329.44482 354.82910
369.0 0.002710 329.49088 355.20132
345.0 0.002899 329.53708 357.62451
348.0 0.002874 329.58328 362.66425
382.0 0.002618 329.62973 371.27878
404.0 0.002475 329.67624 384.41904
432.0 0.002315 329.72290 402.39624
472.0 0.002119 329.76968 423.53690
487.0 0.002053 329.81656 442.07135
461.0 0.002169 329.86356 448.51660
429.0 0.002331 329.91068 438.96475
395.0 0.002532 329.95807 420.56094
392.0 0.002551 330.00540 402.46823
377.0 0.002653 330.05289 389.00052
349.0 0.002865 330.10052 380.76804
349.0 0.002865 330.14832 376.32809
371.0 0.002695 330.19620 373.05521
371.0 0.002695 330.24420 369.03091
350.0 0.002857 330.29224 364.77307
317.0 0.003155 330.34058 361.21445
371.0 0.002695 330.38889 358.71774
354.0 0.002825 330.43741 357.03607
369.0 0.002710 330.48608 356.13156
359.0 0.002786 330.53470 356.21558
336.0 0.002976 330.58362 357.87189
361.0 0.002770 330.63257 361.73215
371.0 0.002695 330.68161 368.45505
406.0 0.002463 330.73083 378.41071
393.0 0.002545 330.78009 391.14453
392.0 0.002551 330.82959 404.38525
396.0 0.002525 330.87912 413.37961
412.0 0.002427 330.92883 414.16699
419.0 0.002387 330.97864 408.25272
397.0 0.002519 331.02847 399.00919
375.0 0.002667 331.07846 389.04446
387.0 0.002584 331.12872 380.17999
404.0 0.002475 331.17889 373.90164
390.0 0.002564 331.22931 371.02206
406.0 0.002463 331.27975 371.70804
409.0 0.002445 331.33032 376.04767
405.0 0.002469 331.38113 384.21844
422.0 0.002370 331.43198 396.67923
464.0 0.002155 331.48291 413.24033
520.0 0.001923 331.53387 431.60724
507.0 0.001972 331.58514 445.85172
446.0 0.002242 331.63641 447.98248
383.0 0.002611 331.68781 436.70883
370.0 0.002703 331.73929 419.67706
399.0 0.002506 331.79086 404.48117
387.0 0.002584 331.84268 394.52087
373.0 0.002681 331.89453 390.51834
396.0 0.002525 331.94653 391.79050
408.0 0.002451 331.99857 396.72064
400.0 0.002500 332.05075 402.75485
431.0 0.002320 332.10303 406.00406
384.0 0.002604 332.15543 403.87549
386.0 0.002591 332.20795 398.11984
385.0 0.002597 332.26059 392.09763
402.0 0.002488 332.31320 387.93414
384.0 0.002604 332.36609 387.46893
377.0 0.002653 332.41910 391.42712
390.0 0.002564 332.47217 400.15042
424.0 0.002358 332.52533 413.30615
488.0 0.002049 332.57855 429.46063
480.0 0.002083 332.63202 446.55405
479.0 0.002088 332.68546 461.61887
491.0 0.002037 332.73904 471.60510
477.0 0.002096 332.79276 474.93405
487.0 0.002053 332.84653 471.98523
459.0 0.002179 332.90045 462.61612
443.0 0.002257 332.95444 446.76868
380.0 0.002632 333.00858 428.68365
405.0 0.002469 333.06287 413.89716
368.0 0.002717 333.11713 405.09213
395.0 0.002532 333.17160 402.16409
407.0 0.002457 333.22610 403.57162
409.0 0.002445 333.28079 406.61285
425.0 0.002353 333.33554 408.76337
398.0 0.002513 333.39038 408.04544
384.0 0.002604 333.44534 403.25842
360.0 0.002778 333.50043 395.80139
356.0 0.002809 333.55557 388.65143
375.0 0.002667 333.61084 383.65082
396.0 0.002525 333.66614 381.55359
407.0 0.002457 333.72168 382.10291
346.0 0.002890 333.77722 384.08463
388.0 0.002577 333.83289 386.31918
404.0 0.002475 333.88861 388.09280
398.0 0.002513 333.94449 389.85443
402.0 0.002488 334.00052 392.31058
388.0 0.002577 334.05649 394.63254
389.0 0.002571 334.11270 394.66061
380.0 0.002632 334.16898 391.67270
386.0 0.002591 334.22525 388.08957
382.0 0.002618 334.28177 387.00534
399.0 0.002506 334.33832 390.44406
419.0 0.002387 334.39493 399.67578
446.0 0.002242 334.45169 414.79419
486.0 0.002058 334.50848 434.45471
509.0 0.001965 334.56549 454.33719
513.0 0.001949 334.62247 466.29779
479.0 0.002088 334.67969 463.31299
430.0 0.002326 334.73688 447.01883
402.0 0.002488 334.79416 425.50479
390.0 0.002564 334.85159 404.93948
388.0 0.002577 334.90906 388.45898
395.0 0.002532 334.96671 376.56094
394.0 0.002538 335.02444 368.62006
365.0 0.002740 335.08215 363.56409
365.0 0.002740 335.14008 360.36411
347.0 0.002882 335.19803 358.81284
354.0 0.002825 335.25613 358.37784
379.0 0.002639 335.31427 358.96945
381.0 0.002625 335.37247 360.54904
364.0 0.002747 335.43085 363.36026
365.0 0.002740 335.48926 367.76422
385.0 0.002597 335.54785 374.27460
415.0 0.002410 335.60645 383.39362
431.0 0.002320 335.66510 395.30026
412.0 0.002427 335.72391 409.65262
420.0 0.002381 335.78271 426.23779
441.0 0.002268 335.84174 445.33386
516.0 0.001938 335.90082 465.70920
557.0 0.001795 335.95993 484.84164
570.0 0.001754 336.01913 500.38171
497.0 0.002012 336.07843 508.18216
449.0 0.002227 336.13785 502.04578
451.0 0.002217 336.19733 481.53214
386.0 0.002591 336.25684 454.57538
430.0 0.002326 336.31665 429.29587
406.0 0.002463 336.37631 409.46481
379.0 0.002639 336.43613 395.72244
382.0 0.002618 336.49609 387.64261
376.0 0.002660 336.55603 383.18173
395.0 0.002532 336.61618 380.37402
363.0 0.002755 336.67627 377.82315
369.0 0.002710 336.73660 375.14130
377.0 0.002653 336.79691 373.32339
371.0 0.002695 336.85730 373.18527
377.0 0.002653 336.91782 374.99628
376.0 0.002660 336.97842 378.46100
376.0 0.002660 337.03912 382.63861
355.0 0.002817 337.09985 386.62698
390.0 0.002564 337.16058 390.68170
396.0 0.002525 337.22150 396.64038
408.0 0.002451 337.28241 405.73575
431.0 0.002320 337.34357 417.30966
434.0 0.002304 337.40469 428.09155
428.0 0.002336 337.46588 432.73270
426.0 0.002347 337.52719 428.90445
401.0 0.002494 337.58859 419.44370
376.0 0.002660 337.65009 408.42392
401.0 0.002494 337.71161 398.26459
381.0 0.002625 337.77313 390.46942
386.0 0.002591 337.83490 385.53726
387.0 0.002584 337.89664 382.99246
365.0 0.002740 337.95847 381.18896
348.0 0.002874 338.02042 379.40613
361.0 0.002770 338.08237 377.56241
378.0 0.002646 338.14447 376.60220
367.0 0.002725 338.20654 377.53262
376.0 0.002660 338.26880 380.96661
390.0 0.002564 338.33115 386.97580
397.0 0.002519 338.39349 394.84158
399.0 0.002506 338.45590 402.90494
419.0 0.002387 338.51837 409.65677
439.0 0.002278 338.58102 416.64310
446.0 0.002242 338.64371 425.61609
459.0 0.002179 338.70639 436.39313
456.0 0.002193 338.76920 445.68091
455.0 0.002198 338.83200 449.08511
432.0 0.002315 338.89499 444.55817
408.0 0.002451 338.95801 434.76068
387.0 0.002584 339.02103 423.64548
386.0 0.002591 339.08423 412.86374
392.0 0.002551 339.14740 403.22269
393.0 0.002545 339.21078 395.93399
391.0 0.002558 339.27405 391.63229
377.0 0.002653 339.33743 389.88416
337.0 0.002967 339.40097 389.88138
363.0 0.002755 339.46454 390.74326
379.0 0.002639 339.52820 390.79993
372.0 0.002688 339.59183 389.23810
385.0 0.002597 339.65561 387.10886
391.0 0.002558 339.71945 386.14368
381.0 0.002625 339.78336 387.45911
370.0 0.002703 339.84732 391.04413
383.0 0.002611 339.91132 396.31454
385.0 0.002597 339.97540 403.34225
452.0 0.002212 340.03952 412.31006
464.0 0.002155 340.10373 422.05048
455.0 0.002198 340.16806 429.68491
417.0 0.002398 340.23245 431.86368
401.0 0.002494 340.29678 428.86420
406.0 0.002463 340.36124 423.45395
416.0 0.002404 340.42581 419.52789
412.0 0.002427 340.49042 419.82858
434.0 0.002304 340.55511 425.71939
469.0 0.002132 340.61972 437.36469
493.0 0.002028 340.68454 454.17792
536.0 0.001866 340.74936 471.90591
496.0 0.002016 340.81427 482.57837
483.0 0.002070 340.87927 479.45331
449.0 0.002227 340.94427 464.40012
398.0 0.002513 341.00931 444.20459
398.0 0.002513 341.07446 424.60974
377.0 0.002653 341.13968 408.88980
377.0 0.002653 341.20490 398.44666
387.0 0.002584 341.27020 393.55948
402.0 0.002488 341.33557 393.88483
390.0 0.002564 341.40094 398.90775
413.0 0.002421 341.46652 407.76443
442.0 0.002262 341.53207 418.48764
468.0 0.002137 341.59756 426.97949
455.0 0.002198 341.66327 428.47989
403.0 0.002481 341.72897 422.22906
405.0 0.002469 341.79474 412.55313
406.0 0.002463 341.86057 404.13486
403.0 0.002481 341.92639 399.45273
405.0 0.002469 341.99231 399.29953
406.0 0.002463 342.05826 403.60046
426.0 0.002347 342.12439 411.70892
440.0 0.002273 342.19037 422.29077
451.0 0.002217 342.25650 432.54056
451.0 0.002217 342.32275 438.34418
454.0 0.002203 342.38898 436.57953
438.0 0.002283 342.45523 427.81830
397.0 0.002519 342.52161 414.98038
401.0 0.002494 342.58792 401.70291
403.0 0.002481 342.65451 390.73511
373.0 0.002681 342.72089 383.08536
392.0 0.002551 342.78745 378.92810
395.0 0.002532 342.85410 377.88791
380.0 0.002632 342.92065 379.31540
366.0 0.002732 342.98734 382.32669
391.0 0.002558 343.05411 385.66345
386.0 0.002591 343.12091 387.75620
369.0 0.002710 343.18784 387.11554
402.0 0.002488 343.25464 383.90247
389.0 0.002571 343.32159 379.83463
359.0 0.002786 343.38846 376.34045
368.0 0.002717 343.45563 374.22412
392.0 0.002551 343.52264 373.79257
373.0 0.002681 343.58975 375.26669
353.0 0.002833 343.65689 378.68207
390.0 0.002564 343.72412 384.04825
454.0 0.002203 343.79135 391.21729
443.0 0.002257 343.85870 399.41574
439.0 0.002278 343.92599 406.15286
395.0 0.002532 343.99347 408.23276
422.0 0.002370 344.06079 404.84988
417.0 0.002398 344.12830 398.31546
415.0 0.002410 344.19586 390.96024
376.0 0.002660 344.26337 384.24454
385.0 0.002597 344.33099 378.88193
380.0 0.002632 344.39853 375.68289
376.0 0.002660 344.46634 373.99014
370.0 0.002703 344.53406 374.34631
368.0 0.002717 344.60168 376.18372
378.0 0.002646 344.66956 380.15921
361.0 0.002770 344.73743 387.04565
389.0 0.002571 344.80539 397.50162
398.0 0.002513 344.87329 411.94809
428.0 0.002336 344.94119 429.98059
465.0 0.002151 345.00928 449.77338
485.0 0.002062 345.07727 467.12460
484.0 0.002066 345.14545 476.62534
482.0 0.002075 345.21353 476.66284
466.0 0.002146 345.28162 469.65027
448.0 0.002232 345.34988 460.24060
461.0 0.002169 345.41809 452.09601
463.0 0.002160 345.48636 445.71817
466.0 0.002146 345.55466 438.38638
414.0 0.002415 345.62299 427.93988
410.0 0.002439 345.69147 415.47479
404.0 0.002475 345.75983 403.42584
393.0 0.002545 345.82825 393.14343
380.0 0.002632 345.89682 385.24625
363.0 0.002755 345.96524 379.85449
367.0 0.002725 346.03381 376.72079
366.0 0.002732 346.10248 375.56049
365.0 0.002740 346.17114 376.39935
384.0 0.002604 346.23984 379.26315
427.0 0.002342 346.30844 384.66302
441.0 0.002268 346.37726 392.52490
445.0 0.002247 346.44592 403.06296
435.0 0.002299 346.51477 415.56064
438.0 0.002283 346.58359 428.08203
455.0 0.002198 346.65244 437.84586
485.0 0.002062 346.72134 442.54745
448.0 0.002232 346.79028 441.81714
418.0 0.002392 346.85925 437.81433
417.0 0.002398 346.92828 434.03375
421.0 0.002375 346.99719 433.09229
470.0 0.002128 347.06635 436.11328
480.0 0.002083 347.13538 441.71832
474.0 0.002110 347.20456 446.43890
474.0 0.002110 347.27368 446.13577
417.0 0.002398 347.34277 438.90088
392.0 0.002551 347.41205 427.16113
363.0 0.002755 347.48123 415.15515
389.0 0.002571 347.55057 405.51794
385.0 0.002597 347.61984 398.99139
376.0 0.002660 347.68909 395.06604
417.0 0.002398 347.75848 393.13348
418.0 0.002392 347.82782 392.39536
401.0 0.002494 347.89728 392.12173
377.0 0.002653 347.96671 392.03253
382.0 0.002618 348.03610 392.00381
395.0 0.002532 348.10565 392.41739
439.0 0.002278 348.17511 393.32880
407.0 0.002457 348.24472 394.60336
405.0 0.002469 348.31427 396.38281
386.0 0.002591 348.38382 399.30255
430.0 0.002326 348.45340 404.47525
423.0 0.002364 348.52304 413.20383
443.0 0.002257 348.59268 426.69174
494.0 0.002024 348.66245 446.31354
500.0 0.002000 348.73203 473.26239
583.0 0.001715 348.80191 508.00784
665.0 0.001504 348.87161 548.61926
705.0 0.001418 348.94144 589.70801
747.0 0.001339 349.01129 622.42212
750.0 0.001333 349.08105 638.50378
644.0 0.001553 349.15094 634.98511
556.0 0.001799 349.22083 612.40015
503.0 0.001988 349.29071 575.07623
468.0 0.002137 349.36066 532.71118
423.0 0.002364 349.43051 494.13785
420.0 0.002381 349.50052 463.16171
438.0 0.002283 349.57053 440.23242
405.0 0.002469 349.64059 424.02872
392.0 0.002551 349.71054 413.62317
387.0 0.002584 349.78061 407.68921
422.0 0.002370 349.85074 405.25476
442.0 0.002262 349.92081 405.63260
410.0 0.002439 349.99094 407.52133
407.0 0.002457 350.06113 410.32764
413.0 0.002421 350.13120 413.97064
428.0 0.002336 350.20151 419.12662
450.0 0.002222 350.27164 426.72562
453.0 0.002208 350.34186 437.73273
489.0 0.002045 350.41211 452.75674
542.0 0.001845 350.48230 472.30884
545.0 0.001835 350.55267 495.58151
577.0 0.001733 350.62292 520.34985
608.0 0.001645 350.69330 543.07245
621.0 0.001610 350.76364 560.43152
582.0 0.001718 350.83395 570.38373
568.0 0.001761 350.90436 570.15125
553.0 0.001808 350.97470 557.47668
526.0 0.001901 351.04520 534.19476
468.0 0.002137 351.11563 507.24631
429.0 0.002331 351.18600 484.14752
456.0 0.002193 351.25653 469.12234
458.0 0.002183 351.32697 463.41400
476.0 0.002101 351.39749 465.89774
514.0 0.001946 351.46802 473.65836
536.0 0.001866 351.53845 481.25974
485.0 0.002062 351.60910 482.91379
479.0 0.002088 351.67960 475.64200
429.0 0.002331 351.75024 461.60089
418.0 0.002392 351.82089 445.31821
386.0 0.002591 351.89142 430.43628
417.0 0.002398 351.96207 419.01013
394.0 0.002538 352.03275 411.36563
403.0 0.002481 352.10339 407.23755
419.0 0.002387 352.17413 405.91833
396.0 0.002525 352.24475 406.71790
395.0 0.002532 352.31549 409.25696
402.0 0.002488 352.38623 413.15106
416.0 0.002404 352.45697 417.75772
378.0 0.002646 352.52780 422.32367
411.0 0.002433 352.59851 425.57068
407.0 0.002457 352.66934 425.40552
390.0 0.002564 352.74008 421.09952
389.0 0.002571 352.81094 414.80243
421.0 0.002375 352.88181 409.52112
409.0 0.002445 352.95255 407.03485
404.0 0.002475 353.02350 408.13678
420.0 0.002381 353.09436 412.17746
453.0 0.002208 353.16531 418.00305
438.0 0.002283 353.23621 423.18155
408.0 0.002451 353.30704 425.16040
408.0 0.002451 353.37799 423.06323
393.0 0.002545 353.44897 418.14453
401.0 0.002494 353.51996 412.45929
394.0 0.002538 353.59091 408.03992
395.0 0.002532 353.66183 405.87775
399.0 0.002506 353.73294 406.00858
406.0 0.002463 353.80383 408.02786
418.0 0.002392 353.87497 410.14642
410.0 0.002439 353.94601 412.34930
395.0 0.002532 354.01703 414.94650
418.0 0.002392 354.08813 419.05377
442.0 0.002262 354.15918 425.27448
448.0 0.002232 354.23038 433.79373
451.0 0.002217 354.30142 444.08093
482.0 0.002075 354.37250 455.86441
502.0 0.001992 354.44370 468.07550
488.0 0.002049 354.51483 478.46173
478.0 0.002092 354.58606 484.39456
433.0 0.002309 354.65723 483.24100
427.0 0.002342 354.72833 474.72171
429.0 0.002331 354.79959 463.03546
441.0 0.002268 354.87073 453.31012
445.0 0.002247 354.94196 448.58612
461.0 0.002169 355.01328 449.30365
479.0 0.002088 355.08444 453.66760
502.0 0.001992 355.15573 458.00534
500.0 0.002000 355.22702 458.46713
470.0 0.002128 355.29831 453.51257
418.0 0.002392 355.36969 444.44067
418.0 0.002392 355.44086 433.92627
429.0 0.002331 355.51227 423.69998
386.0 0.002591 355.58356 415.15210
374.0 0.002674 355.65497 408.39063
381.0 0.002625 355.72635 403.55429
409.0 0.002445 355.79773 401.53494
401.0 0.002494 355.86911 402.06921
438.0 0.002283 355.94052 405.06058
406.0 0.002463 356.01199 409.76767
422.0 0.002370 356.08340 415.65555
419.0 0.002387 356.15472 421.91257
448.0 0.002232 356.22635 427.20654
408.0 0.002451 356.29770 430.36780
403.0 0.002481 356.36920 430.21027
396.0 0.002525 356.44080 426.16354
392.0 0.002551 356.51218 419.84818
400.0 0.002500 356.58377 414.01389
419.0 0.002387 356.65524 410.51968
386.0 0.002591 356.72687 409.91223
405.0 0.002469 356.79840 411.37839
427.0 0.002342 356.86987 413.52817
431.0 0.002320 356.94162 414.27542
416.0 0.002404 357.01312 412.46414
389.0 0.002571 357.08475 408.68631
396.0 0.002525 357.15643 404.21118
396.0 0.002525 357.22803 400.49149
397.0 0.002519 357.29974 398.76022
401.0 0.002494 357.37137 399.74789
420.0 0.002381 357.44315 404.09531
394.0 0.002538 357.51480 411.74014
427.0 0.002342 357.58643 422.18100
473.0 0.002114 357.65817 433.78812
486.0 0.002058 357.72995 442.95776
452.0 0.002212 357.80173 445.70370
443.0 0.002257 357.87347 440.89331
427.0 0.002342 357.94519 431.53296
390.0 0.002564 358.01709 421.64938
398.0 0.002513 358.08884 413.90024
399.0 0.002506 358.16074 409.37344
389.0 0.002571 358.23260 408.28278
396.0 0.002525 358.30441 410.25894
440.0 0.002273 358.37628 414.32516
439.0 0.002278 358.44815 418.66919
381.0 0.002625 358.52011 421.14398
376.0 0.002660 358.59198 421.08734
412.0 0.002427 358.66391 420.29196
438.0 0.002283 358.73587 421.02222
441.0 0.002268 358.80783 424.63730
458.0 0.002183 358.87988 431.17395
479.0 0.002088 358.95193 439.01242
454.0 0.002203 359.02386 444.87875
419.0 0.002387 359.09589 445.41309
407.0 0.002457 359.16794 440.62723
443.0 0.002257 359.24008 433.83279
434.0 0.002304 359.31216 428.30786
419.0 0.002387 359.38416 424.97205
404.0 0.002475 359.45633 423.65842
401.0 0.002494 359.52847 421.92612
409.0 0.002445 359.60065 418.16022
382.0 0.002618 359.67285 412.34161
397.0 0.002519 359.74500 406.13757
383.0 0.002611 359.81726 400.89908
378.0 0.002646 359.88947 397.58313
376.0 0.002660 359.96176 396.29138
388.0 0.002577 360.03403 397.19778
384.0 0.002604 360.10626 400.08432
415.0 0.002410 360.17868 404.53101
421.0 0.002375 360.25098 409.67609
415.0 0.002410 360.32339 414.97070
410.0 0.002439 360.39572 420.61014
441.0 0.002268 360.46802 427.50992
449.0 0.002227 360.54050 435.88815
479.0 0.002088 360.61292 444.34824
464.0 0.002155 360.68542 450.52359
443.0 0.002257 360.75793 452.58478
451.0 0.002217 360.83035 450.23862
437.0 0.002288 360.90292 443.92056
395.0 0.002532 360.97543 435.44034
437.0 0.002288 361.04810 427.28680
419.0 0.002387 361.12070 421.61124
396.0 0.002525 361.19327 419.51999
410.0 0.002439 361.26590 421.89731
442.0 0.002262 361.33859 428.96011
424.0 0.002358 361.41125 440.55737
502.0 0.001992 361.48404 455.64023
523.0 0.001912 361.55673 471.65405
528.0 0.001894 361.62955 484.53909
506.0 0.001976 361.70227 490.38614
487.0 0.002053 361.77512 488.12122
449.0 0.002227 361.84805 479.43170
466.0 0.002146 361.92087 466.72137
444.0 0.002252 361.99380 452.75473
404.0 0.002475 362.06665 440.55258
406.0 0.002463 362.13971 432.18823
415.0 0.002410 362.21274 428.51877
432.0 0.002315 362.28561 429.43060
462.0 0.002165 362.35870 434.06824
452.0 0.002212 362.43173 440.74084
417.0 0.002398 362.50494 447.10947
432.0 0.002315 362.57800 450.72473
445.0 0.002247 362.65112 449.56583
422.0 0.002370 362.72433 443.85867
391.0 0.002558 362.79755 435.68945
388.0 0.002577 362.87085 427.82779
406.0 0.002463 362.94418 421.98511
406.0 0.002463 363.01740 418.79941
421.0 0.002375 363.09082 418.37650
407.0 0.002457 363.16415 420.67188
416.0 0.002404 363.23761 425.37500
475.0 0.002105 363.31110 432.20193
498.0 0.002008 363.38452 440.12863
464.0 0.002155 363.45810 447.53354
471.0 0.002123 363.53156 452.87424
503.0 0.001988 363.60522 456.03503
460.0 0.002174 363.67892 458.16034
474.0 0.002110 363.75247 460.55679
516.0 0.001938 363.82620 464.17050
514.0 0.001946 363.89987 469.71222
529.0 0.001890 363.97369 475.72864
461.0 0.002169 364.04755 479.93030
466.0 0.002146 364.12137 481.55212
499.0 0.002004 364.19528 482.64154
488.0 0.002049 364.26926 486.15417
514.0 0.001946 364.34323 493.38724
531.0 0.001883 364.41730 502.74042
485.0 0.002062 364.49124 510.90503
507.0 0.001972 364.56540 514.98743
540.0 0.001852 364.63959 514.44696
543.0 0.001842 364.71378 509.84549
496.0 0.002016 364.78799 500.81186
488.0 0.002049 364.86218 486.57224
432.0 0.002315 364.93655 468.59531
451.0 0.002217 365.01089 450.23813
421.0 0.002375 365.08533 434.05402
385.0 0.002597 365.15982 421.22543
395.0 0.002532 365.23419 411.87006
411.0 0.002433 365.30878 405.70084
419.0 0.002387 365.38330 402.37814
421.0 0.002375 365.45807 401.43210
400.0 0.002500 365.53281 402.74823
421.0 0.002375 365.60745 405.88730
434.0 0.002304 365.68228 410.33008
460.0 0.002174 365.75705 415.60504
434.0 0.002304 365.83206 420.67499
412.0 0.002427 365.90695 424.34097
429.0 0.002331 365.98193 425.99835
419.0 0.002387 366.05701 426.36514
414.0 0.002415 366.13211 426.71082
428.0 0.002336 366.20731 428.03094
452.0 0.002212 366.28250 430.29419
463.0 0.002160 366.35767 432.88092
452.0 0.002212 366.43307 434.85010
446.0 0.002242 366.50842 435.50037
453.0 0.002208 366.58389 434.72058
433.0 0.002309 366.65942 431.87247
434.0 0.002304 366.73489 426.45959
426.0 0.002347 366.81058 418.82782
374.0 0.002674 366.88617 410.41977
390.0 0.002564 366.96194 402.73642
396.0 0.002525 367.03787 396.57956
386.0 0.002591 367.11356 392.10043
388.0 0.002577 367.18951 389.11523
401.0 0.002494 367.26547 387.28918
377.0 0.002653 367.34158 386.10083
370.0 0.002703 367.41772 385.20755
368.0 0.002717 367.49380 384.69031
396.0 0.002525 367.57004 384.47375
373.0 0.002681 367.64639 384.67508
368.0 0.002717 367.72278 385.42365
355.0 0.002817 367.79926 386.88882
393.0 0.002545 367.87573 389.15350
387.0 0.002584 367.95239 392.06464
397.0 0.002519 368.02896 395.10297
393.0 0.002545 368.10574 397.28394
378.0 0.002646 368.18250 397.65909
385.0 0.002597 368.25934 396.01169
371.0 0.002695 368.33636 393.09390
397.0 0.002519 368.41327 390.00809
376.0 0.002660 368.49048 387.27991
378.0 0.002646 368.56766 385.11603
362.0 0.002762 368.64481 383.57993
389.0 0.002571 368.72217 382.77512
377.0 0.002653 368.79962 382.60434
377.0 0.002653 368.87711 383.02722
365.0 0.002740 368.95465 383.74695
381.0 0.002625 369.03223 385.07501
380.0 0.002632 369.10995 387.17874
381.0 0.002625 369.18774 390.06802
401.0 0.002494 369.26566 393.60062
394.0 0.002538 369.34363 397.13086
421.0 0.002375 369.42166 399.91583
401.0 0.002494 369.49985 400.71597
395.0 0.002532 369.57806 399.35672
408.0 0.002451 369.65640 396.52158
380.0 0.002632 369.73480 393.42792
390.0 0.002564 369.81317 390.93277
363.0 0.002755 369.89188 389.20392
359.0 0.002786 369.97046 388.55801
370.0 0.002703 370.04932 388.48941
382.0 0.002618 370.12827 388.43732
372.0 0.002688 370.20712 387.91034
374.0 0.002674 370.28622 386.83942
397.0 0.002519 370.36530 385.55698
381.0 0.002625 370.44461 384.42654
367.0 0.002725 370.52396 383.65884
364.0 0.002747 370.60327 383.36469
364.0 0.002747 370.68283 383.65576
368.0 0.002717 370.76251 384.59583
379.0 0.002639 370.84229 386.31918
388.0 0.002577 370.92209 388.74274
385.0 0.002597 371.00198 391.98337
361.0 0.002770 371.08209 395.81180
395.0 0.002532 371.16220 399.92911
414.0 0.002415 371.24246 403.67255
383.0 0.002611 371.32288 406.43170
379.0 0.002639 371.40326 408.05878
394.0 0.002538 371.48389 408.50690
400.0 0.002500 371.56458 407.53574
406.0 0.002463 371.64542 405.03616
389.0 0.002571 371.72632 401.70987
372.0 0.002688 371.80725 398.52298
409.0 0.002445 371.88849 396.10992
402.0 0.002488 371.96979 394.79044
418.0 0.002392 372.05112 394.81509
415.0 0.002410 372.13266 396.31982
422.0 0.002370 372.21414 399.53516
407.0 0.002457 372.29593 404.55054
473.0 0.002114 372.37775 411.20917
500.0 0.002000 372.45972 418.93182
482.0 0.002075 372.54187 426.32718
452.0 0.002212 372.62405 431.23749
403.0 0.002481 372.70639 431.90530
444.0 0.002252 372.78882 428.58078
427.0 0.002342 372.87146 423.33633
413.0 0.002421 372.95413 418.37411
381.0 0.002625 373.03696 414.81985
406.0 0.002463 373.11996 412.74524
393.0 0.002545 373.20309 411.97324
376.0 0.002660 373.28638 411.63373
408.0 0.002451 373.36978 411.15536
382.0 0.002618 373.45316 410.37134
401.0 0.002494 373.53690 409.48224
399.0 0.002506 373.62064 408.71863
409.0 0.002445 373.70459 407.89539
447.0 0.002237 373.78870 406.46942
397.0 0.002519 373.87280 404.16940
416.0 0.002404 373.95721 401.35403
380.0 0.002632 374.04166 398.68518
377.0 0.002653 374.12637 396.64368
420.0 0.002381 374.21121 395.60028
388.0 0.002577 374.29602 395.55334
377.0 0.002653 374.38107 396.69025
401.0 0.002494 374.46631 399.09125
427.0 0.002342 374.55167 402.64136
463.0 0.002160 374.63730 407.13913
433.0 0.002309 374.72290 412.09735
416.0 0.002404 374.80878 416.68402
426.0 0.002347 374.89471 420.07828
422.0 0.002370 374.98096 422.45557
447.0 0.002237 375.06720 424.92236
440.0 0.002273 375.15366 428.66153
451.0 0.002217 375.24030 434.10431
469.0 0.002132 375.32706 440.77039
480.0 0.002083 375.41403 447.42017
529.0 0.001890 375.50119 452.58289
495.0 0.002020 375.58841 455.04755
449.0 0.002227 375.67593 454.14905
444.0 0.002252 375.76349 450.57877
469.0 0.002132 375.85135 446.34787
457.0 0.002188 375.93924 443.14255
459.0 0.002179 376.02728 441.25330
490.0 0.002041 376.11566 439.70917
483.0 0.002070 376.20407 436.90836
454.0 0.002203 376.29291 431.76938
434.0 0.002304 376.38165 424.78857
418.0 0.002392 376.47061 417.40195
406.0 0.002463 376.55984 410.78387
393.0 0.002545 376.64923 405.42853
391.0 0.002558 376.73883 401.53598
376.0 0.002660 376.82861 398.94220
382.0 0.002618 376.91843 397.46008
397.0 0.002519 377.00861 397.05432
400.0 0.002500 377.09885 397.67651
407.0 0.002457 377.18942 399.39194
438.0 0.002283 377.28015 402.36749
394.0 0.002538 377.37094 406.88022
430.0 0.002326 377.46207 413.22925
447.0 0.002237 377.55338 421.64615
451.0 0.002217 377.64484 431.88071
513.0 0.001949 377.73657 443.35391
557.0 0.001795 377.82834 454.77969
496.0 0.002016 377.92050 464.05502
464.0 0.002155 378.01270 468.39816
431.0 0.002320 378.10526 466.23480
479.0 0.002088 378.19800 458.94037
475.0 0.002105 378.29080 449.85959
440.0 0.002273 378.38394 441.53488
461.0 0.002169 378.47720 435.06226
471.0 0.002123 378.57089 430.30258
443.0 0.002257 378.66464 426.49319
435.0 0.002299 378.75845 423.30618
386.0 0.002591 378.85275 421.01395
444.0 0.002252 378.94708 420.05588
470.0 0.002128 379.04187 420.48499
411.0 0.002433 379.13669 421.82608
448.0 0.002232 379.23166 423.10599
431.0 0.002320 379.32706 423.06699
379.0 0.002639 379.42252 421.26053
369.0 0.002710 379.51834 418.34662
365.0 0.002740 379.61435 415.52997
382.0 0.002618 379.71045 413.87064
426.0 0.002347 379.80704 413.81485
394.0 0.002538 379.90369 415.72610
420.0 0.002381 380.00067 419.55847
442.0 0.002262 380.09778 424.98691
409.0 0.002445 380.19510 431.22549
439.0 0.002278 380.29285 436.99802
449.0 0.002227 380.39066 441.23218
432.0 0.002315 380.48889 443.32849
431.0 0.002320 380.58728 443.01547
430.0 0.002326 380.68588 440.30661
425.0 0.002353 380.78482 436.03467
408.0 0.002451 380.88388 431.19919
384.0 0.002604 380.98340 426.66672
391.0 0.002558 381.08304 423.24072
381.0 0.002625 381.18283 421.60529
397.0 0.002519 381.28305 422.18741
438.0 0.002283 381.38348 425.17947
438.0 0.002283 381.48416 430.50806
445.0 0.002247 381.58524 437.80853
459.0 0.002179 381.68634 445.59088
460.0 0.002174 381.78790 452.27652
479.0 0.002088 381.88968 456.27408
460.0 0.002174 381.99167 456.87805
455.0 0.002198 382.09412 454.39514
449.0 0.002227 382.19656 449.55402
410.0 0.002439 382.29947 443.61929
417.0 0.002398 382.40256 437.88831
414.0 0.002415 382.50601 433.13409
433.0 0.002309 382.60977 429.38806
399.0 0.002506 382.71362 426.53348
431.0 0.002320 382.81799 424.58643
406.0 0.002463 382.92249 423.49542
413.0 0.002421 383.02744 422.92593
425.0 0.002353 383.13260 422.65009
433.0 0.002309 383.23792 422.76263
417.0 0.002398 383.34378 423.39337
432.0 0.002315 383.44971 424.62747
438.0 0.002283 383.55618 425.83289
396.0 0.002525 383.66275 426.34311
438.0 0.002283 383.76956 425.70407
460.0 0.002174 383.87692 424.33978
393.0 0.002545 383.98441 423.16479
409.0 0.002445 384.09235 423.18799
407.0 0.002457 384.20053 424.96432
427.0 0.002342 384.30890 428.86368
412.0 0.002427 384.41785 434.97769
449.0 0.002227 384.52682 443.05695
500.0 0.002000 384.63641 452.23206
491.0 0.002037 384.74615 461.57660
507.0 0.001972 384.85614 470.02008
467.0 0.002141 384.96661 475.87628
498.0 0.002008 385.07727 477.37408
476.0 0.002101 385.18845 474.25830
436.0 0.002294 385.29993 468.43295
478.0 0.002092 385.41147 462.29211
436.0 0.002294 385.52359 457.38678
427.0 0.002342 385.63596 454.44055
457.0 0.002188 385.74878 453.61172
472.0 0.002119 385.86191 454.35965
451.0 0.002217 385.97522 455.31287
445.0 0.002247 386.08905 454.57608
437.0 0.002288 386.20309 451.60904
399.0 0.002506 386.31766 447.22894
419.0 0.002387 386.43246 443.12155
433.0 0.002309 386.54752 440.17838
432.0 0.002315 386.66315 438.54489
429.0 0.002331 386.77902 437.91364
403.0 0.002481 386.89529 437.65179
426.0 0.002347 387.01196 437.08148
455.0 0.002198 387.12881 435.46338
448.0 0.002232 387.24622 432.77277
402.0 0.002488 387.36389 429.78726
379.0 0.002639 387.48212 427.41025
424.0 0.002358 387.60056 426.15573
441.0 0.002268 387.71915 426.24146
445.0 0.002247 387.83847 427.56119
461.0 0.002169 387.95810 429.81488
464.0 0.002155 388.07813 432.16342
432.0 0.002315 388.19849 433.63596
425.0 0.002353 388.31909 433.48889
453.0 0.002208 388.44028 432.11365
425.0 0.002353 388.56174 430.54279
420.0 0.002381 388.68381 429.66074
436.0 0.002294 388.80609 430.01114
452.0 0.002212 388.92868 431.81360
437.0 0.002288 389.05182 434.92838
438.0 0.002283 389.17529 438.94528
446.0 0.002242 389.29935 442.83072
479.0 0.002088 389.42358 446.06427
466.0 0.002146 389.54825 448.56277
443.0 0.002257 389.67346 450.59631
448.0 0.002232 389.79904 452.14246
435.0 0.002299 389.92502 453.20996
427.0 0.002342 390.05142 454.50543
430.0 0.002326 390.17807 457.17242
445.0 0.002247 390.30539 462.09894
494.0 0.002024 390.43304 469.62363
532.0 0.001880 390.56119 479.83716
569.0 0.001757 390.68976 492.63452
598.0 0.001672 390.81860 506.98022
619.0 0.001616 390.94800 520.32520
595.0 0.001681 391.07776 528.25293
537.0 0.001862 391.20810 527.28558
518.0 0.001931 391.33887 517.19690
468.0 0.002137 391.46982 501.42581
447.0 0.002237 391.60144 484.33411
431.0 0.002320 391.73352 468.97592
441.0 0.002268 391.86600 456.86230
433.0 0.002309 391.99902 448.40051
452.0 0.002212 392.13223 443.55960
454.0 0.002203 392.26624 441.90787
465.0 0.002151 392.40051 442.84094
488.0 0.002049 392.53540 445.41153
447.0 0.002237 392.67065 448.33191
505.0 0.001980 392.80618 450.41666
476.0 0.002101 392.94250 451.27567
473.0 0.002114 393.07910 451.44287
482.0 0.002075 393.21640 451.81656
468.0 0.002137 393.35394 452.47992
481.0 0.002079 393.49191 452.95209
459.0 0.002179 393.63062 452.74884
455.0 0.002198 393.76962 451.83282
460.0 0.002174 393.90927 450.68103
435.0 0.002299 394.04935 450.13361
448.0 0.002232 394.18973 451.07156
458.0 0.002183 394.33084 454.14090
467.0 0.002141 394.47235 459.37921
489.0 0.002045 394.61453 466.05420
499.0 0.002004 394.75705 472.38696
508.0 0.001969 394.89990 476.10547
482.0 0.002075 395.04358 475.42041
458.0 0.002183 395.18756 470.76144
454.0 0.002203 395.33231 464.10144
453.0 0.002208 395.47729 457.48929
451.0 0.002217 395.62280 452.16556
459.0 0.002179 395.76904 448.41055
432.0 0.002315 395.91568 445.80362
415.0 0.002410 396.06296 443.66516
445.0 0.002247 396.21082 441.61227
454.0 0.002203 396.35886 439.59439
433.0 0.002309 396.50769 437.90439
418.0 0.002392 396.65701 436.33871
418.0 0.002392 396.80698 434.54102
407.0 0.002457 396.95749 432.48349
433.0 0.002309 397.10818 430.51071
415.0 0.002410 397.25983 429.02582
435.0 0.002299 397.41180 428.29019
431.0 0.002320 397.56458 428.14804
445.0 0.002247 397.71771 428.34396
447.0 0.002237 397.87134 428.70264
433.0 0.002309 398.02579 429.11877
445.0 0.002247 398.18054 429.83884
443.0 0.002257 398.33597 431.10291
465.0 0.002151 398.49203 433.13977
449.0 0.002227 398.64850 435.79086
440.0 0.002273 398.80573 438.95422
420.0 0.002381 398.96341 442.47247
443.0 0.002257 399.12183 446.42862
440.0 0.002273 399.28070 451.16068
496.0 0.002016 399.44006 456.64905
501.0 0.001996 399.60025 462.45673
483.0 0.002070 399.76077 467.53812
502.0 0.001992 399.92215 470.75998
482.0 0.002075 400.08401 471.60330
473.0 0.002114 400.24631 470.62643
446.0 0.002242 400.40952 468.95218
442.0 0.002262 400.57306 467.53522
435.0 0.002299 400.73752 466.69946
533.0 0.001876 400.90237 466.40500
475.0 0.002105 401.06775 465.98965
451.0 0.002217 401.23398 464.43204
441.0 0.002268 401.40067 460.88834
404.0 0.002475 401.56815 455.70633
449.0 0.002227 401.73608 450.13556
443.0 0.002257 401.90460 445.14041
432.0 0.002315 402.07397 441.54749
423.0 0.002364 402.24380 439.66037
428.0 0.002336 402.41443 439.46445
449.0 0.002227 402.58572 440.84976
454.0 0.002203 402.75729 443.28354
454.0 0.002203 402.92984 445.97388
446.0 0.002242 403.10291 447.91797
439.0 0.002278 403.27682 448.97928
426.0 0.002347 403.45132 449.08496
425.0 0.002353 403.62619 448.91220
422.0 0.002370 403.80206 449.29147
438.0 0.002283 403.97842 450.74509
453.0 0.002208 404.15561 453.62015
462.0 0.002165 404.33344 457.92334
468.0 0.002137 404.51169 463.36072
482.0 0.002075 404.69083 469.53253
508.0 0.001969 404.87061 476.20139
493.0 0.002028 405.05118 483.57541
510.0 0.001961 405.23236 491.98099
515.0 0.001942 405.41400 501.29852
495.0 0.002020 405.59674 511.05011
544.0 0.001838 405.77985 520.24823
556.0 0.001799 405.96396 527.99225
540.0 0.001852 406.14856 533.34393
522.0 0.001916 406.33377 534.77771
508.0 0.001969 406.51996 530.83380
497.0 0.002012 406.70660 521.55450
503.0 0.001988 406.89420 509.32050
471.0 0.002123 407.08240 496.89584
467.0 0.002141 407.27109 485.89197
444.0 0.002252 407.46088 476.85904
435.0 0.002299 407.65112 469.62857
443.0 . . .
loop_
_refln_index_h
_refln_index_k
_refln_index_l
_pd_refln_wavelength_id
_refln_observed_status
_refln_F_squared_meas
_refln_F_squared_calc
_refln_phase_calc
_refln_d_spacing
_gsas_i100_meas
0 2 0 1 o 43497.98 39496.43 0.00 6.67772 15.37
0 2 0 2 o 43044.17 39496.43 0.00 6.67772 7.56
1 1 1 1 o 18744.881 18393.959 0.00 6.04525 18.76
1 1 1 2 o 18434.020 18393.959 0.00 6.04525 9.16
2 0 0 1 o 629.878 747.523 180.00 4.81274 0.00
2 0 0 2 o 629.878 747.523 180.00 4.81274 0.00
0 0 2 1 o 32623.322 35225.15 0.00 4.77519 3.64
0 0 2 2 o 33187.809 35225.15 0.00 4.77519 1.86
1 2 1 1 o 6141.443 6528.811 0.00 4.75745 2.20
1 2 1 2 o 5694.272 6528.811 0.00 4.75745 0.93
2 1 0 1 o 161683.25 161740.41 180.00 4.52773 41.11
2 1 0 2 o 160345.42 161740.41 180.00 4.52773 20.25
1 0 2 1 o 221131.08 225762.16 0.00 4.27771 50.05
1 0 2 2 o 217302.13 225762.16 0.00 4.27771 24.40
2 1 1 1 o 124317.67 117669.85 0.00 4.09124 53.13
2 1 1 2 o 122270.81 117669.85 0.00 4.09124 25.94
1 1 2 1 o 122622.96 119694.88 0.00 4.07385 51.57
1 1 2 2 o 118678.75 119694.88 0.00 4.07385 24.71
0 3 1 1 o 431273.1 446019.9 180.00 4.03497 100.00
0 3 1 2 o 437174.0 446019.9 180.00 4.03497 50.54
2 2 0 1 o 86296.76 80853.16 180.00 3.90438 17.19
2 2 0 2 o 81926.96 80853.16 180.00 3.90438 8.05
0 2 2 1 o 51662.70 51757.23 0.00 3.88425 10.09
0 2 2 2 o 51798.13 51757.23 0.00 3.88425 5.04
1 3 1 1 o 84004.32 78413.91 180.00 3.72124 33.20
1 3 1 2 o 82331.19 78413.91 180.00 3.72124 16.14
2 2 1 1 o 184408.52 179538.72 180.00 3.61403 62.59
2 2 1 2 o 182557.42 179538.72 180.00 3.61403 30.78
1 2 2 1 o 521.942 480.016 0.00 3.60202 0.18
1 2 2 2 o 806.914 480.016 0.00 3.60202 0.15
2 0 2 1 o 154184.13 141470.56 180.00 3.38977 23.29
2 0 2 2 o 153272.58 141470.56 180.00 3.38977 11.51
0 4 0 1 o 145122.55 138414.50 180.00 3.33886 12.90
0 4 0 2 o 140984.41 138414.50 180.00 3.33886 6.22
2 1 2 1 o 12912.397 13498.179 180.00 3.28559 3.60
2 1 2 2 o 12546.985 13498.179 180.00 3.28559 1.73
2 3 0 1 o 39380.80 43141.38 180.00 3.26806 5.41
2 3 0 2 o 35086.52 43141.38 180.00 3.26806 2.33
0 1 3 1 o 145345.19 147627.64 180.00 3.09670 16.92
2 3 1 1 o 40614.41 40822.15 0.00 3.09204 10.19
0 1 3 2 o 148389.23 147627.64 180.00 3.09670 8.62
2 3 1 2 o 42547.89 40822.15 0.00 3.09204 5.35
1 3 2 1 o 27684.611 26579.990 0.00 3.08451 6.94
1 3 2 2 o 28311.646 26579.990 0.00 3.08451 3.54
2 2 2 1 o 59459.96 58683.35 180.00 3.02263 13.51
2 2 2 2 o 58666.60 58683.35 180.00 3.02263 6.62
1 4 1 1 o 17352.283 18331.059 180.00 2.99531 4.45
1 4 1 2 o 18043.494 18331.059 180.00 2.99531 2.31
3 1 1 1 o 65160.23 62040.77 0.00 2.96552 14.31
3 1 1 2 o 62034.20 62040.77 0.00 2.96552 6.73
1 1 3 1 o 229.323 558.393 0.00 2.94790 0.01
1 1 3 2 o 180.288 558.393 0.00 2.94790 0.00
3 2 1 1 o 31273.232 30295.289 180.00 2.76787 6.11
3 2 1 2 o 29832.307 30295.289 180.00 2.76787 2.88
1 2 3 1 o 116921.52 124611.61 0.00 2.75353 22.00
1 2 3 2 o 117547.30 124611.61 0.00 2.75353 11.01
2 4 0 1 o 98967.35 100670.26 180.00 2.74333 10.09
2 4 0 2 o 101020.87 100670.26 180.00 2.74333 5.14
0 4 2 1 o 31550.117 31401.785 0.00 2.73632 3.36
0 4 2 2 o 30070.598 31401.785 0.00 2.73632 1.58
2 3 2 1 o 2358.281 4049.085 180.00 2.69694 0.44
2 3 2 2 o 2453.208 4049.085 180.00 2.69694 0.23
3 0 2 1 o 86716.88 81984.67 0.00 2.66317 7.15
3 0 2 2 o 86577.33 81984.67 0.00 2.66317 3.55
2 4 1 1 o 24393.176 23021.705 0.00 2.63670 4.43
1 4 2 1 o 31500.131 30157.828 180.00 2.63203 5.69
2 4 1 2 o 23975.404 23021.705 0.00 2.63670 2.16
1 4 2 2 o 31288.543 30157.828 180.00 2.63203 2.81
3 1 2 1 o 27224.920 27559.936 180.00 2.61175 4.23
3 1 2 2 o 28319.926 27559.936 180.00 2.61175 2.21
2 1 3 1 o 27639.248 26845.135 0.00 2.60419 4.35
2 1 3 2 o 26607.443 26845.135 0.00 2.60419 2.07
0 3 3 1 o 33.925 35.788 0.00 2.58950 0.00
0 3 3 2 o 50.848 35.788 0.00 2.58950 0.00
0 5 1 1 o 63191.55 62229.79 180.00 2.57237 5.57
0 5 1 2 o 61651.00 62229.79 180.00 2.57237 2.69
3 3 1 1 o 28669.752 26400.879 180.00 2.51132 4.44
3 3 1 2 o 27297.887 26400.879 180.00 2.51132 2.08
1 3 3 1 o 117143.99 117268.06 180.00 2.50059 17.74
1 3 3 2 o 114874.62 117268.06 180.00 2.50059 8.62
1 5 1 1 o 6320.841 6325.742 180.00 2.48516 1.07
1 5 1 2 o 6002.218 6325.742 180.00 2.48516 0.50
3 2 2 1 o 17738.943 18357.633 180.00 2.47370 2.43
3 2 2 2 o 17784.205 18357.633 180.00 2.47370 1.21
2 2 3 1 o 25084.785 25913.148 0.00 2.46727 3.40
2 2 3 2 o 24837.527 25913.148 0.00 2.46727 1.67
4 0 0 1 o 17007.867 16159.412 180.00 2.40637 0.50
4 0 0 2 o 18709.637 16159.412 180.00 2.40637 0.28
0 0 4 1 o 48786.36 44833.88 180.00 2.38759 1.54
0 0 4 2 o 45037.26 44833.88 180.00 2.38759 0.70
2 4 2 1 o 28052.748 28538.363 180.00 2.37873 3.64
2 4 2 2 o 28378.645 28538.363 180.00 2.37873 1.84
4 1 0 1 o 14632.267 13121.104 180.00 2.36823 0.96
4 1 0 2 o 16613.984 13121.104 180.00 2.36823 0.55
2 5 0 1 o 161415.45 143305.36 0.00 2.33550 11.55
2 5 0 2 o 155567.33 143305.36 0.00 2.33550 5.49
1 0 4 1 o 34819.754 30207.613 0.00 2.31737 2.02
1 0 4 2 o 36110.35 30207.613 0.00 2.31737 1.05
4 1 1 1 o 159893.72 151951.64 180.00 2.29862 19.29
4 1 1 2 o 156751.16 151951.64 180.00 2.29862 9.37
3 3 2 1 o 28428.307 24204.652 180.00 2.28544 3.88
1 1 4 1 o 3208.046 2903.610 0.00 2.28325 0.33
2 3 3 1 o 32037.230 27957.156 0.00 2.28037 3.88
3 3 2 2 o 28490.475 24204.652 180.00 2.28544 1.94
1 1 4 2 o 3325.419 2903.610 0.00 2.28325 0.17
2 3 3 2 o 32514.867 27957.156 0.00 2.28037 1.96
2 5 1 1 o 37410.03 35915.15 0.00 2.26865 4.97
1 5 2 1 o 58437.28 59004.67 180.00 2.26567 7.31
4 2 0 1 o 71625.59 72457.88 0.00 2.26386 4.12
2 5 1 2 o 35403.29 35915.15 0.00 2.26865 2.31
1 5 2 2 o 57283.57 59004.67 180.00 2.26567 3.54
4 2 0 2 o 71793.18 72457.88 0.00 2.26386 2.05
3 4 1 1 o 5083.971 4626.102 0.00 2.24843 0.64
0 2 4 1 o 64452.62 58769.22 0.00 2.24821 3.81
3 4 1 2 o 4803.326 4626.102 0.00 2.24843 0.30
0 2 4 2 o 60919.79 58769.22 0.00 2.24821 1.77
1 4 3 1 o 18557.828 18154.100 180.00 2.24073 2.30
1 4 3 2 o 20159.742 18154.100 180.00 2.24073 1.26
3 1 3 1 o 61286.17 57357.42 0.00 2.22817 6.58
0 6 0 1 o 194164.83 180010.02 0.00 2.22591 6.45
3 1 3 2 o 59464.13 57357.42 0.00 2.22817 3.15
0 6 0 2 o 191819.00 180010.02 0.00 2.22591 3.16
4 2 1 1 o 16088.511 16167.100 180.00 2.20282 1.88
4 2 1 2 o 15441.170 16167.100 180.00 2.20282 0.89
1 2 4 1 o 9232.785 11183.569 0.00 2.18929 0.95
1 2 4 2 o 7900.225 11183.569 0.00 2.18929 0.39
4 0 2 1 o -501.521 166.187 180.00 2.14893 0.00
4 0 2 2 o -127.012 166.187 180.00 2.14893 0.01
3 2 3 1 o 3525.449 3432.668 180.00 2.14059 0.21
2 0 4 1 o 10275.698 9943.720 180.00 2.13886 0.40
3 2 3 2 o 3404.096 3432.668 180.00 2.14059 0.10
2 0 4 2 o 9250.223 9943.720 180.00 2.13886 0.17
4 1 2 1 o 4582.051 4747.958 180.00 2.12164 0.55
4 3 0 1 o 1544.388 1490.157 180.00 2.11690 0.07
4 1 2 2 o 4942.073 4747.958 180.00 2.12164 0.29
1 6 1 1 o 118.533 118.097 180.00 2.11484 0.01
2 1 4 1 o 104733.29 105980.33 0.00 2.11194 10.71
4 3 0 2 o 1474.026 1490.157 180.00 2.11690 0.03
1 6 1 2 o 117.112 118.097 180.00 2.11484 0.00
2 1 4 2 o 105461.66 105980.33 0.00 2.11194 5.37
2 5 2 1 o 21724.906 17261.283 0.00 2.09801 2.66
2 5 2 2 o 20784.215 17261.283 0.00 2.09801 1.26
3 4 2 1 o 107911.32 109523.33 180.00 2.08199 10.83
2 4 3 1 o 7306.932 7875.678 180.00 2.07816 0.75
3 4 2 2 o 103435.19 109523.33 180.00 2.08199 5.11
2 4 3 2 o 6992.706 7875.678 180.00 2.07816 0.35
4 3 1 1 o 5859.406 6012.240 0.00 2.06674 0.59
4 3 1 2 o 5040.095 6012.240 0.00 2.06674 0.24
1 3 4 1 o 3533.865 3428.872 0.00 2.05555 0.36
1 3 4 2 o 3642.731 3428.872 0.00 2.05555 0.18
0 5 3 1 o 36720.92 35640.89 180.00 2.04622 2.02
4 2 2 1 o 49684.71 47177.71 0.00 2.04562 4.78
0 5 3 2 o 36123.88 35640.89 180.00 2.04622 0.99
4 2 2 2 o 48988.73 47177.71 0.00 2.04562 2.34
2 2 4 1 o 18667.441 17356.395 180.00 2.03692 1.75
2 2 4 2 o 16610.805 17356.395 180.00 2.03692 0.76
2 6 0 1 o 42229.46 38513.33 180.00 2.02029 2.35
0 6 2 1 o 67507.72 63051.63 0.00 2.01749 3.64
3 3 3 1 o 16285.191 16283.494 180.00 2.01508 1.40
2 6 0 2 o 38827.40 38513.33 180.00 2.02029 1.06
0 6 2 2 o 63619.36 63051.63 0.00 2.01749 1.69
3 3 3 2 o 15624.650 16283.494 180.00 2.01508 0.66
3 5 1 1 o 688.645 622.705 180.00 2.00698 0.09
3 5 1 2 o 600.536 622.705 180.00 2.00698 0.04
1 5 3 1 o 19474.529 19840.855 180.00 2.00150 1.87
1 5 3 2 o 17059.152 19840.855 180.00 2.00150 0.79
2 6 1 1 o 71921.85 68155.78 0.00 1.97655 7.41
1 6 2 1 o 68122.70 64688.54 0.00 1.97458 6.96
2 6 1 2 o 68689.50 68155.78 0.00 1.97655 3.49
1 6 2 2 o 65223.54 64688.54 0.00 1.97458 3.29
4 4 0 1 o 256966.31 272419.41 0.00 1.95219 11.19
4 4 0 2 o 247307.64 272419.41 0.00 1.95219 5.31
0 4 4 1 o 153684.69 167356.83 0.00 1.94212 6.34
0 4 4 2 o 155835.75 167356.83 0.00 1.94212 3.21
4 3 2 1 o 4913.089 5277.603 180.00 1.93526 0.51
4 3 2 2 o 4979.462 5277.603 180.00 1.93526 0.26
2 3 4 1 o 38958.66 38087.31 0.00 1.92789 3.48
2 3 4 2 o 36217.42 38087.31 0.00 1.92789 1.59
3 0 4 1 o 1502.550 978.050 180.00 1.91544 0.07
4 4 1 1 o 3341.166 2146.744 0.00 1.91264 0.31
3 0 4 2 o 1290.197 978.050 180.00 1.91544 0.03
4 4 1 2 o 2191.607 2146.744 0.00 1.91264 0.10
1 4 4 1 o 3706.903 5974.149 0.00 1.90376 0.32
4 1 3 1 o 7550.347 7994.434 180.00 1.90012 0.64
1 4 4 2 o 5616.146 5974.149 0.00 1.90376 0.26
3 1 4 1 o 12657.090 12601.069 180.00 1.89604 1.10
4 1 3 2 o 8169.661 7994.434 180.00 1.90012 0.35
3 1 4 2 o 12810.598 12601.069 180.00 1.89604 0.55
0 1 5 1 o 96613.43 96154.67 180.00 1.89084 3.70
0 1 5 2 o 93028.89 96154.67 180.00 1.89084 1.76
3 5 2 1 o 31791.031 32714.545 0.00 1.88594 2.65
2 5 3 1 o 22040.738 21914.020 0.00 1.88309 1.81
3 5 2 2 o 31937.721 32714.545 0.00 1.88594 1.32
2 5 3 2 o 22401.063 21914.020 0.00 1.88309 0.92
3 4 3 1 o 19448.240 15816.827 0.00 1.87148 1.74
0 7 1 1 o 33831.836 26717.957 0.00 1.87095 1.71
5 1 1 1 o 83.269 81.569 180.00 1.86858 0.00
3 4 3 2 o 18410.721 15816.827 0.00 1.87148 0.82
0 7 1 2 o 31771.219 26717.957 0.00 1.87095 0.79
5 1 1 2 o 81.412 81.569 180.00 1.86858 0.00
2 6 2 1 o 14697.730 16819.449 180.00 1.86062 1.12
2 6 2 2 o 15830.900 16819.449 180.00 1.86062 0.61
1 1 5 1 o 31941.691 33555.637 180.00 1.85538 2.34
1 1 5 2 o 31160.828 33555.637 180.00 1.85538 1.13
4 2 3 1 o 8086.855 7900.914 0.00 1.84493 0.66
3 2 4 1 o 33020.773 31413.445 180.00 1.84119 2.56
4 2 3 2 o 8430.563 7900.914 0.00 1.84493 0.35
3 2 4 2 o 31853.725 31413.445 180.00 1.84119 1.22
1 7 1 1 o 24357.559 23986.941 0.00 1.83658 2.23
1 7 1 2 o 21650.357 23986.941 0.00 1.83658 0.97
5 2 1 1 o 71600.77 77873.77 180.00 1.81601 5.44
5 2 1 2 o 74434.03 77873.77 180.00 1.81601 2.83
4 4 2 1 o 97398.68 94357.60 0.00 1.80701 7.74
1 2 5 1 o 32766.193 32528.314 180.00 1.80389 2.70
4 4 2 2 o 94854.22 94357.60 0.00 1.80701 3.73
2 4 4 1 o 36119.89 35893.97 180.00 1.80101 3.04
1 2 5 2 o 32995.484 32528.314 180.00 1.80389 1.35
2 4 4 2 o 37651.73 35893.97 180.00 1.80101 1.58
3 6 1 1 o 34356.324 32569.504 0.00 1.79625 3.06
1 6 3 1 o 72598.71 70333.36 180.00 1.79231 6.15
3 6 1 2 o 33457.992 32569.504 0.00 1.79625 1.48
4 5 0 1 o 9771.396 10048.113 0.00 1.78784 0.35
1 6 3 2 o 68154.89 70333.36 180.00 1.79231 2.85
5 0 2 1 o 2944.549 3584.821 180.00 1.78546 0.09
4 5 0 2 o 8273.032 10048.113 0.00 1.78784 0.14
5 0 2 2 o 2864.375 3584.821 180.00 1.78546 0.04
2 7 0 1 o 2867.836 2094.275 180.00 1.77363 0.14
5 1 2 1 o 66728.83 61046.68 180.00 1.76972 4.55
2 7 0 2 o 2306.340 2094.275 180.00 1.77363 0.06
5 1 2 2 o 64226.11 61046.68 180.00 1.76972 2.16
4 3 3 1 o 86967.80 88108.02 180.00 1.76275 5.94
2 1 5 1 o 5542.696 5555.122 0.00 1.75988 0.36
3 3 4 1 o 1564.912 1560.090 180.00 1.75949 0.11
4 3 3 2 o 89394.38 88108.02 180.00 1.76275 3.05
4 5 1 1 o 17628.533 17036.279 180.00 1.75732 1.29
2 1 5 2 o 6045.401 5555.122 0.00 1.75988 0.20
0 3 5 1 o 53671.87 49221.71 0.00 1.75533 1.89
3 3 4 2 o 1700.507 1560.090 180.00 1.75949 0.06
4 5 1 2 o 16807.121 17036.279 180.00 1.75732 0.60
0 3 5 2 o 48240.54 49221.71 0.00 1.75533 0.83
1 5 4 1 o 16253.414 16602.230 180.00 1.75042 1.20
1 5 4 2 o 15617.728 16602.230 180.00 1.75042 0.57
2 7 1 1 o 43589.40 43897.88 0.00 1.74382 3.28
1 7 2 1 o 41.991 44.613 0.00 1.74246 0.00
2 7 1 2 o 38836.21 43897.88 0.00 1.74382 1.41
1 7 2 2 o 37.029 44.613 0.00 1.74246 0.00
5 3 1 1 o 440.935 514.090 0.00 1.73748 0.02
5 3 1 2 o 218.384 514.090 0.00 1.73748 0.00
1 3 5 1 o 4304.617 5062.768 180.00 1.72685 0.26
3 5 3 1 o 6886.642 7776.455 0.00 1.72523 0.54
5 2 2 1 o 9339.958 10188.587 0.00 1.72487 0.60
1 3 5 2 o 4812.640 5062.768 180.00 1.72685 0.15
3 5 3 2 o 7705.952 7776.455 0.00 1.72523 0.30
5 2 2 2 o 10206.041 10188.587 0.00 1.72487 0.33
2 2 5 1 o 117922.20 119457.10 0.00 1.71576 7.57
2 2 5 2 o 115723.34 119457.10 0.00 1.71576 3.68
3 6 2 1 o 13114.676 14375.603 0.00 1.70791 0.88
2 6 3 1 o 12192.175 12210.938 180.00 1.70579 0.82
3 6 2 2 o 13423.560 14375.603 0.00 1.70791 0.45
2 6 3 2 o 13463.438 12210.938 180.00 1.70579 0.46
4 0 4 1 o 286859.03 275476.53 0.00 1.69488 9.23
4 0 4 2 o 275463.47 275476.53 0.00 1.69488 4.38
4 1 4 1 o 18892.162 15343.498 0.00 1.68140 1.28
4 1 4 2 o 18072.229 15343.498 0.00 1.68140 0.61
4 5 2 1 o 3655.941 3494.744 0.00 1.67434 0.28
4 5 2 2 o 3650.671 3494.744 0.00 1.67434 0.14
2 5 4 1 o 100389.88 99969.11 180.00 1.66956 6.43
0 8 0 1 o 242970.95 243416.66 0.00 1.66943 4.60
2 5 4 2 o 96287.06 99969.11 180.00 1.66956 3.04
0 8 0 2 o 234234.00 243416.66 0.00 1.66943 2.20
4 4 3 1 o 126.807 132.715 180.00 1.66420 0.01
2 7 2 1 o 700.290 770.401 0.00 1.66265 0.06
3 4 4 1 o 48239.31 52625.20 180.00 1.66145 2.93
4 4 3 2 o 123.084 132.715 180.00 1.66420 0.00
2 7 2 2 o 760.130 770.401 0.00 1.66265 0.03
3 4 4 2 o 51923.65 52625.20 180.00 1.66145 1.60
5 3 2 1 o 17794.035 18029.941 180.00 1.65715 1.06
5 3 2 2 o 17088.666 18029.941 180.00 1.65715 0.50
2 3 5 1 o 28071.109 30681.193 0.00 1.64907 1.68
2 3 5 2 o 29188.127 30681.193 0.00 1.64907 0.88
5 4 1 1 o 7596.251 6825.389 0.00 1.64288 0.45
4 2 4 1 o 6719.994 5971.070 0.00 1.64279 0.42
5 4 1 2 o 7495.403 6825.389 0.00 1.64288 0.22
4 2 4 2 o 6626.703 5971.070 0.00 1.64279 0.20
0 7 3 1 o 112512.15 111169.98 180.00 1.63652 3.73
5 1 3 1 o 52672.46 49061.34 180.00 1.63493 3.25
4 6 0 1 o 1405.453 1332.430 180.00 1.63403 0.04
1 4 5 1 o 334.785 324.008 0.00 1.63389 0.02
0 7 3 2 o 107197.30 111169.98 180.00 1.63652 1.75
5 1 3 2 o 53712.77 49061.34 180.00 1.63493 1.65
4 6 0 2 o 1560.237 1332.430 180.00 1.63403 0.03
1 4 5 2 o 367.925 324.008 0.00 1.63389 0.01
3 1 5 1 o 13682.887 11656.855 0.00 1.62900 0.84
0 6 4 1 o 8390.053 7166.762 180.00 1.62812 0.28
3 1 5 2 o 13706.650 11656.855 0.00 1.62900 0.42
0 6 4 2 o 9196.144 7166.762 180.00 1.62812 0.15
1 8 1 1 o 31316.371 28816.445 0.00 1.62101 2.23
1 8 1 2 o 29461.270 28816.445 0.00 1.62101 1.03
3 7 1 1 o 54646.09 52253.37 0.00 1.61624 3.54
1 7 3 1 o 10263.477 9632.127 0.00 1.61337 0.64
3 7 1 2 o 56144.22 52253.37 0.00 1.61624 1.82
4 6 1 1 o 4248.500 4306.808 0.00 1.61063 0.26
1 7 3 2 o 9157.270 9632.127 0.00 1.61337 0.28
4 6 1 2 o 3708.520 4306.808 0.00 1.61063 0.11
1 6 4 1 o 27807.820 29209.916 0.00 1.60531 1.65
6 0 0 1 o 72183.91 71616.48 180.00 1.60425 0.93
1 6 4 2 o 29036.334 29209.916 0.00 1.60531 0.87
6 0 0 2 o 71734.63 71616.48 180.00 1.60425 0.46
5 2 3 1 o 47842.17 48790.38 180.00 1.59937 2.44
5 2 3 2 o 43960.48 48790.38 180.00 1.59937 1.08
3 2 5 1 o 690.259 724.979 180.00 1.59382 0.07
6 1 0 1 o 87769.16 91686.24 0.00 1.59280 2.48
0 0 6 1 o 29027.883 30559.361 180.00 1.59173 0.43
3 2 5 2 o 640.833 724.979 180.00 1.59382 0.03
6 1 0 2 o 80434.60 91686.24 0.00 1.59280 1.11
0 0 6 2 o 24924.455 30559.361 180.00 1.59173 0.18
3 6 3 1 o 1996.016 2032.143 0.00 1.58582 0.07
4 3 4 1 o 6597.458 6389.055 0.00 1.58397 0.41
3 6 3 2 o 1867.896 2032.143 0.00 1.58582 0.03
4 3 4 2 o 7337.491 6389.055 0.00 1.58397 0.23
2 8 0 1 o 2176.666 2361.950 180.00 1.57724 0.03
0 8 2 1 o 14697.211 16176.611 0.00 1.57590 0.37
5 4 2 1 o 30487.336 33748.738 0.00 1.57448 1.65
2 8 0 2 o 2221.414 2361.950 180.00 1.57724 0.02
0 8 2 2 o 15385.638 16176.611 0.00 1.57590 0.20
6 1 1 1 o 3322.779 3369.418 0.00 1.57110 0.15
5 4 2 2 o 33086.996 33748.738 0.00 1.57448 0.90
1 0 6 1 o 3117.289 3184.417 180.00 1.57040 0.09
2 4 5 1 o 22693.922 23706.070 180.00 1.56754 1.23
6 1 1 2 o 3238.298 3369.418 0.00 1.57110 0.07
1 0 6 2 o 2986.825 3184.417 180.00 1.57040 0.04
2 4 5 2 o 21285.404 23706.070 180.00 1.56754 0.57
6 2 0 1 o 19417.477 18656.457 180.00 1.55986 0.51
1 1 6 1 o 25735.904 24681.309 180.00 1.55966 1.32
4 5 3 1 o 33568.613 31893.285 180.00 1.55884 1.86
3 5 4 1 o 2976.990 2690.600 0.00 1.55658 0.16
6 2 0 2 o 20705.412 18656.457 180.00 1.55986 0.27
2 8 1 1 o 44903.00 40403.65 180.00 1.55616 2.74
1 1 6 2 o 27199.504 24681.309 180.00 1.55966 0.70
4 5 3 2 o 34445.500 31893.285 180.00 1.55884 0.96
1 8 2 1 o 32370.135 29914.652 0.00 1.55519 1.94
0 5 5 1 o 1046.814 1001.314 180.00 1.55370 0.03
3 5 4 2 o 2891.290 2690.600 0.00 1.55658 0.07
2 8 1 2 o 44042.32 40403.65 180.00 1.55616 1.33
1 8 2 2 o 30658.242 29914.652 0.00 1.55519 0.90
3 7 2 1 o 45.103 46.730 0.00 1.55098 0.00
0 5 5 2 o 844.285 1001.314 180.00 1.55370 0.01
2 7 3 1 o 16539.969 20801.188 0.00 1.54939 0.94
0 2 6 1 o 9342.957 11259.310 0.00 1.54835 0.22
3 7 2 2 o 36.006 46.730 0.00 1.55098 0.00
4 6 2 1 o 16176.974 19138.701 0.00 1.54602 0.90
2 7 3 2 o 17497.979 20801.188 0.00 1.54939 0.50
5 3 3 1 o 2544.028 3081.198 0.00 1.54494 0.16
0 2 6 2 o 9884.633 11259.310 0.00 1.54835 0.12
4 6 2 2 o 17474.266 19138.701 0.00 1.54602 0.49
2 6 4 1 o 27757.881 30457.334 180.00 1.54226 1.54
5 5 1 1 o 2739.510 2822.710 180.00 1.54128 0.18
5 3 3 2 o 3004.601 3081.198 0.00 1.54494 0.09
3 3 5 1 o 29714.008 29932.236 0.00 1.53994 1.44
6 2 1 1 o 51766.63 52977.65 0.00 1.53946 2.61
2 6 4 2 o 28231.572 30457.334 180.00 1.54226 0.78
5 5 1 2 o 2568.224 2822.710 180.00 1.54128 0.08
3 3 5 2 o 29109.443 29932.236 0.00 1.53994 0.70
6 2 1 2 o 51835.91 52977.65 0.00 1.53946 1.30
1 5 5 1 o 19561.102 20892.660 180.00 1.53385 1.06
1 5 5 2 o 20955.961 20892.660 180.00 1.53385 0.57
1 2 6 1 o 34816.070 32986.055 0.00 1.52870 1.74
1 2 6 2 o 33339.691 32986.055 0.00 1.52870 0.82
6 0 2 1 o 45104.98 50430.63 180.00 1.52072 1.13
6 0 2 2 o 45823.29 50430.63 180.00 1.52072 0.57
4 4 4 1 o 32814.504 36371.65 180.00 1.51131 1.75
2 0 6 1 o 23512.217 26191.785 180.00 1.51122 0.62
6 1 2 1 o 2.659 4.453 0.00 1.51096 0.00
6 3 0 1 o 32481.088 34318.242 0.00 1.50924 0.86
4 4 4 2 o 32707.377 36371.65 180.00 1.51131 0.87
2 0 6 2 o 23456.342 26191.785 180.00 1.51122 0.31
6 1 2 2 o 2.795 4.453 0.00 1.51096 0.00
6 3 0 2 o 33627.902 34318.242 0.00 1.50924 0.45
2 1 6 1 o 16737.217 16690.227 0.00 1.50164 0.77
5 0 4 1 o 2618.727 2614.958 0.00 1.49864 0.06
2 1 6 2 o 15799.393 16690.227 0.00 1.50164 0.36
2 8 2 1 o 41864.40 45317.07 180.00 1.49766 2.47
5 0 4 2 o 2421.956 2614.958 0.00 1.49864 0.03
4 7 0 1 o 1944.471 2146.785 180.00 1.49503 0.07
2 8 2 2 o 41605.04 45317.07 180.00 1.49766 1.22
4 7 0 2 o 2129.189 2146.785 180.00 1.49503 0.04
6 3 1 1 o 69520.80 72780.24 0.00 1.49074 3.29
5 1 4 1 o 6307.524 7114.445 180.00 1.48929 0.28
6 3 1 2 o 69096.27 72780.24 0.00 1.49074 1.63
4 1 5 1 o 6094.630 6251.511 0.00 1.48676 0.28
5 1 4 2 o 7258.295 7114.445 180.00 1.48929 0.17
5 5 2 1 o 87167.63 90150.81 0.00 1.48438 4.27
4 1 5 2 o 6438.479 6251.511 0.00 1.48676 0.15
6 2 2 1 o 17628.813 16879.186 180.00 1.48276 0.81
1 3 6 1 o 9410.141 9523.170 180.00 1.48096 0.45
5 5 2 2 o 89091.19 90150.81 0.00 1.48438 2.18
6 2 2 2 o 17303.039 16879.186 180.00 1.48276 0.39
2 5 5 1 o 18406.301 18082.041 0.00 1.47856 0.94
5 4 3 1 o 15243.508 15001.594 0.00 1.47730 0.73
1 3 6 2 o 9678.364 9523.170 180.00 1.48096 0.23
4 7 1 1 o 172377.27 169525.58 180.00 1.47704 8.91
2 5 5 2 o 17146.756 18082.041 0.00 1.47856 0.43
2 2 6 1 o 4572.985 4607.742 180.00 1.47395 0.21
5 4 3 2 o 15178.890 15001.594 0.00 1.47730 0.36
4 7 1 2 o 175205.81 169525.58 180.00 1.47704 4.52
3 4 5 1 o 965.661 890.278 180.00 1.47292 0.05
1 7 4 1 o 78.740 72.224 0.00 1.47294 0.00
2 2 6 2 o 4722.010 4607.742 180.00 1.47395 0.11
3 4 5 2 o 1055.961 890.278 180.00 1.47292 0.03
1 7 4 2 o 86.401 72.224 0.00 1.47294 0.00
0 9 1 1 o 52357.84 46941.38 180.00 1.46634 1.44
3 8 1 1 o 6281.352 5023.509 180.00 1.46346 0.32
0 9 1 2 o 56327.56 46941.38 180.00 1.46634 0.78
5 2 4 1 o 14774.486 12561.135 0.00 1.46227 0.68
1 8 3 1 o 27992.363 24823.451 0.00 1.46133 1.44
4 2 5 1 o 6986.789 6593.489 0.00 1.45987 0.31
3 8 1 2 o 5313.131 5023.509 180.00 1.46346 0.13
5 2 4 2 o 13086.531 12561.135 0.00 1.46227 0.29
3 7 3 1 o 86571.54 86176.54 0.00 1.45783 4.18
1 8 3 2 o 24832.141 24823.451 0.00 1.46133 0.62
4 2 5 2 o 6658.708 6593.489 0.00 1.45987 0.14
3 7 3 2 o 92222.14 86176.54 0.00 1.45783 2.25
4 6 3 1 o 734.884 667.815 180.00 1.45371 0.03
3 6 4 1 o 1949.259 1249.077 180.00 1.45189 0.10
4 6 3 2 o 1102.588 667.815 180.00 1.45371 0.03
1 9 1 1 o 4480.925 2828.299 180.00 1.44962 0.25
3 6 4 2 o 1997.114 1249.077 180.00 1.45189 0.05
6 4 0 1 o 5178.456 2658.595 180.00 1.44600 0.14
1 9 1 2 o 5005.949 2828.299 180.00 1.44962 0.14
6 4 0 2 o 5976.359 2658.595 180.00 1.44600 0.08
5 6 1 1 o 38270.48 35224.18 0.00 1.43944 1.94
6 3 2 1 o 638.240 535.668 180.00 1.43908 0.05
0 4 6 1 o 104162.75 105928.66 0.00 1.43681 2.51
5 6 1 2 o 37186.87 35224.18 0.00 1.43944 0.93
6 3 2 2 o 606.624 535.668 180.00 1.43908 0.02
1 6 5 1 o 14975.332 13881.576 0.00 1.43338 0.82
0 4 6 2 o 115968.92 105928.66 0.00 1.43681 1.41
4 5 4 1 o 16852.473 14907.294 180.00 1.43110 0.83
2 3 6 1 o 2407.874 2186.574 0.00 1.43102 0.09
6 4 1 1 o 13525.850 11751.892 180.00 1.42970 0.63
1 6 5 2 o 16061.633 13881.576 0.00 1.43338 0.44
4 5 4 2 o 16507.203 14907.294 180.00 1.43110 0.41
2 3 6 2 o 2363.730 2186.574 0.00 1.43102 0.04
4 7 2 1 o 3612.407 3448.906 0.00 1.42674 0.22
6 4 1 2 o 12063.120 11751.892 180.00 1.42970 0.27
3 0 6 1 o 135377.64 129771.62 180.00 1.42590 2.91
6 1 3 1 o 36124.26 32853.699 0.00 1.42445 1.58
2 7 4 1 o 188.614 156.325 180.00 1.42378 0.01
4 7 2 2 o 3738.183 3448.906 0.00 1.42674 0.11
3 0 6 2 o 128310.18 129771.62 180.00 1.42590 1.36
6 1 3 2 o 34094.957 32853.699 0.00 1.42445 0.73
1 4 6 1 o 91570.39 89563.59 0.00 1.42107 4.05
5 3 4 1 o 337.805 315.837 180.00 1.42032 0.01
2 7 4 2 o 181.239 156.325 180.00 1.42378 0.01
4 3 5 1 o 129174.92 125284.33 180.00 1.41813 5.56
3 1 6 1 o 15373.208 14535.064 0.00 1.41785 0.67
2 9 0 1 o 90653.67 87448.57 180.00 1.41806 2.27
1 4 6 2 o 96886.75 89563.59 0.00 1.42107 2.16
5 3 4 2 o 340.505 315.837 180.00 1.42032 0.01
4 3 5 2 o 135362.31 125284.33 180.00 1.41813 2.93
3 1 6 2 o 16543.982 14535.064 0.00 1.41785 0.37
2 9 0 2 o 95575.09 87448.57 180.00 1.41806 1.20
3 8 2 1 o 7858.669 7115.473 0.00 1.41449 0.37
2 8 3 1 o 17070.504 14678.402 0.00 1.41329 0.85
3 8 2 2 o 9151.981 7115.473 0.00 1.41449 0.22
2 8 3 2 o 19959.832 14678.402 0.00 1.41329 0.51
2 9 1 1 o 25472.229 23161.941 0.00 1.40268 1.28
5 5 3 1 o 83.763 83.252 180.00 1.40211 0.00
1 9 2 1 o 53682.28 46161.91 0.00 1.40198 2.67
6 2 3 1 o 16749.068 14998.135 180.00 1.40075 0.70
2 9 1 2 o 24011.129 23161.941 0.00 1.40268 0.59
5 5 3 2 o 83.587 83.252 180.00 1.40211 0.00
3 5 5 1 o 12706.197 11279.322 0.00 1.39837 0.52
1 9 2 2 o 51371.39 46161.91 0.00 1.40198 1.26
6 2 3 2 o 18466.723 14998.135 180.00 1.40075 0.39
3 5 5 2 o 15529.815 11279.322 0.00 1.39837 0.33
3 2 6 1 o 9517.878 6915.278 180.00 1.39447 0.41
5 6 2 1 o 101.774 72.548 180.00 1.39277 0.00
3 2 6 2 o 10376.689 6915.278 180.00 1.39447 0.23
5 6 2 2 o 86.139 72.548 180.00 1.39277 0.00
2 6 5 1 o 56126.09 55099.55 180.00 1.38796 2.46
2 6 5 2 o 59591.27 55099.55 180.00 1.38796 1.32
6 4 2 1 o 10065.138 8127.087 180.00 1.38394 0.40
6 4 2 2 o 12669.305 8127.087 180.00 1.38394 0.27
2 4 6 1 o 1669.397 1432.144 0.00 1.37677 0.11
6 5 0 1 o 99150.91 98267.80 180.00 1.37527 2.15
2 4 6 2 o 1612.533 1432.144 0.00 1.37677 0.05
6 5 0 2 o 104014.63 98267.80 180.00 1.37527 1.13
4 8 0 1 o 1475.646 1279.372 0.00 1.37166 0.05
4 8 0 2 o 1997.820 1279.372 0.00 1.37166 0.03
0 8 4 1 o 468.471 226.513 0.00 1.36816 0.02
5 4 4 1 o 21647.178 14663.480 0.00 1.36723 0.91
4 4 5 1 o 2958.081 1931.379 180.00 1.36527 0.13
4 4 5 2 o 2091.990 1931.379 180.00 1.36527 0.04
0 8 4 2 o 435.894 226.513 0.00 1.36816 0.01
6 5 1 1 o 36217.23 35929.70 0.00 1.36123 1.51
5 4 4 2 o 18053.748 14663.480 0.00 1.36723 0.37
6 3 3 1 o 7840.300 6220.813 0.00 1.36375 0.33
6 3 3 2 o 6115.810 6220.813 0.00 1.36375 0.12
2 9 2 1 o 5160.765 5255.353 180.00 1.35939 0.25
3 3 6 1 o 3551.768 3556.445 0.00 1.35795 0.14
6 5 1 2 o 36329.34 35929.70 0.00 1.36123 0.75
4 8 1 1 o 5392.196 5188.657 180.00 1.35773 0.25
0 1 7 1 o 826.323 749.704 180.00 1.35728 0.02
2 9 2 2 o 5409.968 5255.353 180.00 1.35939 0.13
3 3 6 2 o 3576.940 3556.445 0.00 1.35795 0.07
1 8 4 1 o 17631.693 17560.318 0.00 1.35454 0.75
4 8 1 2 o 5202.714 5188.657 180.00 1.35773 0.12
7 1 1 1 o 753.946 751.107 180.00 1.35402 0.01
0 1 7 2 o 757.087 749.704 180.00 1.35728 0.01
1 5 6 1 o 35776.95 35198.04 0.00 1.35377 1.45
4 7 3 1 o 96.912 91.769 0.00 1.35323 0.00
3 7 4 1 o 92.155 88.153 0.00 1.35176 0.01
1 8 4 2 o 17267.787 17560.318 0.00 1.35454 0.36
7 1 1 2 o 740.666 751.107 180.00 1.35402 0.01
1 5 6 2 o 34104.180 35198.04 0.00 1.35377 0.68
4 7 3 2 o 89.829 91.769 0.00 1.35323 0.00
0 7 5 1 o 147640.72 150147.05 180.00 1.34987 3.09
5 1 5 1 o 7066.684 6954.770 180.00 1.34897 0.25
4 6 4 1 o 61806.36 61008.95 0.00 1.34847 2.43
3 7 4 2 o 89.769 88.153 0.00 1.35176 0.00
0 7 5 2 o 147225.88 150147.05 180.00 1.34987 1.53
5 1 5 2 o 7068.881 6954.770 180.00 1.34897 0.13
4 6 4 2 o 61412.66 61008.95 0.00 1.34847 1.20
0 9 3 1 o 8156.332 8062.939 180.00 1.34499 0.18
1 1 7 1 o 65781.02 63541.85 180.00 1.34398 2.49
3 8 3 1 o 20384.334 19711.426 180.00 1.34277 0.92
5 7 1 1 o 5667.936 5493.494 180.00 1.34170 0.21
0 9 3 2 o 8343.663 8062.939 180.00 1.34499 0.09
1 1 7 2 o 63683.39 63541.85 180.00 1.34398 1.19
3 8 3 2 o 18890.932 19711.426 180.00 1.34277 0.42
5 7 1 2 o 5473.843 5493.494 180.00 1.34170 0.10
1 7 5 1 o 35210.27 34846.891 180.00 1.33678 1.47
0 10 0 1 o 13122.748 10849.133 180.00 1.33554 0.15
7 2 1 1 o 751.852 726.301 0.00 1.33361 0.02
3 9 1 1 o 394.182 373.272 0.00 1.33366 0.03
1 7 5 2 o 37086.50 34846.891 180.00 1.33678 0.78
0 10 0 2 o 12446.006 10849.133 180.00 1.33554 0.07
1 9 3 1 o 18169.178 15531.290 180.00 1.33205 0.82
6 0 4 1 o 1024.231 826.344 0.00 1.33158 0.02
7 2 1 2 o 896.666 726.301 0.00 1.33361 0.02
3 9 1 2 o 541.168 373.272 0.00 1.33366 0.02
5 2 5 1 o 2600.692 2543.173 0.00 1.32879 0.08
1 9 3 2 o 15923.230 15531.290 180.00 1.33205 0.35
6 0 4 2 o 833.530 826.344 0.00 1.33158 0.01
4 0 6 1 o 42026.98 41308.74 0.00 1.32758 0.75
5 2 5 2 o 2533.839 2543.173 0.00 1.32879 0.04
6 1 4 1 o 23735.123 24021.840 180.00 1.32501 0.81
4 0 6 2 o 40279.32 41308.74 0.00 1.32758 0.35
5 6 3 1 o 16854.391 17305.018 0.00 1.32414 0.58
1 2 7 1 o 20174.088 20735.617 180.00 1.32402 0.63
6 1 4 2 o 23283.053 24021.840 180.00 1.32501 0.39
6 5 2 1 o 117.589 118.430 180.00 1.32155 0.00
7 0 2 1 o 93195.79 95656.95 180.00 1.32137 1.66
4 1 6 1 o 125.599 126.254 0.00 1.32107 0.00
3 6 5 1 o 82.933 85.751 0.00 1.32099 0.01
5 6 3 2 o 17176.941 17305.018 0.00 1.32414 0.30
1 2 7 2 o 20605.826 20735.617 180.00 1.32402 0.32
6 5 2 2 o 114.952 118.430 180.00 1.32155 0.00
7 0 2 2 o 85966.68 95656.95 180.00 1.32137 0.75
4 8 2 1 o 1913.286 2109.279 0.00 1.31835 0.05
4 1 6 2 o 122.883 126.254 0.00 1.32107 0.00
3 6 5 2 o 68.359 85.751 0.00 1.32099 0.00
6 4 3 1 o 4514.901 4903.807 0.00 1.31655 0.18
2 8 4 1 o 6053.170 6273.278 180.00 1.31602 0.19
2 5 6 1 o 25453.740 26247.465 180.00 1.31530 0.95
7 1 2 1 o 5595.027 6034.300 0.00 1.31495 0.22
4 8 2 2 o 2044.859 2109.279 0.00 1.31835 0.03
6 4 3 2 o 3831.537 4903.807 0.00 1.31655 0.07
2 8 4 2 o 5590.377 6273.278 180.00 1.31602 0.08
2 5 6 2 o 22747.314 26247.465 180.00 1.31530 0.41
7 1 2 2 o 4926.590 6034.300 0.00 1.31495 0.09
3 4 6 1 o 3201.701 4232.521 0.00 1.31133 0.12
1 10 1 1 o 275.433 363.843 0.00 1.31036 0.00
3 4 6 2 o 2273.768 4232.521 0.00 1.31133 0.04
5 5 4 1 o 4770.468 5741.183 0.00 1.30698 0.15
1 10 1 2 o 326.292 363.843 0.00 1.31036 0.00
2 1 7 1 o 1241.042 1456.629 0.00 1.30632 0.04
6 2 4 1 o 15377.153 18397.564 180.00 1.30587 0.53
4 5 5 1 o 12131.709 15126.876 180.00 1.30527 0.40
0 3 7 1 o 3378.567 4788.730 180.00 1.30446 0.06
5 5 4 2 o 4111.472 5741.183 0.00 1.30698 0.06
5 7 2 1 o 484.367 761.016 180.00 1.30366 0.02
2 1 7 2 o 1067.238 1456.629 0.00 1.30632 0.02
6 2 4 2 o 14015.267 18397.564 180.00 1.30587 0.23
4 2 6 1 o 332.559 403.146 0.00 1.30209 0.01
4 5 5 2 o 12207.144 15126.876 180.00 1.30527 0.20
7 3 1 1 o 17984.740 21562.133 0.00 1.30156 0.56
6 6 0 1 o 54881.71 67354.41 180.00 1.30146 1.02
0 3 7 2 o 3890.912 4788.730 180.00 1.30446 0.03
5 7 2 2 o 523.218 761.016 180.00 1.30366 0.01
2 7 5 1 o 978.641 1476.865 0.00 1.29971 0.03
4 2 6 2 o 309.891 403.146 0.00 1.30209 0.00
7 3 1 2 o 17531.660 21562.133 0.00 1.30156 0.27
6 6 0 2 o 53799.30 67354.41 180.00 1.30146 0.50
5 3 5 1 o 21516.977 27488.574 180.00 1.29708 0.77
2 7 5 2 o 1202.688 1476.865 0.00 1.29971 0.02
7 2 2 1 o 188.047 231.615 0.00 1.29624 0.01
3 9 2 1 o 9191.398 11036.882 180.00 1.29629 0.32
2 9 3 1 o 10370.769 13108.433 0.00 1.29536 0.38
0 6 6 1 o 42.276 44.514 180.00 1.29475 0.00
5 3 5 2 o 20175.920 27488.574 180.00 1.29708 0.35
7 2 2 2 o 176.942 231.615 0.00 1.29624 0.00
3 9 2 2 o 8802.039 11036.882 180.00 1.29629 0.15
1 3 7 1 o 828.357 1189.711 0.00 1.29264 0.03
2 9 3 2 o 8635.828 13108.433 0.00 1.29536 0.15
0 6 6 2 o 41.507 44.514 180.00 1.29475 0.00
6 6 1 1 o 20663.762 24618.016 180.00 1.28954 0.74
1 3 7 2 o 994.602 1189.711 0.00 1.29264 0.02
2 2 7 1 o 28.204 58.718 0.00 1.28797 0.00
2 10 0 1 o 21104.279 24561.221 180.00 1.28691 0.39
6 6 1 2 o 18822.760 24618.016 180.00 1.28954 0.33
0 10 2 1 o 3508.608 4604.616 0.00 1.28619 0.06
2 2 7 2 o 10.086 58.718 0.00 1.28797 0.00
2 10 0 2 o 17961.693 24561.221 180.00 1.28691 0.16
1 6 6 1 o 747.670 1316.239 0.00 1.28319 0.03
0 10 2 2 o 2898.952 4604.616 0.00 1.28619 0.02
1 6 6 2 o 184.895 1316.239 0.00 1.28319 0.00
6 3 4 1 o 3104.804 3533.459 180.00 1.27574 0.08
2 10 1 1 o 8700.616 9479.613 180.00 1.27539 0.36
1 10 2 1 o 16445.029 16076.163 180.00 1.27486 0.68
6 3 4 2 o 3454.576 3533.459 180.00 1.27574 0.05
4 3 6 1 o 7.842 11.428 180.00 1.27221 0.00
2 10 1 2 o 8871.703 9479.613 180.00 1.27539 0.18
1 10 2 2 o 15870.032 16076.163 180.00 1.27486 0.33
4 3 6 2 o -9.154 11.428 180.00 1.27221 0.00
4 7 4 1 o 479.885 915.663 180.00 1.26712 0.03
7 3 2 1 o 797.164 1354.143 0.00 1.26675 0.03
4 7 4 2 o 796.268 915.663 180.00 1.26712 0.02
7 3 2 2 o 1109.558 1354.143 0.00 1.26675 0.02
4 9 0 1 o 6733.651 7423.525 180.00 1.26308 0.13
6 5 3 1 o 9153.459 9926.153 0.00 1.26250 0.31
7 4 1 1 o 1804.964 1697.836 180.00 1.26034 0.07
4 9 0 2 o 7626.243 7423.525 180.00 1.26308 0.07
4 8 3 1 o 1748.567 1788.833 0.00 1.25971 0.07
6 5 3 2 o 9171.149 9926.153 0.00 1.26250 0.15
2 3 7 1 o 1696.133 1872.576 0.00 1.25903 0.06
3 8 4 1 o 1820.190 2017.318 180.00 1.25852 0.07
3 5 6 1 o 9134.588 10199.040 180.00 1.25789 0.29
7 4 1 2 o 1468.673 1697.836 180.00 1.26034 0.03
7 1 3 1 o 10172.949 11250.308 180.00 1.25674 0.37
4 8 3 2 o 1636.199 1788.833 0.00 1.25971 0.03
5 4 5 1 o 1664.149 1831.786 180.00 1.25627 0.06
2 3 7 2 o 1641.438 1872.576 0.00 1.25903 0.03
6 6 2 1 o 14815.140 17372.242 180.00 1.25566 0.48
3 8 4 2 o 1665.165 2017.318 180.00 1.25852 0.03
3 5 6 2 o 8369.706 10199.040 180.00 1.25789 0.13
7 1 3 2 o 8740.200 11250.308 180.00 1.25674 0.15
5 4 5 2 o 1521.464 1831.786 180.00 1.25627 0.03
6 6 2 2 o 14313.460 17372.242 180.00 1.25566 0.23
1 4 7 1 o 9307.746 11633.793 0.00 1.25223 0.31
4 9 1 1 o 5482.298 6820.712 180.00 1.25218 0.19
5 8 1 1 o 13607.319 15527.901 180.00 1.25039 0.47
2 6 6 1 o 5110.516 5847.200 180.00 1.25030 0.17
3 1 7 1 o 746.693 889.277 180.00 1.25003 0.03
1 9 4 1 o 2317.883 2647.835 0.00 1.24968 0.07
1 4 7 2 o 9604.271 11633.793 0.00 1.25223 0.16
4 9 1 2 o 5677.708 6820.712 180.00 1.25218 0.10
5 8 1 2 o 13585.330 15527.901 180.00 1.25039 0.23
2 6 6 2 o 5120.245 5847.200 180.00 1.25030 0.08
3 1 7 2 o 760.421 889.277 180.00 1.25003 0.01
5 7 3 1 o 29283.525 33385.934 180.00 1.24687 1.04
1 9 4 2 o 2382.024 2647.835 0.00 1.24968 0.04
1 8 5 1 o 625.945 685.002 180.00 1.24641 0.02
3 7 5 1 o 2360.206 2609.247 0.00 1.24423 0.09
5 7 3 2 o 29485.209 33385.934 180.00 1.24687 0.52
1 8 5 2 o 604.229 685.002 180.00 1.24641 0.01
5 6 4 1 o 1880.168 2247.473 0.00 1.24314 0.06
2 10 2 1 o 18912.770 24057.568 180.00 1.24258 0.72
4 6 5 1 o 3370.691 3911.713 180.00 1.24167 0.11
3 7 5 2 o 2305.434 2609.247 0.00 1.24423 0.04
7 2 3 1 o 3794.367 4322.027 0.00 1.24037 0.13
3 9 3 1 o 198.328 246.038 180.00 1.24041 0.01
5 6 4 2 o 1983.698 2247.473 0.00 1.24314 0.03
2 10 2 2 o 21435.928 24057.568 180.00 1.24258 0.42
4 6 5 2 o 3965.093 3911.713 180.00 1.24167 0.07
7 2 3 2 o 4697.629 4322.027 0.00 1.24037 0.08
3 9 3 2 o 280.735 246.038 180.00 1.24041 0.01
6 4 4 1 o 50915.30 47062.39 180.00 1.23685 1.75
3 2 7 1 o 33488.465 33009.082 0.00 1.23392 1.17
6 4 4 2 o 47800.57 47062.39 180.00 1.23685 0.81
4 4 6 1 o 844.927 833.587 180.00 1.23364 0.02
3 2 7 2 o 33303.207 33009.082 0.00 1.23392 0.58
4 4 6 2 o 829.232 833.587 180.00 1.23364 0.01
7 4 2 1 o 29915.955 31945.176 0.00 1.22865 0.96
6 7 0 1 o 1539.044 1740.622 180.00 1.22787 0.04
5 0 6 1 o 40267.32 43559.97 0.00 1.22671 0.63
7 4 2 2 o 30000.262 31945.176 0.00 1.22865 0.48
6 7 0 2 o 1900.936 1740.622 180.00 1.22787 0.02
5 0 6 2 o 44765.07 43559.97 0.00 1.22671 0.36
6 1 5 1 o 26082.146 25129.951 0.00 1.22328 0.84
3 10 1 1 o 5585.058 5203.473 180.00 1.22284 0.24
5 1 6 1 o 29234.211 27983.584 0.00 1.22157 0.95
2 4 7 1 o 424.409 403.796 0.00 1.22160 0.02
1 10 3 1 o 12672.924 12064.854 0.00 1.22160 0.53
4 9 2 1 o 415.427 402.070 180.00 1.22109 0.02
6 1 5 2 o 25566.725 25129.951 0.00 1.22328 0.41
3 10 1 2 o 5628.770 5203.473 180.00 1.22284 0.12
5 8 2 1 o 22.024 20.697 180.00 1.21942 0.00
2 9 4 1 o 56258.56 51761.24 0.00 1.21923 2.04
5 1 6 2 o 29960.508 27983.584 0.00 1.22157 0.49
2 4 7 2 o 435.283 403.796 0.00 1.22160 0.01
1 10 3 2 o 13000.583 12064.854 0.00 1.22160 0.27
4 9 2 2 o 447.184 402.070 180.00 1.22109 0.01
6 7 1 1 o 1516.713 1371.872 0.00 1.21785 0.05
5 8 2 2 o 21.579 20.697 180.00 1.21942 0.00
2 9 4 2 o 54735.64 51761.24 0.00 1.21923 0.98
2 8 5 1 o 38660.50 36605.06 0.00 1.21619 1.33
0 5 7 1 o 2105.481 2117.972 180.00 1.21502 0.03
6 7 1 2 o 1350.844 1371.872 0.00 1.21785 0.02
7 3 3 1 o 81227.55 83705.11 0.00 1.21446 2.61
2 8 5 2 o 37370.92 36605.06 0.00 1.21619 0.64
7 5 1 1 o 150.962 150.064 0.00 1.21268 0.00
1 7 6 1 o 49.182 48.312 180.00 1.21250 0.00
0 5 7 2 o 2154.596 2117.972 180.00 1.21502 0.02
7 3 3 2 o 86053.70 83705.11 0.00 1.21446 1.39
7 5 1 2 o 151.933 150.064 0.00 1.21268 0.00
1 7 6 2 o 50.962 48.312 180.00 1.21250 0.00
5 5 5 1 o 18292.826 18011.281 180.00 1.20905 0.63
3 3 7 1 o 116861.27 119961.01 0.00 1.20840 3.71
6 2 5 1 o 44144.34 46000.03 180.00 1.20817 1.36
5 2 6 1 o 10340.702 10573.499 0.00 1.20652 0.32
5 5 5 2 o 17795.754 18011.281 180.00 1.20905 0.30
3 3 7 2 o 117065.69 119961.01 0.00 1.20840 1.85
1 5 7 1 o 6065.053 6200.201 180.00 1.20545 0.18
6 2 5 2 o 44679.58 46000.03 180.00 1.20817 0.69
6 6 3 1 o 8011.890 8217.340 0.00 1.20468 0.26
0 11 1 1 o 98693.38 101860.59 180.00 1.20444 1.83
5 2 6 2 o 10364.201 10573.499 0.00 1.20652 0.16
8 0 0 1 o 110716.40 110562.54 0.00 1.20318 0.85
1 5 7 2 o 6528.560 6200.201 180.00 1.20545 0.10
6 6 3 2 o 8468.698 8217.340 0.00 1.20468 0.14
0 11 1 2 o 105889.78 101860.59 180.00 1.20444 1.00
3 6 6 1 o 49412.85 48780.27 180.00 1.20067 1.58
8 0 0 2 o 109269.33 110562.54 0.00 1.20318 0.41
8 1 0 1 o 23720.424 22018.998 0.00 1.19833 0.39
3 6 6 2 o 51442.53 48780.27 180.00 1.20067 0.83
8 1 0 2 o 25085.553 22018.998 0.00 1.19833 0.21
1 11 1 1 o 16037.874 13911.505 180.00 1.19512 0.61
0 0 8 1 o 49019.22 46804.80 0.00 1.19380 0.39
3 10 2 1 o 56520.15 53812.60 180.00 1.19384 1.99
2 10 3 1 o 2992.517 3075.250 0.00 1.19311 0.11
1 11 1 2 o 14413.697 13911.505 180.00 1.19512 0.27
6 5 4 1 o 33126.020 32028.967 0.00 1.19171 1.00
7 0 4 1 o 34786.078 33759.430 180.00 1.19158 0.53
0 0 8 2 o 48789.68 46804.80 0.00 1.19380 0.19
3 10 2 2 o 55803.36 53812.60 180.00 1.19384 0.97
2 10 3 2 o 3274.777 3075.250 0.00 1.19311 0.06
4 8 4 1 o 65014.77 64451.40 0.00 1.18936 2.23
6 7 2 1 o 1958.799 1973.511 0.00 1.18919 0.08
8 1 1 1 o 759.478 776.456 180.00 1.18901 0.02
4 5 6 1 o 591.167 606.128 180.00 1.18884 0.01
6 5 4 2 o 30998.828 32028.967 0.00 1.19171 0.46
7 0 4 2 o 32681.178 33759.430 180.00 1.19158 0.24
7 1 4 1 o 121.076 112.387 0.00 1.18687 0.00
4 8 4 2 o 69014.72 64451.40 0.00 1.18936 1.19
6 7 2 2 o 2157.642 1973.511 0.00 1.18919 0.05
8 1 1 2 o 841.146 776.456 180.00 1.18901 0.01
4 5 6 2 o 653.519 606.128 180.00 1.18884 0.01
1 0 8 1 o 697.141 549.042 0.00 1.18472 0.01
2 7 6 1 o 545.089 428.288 0.00 1.18463 0.02
7 5 2 1 o 4011.744 3386.190 180.00 1.18438 0.13
6 3 5 1 o 902.472 751.517 180.00 1.18419 0.03
8 2 0 1 o 4883.290 4104.240 0.00 1.18412 0.07
7 1 4 2 o 134.654 112.387 0.00 1.18687 0.00
5 3 6 1 o 9156.729 6419.991 0.00 1.18264 0.30
4 1 7 1 o 2355.067 1584.256 180.00 1.18219 0.07
1 0 8 2 o 912.324 549.042 0.00 1.18472 0.01
2 7 6 2 o 725.446 428.288 0.00 1.18463 0.01
7 5 2 2 o 5059.077 3386.190 180.00 1.18438 0.08
6 3 5 2 o 1113.863 751.517 180.00 1.18419 0.02
8 2 0 2 o 5839.454 4104.240 0.00 1.18412 0.05
7 4 3 1 o 1032.444 740.397 180.00 1.18077 0.03
1 1 8 1 o 14428.117 12107.574 180.00 1.18009 0.45
5 3 6 2 o 7353.374 6419.991 0.00 1.18264 0.11
4 1 7 2 o 1875.644 1584.256 180.00 1.18219 0.03
5 7 4 1 o 0.241 0.235 180.00 1.17854 0.00
2 5 7 1 o 1509.320 1153.020 0.00 1.17806 0.05
7 4 3 2 o 959.124 740.397 180.00 1.18077 0.02
4 7 5 1 o 27086.621 23251.811 0.00 1.17729 0.89
1 1 8 2 o 13761.873 12107.574 180.00 1.18009 0.21
2 11 0 1 o 19452.426 16782.809 0.00 1.17725 0.36
5 7 4 2 o 0.235 0.235 180.00 1.17854 0.00
8 2 1 1 o 12544.223 11761.094 0.00 1.17512 0.38
3 4 7 1 o 3540.891 3341.955 180.00 1.17520 0.11
0 2 8 1 o 292.966 277.993 180.00 1.17517 0.00
2 5 7 2 o 1224.737 1153.020 0.00 1.17806 0.02
4 7 5 2 o 24342.035 23251.811 0.00 1.17729 0.39
2 11 0 2 o 17536.391 16782.809 0.00 1.17725 0.16
4 9 3 1 o 18032.156 17702.678 180.00 1.17405 0.60
7 2 4 1 o 4542.317 4302.724 180.00 1.17305 0.14
3 9 4 1 o 3182.790 3023.764 180.00 1.17308 0.11
5 8 3 1 o 28614.928 27345.150 180.00 1.17257 0.94
8 2 1 2 o 11831.557 11761.094 0.00 1.17512 0.17
3 4 7 2 o 3382.523 3341.955 180.00 1.17520 0.05
0 2 8 2 o 280.206 277.993 180.00 1.17517 0.00
0 9 5 1 o 215.440 211.893 180.00 1.17185 0.00
4 9 3 2 o 18806.547 17702.678 180.00 1.17405 0.31
3 8 5 1 o 1464.123 1369.579 0.00 1.17038 0.05
7 2 4 2 o 4581.912 4302.724 180.00 1.17305 0.07
3 9 4 2 o 3221.531 3023.764 180.00 1.17308 0.06
5 8 3 2 o 29477.127 27345.150 180.00 1.17257 0.48
0 9 5 2 o 225.745 211.893 180.00 1.17185 0.00
4 2 7 1 o 107.442 104.899 180.00 1.16854 0.00
2 11 1 1 o 9068.930 8871.373 0.00 1.16840 0.32
1 11 2 1 o 7838.470 7632.575 180.00 1.16800 0.27
4 10 0 1 o 115115.55 113670.34 0.00 1.16775 1.95
3 8 5 2 o 1377.216 1369.579 0.00 1.17038 0.02
8 0 2 1 o 23298.406 21080.443 0.00 1.16672 0.34
1 2 8 1 o 24000.576 21613.217 0.00 1.16650 0.72
5 9 1 1 o 786.148 675.714 0.00 1.16649 0.04
4 2 7 2 o 107.426 104.899 180.00 1.16854 0.00
0 10 4 1 o 103540.55 102104.65 0.00 1.16558 1.78
2 11 1 2 o 8940.078 8871.373 0.00 1.16840 0.15
1 11 2 2 o 7424.339 7632.575 180.00 1.16800 0.13
4 10 0 2 o 110209.57 113670.34 0.00 1.16775 0.92
8 0 2 2 o 22529.145 21080.443 0.00 1.16672 0.16
1 2 8 2 o 23019.846 21613.217 0.00 1.16650 0.34
5 9 1 2 o 740.550 675.714 0.00 1.16649 0.02
1 9 5 1 o 5502.076 5241.876 180.00 1.16326 0.17
0 10 4 2 o 107216.88 102104.65 0.00 1.16558 0.92
8 1 2 1 o 5.662 2.327 180.00 1.16229 0.00
8 3 0 1 o 13013.348 10410.963 0.00 1.16151 0.22
7 6 1 1 o 470.398 385.300 180.00 1.16117 0.01
1 9 5 2 o 6662.514 5241.876 180.00 1.16326 0.11
8 1 2 2 o 25.299 2.327 180.00 1.16229 0.00
4 10 1 1 o 1452.211 882.000 180.00 1.15912 0.05
8 3 0 2 o 16419.297 10410.963 0.00 1.16151 0.14
2 0 8 1 o 3270.883 1966.996 0.00 1.15868 0.06
7 6 1 2 o 559.962 385.300 180.00 1.16117 0.01
5 6 5 1 o 1223.607 809.773 180.00 1.15798 0.03
1 10 4 1 o 877.052 614.427 0.00 1.15713 0.03
6 8 0 1 o 36405.59 28959.988 180.00 1.15673 0.58
4 10 1 2 o 1090.227 882.000 180.00 1.15912 0.02
2 0 8 2 o 2585.275 1966.996 0.00 1.15868 0.02
5 6 5 2 o 952.559 809.773 180.00 1.15798 0.01
1 6 7 1 o 12554.607 10668.298 0.00 1.15482 0.35
2 1 8 1 o 15331.896 13770.649 180.00 1.15435 0.44
1 10 4 2 o 678.488 614.427 0.00 1.15713 0.01
6 8 0 2 o 30123.324 28959.988 180.00 1.15673 0.23
8 3 1 1 o 68072.71 64991.00 180.00 1.15301 1.99
6 4 5 1 o 8110.378 7851.100 0.00 1.15289 0.24
1 6 7 2 o 10887.607 10668.298 0.00 1.15482 0.14
0 8 6 1 o 5262.815 5118.393 180.00 1.15201 0.10
2 1 8 2 o 14266.384 13770.649 180.00 1.15435 0.20
5 4 6 1 o 1911.987 1832.614 0.00 1.15146 0.06
7 3 4 1 o 564.536 511.935 0.00 1.15106 0.02
8 3 1 2 o 72152.38 64991.00 180.00 1.15301 1.07
6 4 5 2 o 8663.374 7851.100 0.00 1.15289 0.13
3 10 3 1 o 211.632 202.609 180.00 1.14977 0.00
8 2 2 1 o 13474.449 11914.559 0.00 1.14931 0.40
0 8 6 2 o 5930.575 5118.393 180.00 1.15201 0.06
5 4 6 2 o 2090.496 1832.614 0.00 1.15146 0.03
6 8 1 1 o 20534.996 18060.061 0.00 1.14834 0.66
7 3 4 2 o 593.076 511.935 0.00 1.15106 0.01
4 3 7 1 o 770.172 596.888 180.00 1.14680 0.02
3 10 3 2 o 224.464 202.609 180.00 1.14977 0.00
8 2 2 2 o 15009.862 11914.559 0.00 1.14931 0.23
6 7 3 1 o 26258.455 22892.896 0.00 1.14561 0.82
6 8 1 2 o 20687.191 18060.061 0.00 1.14834 0.33
1 3 8 1 o 4245.334 3505.407 180.00 1.14487 0.13
4 3 7 2 o 857.676 596.888 180.00 1.14680 0.01
1 8 6 1 o 1372.368 964.329 0.00 1.14385 0.05
2 11 2 1 o 49.601 46.550 0.00 1.14302 0.00
6 7 3 2 o 25823.137 22892.896 0.00 1.14561 0.40
6 6 4 1 o 521.611 466.602 180.00 1.14272 0.02
3 7 6 1 o 5.441 4.343 180.00 1.14217 0.00
1 3 8 2 o 4003.527 3505.407 180.00 1.14487 0.06
2 2 8 1 o 249.656 217.017 180.00 1.14163 0.01
7 5 3 1 o 19974.711 17301.316 0.00 1.14131 0.64
5 9 2 1 o 47339.97 41910.12 180.00 1.14123 1.53
1 8 6 2 o 1058.708 964.329 0.00 1.14385 0.02
4 6 6 1 o 21789.736 20241.545 0.00 1.14018 0.66
2 11 2 2 o 47.896 46.550 0.00 1.14302 0.00
6 6 4 2 o 485.524 466.602 180.00 1.14272 0.01
3 7 6 2 o 4.431 4.343 180.00 1.14217 0.00
2 2 8 2 o 219.487 217.017 180.00 1.14163 0.00
7 5 3 2 o 17151.035 17301.316 0.00 1.14131 0.27
2 9 5 1 o 6897.204 6919.206 0.00 1.13858 0.22
5 9 2 2 o 41401.28 41910.12 180.00 1.14123 0.64
4 6 6 2 o 19994.143 20241.545 0.00 1.14018 0.30
7 6 2 1 o 31621.000 32532.516 180.00 1.13625 0.91
3 5 7 1 o 30413.395 31190.053 0.00 1.13627 0.92
2 9 5 2 o 6287.559 6919.206 0.00 1.13858 0.10
0 11 3 1 o 39.376 40.090 0.00 1.13443 0.00
4 10 2 1 o 18660.871 18700.463 0.00 1.13432 0.57
7 6 2 2 o 30932.678 32532.516 180.00 1.13625 0.44
3 5 7 2 o 29682.916 31190.053 0.00 1.13627 0.44
2 10 4 1 o 1310.822 1547.773 180.00 1.13284 0.03
8 4 0 1 o 2467.588 2626.114 180.00 1.13193 0.03
0 11 3 2 o 39.743 40.090 0.00 1.13443 0.00
4 10 2 2 o 18716.109 18700.463 0.00 1.13432 0.29
2 6 7 1 o 27.876 26.329 0.00 1.13066 0.00
6 0 6 1 o 373.776 220.176 180.00 1.12992 0.01
2 10 4 2 o 2063.497 1547.773 180.00 1.13284 0.03
8 4 0 2 o 4076.383 2626.114 180.00 1.13193 0.03
8 3 2 1 o 691.729 360.446 180.00 1.12860 0.03
2 6 7 2 o 34.101 26.329 0.00 1.13066 0.00
3 11 1 1 o 12648.183 8863.730 180.00 1.12761 0.45
6 0 6 2 o 302.846 220.176 180.00 1.12992 0.00
1 11 3 1 o 31869.564 27699.115 180.00 1.12663 1.05
6 1 6 1 o 15281.558 13766.498 180.00 1.12590 0.46
8 3 2 2 o 424.100 360.446 180.00 1.12860 0.01
3 11 1 2 o 9295.074 8863.730 180.00 1.12761 0.16
7 4 4 1 o 66.653 58.885 180.00 1.12225 0.00
6 8 2 1 o 21268.848 21616.766 180.00 1.12422 0.67
8 4 1 1 o 1985.079 2047.728 180.00 1.12406 0.05
0 4 8 1 o 30587.947 31526.533 180.00 1.12411 0.47
8 1 3 1 o 20296.695 20623.285 180.00 1.12151 0.55
1 11 3 2 o 26626.264 27699.115 180.00 1.12663 0.42
6 8 2 2 o 20945.012 21616.766 180.00 1.12422 0.33
8 4 1 2 o 1916.096 2047.728 180.00 1.12406 0.03
2 3 8 1 o 3188.259 3375.850 180.00 1.12133 0.08
0 4 8 2 o 29603.365 31526.533 180.00 1.12411 0.22
6 1 6 2 o 13981.993 13766.498 180.00 1.12590 0.21
2 8 6 1 o 10023.531 11091.033 180.00 1.12036 0.34
7 4 4 2 o 58.110 58.885 180.00 1.12225 0.00
3 0 8 1 o 60930.03 62943.85 180.00 1.11886 0.82
8 1 3 2 o 19802.441 20623.285 180.00 1.12151 0.26
2 3 8 2 o 3206.983 3375.850 180.00 1.12133 0.04
4 4 7 1 o 1.888 2.164 180.00 1.11830 0.00
2 8 6 2 o 9981.484 11091.033 180.00 1.12036 0.17
1 4 8 1 o 37837.21 39348.70 0.00 1.11652 1.03
4 9 4 1 o 6173.972 6477.724 0.00 1.11648 0.20
3 0 8 2 o 57601.36 62943.85 180.00 1.11886 0.38
6 5 5 1 o 1724.440 1881.145 0.00 1.11607 0.05
4 4 7 2 o 1.896 2.164 180.00 1.11830 0.00
5 8 4 1 o 2719.341 2767.658 0.00 1.11521 0.08
3 1 8 1 o 4867.705 4850.068 0.00 1.11495 0.13
5 5 6 1 o 28960.266 29149.893 180.00 1.11477 0.81
6 2 6 1 o 5481.972 5829.664 180.00 1.11409 0.15
4 8 5 1 o 2414.785 2561.946 0.00 1.11414 0.07
1 4 8 2 o 37354.71 39348.70 0.00 1.11652 0.50
4 9 4 2 o 6119.974 6477.724 0.00 1.11648 0.10
6 5 5 2 o 1799.249 1881.145 0.00 1.11607 0.02
0 12 0 1 o 1603.854 1595.329 0.00 1.11295 0.01
5 8 4 2 o 2999.985 2767.658 0.00 1.11521 0.04
3 1 8 2 o 5192.182 4850.068 0.00 1.11495 0.07
7 1 5 1 o 28752.135 27299.777 0.00 1.11209 0.85
5 5 6 2 o 30239.850 29149.893 180.00 1.11477 0.43
6 2 6 2 o 5965.842 5829.664 180.00 1.11409 0.08
4 8 5 2 o 2601.518 2561.946 0.00 1.11414 0.04
0 12 0 2 o 1910.023 1595.329 0.00 1.11295 0.01
8 2 3 1 o 3417.916 2832.843 180.00 1.10983 0.09
0 7 7 1 o 121.602 103.250 180.00 1.10979 0.00
7 1 5 2 o 30827.822 27299.777 0.00 1.11209 0.46
5 1 7 1 o 6587.920 5871.357 180.00 1.10929 0.20
7 7 1 1 o 9811.143 8705.724 180.00 1.10800 0.27
8 2 3 2 o 3767.171 2832.843 180.00 1.10983 0.05
0 7 7 2 o 135.331 103.250 180.00 1.10979 0.00
5 1 7 2 o 8675.096 5871.357 180.00 1.10929 0.14
7 7 1 2 o 12029.058 8705.724 180.00 1.10800 0.17
5 7 5 1 o 2553.312 1913.631 180.00 1.10523 0.07
3 11 2 1 o 3838.219 3362.620 0.00 1.10474 0.13
2 11 3 1 o 12978.347 12585.681 0.00 1.10417 0.41
3 2 8 1 o 5802.243 5713.352 180.00 1.10348 0.16
5 7 5 2 o 1818.591 1913.631 180.00 1.10523 0.02
5 9 3 1 o 5759.630 6145.729 180.00 1.10255 0.20
1 7 7 1 o 59761.49 63805.86 180.00 1.10248 1.68
3 11 2 2 o 2898.265 3362.620 0.00 1.10474 0.04
8 4 2 1 o 5317.466 5761.370 0.00 1.10141 0.15
2 11 3 2 o 11537.028 12585.681 0.00 1.10417 0.18
3 2 8 2 o 5591.540 5713.352 180.00 1.10348 0.07
7 2 5 1 o 769.896 792.272 180.00 1.10070 0.02
3 9 5 1 o 13259.768 13584.897 0.00 1.10073 0.41
5 9 3 2 o 5639.911 6145.729 180.00 1.10255 0.10
1 7 7 2 o 59215.13 63805.86 180.00 1.10248 0.83
8 4 2 2 o 5512.351 5761.370 0.00 1.10141 0.08
7 6 3 1 o 2500.280 2696.213 180.00 1.09805 0.08
7 2 5 2 o 719.205 792.272 180.00 1.10070 0.01
1 12 1 1 o 15415.485 15995.130 180.00 1.09825 0.52
5 2 7 1 o 46338.61 50555.47 0.00 1.09799 1.27
3 9 5 2 o 12550.614 13584.897 0.00 1.10073 0.19
8 5 0 1 o 21703.639 24779.629 180.00 1.09703 0.31
4 10 3 1 o 203.513 220.917 0.00 1.09632 0.01
3 10 4 1 o 19471.768 20277.002 180.00 1.09553 0.58
7 6 3 2 o 2576.658 2696.213 180.00 1.09805 0.04
1 12 1 2 o 15317.415 15995.130 180.00 1.09825 0.26
5 2 7 2 o 48390.23 50555.47 0.00 1.09799 0.67
6 3 6 1 o 6023.792 6332.405 180.00 1.09520 0.19
2 4 8 1 o 6985.021 7321.780 180.00 1.09464 0.23
8 5 0 2 o 23258.332 24779.629 180.00 1.09703 0.17
3 6 7 1 o 13858.306 14757.625 180.00 1.09357 0.42
4 10 3 2 o 208.084 220.917 0.00 1.09632 0.00
3 10 4 2 o 19991.488 20277.002 180.00 1.09553 0.30
6 3 6 2 o 6590.161 6332.405 180.00 1.09520 0.10
2 4 8 2 o 8475.892 7321.780 180.00 1.09464 0.14
6 7 4 1 o 2065.278 1758.302 180.00 1.09194 0.08
8 3 3 1 o 264.958 217.938 180.00 1.09115 0.01
3 6 7 2 o 18110.916 14757.625 180.00 1.09357 0.28
5 10 1 1 o 5071.206 4503.049 180.00 1.09016 0.17
8 5 1 1 o 20312.084 18738.236 180.00 1.08986 0.57
4 7 6 1 o 261.955 235.908 0.00 1.08973 0.01
6 9 0 1 o 42482.92 40342.63 0.00 1.08935 0.64
6 7 4 2 o 1850.889 1758.302 180.00 1.09194 0.03
8 3 3 2 o 216.479 217.938 180.00 1.09115 0.00
7 5 4 1 o 380.229 367.514 180.00 1.08821 0.01
1 10 5 1 o 5556.748 4973.968 180.00 1.08752 0.21
5 10 1 2 o 4949.088 4503.049 180.00 1.09016 0.08
8 5 1 2 o 19817.135 18738.236 180.00 1.08986 0.27
6 8 3 1 o 6149.921 5806.802 180.00 1.08719 0.18
4 7 6 2 o 250.874 235.908 0.00 1.08973 0.01
6 9 0 2 o 41724.54 40342.63 0.00 1.08935 0.31
7 7 2 1 o 67.469 62.339 180.00 1.08629 0.00
7 5 4 2 o 366.995 367.514 180.00 1.08821 0.00
3 3 8 1 o 1134.285 1214.201 0.00 1.08511 0.03
1 10 5 2 o 4576.425 4973.968 180.00 1.08752 0.09
4 5 7 1 o 1134.198 1202.360 180.00 1.08460 0.03
6 8 3 2 o 5479.179 5806.802 180.00 1.08719 0.08
3 8 6 1 o 32874.750 36023.93 180.00 1.08424 0.92
2 12 0 1 o 23264.418 25263.990 180.00 1.08434 0.40
4 11 0 1 o 2336.636 2782.376 0.00 1.08397 0.04
0 12 2 1 o 14169.337 17001.553 0.00 1.08390 0.24
7 7 2 2 o 45.989 62.339 180.00 1.08629 0.00
1 5 8 1 o 11802.353 14632.041 0.00 1.08298 0.30
7 3 5 1 o -3.544 0.436 0.00 1.08247 0.00
3 3 8 2 o 999.280 1214.201 0.00 1.08511 0.01
6 9 1 1 o 12691.135 15172.925 0.00 1.08234 0.35
4 5 7 2 o 1040.346 1202.360 180.00 1.08460 0.01
3 8 6 2 o 31473.592 36023.93 180.00 1.08424 0.43
2 12 0 2 o 21862.654 25263.990 180.00 1.08434 0.18
2 7 7 1 o 919.120 1061.677 0.00 1.08141 0.02
4 11 0 2 o 2318.439 2782.376 0.00 1.08397 0.02
0 12 2 2 o 14213.072 17001.553 0.00 1.08390 0.12
1 5 8 2 o 14699.760 14632.041 0.00 1.08298 0.20
5 3 7 1 o 24439.338 23513.234 180.00 1.07989 0.62
7 3 5 2 o 1.218 0.436 0.00 1.08247 0.00
6 9 1 2 o 15521.503 15172.925 0.00 1.08234 0.22
2 7 7 2 o 1188.269 1061.677 0.00 1.08141 0.02
1 9 6 1 o 16954.307 15096.666 180.00 1.07858 0.50
5 3 7 2 o 27566.914 23513.234 180.00 1.07989 0.36
2 12 1 1 o 28582.490 23800.633 0.00 1.07742 0.92
4 11 1 1 o 1625.909 1409.658 0.00 1.07706 0.05
1 12 2 1 o 486.317 416.095 0.00 1.07710 0.02
1 9 6 2 o 15896.300 15096.666 180.00 1.07858 0.23
6 6 5 1 o 20558.311 19329.396 0.00 1.07553 0.57
1 11 4 1 o 1585.110 1483.705 180.00 1.07546 0.05
2 12 1 2 o 26061.188 23800.633 0.00 1.07742 0.41
8 0 4 1 o 5679.326 5388.640 180.00 1.07447 0.07
5 6 6 1 o 18282.047 17675.166 0.00 1.07436 0.50
4 11 1 2 o 1472.954 1409.658 0.00 1.07706 0.02
1 12 2 2 o 439.102 416.095 0.00 1.07710 0.01
6 6 5 2 o 20401.209 19329.396 0.00 1.07553 0.28
1 11 4 2 o 1580.295 1483.705 180.00 1.07546 0.03
8 0 4 2 o 5999.167 5388.640 180.00 1.07447 0.04
5 6 6 2 o 19655.756 17675.166 0.00 1.07436 0.27
8 1 4 1 o 3485.016 3165.657 180.00 1.07101 0.08
6 4 6 1 o 5576.757 5729.049 180.00 1.07030 0.13
4 0 8 1 o 9354.901 10286.313 180.00 1.06943 0.11
3 11 3 1 o 5006.988 5462.792 180.00 1.06954 0.14
5 10 2 1 o 11315.830 12532.737 0.00 1.06946 0.32
8 5 2 1 o 7.239 7.542 180.00 1.06917 0.00
8 1 4 2 o 2570.974 3165.657 180.00 1.07101 0.02
6 4 6 2 o 5136.153 5729.049 180.00 1.07030 0.06
2 10 5 1 o 6136.348 6258.241 0.00 1.06727 0.18
4 0 8 2 o 9130.854 10286.313 180.00 1.06943 0.05
3 11 3 2 o 5092.322 5462.792 180.00 1.06954 0.07
5 10 2 2 o 11150.880 12532.737 0.00 1.06946 0.16
8 5 2 2 o 6.959 7.542 180.00 1.06917 0.00
8 4 3 1 o 294.080 388.372 0.00 1.06652 0.01
4 1 8 1 o 40.841 41.524 180.00 1.06602 0.00
2 10 5 2 o 3705.003 6258.241 0.00 1.06727 0.04
8 4 3 2 o 212.517 388.372 0.00 1.06652 0.00
4 1 8 2 o 40.323 41.524 180.00 1.06602 0.00
2 5 8 1 o 11764.479 16478.342 0.00 1.06298 0.26
6 9 2 1 o 634.998 599.627 0.00 1.06207 0.02
8 2 4 1 o 13681.354 13231.216 0.00 1.06082 0.36
3 4 8 1 o 124.934 120.004 0.00 1.06088 0.00
2 5 8 2 o 15087.713 16478.342 0.00 1.06298 0.19
9 1 1 1 o 284.914 340.883 0.00 1.05950 0.01
6 9 2 2 o 548.016 599.627 0.00 1.06207 0.01
2 9 6 1 o 11405.979 12805.133 0.00 1.05882 0.31
8 6 0 1 o 39228.73 41840.10 0.00 1.05845 0.51
7 4 5 1 o 123.984 133.229 0.00 1.05841 0.00
8 2 4 2 o 12434.567 13231.216 0.00 1.06082 0.16
3 4 8 2 o 112.885 120.004 0.00 1.06088 0.00
0 1 9 1 o 13057.571 14303.904 0.00 1.05782 0.16
2 12 2 1 o 3690.336 4256.380 180.00 1.05742 0.08
9 1 1 2 o 244.518 340.883 0.00 1.05950 0.01
4 11 2 1 o 356.392 500.933 180.00 1.05708 0.02
2 9 6 2 o 12692.065 12805.133 0.00 1.05882 0.18
5 4 7 1 o 6328.092 6525.879 180.00 1.05600 0.16
4 2 8 1 o 2369.843 2458.564 0.00 1.05597 0.06
8 6 0 2 o 39280.46 41840.10 0.00 1.05845 0.25
7 4 5 2 o 122.458 133.229 0.00 1.05841 0.00
2 11 4 1 o 5827.755 6148.974 180.00 1.05587 0.16
0 1 9 2 o 11864.688 14303.904 0.00 1.05782 0.07
7 8 1 1 o 736.575 946.584 0.00 1.05489 0.02
2 12 2 2 o 3493.360 4256.380 180.00 1.05742 0.04
5 9 4 1 o 3643.288 4978.937 180.00 1.05446 0.09
4 11 2 2 o 297.711 500.933 180.00 1.05708 0.01
4 9 5 1 o 10223.372 12356.382 180.00 1.05356 0.27
5 4 7 2 o 5502.708 6525.879 180.00 1.05600 0.07
4 2 8 2 o 2054.017 2458.564 0.00 1.05597 0.03
2 11 4 2 o 5267.123 6148.974 180.00 1.05587 0.07
7 7 3 1 o 17399.400 19876.857 180.00 1.05277 0.48
5 8 5 1 o 3165.246 3633.751 0.00 1.05249 0.09
7 8 1 2 o 836.525 946.584 0.00 1.05489 0.01
8 6 1 1 o 4880.077 5332.152 180.00 1.05201 0.13
0 6 8 1 o 7919.093 8635.763 0.00 1.05204 0.10
5 9 4 2 o 4609.215 4978.937 180.00 1.05446 0.06
1 1 9 1 o 11984.598 12733.243 180.00 1.05149 0.30
4 9 5 2 o 11465.033 12356.382 180.00 1.05356 0.16
7 6 4 1 o 12867.499 13617.128 180.00 1.05052 0.33
7 7 3 2 o 19108.322 19876.857 180.00 1.05277 0.27
1 8 7 1 o 19194.986 19905.143 180.00 1.05012 0.54
5 8 5 2 o 3540.049 3633.751 0.00 1.05249 0.05
9 2 1 1 o 16542.271 16572.127 0.00 1.04964 0.43
8 6 1 2 o 5429.185 5332.152 180.00 1.05201 0.07
0 6 8 2 o 8759.905 8635.763 0.00 1.05204 0.06
1 1 9 2 o 13156.564 12733.243 180.00 1.05149 0.17
4 10 4 1 o 5444.080 5248.290 180.00 1.04900 0.15
3 7 7 1 o 8211.226 8008.351 180.00 1.04882 0.23
7 6 4 2 o 13852.458 13617.128 180.00 1.05052 0.18
1 8 7 2 o 20343.045 19905.143 180.00 1.05012 0.29
4 6 7 1 o 0.438 0.438 0.00 1.04728 0.00
9 2 1 2 o 18157.602 16572.127 0.00 1.04964 0.24
4 10 4 2 o 5913.684 5248.290 180.00 1.04900 0.08
3 7 7 2 o 8937.694 8008.351 180.00 1.04882 0.13
1 6 8 1 o 1660.321 1679.638 0.00 1.04582 0.04
3 12 1 1 o 1914.736 1878.212 0.00 1.04517 0.05
4 6 7 2 o 0.439 0.438 0.00 1.04728 0.00
8 3 4 1 o 76.930 76.539 180.00 1.04447 0.00
1 12 3 1 o 13837.088 12995.245 180.00 1.04440 0.40
9 0 2 1 o 3459.781 3290.226 0.00 1.04364 0.05
1 6 8 2 o 2085.934 1679.638 0.00 1.04582 0.03
3 12 1 2 o 2222.701 1878.212 0.00 1.04517 0.03
8 3 4 2 o 76.985 76.539 180.00 1.04447 0.00
1 2 9 1 o 3811.291 3367.847 180.00 1.04185 0.12
1 12 3 2 o 14241.578 12995.245 180.00 1.04440 0.20
9 0 2 2 o 3487.992 3290.226 0.00 1.04364 0.02
6 8 4 1 o 13.173 13.168 180.00 1.04100 0.00
6 5 6 1 o 13437.810 12711.114 0.00 1.04064 0.37
7 0 6 1 o 5211.529 5060.053 0.00 1.04056 0.07
9 1 2 1 o 22402.551 22405.805 0.00 1.04047 0.56
4 3 8 1 o 173.494 227.045 0.00 1.03985 0.01
1 2 9 2 o 3040.560 3367.847 180.00 1.04185 0.05
4 8 6 1 o 7333.449 7982.153 0.00 1.03908 0.17
6 8 4 2 o 13.166 13.168 180.00 1.04100 0.00
6 5 6 2 o 12313.234 12711.114 0.00 1.04064 0.17
7 0 6 2 o 4876.140 5060.053 0.00 1.04056 0.03
9 1 2 2 o 21543.365 22405.805 0.00 1.04047 0.27
7 1 6 1 o 838.066 799.896 180.00 1.03741 0.02
5 10 3 1 o 1421.500 1372.931 180.00 1.03743 0.03
4 3 8 2 o 251.957 227.045 0.00 1.03985 0.01
8 5 3 1 o 5362.977 5074.637 180.00 1.03717 0.14
4 8 6 2 o 7990.076 7982.153 0.00 1.03908 0.10
6 1 7 1 o 848.110 936.791 0.00 1.03618 0.02
7 8 2 1 o 19388.723 21885.730 180.00 1.03610 0.51
3 10 5 1 o 299.217 413.533 180.00 1.03591 0.02
7 1 6 2 o 874.159 799.896 180.00 1.03741 0.01
5 10 3 2 o 1467.372 1372.931 180.00 1.03743 0.02
8 5 3 2 o 5687.190 5074.637 180.00 1.03717 0.08
9 3 1 1 o 2876.655 2655.081 180.00 1.03380 0.09
6 1 7 2 o 1004.838 936.791 0.00 1.03618 0.01
7 8 2 2 o 23323.844 21885.730 180.00 1.03610 0.32
8 6 2 1 o 15667.896 14842.637 0.00 1.03337 0.42
3 10 5 2 o 450.570 413.533 180.00 1.03591 0.01
2 1 9 1 o 60.827 59.017 0.00 1.03316 0.00
6 7 5 1 o 20571.855 19956.133 0.00 1.03287 0.54
0 3 9 1 o 27888.029 27637.348 180.00 1.03223 0.35
3 5 8 1 o 5226.519 5416.017 180.00 1.03198 0.13
5 7 6 1 o 2.828 3.105 180.00 1.03184 0.00
2 8 7 1 o 324.104 337.203 180.00 1.03186 0.01
9 3 1 2 o 3057.237 2655.081 180.00 1.03380 0.05
9 2 2 1 o 1313.981 1170.359 0.00 1.03112 0.03
8 6 2 2 o 15758.719 14842.637 0.00 1.03337 0.21
6 9 3 1 o 4861.621 4679.311 0.00 1.03068 0.13
2 1 9 2 o 60.720 59.017 0.00 1.03316 0.00
6 7 5 2 o 21559.230 19956.133 0.00 1.03287 0.29
7 5 5 1 o 719.254 689.015 0.00 1.02971 0.01
0 3 9 2 o 29828.416 27637.348 180.00 1.03223 0.19
3 5 8 2 o 5620.472 5416.017 180.00 1.03198 0.07
5 7 6 2 o 3.458 3.105 180.00 1.03184 0.00
2 8 7 2 o 352.062 337.203 180.00 1.03186 0.01
9 2 2 2 o 1377.339 1170.359 0.00 1.03112 0.02
7 2 6 1 o 17384.045 15786.692 180.00 1.02815 0.45
6 9 3 2 o 5137.423 4679.311 0.00 1.03068 0.07
3 9 6 1 o 7850.124 7090.909 0.00 1.02817 0.22
2 6 8 1 o 26.084 24.213 180.00 1.02777 0.00
5 5 7 1 o 6168.298 5991.073 180.00 1.02748 0.14
7 5 5 2 o 697.772 689.015 0.00 1.02971 0.00
6 2 7 1 o 332.271 315.988 0.00 1.02695 0.01
3 12 2 1 o 3868.092 3673.954 180.00 1.02689 0.11
1 3 9 1 o 9047.895 8650.356 180.00 1.02635 0.24
6 10 0 1 o 32.149 31.427 180.00 1.02641 0.00
2 12 3 1 o 7336.423 6963.591 180.00 1.02643 0.21
4 11 3 1 o 24745.611 24486.395 180.00 1.02612 0.70
7 2 6 2 o 15321.259 15786.692 180.00 1.02815 0.19
3 9 6 2 o 6883.504 7090.909 0.00 1.02817 0.09
3 11 4 1 o 340.396 349.371 0.00 1.02548 0.01
2 6 8 2 o 24.014 24.213 180.00 1.02777 0.00
5 5 7 2 o 6162.854 5991.073 180.00 1.02748 0.07
0 11 5 1 o 12300.431 11529.291 0.00 1.02465 0.18
6 2 7 2 o 338.936 315.988 0.00 1.02695 0.00
3 12 2 2 o 3906.617 3673.954 180.00 1.02689 0.06
2 2 9 1 o 34132.910 33877.461 180.00 1.02401 0.86
1 3 9 2 o 8483.239 8650.356 180.00 1.02635 0.11
6 10 0 2 o 31.261 31.427 180.00 1.02641 0.00
2 12 3 2 o 6897.052 6963.591 180.00 1.02643 0.10
4 11 3 2 o 23884.320 24486.395 180.00 1.02612 0.34
0 10 6 1 o 13992.678 14254.229 0.00 1.02311 0.18
8 4 4 1 o 37388.84 39969.87 0.00 1.02281 0.93
3 11 4 2 o 336.182 349.371 0.00 1.02548 0.00
0 11 5 2 o 10707.468 11529.291 0.00 1.02465 0.08
2 2 9 2 o 34261.773 33877.461 180.00 1.02401 0.43
0 13 1 1 o 3.781 3.752 0.00 1.02145 0.00
5 11 1 1 o 141.194 142.484 0.00 1.02106 0.00
0 10 6 2 o 13890.251 14254.229 0.00 1.02311 0.09
6 10 1 1 o 2765.819 2845.927 0.00 1.02053 0.08
8 4 4 2 o 37892.96 39969.87 0.00 1.02281 0.47
1 11 5 1 o 1735.049 1552.257 180.00 1.01889 0.05
0 13 1 2 o 4.043 3.752 0.00 1.02145 0.00
4 4 8 1 o 8781.795 7954.526 0.00 1.01846 0.20
5 11 1 2 o 154.695 142.484 0.00 1.02106 0.00
6 10 1 2 o 3258.931 2845.927 0.00 1.02053 0.05
8 7 0 1 o 2028.675 1693.015 180.00 1.01772 0.04
1 10 6 1 o 35769.57 33120.813 0.00 1.01738 1.01
1 11 5 2 o 1680.426 1552.257 180.00 1.01889 0.02
9 3 2 1 o 4779.348 4331.260 0.00 1.01609 0.12
4 4 8 2 o 8832.951 7954.526 0.00 1.01846 0.10
1 13 1 1 o 1026.406 909.954 0.00 1.01575 0.03
8 7 0 2 o 1907.010 1693.015 180.00 1.01772 0.02
8 1 5 1 o 26469.162 24826.418 180.00 1.01510 0.68
1 10 6 2 o 33769.969 33120.813 0.00 1.01738 0.47
5 0 8 1 o 22818.189 23571.760 0.00 1.01456 0.28
9 3 2 2 o 4261.065 4331.260 0.00 1.01609 0.05
7 3 6 1 o 495.762 462.284 180.00 1.01325 0.01
1 13 1 2 o 966.641 909.954 0.00 1.01575 0.01
9 4 1 1 o 3057.808 2789.100 180.00 1.01278 0.08
8 1 5 2 o 26631.521 24826.418 180.00 1.01510 0.34
6 3 7 1 o 985.365 930.178 0.00 1.01210 0.02
5 0 8 2 o 25152.371 23571.760 0.00 1.01456 0.16
8 7 1 1 o 572.520 534.234 0.00 1.01199 0.01
5 1 8 1 o 9534.012 8837.416 0.00 1.01164 0.24
9 1 3 1 o 5843.624 4902.288 180.00 1.01091 0.17
7 3 6 2 o 556.195 462.284 180.00 1.01325 0.01
7 7 4 1 o 5.947 4.737 0.00 1.01067 0.00
9 4 1 2 o 3440.457 2789.100 180.00 1.01278 0.05
4 12 0 1 o 12719.078 10466.400 0.00 1.01015 0.18
6 3 7 2 o 1103.474 930.178 0.00 1.01210 0.01
8 7 1 2 o 627.950 534.234 0.00 1.01199 0.01
2 3 9 1 o 1365.055 1166.353 180.00 1.00928 0.04
5 1 8 2 o 10274.290 8837.416 0.00 1.01164 0.13
0 12 4 1 o 4427.341 3837.184 0.00 1.00874 0.05
9 1 3 2 o 6267.453 4902.288 180.00 1.01091 0.09
7 7 4 2 o 6.484 4.737 0.00 1.01067 0.00
4 7 7 1 o 1947.824 1511.631 180.00 1.00777 0.05
6 6 6 1 o 78.464 68.599 180.00 1.00754 0.00
4 12 0 2 o 12832.556 10466.400 0.00 1.01015 0.09
7 8 3 1 o 1389.996 1234.308 0.00 1.00689 0.04
2 3 9 2 o 1328.668 1166.353 180.00 1.00928 0.02
8 2 5 1 o 13621.145 12427.090 180.00 1.00641 0.36
1 7 8 1 o 4.159 3.354 0.00 1.00647 0.00
0 12 4 2 o 4073.819 3837.184 0.00 1.00874 0.02
1 4 9 1 o 0.669 0.000 180.00 1.00577 0.00
4 7 7 2 o 2075.792 1511.631 180.00 1.00777 0.03
6 6 6 2 o 88.437 68.599 180.00 1.00754 0.00
3 1 9 1 o 11537.114 9234.860 0.00 1.00463 0.32
2 13 0 1 o 25620.152 20199.438 0.00 1.00471 0.40
8 6 3 1 o 1498.436 1316.514 0.00 1.00439 0.04
4 12 1 1 o 2884.457 2389.275 0.00 1.00454 0.09
7 8 3 2 o 1425.007 1234.308 0.00 1.00689 0.02
0 9 7 1 o 1067.615 946.783 180.00 1.00436 0.01
8 2 5 2 o 12691.982 12427.090 180.00 1.00641 0.16
1 7 8 2 o 3.583 3.354 0.00 1.00647 0.00
5 11 2 1 o 7795.279 7562.895 0.00 1.00399 0.23
6 10 2 1 o 5772.319 5881.149 180.00 1.00349 0.16
3 8 7 1 o 5145.925 5252.561 0.00 1.00343 0.13
1 4 9 2 o -0.056 0.000 180.00 1.00577 0.00
1 12 4 1 o 2764.545 2854.216 0.00 1.00325 0.08
5 2 8 1 o 6410.270 6722.765 0.00 1.00304 0.16
7 9 1 1 o 6958.214 7363.591 0.00 1.00304 0.22
9 2 3 1 o 26003.283 26623.020 0.00 1.00233 0.64
3 1 9 2 o 8831.350 9234.860 0.00 1.00463 0.11
2 11 5 1 o 6011.658 6241.498 0.00 1.00219 0.16
2 13 0 2 o 19555.563 20199.438 0.00 1.00471 0.14
8 6 3 2 o 1241.350 1316.514 0.00 1.00439 0.02
4 12 1 2 o 2264.484 2389.275 0.00 1.00454 0.03
0 9 7 2 o 892.530 946.783 180.00 1.00436 0.01
5 11 2 2 o 7257.784 7562.895 0.00 1.00399 0.10
6 10 2 2 o 5840.852 5881.149 180.00 1.00349 0.08
5 9 5 1 o 2625.678 2629.586 180.00 1.00098 0.06
3 8 7 2 o 5252.788 5252.561 0.00 1.00343 0.07
2 10 6 1 o 1663.941 1627.062 180.00 1.00075 0.05
1 12 4 2 o 2904.359 2854.216 0.00 1.00325 0.04
5 2 8 2 o 6886.469 6722.765 0.00 1.00304 0.09
7 9 1 2 o 7571.919 7363.591 0.00 1.00304 0.12
9 2 3 2 o 25263.594 26623.020 0.00 1.00233 0.31
3 6 8 1 o 27179.674 29368.250 180.00 0.99968 0.69
2 11 5 2 o 5818.219 6241.498 0.00 1.00219 0.08
2 13 1 1 o 10673.594 11595.449 0.00 0.99919 0.31
1 9 7 1 o 4393.945 4657.953 180.00 0.99893 0.12
1 13 2 1 o 8962.600 9466.898 180.00 0.99894 0.26
5 9 5 2 o 2532.348 2629.586 180.00 1.00098 0.03
3 12 3 1 o 10380.776 10995.628 0.00 0.99844 0.32
2 10 6 2 o 1510.841 1627.062 180.00 1.00075 0.02
7 6 5 1 o 495.291 489.752 0.00 0.99761 0.02
3 6 8 2 o 30510.307 29368.250 180.00 0.99968 0.40
5 10 4 1 o 9231.157 9009.777 0.00 0.99707 0.26
8 5 4 1 o 6306.137 6320.565 0.00 0.99684 0.15
7 6 5 2 o 471.147 489.752 0.00 0.99761 0.01
2 13 1 2 o 11504.618 11595.449 0.00 0.99919 0.17
1 9 7 2 o 4670.392 4657.953 180.00 0.99893 0.07
1 13 2 2 o 9487.453 9466.898 180.00 0.99894 0.14
4 10 5 1 o 298.565 292.385 0.00 0.99631 0.01
3 2 9 1 o 587.774 555.724 180.00 0.99621 0.02
9 4 2 1 o 446.979 428.233 0.00 0.99611 0.01
5 10 4 2 o 9804.044 9009.777 0.00 0.99707 0.14
8 5 4 2 o 6873.180 6320.565 0.00 0.99684 0.08
3 12 3 2 o 11506.346 10995.628 0.00 0.99844 0.18
5 6 7 1 o 22526.174 23049.824 180.00 0.99559 0.61
8 7 2 1 o 980.679 1055.419 0.00 0.99536 0.04
4 10 5 2 o 328.085 292.385 0.00 0.99631 0.00
3 2 9 2 o 680.536 555.724 180.00 0.99621 0.01
9 4 2 2 o 486.837 428.233 0.00 0.99611 0.01
7 4 6 1 o 48632.82 44984.73 180.00 0.99343 1.24
5 6 7 2 o 22466.625 23049.824 180.00 0.99559 0.30
8 7 2 2 o 946.589 1055.419 0.00 0.99536 0.02
4 5 8 1 o 732.997 789.201 0.00 0.99281 0.02
8 3 5 1 o 4516.862 5099.208 0.00 0.99242 0.11
6 4 7 1 o 74.003 85.516 180.00 0.99235 0.00
6 9 4 1 o 17758.268 17922.242 180.00 0.99107 0.46
7 4 6 2 o 43580.23 44984.73 180.00 0.99343 0.54
4 5 8 2 o 708.555 789.201 0.00 0.99281 0.01
2 7 8 1 o 160.069 189.638 180.00 0.99036 0.01
8 3 5 2 o 4819.425 5099.208 0.00 0.99242 0.06
6 4 7 2 o 81.692 85.516 180.00 0.99235 0.00
2 4 9 1 o 7416.786 7594.071 0.00 0.98969 0.19
6 8 5 1 o 15756.120 16584.328 180.00 0.98944 0.41
4 9 6 1 o 180.395 186.581 0.00 0.98942 0.00
5 3 8 1 o 1957.617 2167.219 0.00 0.98919 0.05
6 9 4 2 o 16102.325 17922.242 180.00 0.99107 0.20
9 3 3 1 o 1424.586 1576.969 180.00 0.98851 0.03
5 8 6 1 o 10975.673 12380.763 0.00 0.98853 0.27
4 12 2 1 o 11224.780 13664.421 0.00 0.98828 0.33
2 7 8 2 o 138.874 189.638 180.00 0.99036 0.00
9 5 1 1 o 2105.393 2437.202 180.00 0.98754 0.07
2 4 9 2 o 7107.501 7594.071 0.00 0.98969 0.09
2 12 4 1 o 7919.292 8540.215 180.00 0.98729 0.25
6 8 5 2 o 15785.709 16584.328 180.00 0.98944 0.21
4 9 6 2 o 181.360 186.581 0.00 0.98942 0.00
4 11 4 1 o -0.807 0.855 0.00 0.98701 0.00
7 9 2 1 o 1586.396 1620.201 0.00 0.98684 0.04
5 3 8 2 o 2158.952 2167.219 0.00 0.98919 0.03
0 5 9 1 o 793.216 754.515 180.00 0.98618 0.01
9 3 3 2 o 1639.053 1576.969 180.00 0.98851 0.02
5 8 6 2 o 12995.403 12380.763 0.00 0.98853 0.17
4 12 2 2 o 13975.606 13664.421 0.00 0.98828 0.22
9 5 1 2 o 2349.756 2437.202 180.00 0.98754 0.04
2 12 4 2 o 8026.800 8540.215 180.00 0.98729 0.13
4 11 4 2 o 1.476 0.855 0.00 0.98701 0.00
7 9 2 2 o 1907.785 1620.201 0.00 0.98684 0.03
0 5 9 2 o 1247.520 754.515 180.00 0.98618 0.01
2 9 7 1 o 1111.172 765.426 0.00 0.98318 0.03
2 13 2 1 o 1844.313 1248.969 0.00 0.98318 0.06
3 3 9 1 o 10818.682 8599.223 0.00 0.98263 0.27
1 5 9 1 o 10761.281 8178.308 180.00 0.98104 0.29
2 9 7 2 o 982.683 765.426 0.00 0.98318 0.01
2 13 2 2 o 1623.683 1248.969 0.00 0.98318 0.03
3 3 9 2 o 11305.399 8599.223 0.00 0.98263 0.14
1 5 9 2 o 12720.828 8178.308 180.00 0.98104 0.18
0 13 3 1 o 18894.922 19277.354 180.00 0.97769 0.28
5 11 3 1 o 201.693 222.823 0.00 0.97735 0.01
6 10 3 1 o 633.064 609.740 180.00 0.97689 0.02
9 0 4 1 o 5164.253 4973.164 0.00 0.97605 0.07
8 8 0 1 o 35011.992 33163.430 0.00 0.97609 0.47
3 11 5 1 o 11767.824 11211.052 0.00 0.97608 0.33
0 13 3 2 o 16177.034 19277.354 180.00 0.97769 0.11
5 11 3 2 o 185.946 222.823 0.00 0.97735 0.00
3 10 6 1 o 1137.236 1235.586 0.00 0.97475 0.03
6 10 3 2 o 590.407 609.740 180.00 0.97689 0.01
8 4 5 1 o 2050.494 2002.221 0.00 0.97378 0.05
9 0 4 2 o 5138.979 4973.164 0.00 0.97605 0.03
8 8 0 2 o 34120.867 33163.430 0.00 0.97609 0.23
3 11 5 2 o 11534.488 11211.052 0.00 0.97608 0.16
9 1 4 1 o 2705.505 2544.927 0.00 0.97345 0.07
3 13 1 1 o 3713.348 3408.813 0.00 0.97332 0.10
1 13 3 1 o 1152.679 868.327 0.00 0.97269 0.04
3 10 6 2 o 1541.763 1235.586 0.00 0.97475 0.02
6 7 6 1 o 856.136 664.586 0.00 0.97222 0.03
9 5 2 1 o 32191.023 28884.277 180.00 0.97208 0.84
8 4 5 2 o 1976.639 2002.221 0.00 0.97378 0.02
9 1 4 2 o 2550.054 2544.927 0.00 0.97345 0.03
8 8 1 1 o 4207.591 4202.228 0.00 0.97104 0.11
0 8 8 1 o 11745.502 11718.006 0.00 0.97106 0.17
3 13 1 2 o 3397.391 3408.813 0.00 0.97332 0.04
5 4 8 1 o 1841.656 1851.949 0.00 0.97073 0.05
9 4 3 1 o 4583.114 4296.884 180.00 0.97008 0.11
1 13 3 2 o 897.860 868.327 0.00 0.97269 0.01
7 8 4 1 o 9816.747 9172.196 180.00 0.96987 0.26
6 7 6 2 o 730.327 664.586 0.00 0.97222 0.01
9 5 2 2 o 30153.518 28884.277 180.00 0.97208 0.39
7 5 6 1 o 1061.425 1038.810 0.00 0.96958 0.03
8 7 3 1 o 18975.623 19482.096 180.00 0.96939 0.48
8 8 1 2 o 3923.278 4202.228 0.00 0.97104 0.05
0 8 8 2 o 10856.592 11718.006 0.00 0.97106 0.08
6 5 7 1 o 432.348 460.872 0.00 0.96857 0.01
4 1 9 1 o 9313.505 10225.693 180.00 0.96838 0.23
5 4 8 2 o 1680.765 1851.949 0.00 0.97073 0.02
6 11 0 1 o 2502.195 2732.052 180.00 0.96813 0.03
9 4 3 2 o 4199.820 4296.884 180.00 0.97008 0.05
8 6 4 1 o 344.865 350.192 180.00 0.96763 0.01
7 8 4 2 o 9202.167 9172.196 180.00 0.96987 0.12
4 8 7 1 o 3.186 3.144 180.00 0.96731 0.00
7 5 6 2 o 1055.930 1038.810 0.00 0.96958 0.01
8 7 3 2 o 19731.773 19482.096 180.00 0.96939 0.26
6 5 7 2 o 523.726 460.872 0.00 0.96857 0.01
1 8 8 1 o 1893.822 1646.155 0.00 0.96616 0.05
2 5 9 1 o 79.308 70.478 180.00 0.96611 0.00
4 1 9 2 o 11523.787 10225.693 180.00 0.96838 0.15
7 1 7 1 o 31897.396 28670.836 0.00 0.96597 0.78
9 2 4 1 o 3515.868 3254.982 0.00 0.96579 0.09
6 11 0 2 o 2899.386 2732.052 180.00 0.96813 0.02
8 6 4 2 o 391.188 350.192 180.00 0.96763 0.01
3 7 8 1 o 27.031 23.578 0.00 0.96514 0.00
4 8 7 2 o 3.446 3.144 180.00 0.96731 0.00
3 4 9 1 o 119.502 98.860 180.00 0.96453 0.00
4 6 8 1 o 5350.260 4657.424 180.00 0.96395 0.15
1 8 8 2 o 1849.685 1646.155 0.00 0.96616 0.03
2 5 9 2 o 77.633 70.478 180.00 0.96611 0.00
7 1 7 2 o 31387.211 28670.836 0.00 0.96597 0.38
9 2 4 2 o 3437.055 3254.982 0.00 0.96579 0.04
7 7 5 1 o 17747.699 17530.275 0.00 0.96329 0.48
6 11 1 1 o 18639.049 19052.785 0.00 0.96319 0.51
3 7 8 2 o 21.384 23.578 0.00 0.96514 0.00
4 12 3 1 o 583.729 631.477 180.00 0.96284 0.02
10 0 0 1 o 669.978 710.401 0.00 0.96255 0.00
3 12 4 1 o 3803.407 4016.052 180.00 0.96230 0.10
3 4 9 2 o 92.596 98.860 180.00 0.96453 0.00
4 6 8 2 o 4300.524 4657.424 180.00 0.96395 0.06
7 9 3 1 o 3030.742 3227.321 0.00 0.96151 0.06
5 7 7 1 o 625.818 684.241 180.00 0.96146 0.02
7 7 5 2 o 16650.033 17530.275 0.00 0.96329 0.22
4 2 9 1 o 2510.101 2660.835 180.00 0.96084 0.06
6 11 1 2 o 17944.762 19052.785 0.00 0.96319 0.24
1 11 6 1 o 2922.954 3226.320 0.00 0.96054 0.08
4 12 3 2 o 570.776 631.477 180.00 0.96284 0.01
10 0 0 2 o 638.651 710.401 0.00 0.96255 0.00
10 1 0 1 o 4763.606 5382.807 180.00 0.96006 0.05
8 0 6 1 o 1594.670 1866.198 180.00 0.95982 0.02
3 12 4 2 o 3455.524 4016.052 180.00 0.96230 0.05
9 6 1 1 o 7400.960 7392.717 180.00 0.95912 0.19
7 9 3 2 o 3221.185 3227.321 0.00 0.96151 0.04
5 7 7 2 o 688.452 684.241 180.00 0.96146 0.01
5 12 1 1 o 7770.779 7809.887 0.00 0.95865 0.21
7 2 7 1 o 588.310 614.636 180.00 0.95848 0.01
4 2 9 2 o 2513.297 2660.835 180.00 0.96084 0.03
3 9 7 1 o 10719.386 11230.797 0.00 0.95849 0.27
3 13 2 1 o 4042.357 4242.948 0.00 0.95850 0.12
1 11 6 2 o 2791.119 3226.320 0.00 0.96054 0.04
2 13 3 1 o 3668.870 4255.982 0.00 0.95812 0.10
10 1 0 2 o 4467.186 5382.807 180.00 0.96006 0.02
6 0 8 1 o 1884.643 2254.213 180.00 0.95772 0.02
8 0 6 2 o 1476.534 1866.198 180.00 0.95982 0.01
8 1 6 1 o 4712.934 5998.825 180.00 0.95735 0.13
9 6 1 2 o 6931.688 7392.717 180.00 0.95912 0.09
1 12 5 1 o 248.588 261.110 0.00 0.95686 0.00
8 8 2 1 o 8756.414 8669.933 0.00 0.95632 0.23
5 12 1 2 o 7871.408 7809.887 0.00 0.95865 0.11
7 2 7 2 o 610.419 614.636 180.00 0.95848 0.01
3 9 7 2 o 11151.718 11230.797 0.00 0.95849 0.14
3 13 2 2 o 4212.324 4242.948 0.00 0.95850 0.06
2 13 3 2 o 4343.185 4255.982 0.00 0.95812 0.06
6 0 8 2 o 2336.282 2254.213 180.00 0.95772 0.01
10 1 1 1 o 22666.893 22397.244 0.00 0.95524 0.57
6 1 8 1 o 11584.451 11347.477 0.00 0.95527 0.31
8 1 6 2 o 5545.197 5998.825 180.00 0.95735 0.08
0 0 10 1 o 7425.970 7782.565 0.00 0.95504 0.04
1 12 5 2 o 254.220 261.110 0.00 0.95686 0.00
8 8 2 2 o 9164.074 8669.933 0.00 0.95632 0.12
0 14 0 1 o 60978.52 57744.71 0.00 0.95396 0.45
9 3 4 1 o 936.930 884.673 0.00 0.95340 0.02
7 10 1 1 o 25.391 24.345 0.00 0.95326 0.00
1 6 9 1 o 1623.156 1475.179 0.00 0.95317 0.05
10 1 1 2 o 24075.863 22397.244 0.00 0.95524 0.31
6 1 8 2 o 12275.505 11347.477 0.00 0.95527 0.17
10 2 0 1 o 16877.012 15912.285 180.00 0.95270 0.22
0 0 10 2 o 8164.194 7782.565 0.00 0.95504 0.02
2 8 8 1 o 847.195 813.643 0.00 0.95188 0.03
0 14 0 2 o 58569.36 57744.71 0.00 0.95396 0.21
5 10 5 1 o 0.360 0.084 180.00 0.95149 0.00
8 5 5 1 o 665.222 649.129 180.00 0.95129 0.02
9 3 4 2 o 933.366 884.673 0.00 0.95340 0.01
7 10 1 2 o 25.657 24.345 0.00 0.95326 0.00
1 6 9 2 o 1704.676 1475.179 0.00 0.95317 0.03
10 2 0 2 o 18956.279 15912.285 180.00 0.95270 0.13
1 0 10 1 o 25650.305 21568.119 0.00 0.95037 0.34
8 2 6 1 o 3234.868 2874.668 0.00 0.95006 0.08
1 10 7 1 o 233.302 230.249 180.00 0.94973 0.00
2 8 8 2 o 801.201 813.643 0.00 0.95188 0.02
5 10 5 2 o -0.846 0.084 180.00 0.95149 0.00
8 5 5 2 o 627.833 649.129 180.00 0.95129 0.01
6 11 2 1 o 1645.836 1668.109 180.00 0.94882 0.06
4 3 9 1 o 24217.982 23956.631 0.00 0.94864 0.62
5 5 8 1 o 11440.147 11234.674 180.00 0.94844 0.29
10 2 1 1 o 7731.425 7606.604 180.00 0.94800 0.19
6 2 8 1 o 82.648 80.759 0.00 0.94802 0.00
1 0 10 2 o 21990.158 21568.119 0.00 0.95037 0.14
1 1 10 1 o 3321.031 3271.977 0.00 0.94797 0.08
9 5 3 1 o 341.603 341.743 180.00 0.94784 0.00
8 2 6 2 o 2830.499 2874.668 0.00 0.95006 0.03
1 10 7 2 o 227.789 230.249 180.00 0.94973 0.00
6 11 2 2 o 2060.876 1668.109 180.00 0.94882 0.04
7 3 7 1 o 2389.453 2126.886 180.00 0.94637 0.05
2 11 6 1 o 4237.157 3516.703 180.00 0.94650 0.13
4 3 9 2 o 27127.180 23956.631 0.00 0.94864 0.36
6 9 5 1 o 1476.538 1311.166 0.00 0.94628 0.04
5 5 8 2 o 12147.021 11234.674 180.00 0.94844 0.16
10 2 1 2 o 7988.235 7606.604 180.00 0.94800 0.10
6 2 8 2 o 86.293 80.759 0.00 0.94802 0.00
1 1 10 2 o 3429.047 3271.977 0.00 0.94797 0.04
9 5 3 2 o 343.721 341.743 180.00 0.94784 0.00
5 9 6 1 o 16696.859 16625.064 0.00 0.94548 0.45
0 2 10 1 o 3213.963 3273.879 180.00 0.94542 0.04
9 6 2 1 o 1209.477 1242.051 0.00 0.94493 0.03
4 13 0 1 o 917.130 912.768 0.00 0.94484 0.01
1 14 1 1 o 1569.212 1461.585 0.00 0.94465 0.06
5 12 2 1 o 1763.860 1635.626 0.00 0.94449 0.05
7 3 7 2 o 2378.516 2126.886 180.00 0.94637 0.03
2 11 6 2 o 4029.526 3516.703 180.00 0.94650 0.06
6 9 5 2 o 1508.261 1311.166 0.00 0.94628 0.02
10 0 2 1 o 2533.393 2166.222 180.00 0.94357 0.03
5 11 4 1 o 1086.741 904.214 0.00 0.94339 0.03
5 9 6 2 o 19807.525 16625.064 0.00 0.94548 0.28
0 2 10 2 o 3860.025 3273.879 180.00 0.94542 0.03
6 10 4 1 o 16989.705 15039.153 180.00 0.94297 0.47
2 12 5 1 o 28321.410 24896.984 180.00 0.94298 0.84
7 6 6 1 o 236.111 242.469 0.00 0.94264 0.01
4 11 5 1 o 38274.27 37467.96 180.00 0.94274 1.09
9 6 2 2 o 1196.644 1242.051 0.00 0.94493 0.01
3 5 9 1 o 4830.775 4912.153 0.00 0.94266 0.11
4 13 0 2 o 857.023 912.768 0.00 0.94484 0.01
1 14 1 2 o 1285.810 1461.585 0.00 0.94465 0.03
5 12 2 2 o 1516.849 1635.626 0.00 0.94449 0.02
6 6 7 1 o 167.666 159.327 180.00 0.94172 0.00
4 10 6 1 o 3562.231 3289.975 180.00 0.94154 0.11
10 0 2 2 o 2415.510 2166.222 180.00 0.94357 0.01
10 1 2 1 o 2010.675 1736.252 180.00 0.94122 0.06
5 11 4 2 o 1043.839 904.214 0.00 0.94339 0.02
1 2 10 1 o 5803.540 4982.306 0.00 0.94089 0.15
10 3 0 1 o 576.754 527.749 180.00 0.94081 0.00
6 10 4 2 o 16973.043 15039.153 180.00 0.94297 0.24
2 12 5 2 o 28235.412 24896.984 180.00 0.94298 0.42
7 6 6 2 o 251.884 242.469 0.00 0.94264 0.00
4 11 5 2 o 39982.41 37467.96 180.00 0.94274 0.58
3 5 9 2 o 5093.476 4912.153 0.00 0.94266 0.06
4 13 1 1 o 25878.338 25479.230 180.00 0.94025 0.75
2 6 9 1 o 16097.291 16143.850 0.00 0.93945 0.42
6 6 7 2 o 157.321 159.327 180.00 0.94172 0.00
7 10 2 1 o 12509.261 12878.786 0.00 0.93932 0.34
4 10 6 2 o 3096.167 3289.975 180.00 0.94154 0.05
1 13 4 1 o 1239.639 1324.103 180.00 0.93919 0.04
10 1 2 2 o 1518.161 1736.252 180.00 0.94122 0.02
1 2 10 2 o 4476.922 4982.306 0.00 0.94089 0.06
10 3 0 2 o 494.941 527.749 180.00 0.94081 0.00
8 3 6 1 o 2725.935 3242.249 180.00 0.93826 0.08
4 13 1 2 o 22050.838 25479.230 180.00 0.94025 0.31
2 6 9 2 o 15654.764 16143.850 0.00 0.93945 0.20
7 10 2 2 o 12173.033 12878.786 0.00 0.93932 0.16
9 4 4 1 o 1727.821 1875.586 0.00 0.93684 0.04
2 0 10 1 o 221.271 229.662 0.00 0.93677 0.00
1 13 4 2 o 1219.783 1324.103 180.00 0.93919 0.02
10 3 1 1 o 29.340 31.081 180.00 0.93628 0.00
6 3 8 1 o 4583.688 4837.437 0.00 0.93630 0.13
8 7 4 1 o 961.203 1009.908 180.00 0.93621 0.04
2 10 7 1 o 21.948 22.532 180.00 0.93616 0.00
8 3 6 2 o 3254.722 3242.249 180.00 0.93826 0.05
6 8 6 1 o 601.227 583.293 180.00 0.93574 0.02
2 14 0 1 o 6753.764 6569.630 180.00 0.93576 0.11
0 14 2 1 o 17246.732 17180.582 0.00 0.93548 0.28
3 13 3 1 o 20322.256 21331.080 0.00 0.93524 0.62
9 4 4 2 o 1923.331 1875.586 0.00 0.93684 0.02
8 9 0 1 o 11381.487 11057.728 0.00 0.93458 0.16
2 1 10 1 o 13855.003 13566.459 180.00 0.93448 0.36
2 0 10 2 o 231.501 229.662 0.00 0.93677 0.00
10 2 2 1 o 5934.740 6080.185 180.00 0.93429 0.15
10 3 1 2 o 27.335 31.081 180.00 0.93628 0.00
6 3 8 2 o 4337.882 4837.437 0.00 0.93630 0.06
8 7 4 2 o 880.262 1009.908 180.00 0.93621 0.02
2 10 7 2 o 20.685 22.532 180.00 0.93616 0.00
6 8 6 2 o 572.132 583.293 180.00 0.93574 0.01
2 14 0 2 o 6452.556 6569.630 180.00 0.93576 0.05
8 8 3 1 o 905.153 941.451 180.00 0.93321 0.02
0 14 2 2 o 16285.591 17180.582 0.00 0.93548 0.13
4 7 8 1 o 422.822 500.308 180.00 0.93288 0.02
3 13 3 2 o 19035.152 21331.080 0.00 0.93524 0.29
4 4 9 1 o 375.675 394.670 0.00 0.93232 0.01
8 9 0 2 o 10528.600 11057.728 0.00 0.93458 0.07
2 1 10 2 o 13047.964 13566.459 180.00 0.93448 0.17
10 2 2 2 o 5867.991 6080.185 180.00 0.93429 0.07
2 14 1 1 o 49.524 47.873 180.00 0.93130 0.00
9 1 5 1 o 1411.236 1446.836 180.00 0.93090 0.03
1 14 2 1 o 19651.082 19315.088 0.00 0.93109 0.60
8 8 3 2 o 914.639 941.451 180.00 0.93321 0.01
4 7 8 2 o 437.926 500.308 180.00 0.93288 0.01
4 12 4 1 o 283.801 296.804 0.00 0.93031 0.00
7 4 7 1 o 271.632 291.954 0.00 0.93016 0.01
8 9 1 1 o 10458.338 11220.205 180.00 0.93014 0.28
4 4 9 2 o 373.498 394.670 0.00 0.93232 0.00
1 3 10 1 o 1211.947 1233.263 0.00 0.92943 0.03
3 8 8 1 o 19058.328 19376.473 180.00 0.92943 0.51
7 9 4 1 o 147.679 160.259 0.00 0.92911 0.00
2 14 1 2 o 43.036 47.873 180.00 0.93130 0.00
9 1 5 2 o 1256.088 1446.836 180.00 0.93090 0.01
1 14 2 2 o 16338.376 19315.088 0.00 0.93109 0.24
9 7 1 1 o 65.934 98.350 0.00 0.92850 0.00
4 12 4 2 o 281.531 296.804 0.00 0.93031 0.00
7 4 7 2 o 279.920 291.954 0.00 0.93016 0.00
8 9 1 2 o 10827.867 11220.205 180.00 0.93014 0.15
7 8 5 1 o 38.879 39.397 180.00 0.92777 0.00
2 2 10 1 o 105.861 105.951 0.00 0.92769 0.00
0 7 9 1 o 26467.314 26172.535 0.00 0.92737 0.35
1 3 10 2 o 1202.727 1233.263 0.00 0.92943 0.02
5 1 9 1 o 2905.413 2987.699 180.00 0.92708 0.06
3 8 8 2 o 18927.564 19376.473 180.00 0.92943 0.25
4 9 7 1 o 402.108 420.915 180.00 0.92687 0.01
7 9 4 2 o 153.509 160.259 0.00 0.92911 0.00
4 13 2 1 o 171.625 181.305 0.00 0.92687 0.01
9 7 1 2 o 106.137 98.350 0.00 0.92850 0.00
6 11 3 1 o 1918.558 1833.236 0.00 0.92624 0.06
5 8 7 1 o 12284.424 11840.350 0.00 0.92614 0.32
2 13 4 1 o 13312.647 12990.475 180.00 0.92606 0.40
8 6 5 1 o 4909.284 5100.619 0.00 0.92581 0.13
1 9 8 1 o 7147.807 7346.998 180.00 0.92585 0.19
7 8 5 2 o 36.997 39.397 180.00 0.92777 0.00
2 2 10 2 o 99.794 105.951 0.00 0.92769 0.00
0 7 9 2 o 24215.529 26172.535 0.00 0.92737 0.16
10 4 0 1 o 27976.090 31391.031 180.00 0.92488 0.34
5 1 9 2 o 2675.985 2987.699 180.00 0.92708 0.03
4 9 7 2 o 370.082 420.915 180.00 0.92687 0.00
4 13 2 2 o 155.034 181.305 0.00 0.92687 0.00
3 11 6 1 o 1050.005 1138.066 180.00 0.92442 0.03
9 2 5 1 o 1604.090 1573.941 180.00 0.92419 0.04
6 11 3 2 o 2046.453 1833.236 0.00 0.92624 0.03
5 8 7 2 o 13388.608 11840.350 0.00 0.92614 0.18
2 13 4 2 o 14902.877 12990.475 180.00 0.92606 0.23
8 6 5 2 o 5867.112 5100.619 0.00 0.92581 0.08
1 9 8 2 o 8449.566 7346.998 180.00 0.92585 0.12
5 6 8 1 o 13913.118 12565.797 0.00 0.92318 0.38
10 3 2 1 o 1539.004 1386.768 180.00 0.92306 0.05
1 7 9 1 o 7900.861 7274.818 180.00 0.92309 0.21
10 4 0 2 o 32505.781 31391.031 180.00 0.92488 0.21
9 6 3 1 o 11545.333 11132.864 180.00 0.92262 0.30
8 4 6 1 o 11809.629 11516.803 0.00 0.92246 0.31
5 12 3 1 o 19606.625 19734.504 0.00 0.92221 0.58
3 11 6 2 o 1120.144 1138.066 180.00 0.92442 0.02
9 2 5 2 o 1521.502 1573.941 180.00 0.92419 0.02
9 6 3 2 o 11854.062 11132.864 180.00 0.92262 0.16
8 4 6 2 o 12107.292 11516.803 0.00 0.92246 0.16
5 12 3 2 o 19363.084 19734.504 0.00 0.92221 0.29
3 12 5 1 o 1229.151 1061.559 180.00 0.92114 0.04
5 6 8 2 o 13827.158 12565.797 0.00 0.92318 0.19
10 3 2 2 o 1520.833 1386.768 180.00 0.92306 0.03
1 7 9 2 o 7835.097 7274.818 180.00 0.92309 0.10
10 4 1 1 o 1744.908 1648.177 0.00 0.92057 0.05
6 4 8 1 o 290.633 280.604 0.00 0.92060 0.00
10 1 3 1 o 1011.668 1281.644 0.00 0.91917 0.02
5 2 9 1 o 35.236 29.169 180.00 0.92045 0.00
3 12 5 2 o 704.086 1061.559 180.00 0.92114 0.01
10 4 1 2 o 1185.546 1648.177 0.00 0.92057 0.01
6 4 8 2 o 232.306 280.604 0.00 0.92060 0.00
0 4 10 1 o 7762.100 10258.555 180.00 0.91821 0.07
5 2 9 2 o 2.028 29.169 180.00 0.92045 0.00
2 14 2 1 o 1844.050 2411.126 180.00 0.91829 0.04
3 6 9 1 o 174.111 355.487 0.00 0.91784 0.01
7 10 3 1 o 419.344 651.090 0.00 0.91740 0.01
8 9 2 1 o 54.946 63.379 0.00 0.91718 0.00
10 1 3 2 o 1086.790 1281.644 0.00 0.91917 0.01
9 5 4 1 o 3327.706 3915.165 180.00 0.91676 0.08
2 3 10 1 o 3408.088 4112.820 180.00 0.91670 0.09
0 4 10 2 o 6311.729 10258.555 180.00 0.91821 0.02
2 14 2 2 o 1494.855 2411.126 180.00 0.91829 0.01
9 7 2 1 o 7.608 13.428 0.00 0.91561 0.00
3 6 9 2 o 68.706 355.487 0.00 0.91784 0.00
3 0 10 1 o 7.908 16.794 180.00 0.91535 0.00
7 10 3 2 o 326.064 651.090 0.00 0.91740 0.00
8 9 2 2 o 51.742 63.379 0.00 0.91718 0.00
3 10 7 1 o 2690.389 4089.015 0.00 0.91478 0.09
9 5 4 2 o 3163.064 3915.165 180.00 0.91676 0.04
2 3 10 2 o 3416.007 4112.820 180.00 0.91670 0.04
6 12 0 1 o 4252.158 5104.661 180.00 0.91444 0.06
1 4 10 1 o 680.865 617.283 0.00 0.91406 0.02
7 7 6 1 o 36.908 25.571 180.00 0.91353 0.00
9 7 2 2 o 16.519 13.428 0.00 0.91561 0.00
9 3 5 1 o 8505.571 6771.623 180.00 0.91332 0.26
3 1 10 1 o 1474.346 1300.098 180.00 0.91321 0.04
2 9 8 1 o 10041.133 8561.911 180.00 0.91326 0.28
3 0 10 2 o 17.639 16.794 180.00 0.91535 0.00
10 2 3 1 o 2268.177 2650.091 0.00 0.91271 0.06
6 7 7 1 o 375.619 444.353 0.00 0.91268 0.01
4 5 9 1 o 1051.716 1219.709 0.00 0.91252 0.03
3 10 7 2 o 3415.147 4089.015 0.00 0.91478 0.06
6 12 0 2 o 4988.204 5104.661 180.00 0.91444 0.04
0 12 6 1 o 6651.953 6650.988 0.00 0.91211 0.11
1 4 10 2 o 629.575 617.283 0.00 0.91406 0.01
7 7 6 2 o 32.449 25.571 180.00 0.91353 0.00
9 3 5 2 o 8451.540 6771.623 180.00 0.91332 0.13
3 1 10 2 o 1582.742 1300.098 180.00 0.91321 0.02
2 9 8 2 o 10355.690 8561.911 180.00 0.91326 0.15
2 7 9 1 o 457.835 371.653 0.00 0.91062 0.01
10 2 3 2 o 3290.832 2650.091 0.00 0.91271 0.05
7 5 7 1 o 6707.346 5246.135 0.00 0.91050 0.21
6 7 7 2 o 557.106 444.353 0.00 0.91268 0.01
4 5 9 2 o 1494.775 1219.709 0.00 0.91252 0.02
6 12 1 1 o 14549.525 11875.327 180.00 0.91028 0.45
3 14 1 1 o 904.545 683.693 0.00 0.91024 0.04
0 12 6 2 o 8179.401 6650.988 0.00 0.91211 0.07
5 3 9 1 o 12478.531 10576.493 180.00 0.90971 0.36
1 14 3 1 o 531.473 416.381 180.00 0.90972 0.03
2 7 9 2 o 472.541 371.653 0.00 0.91062 0.01
7 5 7 2 o 6917.794 5246.135 0.00 0.91050 0.11
10 4 2 1 o 12562.492 10333.199 180.00 0.90801 0.36
6 12 1 2 o 14480.258 11875.327 180.00 0.91028 0.23
1 12 6 1 o 8166.538 6712.866 0.00 0.90804 0.25
3 14 1 2 o 891.426 683.693 0.00 0.91024 0.02
5 3 9 2 o 12238.229 10576.493 180.00 0.90971 0.18
1 14 3 2 o 516.005 416.381 180.00 0.90972 0.01
0 11 7 1 o 979.853 998.722 180.00 0.90700 0.01
3 2 10 1 o 7915.124 8930.243 180.00 0.90687 0.20
7 11 1 1 o 6724.137 7657.892 0.00 0.90602 0.18
10 4 2 2 o 8555.627 10333.199 180.00 0.90801 0.11
1 12 6 2 o 5656.432 6712.866 0.00 0.90804 0.08
4 13 3 1 o 577.950 700.581 180.00 0.90579 0.02
10 5 0 1 o 6123.936 7716.471 0.00 0.90555 0.07
3 13 4 1 o 278.103 354.259 0.00 0.90534 0.01
0 11 7 2 o 960.631 998.722 180.00 0.90700 0.01
3 2 10 2 o 8505.777 8930.243 180.00 0.90687 0.11
0 13 5 1 o 18850.998 19611.648 180.00 0.90477 0.28
5 11 5 1 o 6639.752 7182.301 180.00 0.90451 0.20
6 10 5 1 o 2957.350 3379.668 180.00 0.90414 0.08
7 11 1 2 o 7097.999 7657.892 0.00 0.90602 0.10
8 8 4 1 o 47.964 49.276 180.00 0.90351 0.00
4 13 3 2 o 672.179 700.581 180.00 0.90579 0.01
5 10 6 1 o 518.652 534.647 0.00 0.90345 0.01
10 5 0 2 o 7503.267 7716.471 0.00 0.90555 0.05
8 5 6 1 o 4654.981 4825.784 0.00 0.90328 0.14
3 13 4 2 o 339.834 354.259 0.00 0.90534 0.00
1 11 7 1 o 208.566 220.468 0.00 0.90300 0.01
0 13 5 2 o 20164.650 19611.648 180.00 0.90477 0.15
10 3 3 1 o 13776.830 13594.563 0.00 0.90223 0.37
5 11 5 2 o 7349.446 7182.301 180.00 0.90451 0.11
5 13 1 1 o 3982.598 3865.481 180.00 0.90230 0.14
2 4 10 1 o 907.002 969.168 0.00 0.90194 0.03
6 10 5 2 o 3206.045 3379.668 180.00 0.90414 0.05
10 5 1 1 o 2608.375 2923.618 0.00 0.90150 0.07
6 5 8 1 o 9588.016 10792.648 180.00 0.90152 0.26
7 0 8 1 o 1190.265 1359.601 0.00 0.90147 0.02
8 8 4 2 o 43.711 49.276 180.00 0.90351 0.00
5 10 6 2 o 459.088 534.647 0.00 0.90345 0.01
8 5 6 2 o 4112.867 4825.784 0.00 0.90328 0.06
1 11 7 2 o 199.392 220.468 0.00 0.90300 0.00
1 13 5 1 o 6410.087 7123.486 180.00 0.90080 0.19
4 8 8 1 o 758.165 775.119 180.00 0.90051 0.01
8 1 7 1 o 319.080 308.283 180.00 0.90035 0.01
10 3 3 2 o 14881.879 13594.563 0.00 0.90223 0.21
5 13 1 2 o 4292.912 3865.481 180.00 0.90230 0.08
2 4 10 2 o 1075.310 969.168 0.00 0.90194 0.02
7 1 8 1 o 404.878 376.374 180.00 0.89942 0.01
10 5 1 2 o 3121.277 2923.618 0.00 0.90150 0.04
6 5 8 2 o 11595.557 10792.648 180.00 0.90152 0.17
7 0 8 2 o 1454.592 1359.601 0.00 0.90147 0.01
6 9 6 1 o 7747.490 7525.132 180.00 0.89898 0.23
9 4 5 1 o 414.492 391.219 0.00 0.89873 0.01
1 13 5 2 o 7986.398 7123.486 180.00 0.90080 0.13
4 8 8 2 o 866.313 775.119 180.00 0.90051 0.01
8 7 5 1 o 32405.807 28439.568 180.00 0.89818 0.93
8 1 7 2 o 346.753 308.283 180.00 0.90035 0.00
6 12 2 1 o 3325.088 3010.529 180.00 0.89812 0.09
3 14 2 1 o 10609.196 9660.966 0.00 0.89808 0.34
2 14 3 1 o 19.034 18.520 0.00 0.89777 0.00
7 1 8 2 o 455.525 376.374 180.00 0.89942 0.01
6 11 4 1 o 10099.282 8099.809 0.00 0.89718 0.35
6 9 6 2 o 8861.399 7525.132 180.00 0.89898 0.14
8 9 3 1 o 3218.852 2768.964 180.00 0.89674 0.10
3 3 10 1 o 225.631 203.545 180.00 0.89659 0.01
9 8 1 1 o 5150.809 4637.427 0.00 0.89657 0.14
9 4 5 2 o 432.780 391.219 0.00 0.89873 0.01
2 12 6 1 o 49.295 49.015 180.00 0.89615 0.00
8 7 5 2 o 30298.113 28439.568 180.00 0.89818 0.43
4 11 6 1 o 1069.310 992.355 180.00 0.89595 0.04
6 12 2 2 o 3158.587 3010.529 180.00 0.89812 0.04
5 7 8 1 o 26.449 25.681 0.00 0.89578 0.00
3 14 2 2 o 10103.097 9660.966 0.00 0.89808 0.16
2 14 3 2 o 18.236 18.520 0.00 0.89777 0.00
1 5 10 1 o 4446.277 4651.664 180.00 0.89539 0.12
5 4 9 1 o 67.310 71.408 180.00 0.89529 0.00
9 7 3 1 o 1494.198 1592.315 180.00 0.89527 0.05
6 11 4 2 o 7464.813 8099.809 0.00 0.89718 0.12
8 9 3 2 o 3004.951 2768.964 180.00 0.89674 0.04
3 3 10 2 o 228.601 203.545 180.00 0.89659 0.00
9 8 1 2 o 5271.000 4637.427 0.00 0.89657 0.07
8 2 7 1 o 120.244 102.105 0.00 0.89428 0.00
7 11 2 1 o 568.405 490.563 180.00 0.89403 0.02
9 6 4 1 o 3375.070 3014.348 0.00 0.89389 0.10
8 10 0 1 o 1542.922 1372.282 180.00 0.89392 0.02
2 12 6 2 o 49.459 49.015 180.00 0.89615 0.00
4 11 6 2 o 1125.389 992.355 180.00 0.89595 0.02
5 7 8 2 o 28.850 25.681 0.00 0.89578 0.00
5 12 4 1 o 3460.718 3135.688 0.00 0.89351 0.11
7 2 8 1 o 10346.964 9609.119 180.00 0.89336 0.28
3 9 8 1 o 3215.501 2975.984 0.00 0.89338 0.09
1 5 10 2 o 4777.374 4651.664 180.00 0.89539 0.07
5 4 9 2 o 71.578 71.408 180.00 0.89529 0.00
9 7 3 2 o 1589.759 1592.315 180.00 0.89527 0.03
4 12 5 1 o 2215.459 2264.601 180.00 0.89296 0.07
10 0 4 1 o 23790.225 25703.563 180.00 0.89273 0.32
8 2 7 2 o 93.335 102.105 0.00 0.89428 0.00
7 9 5 1 o 5440.658 6073.301 0.00 0.89190 0.18
7 11 2 2 o 437.764 490.563 180.00 0.89403 0.01
9 6 4 2 o 2681.295 3014.348 0.00 0.89389 0.04
8 10 0 2 o 1222.556 1372.282 180.00 0.89392 0.01
1 8 9 1 o 0.708 0.863 180.00 0.89170 0.00
2 11 7 1 o 445.552 451.428 0.00 0.89131 0.01
5 12 4 2 o 3091.316 3135.688 0.00 0.89351 0.05
7 2 8 2 o 9829.615 9609.119 180.00 0.89336 0.13
3 9 8 2 o 3036.030 2975.984 0.00 0.89338 0.04
3 7 9 1 o 4842.972 4681.788 0.00 0.89090 0.14
10 1 4 1 o 9450.594 9329.352 0.00 0.89074 0.28
4 12 5 2 o 2300.490 2264.601 180.00 0.89296 0.04
10 0 4 2 o 24705.443 25703.563 180.00 0.89273 0.17
5 9 7 1 o 11015.592 11799.286 180.00 0.89046 0.34
5 13 2 1 o 9604.103 10224.555 0.00 0.89046 0.29
8 10 1 1 o 604.645 729.224 0.00 0.89003 0.02
0 10 8 1 o 4513.459 5336.765 180.00 0.89005 0.06
