#------------------------------------------------------------------------------
#$Date: 2016-03-21 01:21:50 +0200 (Mon, 21 Mar 2016) $
#$Revision: 178377 $
#$URL: svn://www.crystallography.net/cod/cif/4/00/12/4001203.cif $
#------------------------------------------------------------------------------
#
# This file is available in the Crystallography Open Database (COD),
# http://www.crystallography.net/
#
# All data on this site have been placed in the public domain by the
# contributors.
#
data_4001203
loop_
_publ_author_name
'Zhou, Yongkai'
'Adams, Stefan'
'Rao, R. Prasada'
'Edwards, Doreen D.'
'Neiman, Arkady'
'Pestereva, N.'
_publ_section_title
;
 Charge Transport by Polyatomic Anion Diffusion in Sc2(WO4)3
;
_journal_issue                   20
_journal_name_full               'Chemistry of Materials'
_journal_page_first              6335
_journal_paper_doi               10.1021/cm800466y
_journal_volume                  20
_journal_year                    2008
_chemical_formula_moiety         ' Sc2(WO4)3 '
_chemical_formula_sum            'O12 Sc2 W3'
_chemical_formula_weight         833.45
_chemical_melting_point          1913
_chemical_name_common            ' Scandium Tungstate '
_chemical_name_systematic        ' Scandium Tungstate '
_space_group_IT_number           60
_symmetry_cell_setting           orthorhombic
_symmetry_space_group_name_Hall  '-P 2a 2n'
_symmetry_space_group_name_H-M   'P n c a'
_audit_creation_date             2008-01-25T12:03
_audit_creation_method           'from EXP file using GSAS2CIF'
_audit_update_record
' 2008-01-25T12:03  Initial CIF as created by GSAS2CIF'
_cell_angle_alpha                90.0
_cell_angle_beta                 90.0
_cell_angle_gamma                90.0
_cell_formula_units_Z            4
_cell_length_a                   9.62355(6)
_cell_length_b                   13.35626(8)
_cell_length_c                   9.54910(6)
_cell_measurement_temperature    1100
_cell_volume                     1227.390(13)
_computing_structure_refinement  GSAS
_diffrn_radiation_polarisn_ratio 0.68
_diffrn_radiation_probe          x-ray
_exptl_absorpt_correction_T_max  1.00000
_exptl_absorpt_correction_T_min  1.00000
_exptl_absorpt_process_details
;   GSAS Absorption/surface roughness correction: function number 0
 No correction is applied.
;
_pd_block_id
2008-01-25T12:03|T11K|Zhou_Yongkai|Philips_Xpert
_pd_calc_method                  'Rietveld Refinement'
_pd_instr_location               ' ?'
_pd_meas_2theta_range_inc        0.017
_pd_meas_2theta_range_max        119.9874
_pd_meas_2theta_range_min        10.0144
_pd_meas_number_of_points        6470
_pd_proc_2theta_range_inc        0.017
_pd_proc_2theta_range_max        119.9874
_pd_proc_2theta_range_min        10.0144
_pd_proc_info_datetime           2008-01-25T12:31:16
_pd_proc_info_excluded_regions   ' ?'
_pd_proc_ls_background_function
;   GSAS Background function number 1 with 12 terms.
 Shifted Chebyshev function of 1st kind
      1:    388.970     2:   -20.2059     3:   -12.1041     4:    57.6063    
      5:   -5.75749     6:    10.1732     7:   -11.1268     8:    6.29871    
      9:    9.90753    10:   -24.6437    11:    22.1270    12:   -5.22159    
;
_pd_proc_ls_peak_cutoff          0.00250
_pd_proc_ls_pref_orient_corr
;   March-Dollase
 AXIS  1 Ratio=   0.95611  h= 0.000  k= 1.000  l= 0.000
 Prefered orientation correction range: Min=   0.93488, Max=   1.14417
;
_pd_proc_ls_profile_function
;
 CW Profile function number 3 with  19 terms
 Pseudovoigt profile coefficients as parameterized in
 P. Thompson, D.E. Cox & J.B. Hastings (1987). J. Appl. Cryst.,20,79-83.
 Asymmetry correction of L.W. Finger, D.E. Cox & A. P. Jephcoat (1994).
 J. Appl. Cryst.,27,892-900.
 Peak tails are ignored  where the intensity is below 0.0025 times the peak
   Aniso. broadening axis   0.0   0.0   1.0
;
_pd_proc_ls_prof_R_factor        0.0498
_pd_proc_ls_prof_wR_expected     0.0364
_pd_proc_ls_prof_wR_factor       0.0653
_pd_proc_number_of_points        6470
_pd_spec_mounting                ' ?'
_refine_ls_goodness_of_fit_all   1.85
_refine_ls_matrix_type           full
_refine_ls_number_parameters     51
_refine_ls_number_restraints     0
_refine_ls_R_Fsqd_factor         0.07383
_refine_ls_shift/su_max          0.03
_refine_ls_shift/su_mean         0.01
_reflns_d_resolution_high        0.890
_reflns_d_resolution_low         6.678
_reflns_limit_h_max              10
_reflns_limit_h_min              0
_reflns_limit_k_max              15
_reflns_limit_k_min              0
_reflns_limit_l_max              10
_reflns_limit_l_min              0
_reflns_number_total             1824
_cod_data_source_file            cm800466y_si_023.cif
_cod_data_source_block           T1100K
_cod_depositor_comments
;
The following automatic conversions were performed:

'_chemical_melting_point' value ' 1913K ' was changed to '1913' - the
value should be numeric and without a unit
designator.

'_geom_bond_publ_flag' value 'N' changed to 'n'
according to /home/saulius/struct/CIF-dictionaries/cif_core.dic
dictionary named 'cif_core.dic' version 2.4.1 from 2010-06-29 (26
times).

'_geom_angle_publ_flag' value 'N' changed to 'n' according
to /home/saulius/struct/CIF-dictionaries/cif_core.dic dictionary
named 'cif_core.dic' version 2.4.1 from 2010-06-29 (33 times).

Automatic conversion script
Id: cif_fix_values 1715 2011-07-08 13:25:40Z adriana 
;
_cod_original_cell_volume        1227.390(14)
_cod_database_code               4001203
#BEGIN Tags that were not found in dictionaries:
_gsas_exptl_extinct_corr_t_min   1.00000
_gsas_exptl_extinct_corr_t_max   1.00000
#END Tags that were not found in dictionaries
loop_
_symmetry_equiv_pos_site_id
_symmetry_equiv_pos_as_xyz
1 +x,+y,+z
2 -x+1/2,+y+1/2,+z+1/2
3 +x,-y+1/2,+z+1/2
4 -x+1/2,-y,+z
-1 -x,-y,-z
-2 +x+1/2,-y+1/2,-z+1/2
-3 -x,+y+1/2,-z+1/2
-4 +x+1/2,+y,-z
loop_
_atom_site_type_symbol
_atom_site_label
_atom_site_fract_x
_atom_site_fract_y
_atom_site_fract_z
_atom_site_occupancy
_atom_site_thermal_displace_type
_atom_site_U_iso_or_equiv
_atom_site_symmetry_multiplicity
Sc Sc1 0.4708(4) 0.38216(26) 0.2472(5) 1.0 Uiso 0.0285(13) 8
W W1 0.25 0.0 0.47102(17) 1.0 Uiso 0.03266(35) 4
W W2 0.11250(12) 0.35645(9) 0.39070(12) 1.0 Uiso 0.03266(35) 8
O O1 0.0935(14) 0.1276(10) 0.0672(14) 1.0 Uiso 0.0751(22) 8
O O2 0.1551(14) 0.0781(9) 0.3743(15) 1.0 Uiso 0.0751(22) 8
O O3 0.0051(14) 0.2646(11) 0.3129(13) 1.0 Uiso 0.0751(22) 8
O O4 0.3340(14) 0.4069(9) 0.0740(14) 1.0 Uiso 0.0751(22) 8
O O5 0.0518(13) 0.4723(10) 0.3181(14) 1.0 Uiso 0.0751(22) 8
O O6 0.2899(15) 0.3487(10) 0.3402(14) 1.0 Uiso 0.0751(22) 8
loop_
_atom_type_symbol
_atom_type_number_in_cell
_atom_type_scat_dispersion_real
_atom_type_scat_dispersion_imag
_atom_type_scat_Cromer_Mann_a1
_atom_type_scat_Cromer_Mann_a2
_atom_type_scat_Cromer_Mann_a3
_atom_type_scat_Cromer_Mann_a4
_atom_type_scat_Cromer_Mann_b1
_atom_type_scat_Cromer_Mann_b2
_atom_type_scat_Cromer_Mann_b3
_atom_type_scat_Cromer_Mann_b4
_atom_type_scat_Cromer_Mann_c
_atom_type_scat_source
Sc 8.0 0.000 0.000 9.18900 9.02130 7.36790 0.57290 1.64090 136.108 1.46800
51.3531 1.33290 International_Tables_Vol_C
W 12.0 0.000 0.000 29.0818 1.72029 15.4300 9.22590 14.4327 0.32170 5.11982
57.0560 9.88750 International_Tables_Vol_C
O 48.0 0.000 0.000 3.04850 13.2771 2.28680 5.70110 1.54630 0.32390 0.86700
32.9089 0.25080 International_Tables_Vol_C
loop_
_diffrn_radiation_wavelength
_diffrn_radiation_wavelength_wt
_diffrn_radiation_type
_diffrn_radiation_wavelength_id
1.540500 1.000 K\a~1~ 1
1.544300 0.000 K\a~2~ 2
loop_
_geom_angle_atom_site_label_1
_geom_angle_atom_site_label_2
_geom_angle_atom_site_label_3
_geom_angle
_geom_angle_site_symmetry_1
_geom_angle_site_symmetry_3
_geom_angle_publ_flag
O1 Sc1 O2 90.4(5) -2_666 -2_666 n
O1 Sc1 O3 94.8(5) -2_666 -2_666 n
O1 Sc1 O4 172.8(6) -2_666 1_555 n
O1 Sc1 O5 81.0(5) -2_666 4_565 n
O1 Sc1 O6 95.7(6) -2_666 1_555 n
O2 Sc1 O3 87.3(5) -2_666 -2_666 n
O2 Sc1 O4 93.0(6) -2_666 1_555 n
O2 Sc1 O5 91.8(5) -2_666 4_565 n
O2 Sc1 O6 173.9(6) -2_666 1_555 n
O3 Sc1 O4 91.7(5) -2_666 1_555 n
O3 Sc1 O5 175.7(6) -2_666 4_565 n
O3 Sc1 O6 92.9(5) -2_666 1_555 n
O4 Sc1 O5 92.5(5) 1_555 4_565 n
O4 Sc1 O6 80.9(5) 1_555 1_555 n
O5 Sc1 O6 88.4(5) 4_565 1_555 n
O2 W1 O2 112.6(10) 1_555 4_555 n
O2 W1 O4 119.7(6) 1_555 2_545 n
O2 W1 O4 96.8(6) 1_555 3_555 n
O2 W1 O4 96.8(6) 4_555 2_545 n
O2 W1 O4 119.7(6) 4_555 3_555 n
O4 W1 O4 112.9(9) 2_545 3_555 n
O1 W2 O3 116.0(6) 3_555 1_555 n
O1 W2 O5 103.8(6) 3_555 1_555 n
O1 W2 O6 112.2(6) 3_555 1_555 n
O3 W2 O5 104.2(7) 1_555 1_555 n
O3 W2 O6 114.0(6) 1_555 1_555 n
O5 W2 O6 105.0(6) 1_555 1_555 n
Sc1 O1 W2 152.4(8) -2_466 3_554 n
Sc1 O2 W1 153.1(8) -2_555 1_555 n
Sc1 O3 W2 150.1(8) -2_466 1_555 n
Sc1 O4 W1 144.6(8) 1_555 2_554 n
Sc1 O5 W2 166.2(8) 4_565 1_555 n
Sc1 O6 W2 160.3(8) 1_555 1_555 n
loop_
_geom_bond_atom_site_label_1
_geom_bond_atom_site_label_2
_geom_bond_distance
_geom_bond_site_symmetry_2
_geom_bond_publ_flag
Sc1 O1 2.134(14) -2_555 n
Sc1 O2 2.184(14) -2_555 n
Sc1 O3 2.069(14) -2_555 n
Sc1 O4 2.139(13) 1_555 n
Sc1 O5 2.070(13) 4_565 n
Sc1 O6 2.005(14) 1_555 n
W1 O2 1.666(14) 1_555 n
W1 O2 1.666(14) 4_555 n
W1 O4 1.780(12) 2_545 n
W1 O4 1.780(12) 3_555 n
W2 O1 1.708(13) 3_555 n
W2 O3 1.768(13) 1_555 n
W2 O5 1.793(13) 1_555 n
W2 O6 1.777(15) 1_555 n
O1 Sc1 2.134(14) -2_455 n
O1 W2 1.708(13) 3_554 n
O2 Sc1 2.184(14) -2_455 n
O2 W1 1.666(14) 1_555 n
O3 Sc1 2.069(14) -2_455 n
O3 W2 1.768(13) 1_555 n
O4 Sc1 2.139(13) 1_555 n
O4 W1 1.780(12) 2_554 n
O5 Sc1 2.070(13) 4_565 n
O5 W2 1.793(13) 1_555 n
O6 Sc1 2.005(14) 1_555 n
O6 W2 1.777(15) 1_555 n
loop_
_pd_meas_counts_total
_pd_proc_ls_weight
_pd_proc_intensity_bkg_calc
_pd_calc_intensity_total
332.0 0.0 640.49933 .
307.0 0.0 636.81525 .
287.0 0.0 633.15967 .
312.0 0.0 629.53198 .
305.0 0.0 625.93188 .
287.0 0.0 622.36023 .
310.0 0.0 618.81610 .
328.0 0.0 615.29907 .
303.0 0.0 611.81000 .
312.0 0.0 608.34747 .
333.0 0.0 604.91266 .
312.0 0.0 601.50446 .
298.0 0.0 598.12323 .
312.0 0.0 594.76868 .
319.0 0.0 591.44073 .
305.0 0.0 588.13916 .
307.0 0.0 584.86383 .
313.0 0.0 581.61432 .
322.0 0.0 578.39154 .
337.0 0.0 575.19446 .
333.0 0.0 572.02313 .
308.0 0.0 568.87726 .
322.0 0.0 565.75677 .
317.0 0.0 562.66199 .
312.0 0.0 559.59247 .
319.0 0.0 556.54791 .
324.0 0.0 553.52844 .
317.0 0.0 550.53357 .
299.0 0.0 547.56360 .
295.0 0.0 544.61841 .
301.0 0.0 541.69739 .
310.0 0.0 538.80084 .
312.0 0.0 535.92834 .
324.0 0.0 533.08026 .
339.0 0.0 530.25623 .
344.0 0.0 527.45575 .
309.0 0.0 524.67908 .
285.0 0.0 521.92584 .
297.0 0.0 519.19629 .
311.0 0.0 516.49023 .
308.0 0.0 513.80725 .
298.0 0.0 511.14722 .
291.0 0.0 508.51019 .
306.0 0.0 505.89624 .
308.0 0.0 503.30511 .
320.0 0.0 500.73651 .
323.0 0.0 498.19031 .
291.0 0.0 495.66632 .
317.0 0.0 493.16504 .
303.0 0.0 490.68576 .
308.0 0.0 488.22861 .
317.0 0.0 485.79309 .
290.0 0.0 483.37936 .
338.0 0.0 480.98752 .
326.0 0.0 478.61728 .
335.0 0.0 476.26849 .
306.0 0.0 473.94095 .
292.0 0.0 471.63440 .
342.0 0.0 469.34940 .
297.0 0.0 467.08527 .
297.0 0.0 464.84201 .
292.0 0.0 462.61929 .
297.0 0.0 460.41730 .
307.0 0.0 458.23602 .
269.0 0.0 456.07523 .
307.0 0.0 453.93472 .
324.0 0.0 451.81421 .
346.0 0.0 449.71393 .
339.0 0.0 447.63361 .
323.0 0.0 445.57327 .
314.0 0.0 443.53278 .
310.0 0.0 441.51166 .
313.0 0.0 439.51028 .
347.0 0.0 437.52823 .
318.0 0.0 435.56577 .
317.0 0.0 433.62231 .
319.0 0.0 431.69803 .
316.0 0.0 429.79279 .
338.0 0.0 427.90634 .
350.0 0.0 426.03882 .
340.0 0.0 424.19022 .
323.0 0.0 422.35989 .
296.0 0.0 420.54807 .
304.0 0.0 418.75470 .
301.0 0.0 416.97974 .
305.0 0.0 415.22290 .
332.0 0.0 413.48413 .
322.0 0.0 411.76328 .
326.0 0.0 410.06027 .
349.0 0.0 408.37521 .
335.0 0.0 406.70779 .
325.0 0.0 405.05786 .
305.0 0.0 403.42532 .
295.0 0.0 401.81030 .
325.0 0.0 400.21259 .
323.0 0.0 398.63211 .
322.0 0.0 397.06842 .
330.0 0.0 395.52188 .
355.0 0.0 393.99225 .
325.0 0.0 392.47937 .
321.0 0.0 390.98331 .
308.0 0.0 389.50363 .
326.0 0.0 388.04056 .
299.0 0.0 386.59393 .
291.0 0.0 385.16348 .
319.0 0.0 383.74933 .
321.0 0.0 382.35114 .
316.0 0.0 380.96915 .
319.0 0.0 379.60303 .
306.0 0.0 378.25272 .
317.0 0.0 376.91821 .
322.0 0.0 375.59924 .
324.0 0.0 374.29578 .
312.0 0.0 373.00800 .
316.0 0.0 371.73541 .
299.0 0.0 370.47818 .
323.0 0.0 369.23608 .
321.0 0.003115 368.00903 368.00256
286.0 0.003497 366.79709 366.79077
292.0 0.003425 365.60010 365.59378
327.0 0.003058 364.41782 364.41165
312.0 0.003205 363.25031 363.24426
316.0 0.003165 362.09741 362.09134
315.0 0.003175 360.95917 360.95319
319.0 0.003135 359.83530 359.82947
304.0 0.003289 358.72595 358.72003
332.0 0.003012 357.63071 357.62497
321.0 0.003115 356.54971 356.54398
343.0 0.002915 355.48294 355.47733
337.0 0.002967 354.43011 354.42459
330.0 0.003030 353.39133 353.38577
316.0 0.003165 352.36639 352.36087
314.0 0.003185 351.35510 351.34970
337.0 0.002967 350.35757 350.35226
346.0 0.002890 349.37366 349.36841
315.0 0.003175 348.40338 348.39813
299.0 0.003344 347.44638 347.44125
301.0 0.003322 346.50275 346.49759
326.0 0.003067 345.57251 345.56741
327.0 0.003058 344.65533 344.65042
312.0 0.003205 343.75131 343.74646
301.0 0.003322 342.86035 342.85550
300.0 0.003333 341.98221 341.97745
307.0 0.003257 341.11710 341.11240
329.0 0.003040 340.26468 340.26001
359.0 0.002786 339.42502 339.42038
348.0 0.002874 338.59787 338.59329
324.0 0.003086 337.78326 337.77875
316.0 0.003165 336.98123 336.97675
313.0 0.003195 336.19156 336.18707
333.0 0.003003 335.41409 335.40967
330.0 0.003030 334.64893 334.64453
329.0 0.003040 333.89572 333.89145
356.0 0.002809 333.15479 333.15060
326.0 0.003067 332.42581 332.42160
299.0 0.003344 331.70871 331.70462
316.0 0.003165 331.00339 330.99933
335.0 0.002985 330.30981 330.30582
320.0 0.003125 329.62802 329.62405
341.0 0.002933 328.95782 328.95389
313.0 0.003195 328.29910 328.29526
310.0 0.003226 327.65182 327.64801
315.0 0.003175 327.01593 327.01212
300.0 0.003333 326.39133 326.38757
346.0 0.002890 325.77795 325.77426
349.0 0.002865 325.17575 325.17212
333.0 0.003003 324.58456 324.58096
332.0 0.003012 324.00446 327.81903
339.0 0.002950 323.43524 327.58408
356.0 0.002809 322.87695 329.32117
344.0 0.002907 322.32928 329.39355
369.0 0.002710 321.79242 329.58881
350.0 0.002857 321.26617 329.94376
351.0 0.002849 320.75055 330.51718
360.0 0.002778 320.24545 331.42609
397.0 0.002519 319.75073 333.07843
381.0 0.002625 319.26624 337.03314
389.0 0.002571 318.79214 346.26855
425.0 0.002353 318.32819 362.23004
457.0 0.002188 317.87451 384.19644
466.0 0.002146 317.43082 411.08231
464.0 0.002155 316.99710 441.58109
429.0 0.002331 316.57324 475.11139
468.0 0.002137 316.15945 511.81155
537.0 0.001862 315.75537 552.07581
582.0 0.001718 315.36099 596.39697
612.0 0.001634 314.97626 645.46832
681.0 0.001468 314.60110 700.16180
700.0 0.001429 314.23560 761.53040
766.0 0.001305 313.87949 831.08990
864.0 0.001157 313.53268 910.73566
953.0 0.001049 313.19525 1003.18677
1068.0 0.000936 312.86707 1112.22339
1234.0 0.000810 312.54813 1243.50830
1406.0 0.000711 312.23825 1405.88269
1730.0 0.000578 311.93747 1614.40613
2237.0 0.000447 311.64569 1898.50037
2871.0 0.0003483 311.36282 2329.54297
3570.0 0.0002801 311.08887 3039.77979
4062.0 0.0002462 310.82367 3807.50049
3664.0 0.0002729 310.56720 3526.53076
2616.0 0.000382 310.31946 2502.93896
1606.0 0.000623 310.08023 1573.16296
910.0 0.001099 309.84967 805.13702
559.0 0.001789 309.62747 497.98203
455.0 0.002198 309.41385 416.17844
434.0 0.002304 309.20844 384.22327
395.0 0.002532 309.01141 365.43146
387.0 0.002584 308.82263 353.00455
398.0 0.002513 308.64200 344.28680
379.0 0.002639 308.46948 337.89774
378.0 0.002646 308.30493 333.05212
366.0 0.002732 308.14856 329.27496
358.0 0.002793 307.99994 326.26358
344.0 0.002907 307.85934 323.81696
352.0 0.002841 307.72644 321.79739
380.0 0.002632 307.60135 320.10748
351.0 0.002849 307.48392 318.67703
342.0 0.002924 307.37421 317.45410
330.0 0.003030 307.27200 316.39960
328.0 0.003049 307.17740 315.48331
329.0 0.003040 307.09012 309.90991
355.0 0.002817 307.01038 309.58575
321.0 0.003115 306.93787 306.93597
329.0 0.003040 306.87268 306.87082
326.0 0.003067 306.81473 306.81296
347.0 0.002882 306.76404 306.76221
349.0 0.002865 306.72031 306.71854
340.0 0.002941 306.68369 306.68198
334.0 0.002994 306.65414 306.65234
319.0 0.003135 306.63153 306.62979
334.0 0.002994 306.61575 306.61411
335.0 0.002985 306.60693 306.60519
354.0 0.002825 306.60474 306.60312
367.0 0.002725 306.60938 306.60773
334.0 0.002994 306.62064 306.61902
356.0 0.002809 306.63861 306.63696
323.0 0.003096 306.66302 306.66141
301.0 0.003322 306.69406 306.69244
318.0 0.003145 306.73151 306.72983
349.0 0.002865 306.77539 306.77377
352.0 0.002841 306.82553 306.82397
343.0 0.002915 306.88208 306.88055
356.0 0.002809 306.94479 306.94330
351.0 0.002849 307.01379 307.01218
362.0 0.002762 307.08884 307.08725
336.0 0.002976 307.17004 307.16855
357.0 0.002801 307.25723 307.25571
360.0 0.002778 307.35049 307.34903
334.0 0.002994 307.44965 312.41403
334.0 0.002994 307.55460 312.92142
331.0 0.003021 307.66553 315.93433
372.0 0.002688 307.78217 316.77194
385.0 0.002597 307.90460 317.72424
371.0 0.002695 308.03271 318.81805
364.0 0.002747 308.16644 320.09030
372.0 0.002688 308.30569 321.59491
372.0 0.002688 308.45056 323.41455
382.0 0.002618 308.60092 325.69189
403.0 0.002481 308.75665 328.79712
442.0 0.002262 308.91779 334.22363
458.0 0.002183 309.08438 346.11377
458.0 0.002183 309.25616 368.57999
495.0 0.002020 309.43323 401.42917
517.0 0.001934 309.61551 443.50305
528.0 0.001894 309.80289 493.35858
549.0 0.001821 309.99542 549.45471
588.0 0.001701 310.19296 611.56879
637.0 0.001570 310.39563 680.34778
740.0 0.001351 310.60321 756.96851
792.0 0.001263 310.81570 842.94489
882.0 0.001134 311.03299 940.12262
973.0 0.001028 311.25522 1051.23499
1106.0 0.000904 311.48212 1179.88342
1265.0 0.000791 311.71390 1331.13782
1475.0 0.000678 311.95032 1512.65356
1700.0 0.000588 312.19138 1736.18567
2043.0 0.000489 312.43704 2021.56299
2490.0 0.000402 312.68723 2406.66919
3185.0 0.0003140 312.94199 2981.72412
4164.0 0.0002402 313.20120 3927.95776
4974.0 0.0002010 313.46478 5030.90137
4538.0 0.0002204 313.73291 4792.17480
3188.0 0.0003137 314.00525 3429.33447
2098.0 0.000477 314.28186 2367.64795
1127.0 0.000887 314.56284 1236.52246
603.0 0.001658 314.84802 650.81555
482.0 0.002075 315.13733 485.67239
423.0 0.002364 315.43069 431.05603
406.0 0.002463 315.72821 401.44788
377.0 0.002653 316.02988 382.49780
389.0 0.002571 316.33536 369.56308
372.0 0.002688 316.64502 360.33423
381.0 0.002625 316.95837 353.52570
396.0 0.002525 317.27579 348.37122
348.0 0.002874 317.59692 344.38943
386.0 0.002591 317.92188 341.26450
375.0 0.002667 318.25070 338.78177
345.0 0.002899 318.58313 336.79092
359.0 0.002786 318.91925 335.18338
355.0 0.002817 319.25903 333.87979
360.0 0.002778 319.60239 332.82043
351.0 0.002849 319.94940 331.96005
333.0 0.003003 320.29984 324.42719
343.0 0.002915 320.65381 324.41672
351.0 0.002849 321.01120 321.01001
339.0 0.002950 321.37201 321.37088
333.0 0.003003 321.73618 321.73508
338.0 0.002959 322.10367 322.10254
319.0 0.003135 322.47443 322.47330
311.0 0.003215 322.84848 322.84735
344.0 0.002907 323.22580 323.22473
354.0 0.002825 323.60620 323.60513
365.0 0.002740 323.98981 323.98871
374.0 0.002674 324.37650 324.37540
364.0 0.002747 324.76627 324.76514
346.0 0.002890 325.15909 325.15793
337.0 0.002967 325.55487 325.55374
332.0 0.003012 325.95364 325.95255
359.0 0.002786 326.35529 326.35413
370.0 0.002703 326.75986 326.75870
351.0 0.002849 327.16733 327.16617
350.0 0.002857 327.57751 327.57635
363.0 0.002755 327.99057 327.98944
351.0 0.002849 328.40631 328.40521
351.0 0.002849 328.82483 328.82370
329.0 0.003040 329.24594 329.24484
334.0 0.002994 329.66983 329.66870
346.0 0.002890 330.09622 330.09506
348.0 0.002874 330.52524 330.52408
354.0 0.002825 330.95676 330.95557
354.0 0.002825 331.39084 331.38968
339.0 0.002950 331.82733 331.82620
342.0 0.002924 332.26636 332.26517
362.0 0.002762 332.70767 332.70648
335.0 0.002985 333.15140 333.15027
328.0 0.003049 333.59750 333.59634
332.0 0.003012 334.04593 334.04477
339.0 0.002950 334.49658 334.49548
319.0 0.003135 334.94958 334.94839
365.0 0.002740 335.40469 335.40353
352.0 0.002841 335.86206 335.86078
339.0 0.002950 336.32153 336.32037
348.0 0.002874 336.78317 336.78195
327.0 0.003058 337.24677 337.24564
335.0 0.002985 337.71255 337.71130
358.0 0.002793 338.18027 338.17911
338.0 0.002959 338.65009 338.64883
318.0 0.003145 339.12189 339.12067
353.0 0.002833 339.59549 339.59430
317.0 0.003155 340.07101 340.06979
338.0 0.002959 340.54849 340.54724
389.0 0.002571 341.02783 341.02652
347.0 0.002882 341.50888 341.50769
363.0 0.002755 341.99176 341.99054
343.0 0.002915 342.47641 342.47516
331.0 0.003021 342.96277 342.96152
349.0 0.002865 343.45090 343.44962
338.0 0.002959 343.94055 343.93933
319.0 0.003135 344.43192 344.43066
367.0 0.002725 344.92490 344.92361
358.0 0.002793 345.41943 345.41821
348.0 0.002874 345.91565 345.91437
363.0 0.002755 346.41321 346.41196
376.0 0.002660 346.91235 346.91110
373.0 0.002681 347.41299 347.41165
341.0 0.002933 347.91507 347.91379
316.0 0.003165 348.41855 348.41724
318.0 0.003145 348.92346 348.92212
325.0 0.003077 349.42960 349.42828
339.0 0.002950 349.93713 349.93579
352.0 0.002841 350.44608 350.44470
350.0 0.002857 350.95621 350.95483
325.0 0.003077 351.46753 351.46625
329.0 0.003040 351.98016 351.97882
356.0 0.002809 352.49399 352.49265
357.0 0.002801 353.00900 353.00763
342.0 0.002924 353.52518 353.52380
327.0 0.003058 354.04245 354.04108
315.0 0.003175 354.56076 354.55945
314.0 0.003185 355.08023 355.07886
317.0 0.003155 355.60074 355.59933
336.0 0.002976 356.12225 356.12085
362.0 0.002762 356.64474 356.64340
350.0 0.002857 357.16827 357.16687
342.0 0.002924 357.69263 357.69122
335.0 0.002985 358.21805 358.21661
344.0 0.002907 358.74432 358.74292
352.0 0.002841 359.27148 359.26996
334.0 0.002994 359.79944 359.79791
343.0 0.002915 360.32819 360.32675
318.0 0.003145 360.85788 360.85632
351.0 0.002849 361.38821 361.38669
357.0 0.002801 361.91940 361.91791
336.0 0.002976 362.45126 362.44980
349.0 0.002865 362.98389 362.98233
348.0 0.002874 363.51715 363.51563
320.0 0.003125 364.05112 364.04956
370.0 0.002703 364.58566 364.58417
340.0 0.002941 365.12085 365.11932
349.0 0.002865 365.65665 365.65515
328.0 0.003049 366.19305 366.19153
361.0 0.002770 366.73001 366.72845
347.0 0.002882 367.26746 367.26587
394.0 0.002538 367.80542 367.80386
374.0 0.002674 368.34387 368.34225
354.0 0.002825 368.88278 368.88123
352.0 0.002841 369.42218 369.42056
306.0 0.003268 369.96194 369.96036
373.0 0.002681 370.50211 370.50049
362.0 0.002762 371.04269 371.04108
361.0 0.002770 371.58356 371.58191
374.0 0.002674 372.12488 372.12323
353.0 0.002833 372.66647 372.66479
308.0 0.003247 373.20834 373.20673
375.0 0.002667 373.75040 373.74875
327.0 0.003058 374.29285 374.29129
345.0 0.002899 374.83557 374.83386
346.0 0.002890 375.37836 375.37668
351.0 0.002849 375.92139 375.91977
338.0 0.002959 376.46460 376.46301
347.0 0.002882 377.00803 377.00638
343.0 0.002915 377.55164 377.54990
342.0 0.002924 378.09521 378.09357
389.0 0.002571 378.63907 378.63730
372.0 0.002688 379.18280 379.18109
357.0 0.002801 379.72675 379.72501
333.0 0.003003 380.27066 380.26895
335.0 0.002985 380.81461 380.81287
343.0 0.002915 381.35858 381.35681
350.0 0.002857 381.90256 381.90073
351.0 0.002849 382.44644 382.44467
356.0 0.002809 382.99030 382.98856
366.0 0.002732 383.53412 383.53241
366.0 0.002732 384.07785 384.07608
372.0 0.002688 384.62137 384.61963
343.0 0.002915 385.16489 385.16315
319.0 0.003135 385.70837 385.70651
326.0 0.003067 386.25146 386.24960
348.0 0.002874 386.79453 386.79272
345.0 0.002899 387.33737 387.33554
340.0 0.002941 387.88004 387.87823
345.0 0.002899 388.42245 388.42056
359.0 0.002786 388.96460 388.96277
365.0 0.002740 389.50650 389.50464
363.0 0.002755 390.04810 390.04623
360.0 0.002778 390.58948 390.58759
357.0 0.002801 391.13058 391.12872
369.0 0.002710 391.67126 391.66931
351.0 0.002849 392.21158 392.20972
346.0 0.002890 392.75165 392.74973
362.0 0.002762 393.29126 393.28940
347.0 0.002882 393.83057 393.82864
360.0 0.002778 394.36942 394.36749
364.0 0.002747 394.90787 394.90594
350.0 0.002857 395.44589 395.44394
347.0 0.002882 395.98343 395.98151
336.0 0.002976 396.52057 396.51868
324.0 0.003086 397.05722 397.05524
354.0 0.002825 397.59329 397.59131
363.0 0.002755 398.12891 398.12695
362.0 0.002762 398.66397 398.66205
334.0 0.002994 399.19861 399.19656
334.0 0.002994 399.73260 399.73056
346.0 0.002890 400.26605 400.26401
331.0 0.003021 400.79886 400.79678
332.0 0.003012 401.33115 401.32919
366.0 0.002732 401.86282 401.86081
315.0 0.003175 402.39392 402.39182
329.0 0.003040 402.92426 402.92221
348.0 0.002874 403.45407 403.45200
346.0 0.002890 403.98309 403.98834
356.0 0.002809 404.51160 404.51740
336.0 0.002976 405.03925 405.04568
345.0 0.002899 405.56619 405.57703
350.0 0.002857 406.09253 406.10434
339.0 0.002950 406.61810 406.63104
338.0 0.002959 407.14297 407.15726
332.0 0.003012 407.66705 407.68286
370.0 0.002703 408.19031 408.20792
387.0 0.002584 408.71289 409.85831
340.0 0.002941 409.23459 410.46603
345.0 0.002899 409.75555 411.08334
369.0 0.002710 410.27560 412.28381
372.0 0.002688 410.79483 413.66638
372.0 0.002688 411.31326 414.42557
378.0 0.002646 411.83081 415.21832
364.0 0.002747 412.34756 416.40915
358.0 0.002793 412.86337 417.33618
363.0 0.002755 413.37833 418.34924
375.0 0.002667 413.89227 419.46252
382.0 0.002618 414.40543 420.69714
395.0 0.002532 414.91766 422.08591
402.0 0.002488 415.42892 423.67725
407.0 0.002457 415.93918 425.56342
404.0 0.002475 416.44855 428.02499
415.0 0.002410 416.95691 432.03839
432.0 0.002315 417.46436 439.39645
427.0 0.002342 417.97076 450.91074
438.0 0.002283 418.47614 466.30164
486.0 0.002058 418.98047 486.27032
507.0 0.001972 419.48392 512.10687
563.0 0.001776 419.98627 544.38232
600.0 0.001667 420.48749 583.15912
641.0 0.001560 420.98770 627.45636
631.0 0.001585 421.48685 677.21570
692.0 0.001445 421.98499 737.88049
830.0 0.001205 422.48193 812.13202
894.0 0.001119 422.97781 904.72498
1052.0 0.000951 423.47263 1028.03760
1227.0 0.000815 423.96640 1207.42432
1480.0 0.000676 424.45892 1486.05713
1793.0 0.000558 424.95038 1775.37427
1704.0 0.000587 425.44061 1692.36499
1492.0 0.000670 425.92972 1474.66809
1572.0 0.000636 426.41776 1504.32288
1462.0 0.000684 426.90451 1440.02686
1145.0 0.000873 427.39008 1156.73682
850.0 0.001176 427.87463 892.32129
786.0 0.001272 428.35776 798.46521
653.0 0.001531 428.83975 657.27777
570.0 0.001754 429.32056 526.68573
471.0 0.002123 429.80017 478.19952
449.0 0.002227 430.27853 463.11389
389.0 0.002571 430.75562 455.72067
415.0 0.002410 431.23141 451.06888
388.0 0.002577 431.70599 447.94974
395.0 0.002532 432.17938 445.77625
392.0 0.002551 432.65146 444.22382
396.0 0.002525 433.12222 443.11343
393.0 0.002545 433.59161 442.31677
408.0 0.002451 434.05984 441.75293
392.0 0.002551 434.52673 441.36603
407.0 0.002457 434.99228 441.11624
452.0 0.002212 435.45648 439.23154
437.0 0.002288 435.91943 439.31720
395.0 0.002532 436.38095 439.45624
428.0 0.002336 436.84119 438.79053
431.0 0.002320 437.30002 437.99185
396.0 0.002525 437.75751 438.38583
402.0 0.002488 438.21359 449.96460
412.0 0.002427 438.66852 450.65225
400.0 0.002500 439.12183 452.00748
406.0 0.002463 439.57379 459.08286
405.0 0.002469 440.02435 461.07904
409.0 0.002445 440.47360 463.27179
424.0 0.002358 440.92139 465.69800
439.0 0.002278 441.36774 468.40421
448.0 0.002232 441.81268 471.44965
472.0 0.002119 442.25629 474.91180
466.0 0.002146 442.69827 478.89352
459.0 0.002179 443.13898 483.53571
509.0 0.001965 443.57819 489.03653
550.0 0.001818 444.01593 495.68848
542.0 0.001845 444.45218 503.95175
556.0 0.001799 444.88702 514.65015
599.0 0.001669 445.32037 530.04163
659.0 0.001517 445.75223 558.50885
743.0 0.001346 446.18259 619.10681
827.0 0.001209 446.61157 724.45483
926.0 0.001080 447.03879 869.95270
1032.0 0.000969 447.46478 1055.61340
1178.0 0.000849 447.88919 1285.95276
1397.0 0.000716 448.31210 1560.04248
1664.0 0.000601 448.73343 1880.37109
1976.0 0.000506 449.15332 2257.30591
2454.0 0.000407 449.57159 2708.56616
3093.0 0.0003233 449.98843 3261.37378
3903.0 0.0002562 450.40369 3960.37769
4824.0 0.0002073 450.81735 4889.71777
6417.0 0.0001558 451.22952 6238.19092
8686.0 0.0001151 451.64011 8419.22070
11608.0 0.0000861 452.04919 11228.27344
11543.0 0.0000866 452.45667 11223.11230
7857.0 0.0001273 452.86261 7717.14941
6283.0 0.0001592 453.26691 6249.36084
4904.0 0.0002039 453.66968 4897.94873
2396.0 0.000417 454.07092 2446.93970
1191.0 0.000840 454.47043 1216.92041
820.0 0.001220 454.86844 867.99664
701.0 0.001427 455.26486 740.59076
618.0 0.001618 455.65973 668.75092
625.0 0.001600 456.05301 622.20941
558.0 0.001792 456.44458 590.10492
536.0 0.001866 456.83459 566.94525
517.0 0.001934 457.22299 549.65912
516.0 0.001938 457.60980 536.40625
542.0 0.001845 457.99496 526.02509
560.0 0.001786 458.37842 517.74982
535.0 0.001869 458.76031 511.05533
501.0 0.001996 459.14056 505.57318
430.0 0.002326 459.51917 501.03683
436.0 0.002294 459.89624 497.25055
464.0 0.002155 460.27155 494.06680
443.0 0.002257 460.64526 472.77643
451.0 0.002217 461.01730 472.01364
464.0 0.002155 461.38766 471.40240
476.0 0.002101 461.75647 461.75363
448.0 0.002232 462.12347 462.12067
452.0 0.002212 462.48886 462.48602
482.0 0.002075 462.85260 462.84979
455.0 0.002198 463.21475 463.21191
448.0 0.002232 463.57513 463.57233
486.0 0.002058 463.93387 463.93103
508.0 0.001969 464.29086 464.28806
523.0 0.001912 464.64621 464.64346
484.0 0.002066 464.99991 464.99710
478.0 0.002092 465.35199 465.34912
495.0 0.002020 465.70224 479.76624
484.0 0.002066 466.05081 481.11792
486.0 0.002058 466.39780 482.58139
477.0 0.002096 466.74301 491.15686
451.0 0.002217 467.08655 493.39932
490.0 0.002041 467.42841 495.87708
499.0 0.002004 467.76846 498.63281
490.0 0.002041 468.10696 501.71973
484.0 0.002066 468.44360 505.20532
524.0 0.001908 468.77872 509.17700
533.0 0.001876 469.11194 513.74438
504.0 0.001984 469.44351 519.06122
551.0 0.001815 469.77335 525.33057
593.0 0.001686 470.10150 532.84735
620.0 0.001613 470.42798 542.04639
657.0 0.001522 470.75266 553.60297
675.0 0.001481 471.07571 568.75323
753.0 0.001328 471.39685 590.83435
870.0 0.001149 471.71637 632.03375
1006.0 0.000994 472.03421 719.66028
1122.0 0.000891 472.35031 871.10712
1287.0 0.000777 472.66470 1078.75488
1367.0 0.000732 472.97720 1343.29285
1599.0 0.000625 473.28812 1675.14209
1934.0 0.000517 473.59732 2076.70923
2252.0 0.000444 473.90466 2553.79419
2734.0 0.000366 474.21045 3125.54028
3351.0 0.0002984 474.51425 3824.88916
4241.0 0.0002358 474.81647 4709.08008
5545.0 0.0001803 475.11694 5881.17920
7364.0 0.0001358 475.41568 7571.10938
10202.0 0.0000980 475.71271 10294.41406
14076.0 0.0000710 476.00784 13889.19629
13763.0 0.0000727 476.30133 14132.98438
9098.0 0.0001099 476.59311 9599.56152
7362.0 0.0001358 476.88306 7698.19043
6284.0 0.0001591 477.17130 6658.74365
3336.0 0.0002998 477.45779 3583.14502
1420.0 0.000704 477.74261 1649.46533
899.0 0.001112 478.02560 1063.67395
754.0 0.001326 478.30688 870.57874
684.0 0.001462 478.58636 768.02502
670.0 0.001493 478.86411 702.78094
643.0 0.001555 479.14005 658.22028
620.0 0.001613 479.41443 626.27863
621.0 0.001610 479.68686 602.54565
604.0 0.001656 479.95764 584.38544
597.0 0.001675 480.22665 570.17303
578.0 0.001730 480.49393 558.83221
542.0 0.001845 480.75940 549.63757
527.0 0.001898 481.02316 542.08771
562.0 0.001779 481.28519 535.81213
578.0 0.001730 481.54538 530.54688
593.0 0.001686 481.80383 526.08923
600.0 0.001667 482.06067 498.12448
573.0 0.001745 482.31561 496.85657
563.0 0.001776 482.56885 509.37070
561.0 0.001783 482.82031 497.34286
574.0 0.001742 483.07004 498.64713
607.0 0.001647 483.31805 506.74652
636.0 0.001572 483.56421 508.77289
667.0 0.001499 483.80875 511.01416
681.0 0.001468 484.05148 527.58453
659.0 0.001517 484.29242 531.37878
666.0 0.001502 484.53186 535.64349
689.0 0.001451 484.76923 547.38086
710.0 0.001408 485.00497 553.37201
697.0 0.001435 485.23889 560.24390
746.0 0.001340 485.47122 568.20648
785.0 0.001274 485.70172 577.54175
791.0 0.001264 485.93048 588.63190
827.0 0.001209 486.15741 602.04956
871.0 0.001148 486.38275 618.65601
999.0 0.001001 486.60620 639.97302
1013.0 0.000987 486.82809 698.90039
1156.0 0.000865 487.04810 753.31775
1314.0 0.000761 487.26645 860.03387
1441.0 0.000694 487.48294 1037.26587
1675.0 0.000597 487.69772 1294.37537
1947.0 0.000514 487.91089 1605.22375
2315.0 0.000432 488.12222 2004.21814
2637.0 0.000379 488.33188 2520.52124
3311.0 0.0003020 488.53973 3191.91309
4018.0 0.0002489 488.74588 4049.67944
4836.0 0.0002068 488.95038 5132.29248
6067.0 0.0001648 489.15298 6532.16357
8182.0 0.0001222 489.35400 8437.61621
11548.0 0.0000866 489.55322 11271.85352
15908.0 0.0000629 489.75073 15357.91113
18257.0 0.0000548 489.94653 17957.03711
15361.0 0.0000651 490.14056 15027.00000
13607.0 0.0000735 490.33292 13366.39551
14987.0 0.0000667 490.52356 14875.47168
16390.0 0.0000610 490.71243 15666.05566
16735.0 0.0000598 490.89969 16532.51367
14493.0 0.0000690 491.08511 14553.04688
10316.0 0.0000969 491.26898 10362.10156
9545.0 0.0001048 491.45093 9744.98828
9073.0 0.0001102 491.63132 9446.16797
6890.0 0.0001451 491.80997 7343.40967
5726.0 0.0001746 491.98682 6729.85938
6535.0 0.0001530 492.16205 7625.20703
7931.0 0.0001261 492.33557 9244.72754
10373.0 0.0000964 492.50732 11530.63477
14750.0 0.0000678 492.67755 14886.14746
20801.0 0.0000481 492.84589 20303.70117
26906.0 0.0000372 493.01263 27711.54297
27176.0 0.0000368 493.17767 28995.74219
20165.0 0.0000496 493.34094 19557.38086
14990.0 0.0000667 493.50266 15106.53320
13043.0 0.0000767 493.66266 14238.74121
8588.0 0.0001164 493.82086 8609.77832
3835.0 0.0002608 493.97748 3667.60693
1877.0 0.000533 494.13235 1967.13159
1373.0 0.000728 494.28564 1439.43884
1219.0 0.000820 494.43716 1188.84363
1103.0 0.000907 494.58704 1008.74066
1004.0 0.000996 494.73526 904.68878
969.0 0.001032 494.88181 835.07800
917.0 0.001091 495.02670 768.42096
852.0 0.001174 495.16986 727.81799
781.0 0.001280 495.31140 696.21606
706.0 0.001416 495.45129 673.49884
668.0 0.001497 495.58951 653.48541
684.0 0.001462 495.72607 637.21741
683.0 0.001464 495.86102 626.74487
691.0 0.001447 495.99426 615.97131
674.0 0.001484 496.12589 607.14972
708.0 0.001412 496.25580 599.96814
697.0 0.001435 496.38419 548.54810
642.0 0.001558 496.51086 547.92535
615.0 0.001626 496.63589 548.06793
648.0 0.001543 496.75928 525.05762
664.0 0.001506 496.88110 528.84814
663.0 0.001508 497.00128 533.51910
727.0 0.001376 497.11981 539.44879
724.0 0.001381 497.23676 547.42548
717.0 0.001395 497.35199 560.00415
864.0 0.001157 497.46561 584.98230
799.0 0.001252 497.57767 632.83234
871.0 0.001148 497.68808 705.25708
933.0 0.001072 497.79697 799.30695
1000.0 0.001000 497.90414 919.20703
1139.0 0.000878 498.00980 1071.13953
1318.0 0.000759 498.11383 1260.08960
1517.0 0.000659 498.21625 1498.30872
1765.0 0.000567 498.31705 1809.09082
2154.0 0.000464 498.41626 2224.14404
2868.0 0.0003487 498.51392 2808.32959
3940.0 0.0002538 498.60999 3717.97461
5180.0 0.0001931 498.70441 4974.04785
5379.0 0.0001859 498.79733 5387.24316
3988.0 0.0002508 498.88861 4071.83350
3460.0 0.0002890 498.97842 3491.00366
3497.0 0.0002860 499.06656 3689.66919
3175.0 0.0003150 499.15317 3276.42944
2833.0 0.000353 499.23822 2960.09399
3132.0 0.0003193 499.32169 3373.14063
3244.0 0.0003083 499.40359 3432.41919
2456.0 0.000407 499.48395 2455.35791
1936.0 0.000517 499.56281 1970.53101
1823.0 0.000549 499.64005 1934.22778
1398.0 0.000715 499.71576 1442.65027
912.0 0.001096 499.78995 898.09027
692.0 0.001445 499.86267 689.62134
663.0 0.001508 499.93375 625.50732
608.0 0.001645 500.00336 594.75238
601.0 0.001664 500.07135 575.28156
580.0 0.001724 500.13791 561.79596
548.0 0.001825 500.20294 551.94946
561.0 0.001783 500.26645 544.48376
553.0 0.001808 500.32846 538.65076
582.0 0.001718 500.38885 525.84052
573.0 0.001745 500.44788 522.72412
555.0 0.001802 500.50534 520.18195
550.0 0.001818 500.56131 518.08099
537.0 0.001862 500.61572 512.48828
524.0 0.001908 500.66873 511.31354
533.0 0.001876 500.72018 510.32080
565.0 0.001770 500.77020 504.32068
535.0 0.001869 500.81876 504.02390
544.0 0.001838 500.86581 503.77383
537.0 0.001862 500.91138 503.56201
528.0 0.001894 500.95551 500.95282
531.0 0.001883 500.99814 500.99551
549.0 0.001821 501.03931 509.81140
548.0 0.001825 501.07898 510.46634
498.0 0.002008 501.11728 511.18753
518.0 0.001931 501.15405 511.98578
541.0 0.001848 501.18948 517.38635
544.0 0.001838 501.22336 518.70081
567.0 0.001764 501.25589 520.17590
571.0 0.001751 501.28693 521.83966
548.0 0.001825 501.31653 523.72900
534.0 0.001873 501.34470 525.89014
527.0 0.001898 501.37149 528.37939
546.0 0.001832 501.39679 531.27405
553.0 0.001808 501.42078 534.67212
573.0 0.001745 501.44327 538.70941
577.0 0.001733 501.46436 543.57404
646.0 0.001548 501.48410 549.53070
656.0 0.001524 501.50241 556.98730
680.0 0.001471 501.51929 566.58667
686.0 0.001458 501.53479 579.53326
725.0 0.001379 501.54892 599.20410
834.0 0.001199 501.56168 637.11420
873.0 0.001145 501.57309 716.15295
999.0 0.001001 501.58304 847.99921
1113.0 0.000898 501.59158 1025.79529
1305.0 0.000766 501.59888 1252.36560
1676.0 0.000597 501.60477 1543.28174
1999.0 0.000500 501.60931 1911.36902
2269.0 0.000441 501.61240 2372.07715
2851.0 0.000351 501.61429 2961.44458
3806.0 0.0002627 501.61465 3752.91504
5274.0 0.0001896 501.61389 4918.09180
7341.0 0.0001362 501.61160 6782.53809
9252.0 0.0001081 501.60812 8875.24609
8437.0 0.0001185 501.60321 8109.45459
5633.0 0.0001775 501.59695 5257.80908
4700.0 0.0002128 501.58945 4539.04883
4469.0 0.0002238 501.58054 4516.05371
3064.0 0.0003264 501.57043 2887.18018
1528.0 0.000654 501.55899 1431.26282
930.0 0.001075 501.54623 926.76117
767.0 0.001304 501.53217 772.62103
721.0 0.001387 501.51672 698.01929
681.0 0.001468 501.50006 668.95197
681.0 0.001468 501.48215 639.09125
632.0 0.001582 501.46289 618.35107
599.0 0.001669 501.44244 603.51093
619.0 0.001616 501.42059 601.39520
585.0 0.001709 501.39758 594.13733
594.0 0.001684 501.37320 589.08722
617.0 0.001621 501.34769 585.83752
624.0 0.001603 501.32080 584.10468
633.0 0.001580 501.29269 583.74103
594.0 0.001684 501.26331 584.61981
591.0 0.001692 501.23270 586.75610
621.0 0.001610 501.20090 574.83160
638.0 0.001567 501.16785 581.02246
676.0 0.001479 501.13354 588.76868
708.0 0.001412 501.09799 598.46136
705.0 0.001418 501.06128 603.34338
758.0 0.001319 501.02328 619.62445
825.0 0.001212 500.98410 640.76886
910.0 0.001099 500.94373 669.68091
1038.0 0.000963 500.90210 715.02692
1125.0 0.000889 500.85941 805.43256
1298.0 0.000770 500.81534 988.66327
1527.0 0.000655 500.77014 1282.38855
1906.0 0.000525 500.72372 1673.40747
2190.0 0.000457 500.67627 2175.22900
2664.0 0.000375 500.62750 2825.06299
3248.0 0.0003079 500.57758 3657.08423
4259.0 0.0002348 500.52652 4711.41553
5675.0 0.0001762 500.47430 6088.26074
7679.0 0.0001302 500.42090 8012.98682
11178.0 0.0000895 500.36636 11013.43457
16464.0 0.0000607 500.31064 15384.96191
18700.0 0.0000535 500.25375 17428.97266
12310.0 0.0000812 500.19580 12248.46582
8335.0 0.0001200 500.13669 8526.81250
9009.0 0.0001110 500.07645 8692.17676
7822.0 0.0001278 500.01508 7495.06104
3795.0 0.0002635 499.95251 3806.25928
1664.0 0.000601 499.88885 1808.02368
1079.0 0.000927 499.82413 1208.83801
959.0 0.001043 499.75833 993.10120
802.0 0.001247 499.69135 867.89154
755.0 0.001325 499.62326 780.37982
765.0 0.001307 499.55411 722.08203
686.0 0.001458 499.48389 681.93353
629.0 0.001590 499.41257 652.31201
613.0 0.001631 499.34018 629.55579
595.0 0.001681 499.26666 611.63513
556.0 0.001799 499.19208 597.22571
536.0 0.001866 499.11649 585.45135
544.0 0.001838 499.03976 575.68787
563.0 0.001776 498.96204 567.49097
531.0 0.001883 498.88324 560.53973
519.0 0.001927 498.80341 554.58392
544.0 0.001838 498.72250 519.73743
559.0 0.001789 498.64053 517.65778
542.0 0.001845 498.55759 515.84998
507.0 0.001972 498.47357 498.63431
489.0 0.002045 498.38855 498.44769
482.0 0.002075 498.30249 498.35559
496.0 0.002016 498.21539 498.26334
496.0 0.002016 498.12729 498.17075
490.0 0.002041 498.03830 498.03619
488.0 0.002049 497.94821 497.94614
487.0 0.002053 497.85703 497.85504
490.0 0.002041 497.76505 497.76300
502.0 0.001992 497.67194 497.66983
498.0 0.002008 497.57788 497.57587
481.0 0.002079 497.48285 497.48077
477.0 0.002096 497.38687 497.38483
498.0 0.002008 497.28992 497.28787
483.0 0.002070 497.19196 497.18988
491.0 0.002037 497.09305 497.09097
483.0 0.002070 496.99316 496.99115
518.0 0.001931 496.89243 496.89038
516.0 0.001938 496.79068 496.78864
477.0 0.002096 496.68796 496.68588
497.0 0.002012 496.58432 496.58231
510.0 0.001961 496.47974 496.47772
488.0 0.002049 496.37424 496.37228
509.0 0.001965 496.26782 496.26587
479.0 0.002088 496.16046 496.15851
489.0 0.002045 496.05228 496.05032
487.0 0.002053 495.94308 495.94113
492.0 0.002033 495.83304 495.83115
480.0 0.002083 495.72208 495.72015
504.0 0.001984 495.61020 495.60828
461.0 0.002169 495.49753 495.49557
481.0 0.002079 495.38391 495.38196
463.0 0.002160 495.26941 495.26746
481.0 0.002079 495.15405 495.15210
480.0 0.002083 495.03772 495.03583
482.0 0.002075 494.92062 494.91873
481.0 0.002079 494.80261 494.80078
481.0 0.002079 494.68384 494.68195
467.0 0.002141 494.56412 494.56223
463.0 0.002160 494.44354 494.44171
480.0 0.002083 494.32220 500.77060
468.0 0.002137 494.20004 501.09518
452.0 0.002212 494.07697 501.46741
519.0 0.001927 493.95313 501.89474
523.0 0.001912 493.82840 505.62335
503.0 0.001988 493.70282 506.41415
504.0 0.001984 493.57657 507.31735
471.0 0.002123 493.44943 508.35223
489.0 0.002045 493.32150 509.54352
493.0 0.002028 493.19269 510.92197
496.0 0.002016 493.06317 512.52509
511.0 0.001957 492.93286 514.40289
510.0 0.001961 492.80182 516.61859
495.0 0.002020 492.66989 519.25745
551.0 0.001815 492.53714 522.43481
530.0 0.001887 492.40375 526.30731
537.0 0.001862 492.26950 531.10608
588.0 0.001701 492.13458 537.17059
609.0 0.001642 491.99887 545.04578
614.0 0.001629 491.86230 555.69464
651.0 0.001536 491.72516 571.49481
727.0 0.001376 491.58713 600.63513
801.0 0.001248 491.44836 661.92365
879.0 0.001138 491.30896 768.32379
1001.0 0.000999 491.16876 924.23651
1147.0 0.000872 491.02789 1120.91907
1340.0 0.000746 490.88629 1376.02905
1659.0 0.000603 490.74393 1709.45056
2075.0 0.000482 490.60089 2149.46118
2703.0 0.000370 490.45712 2743.09937
3795.0 0.0002635 490.31268 3616.44019
5493.0 0.0001820 490.16751 4995.26221
7088.0 0.0001411 490.02170 6489.06738
6125.0 0.0001633 489.87515 5833.49756
3955.0 0.0002528 489.72794 3732.28271
3467.0 0.0002884 489.58005 3191.81201
3709.0 0.0002696 489.43149 3460.44922
2874.0 0.0003479 489.28223 2708.06250
1560.0 0.000641 489.13235 1448.54895
883.0 0.001133 488.98181 901.25763
713.0 0.001403 488.83066 741.59552
664.0 0.001506 488.67877 677.59271
614.0 0.001629 488.52628 642.84698
646.0 0.001548 488.37314 623.60986
661.0 0.001513 488.21927 615.95099
676.0 0.001479 488.06494 623.08405
737.0 0.001357 487.90988 655.39227
725.0 0.001379 487.75424 717.48425
879.0 0.001138 487.59793 808.36456
959.0 0.001043 487.44101 929.52100
1087.0 0.000920 487.28354 1090.98462
1256.0 0.000796 487.12543 1303.23132
1529.0 0.000654 486.96674 1587.09851
2074.0 0.000482 486.80746 1984.32471
2838.0 0.000352 486.64755 2583.82324
3909.0 0.0002558 486.48706 3497.49390
4346.0 0.0002301 486.32599 4080.35156
3178.0 0.0003147 486.16443 3091.58398
2153.0 0.000464 486.00217 2130.76807
2221.0 0.000450 485.83939 2108.16675
2242.0 0.000446 485.67609 2182.31396
1583.0 0.000632 485.51218 1516.73975
895.0 0.001117 485.34772 900.21234
641.0 0.001560 485.18274 681.00214
583.0 0.001715 485.01718 613.14093
517.0 0.001934 484.85110 580.99396
520.0 0.001923 484.68451 561.74011
548.0 0.001825 484.51733 549.43518
542.0 0.001845 484.34970 541.45813
543.0 0.001842 484.18155 536.53284
547.0 0.001828 484.01276 534.17908
544.0 0.001838 483.84357 535.00299
551.0 0.001815 483.67386 541.70685
561.0 0.001783 483.50363 557.25934
555.0 0.001802 483.33295 582.55664
575.0 0.001739 483.16171 616.33569
606.0 0.001650 482.98990 660.71704
669.0 0.001495 482.81775 720.43005
754.0 0.001326 482.64508 794.69067
888.0 0.001126 482.47183 907.10980
1058.0 0.000945 482.29825 1076.88013
1325.0 0.000755 482.12415 1347.42627
1601.0 0.000625 481.94958 1618.11011
1532.0 0.000653 481.77457 1490.16296
1216.0 0.000822 481.59903 1203.43518
1169.0 0.000855 481.42316 1216.86145
1329.0 0.000752 481.24680 1379.56494
1353.0 0.000739 481.07004 1398.72168
1321.0 0.000757 480.89276 1385.18591
1589.0 0.000629 480.71506 1608.12964
2004.0 0.000499 480.53696 2031.05811
1990.0 0.000503 480.35840 2193.74219
1454.0 0.000688 480.17944 1625.51953
1156.0 0.000865 480.00012 1240.74133
1217.0 0.000822 479.82031 1271.63159
1235.0 0.000810 479.64011 1288.37842
911.0 0.001098 479.45947 948.63501
639.0 0.001565 479.27856 669.07935
529.0 0.001890 479.09717 572.49585
518.0 0.001931 478.91537 540.81525
476.0 0.002101 478.73328 524.69769
466.0 0.002146 478.55066 514.47113
451.0 0.002217 478.36783 507.42215
489.0 0.002045 478.18451 502.28702
445.0 0.002247 478.00082 496.36276
449.0 0.002227 477.81693 493.47327
442.0 0.002262 477.63245 491.15909
452.0 0.002212 477.44778 489.26456
442.0 0.002262 477.26273 486.67307
433.0 0.002309 477.07727 485.41382
456.0 0.002193 476.89154 484.33151
427.0 0.002342 476.70538 483.38803
432.0 0.002315 476.51898 482.55603
414.0 0.002415 476.33228 478.64581
445.0 0.002247 476.14508 478.23395
436.0 0.002294 475.95776 477.85333
417.0 0.002398 475.76996 477.49799
450.0 0.002222 475.58197 475.58069
392.0 0.002551 475.39365 475.39230
407.0 0.002457 475.20496 475.20370
441.0 0.002268 475.01608 475.01477
470.0 0.002128 474.82681 474.82553
446.0 0.002242 474.63736 474.63602
450.0 0.002222 474.44751 474.44623
446.0 0.002242 474.25735 474.25601
446.0 0.002242 474.06702 474.06570
450.0 0.002222 473.87628 473.87503
430.0 0.002326 473.68549 473.68420
424.0 0.002358 473.49429 473.49304
457.0 0.002188 473.30283 473.30154
433.0 0.002309 473.11111 473.10986
417.0 0.002398 472.91913 472.91788
434.0 0.002304 472.72699 472.72562
436.0 0.002294 472.53452 472.53323
436.0 0.002294 472.34177 472.34048
459.0 0.002179 472.14890 472.14758
448.0 0.002232 471.95566 471.95438
431.0 0.002320 471.76236 471.76102
423.0 0.002364 471.56873 471.56744
427.0 0.002342 471.37482 471.37357
440.0 0.002273 471.18082 471.17953
430.0 0.002326 470.98651 470.98526
419.0 0.002387 470.79199 470.79080
437.0 0.002288 470.59735 470.59613
440.0 0.002273 470.40250 470.40121
449.0 0.002227 470.20737 470.20612
464.0 0.002155 470.01208 470.01080
458.0 0.002183 469.81668 469.81540
451.0 0.002217 469.62097 469.61975
455.0 0.002198 469.42514 474.77048
451.0 0.002217 469.22916 474.93900
437.0 0.002288 469.03299 475.14603
458.0 0.002183 468.83664 478.66333
467.0 0.002141 468.64017 481.81070
490.0 0.002041 468.44342 482.60117
526.0 0.001901 468.24658 483.50803
506.0 0.001976 468.04959 488.25305
515.0 0.001942 467.85248 489.71024
544.0 0.001838 467.65515 491.38397
491.0 0.002037 467.45773 493.31543
526.0 0.001901 467.26016 496.58264
539.0 0.001855 467.06247 499.26453
538.0 0.001859 466.86465 502.40863
496.0 0.002016 466.66672 506.12625
524.0 0.001908 466.46860 510.56519
524.0 0.001908 466.27039 515.92249
485.0 0.002062 466.07205 522.48364
537.0 0.001862 465.87363 530.65613
594.0 0.001684 465.67511 541.07269
596.0 0.001678 465.47650 554.77917
662.0 0.001511 465.27771 573.91718
742.0 0.001348 465.07892 605.01569
887.0 0.001127 464.87997 665.20300
942.0 0.001062 464.68100 773.65497
1071.0 0.000934 464.48175 943.18347
1201.0 0.000833 464.28268 1180.16492
1505.0 0.000664 464.08331 1502.81384
1865.0 0.000536 463.88403 1945.93738
2428.0 0.000412 463.68466 2556.77588
3446.0 0.0002902 463.48517 3438.61353
4693.0 0.0002131 463.28564 4795.39941
6144.0 0.0001628 463.08606 6492.22461
6511.0 0.0001536 462.88638 6900.51221
6073.0 0.0001647 462.68668 5951.81055
5920.0 0.0001689 462.48694 5887.39355
5563.0 0.0001798 462.28717 5559.88672
5007.0 0.0001997 462.08725 5040.21094
4743.0 0.0002108 461.88748 4423.20605
4604.0 0.0002172 461.68750 4279.93994
3626.0 0.0002758 461.48749 3349.21753
2271.0 0.000440 461.28760 2013.07410
1732.0 0.000577 461.08762 1561.65601
1709.0 0.000585 460.88763 1581.53918
1495.0 0.000669 460.68756 1419.19385
1028.0 0.000973 460.48749 969.51984
718.0 0.001393 460.28748 717.65973
625.0 0.001600 460.08740 632.05414
560.0 0.001786 459.88736 593.38293
551.0 0.001815 459.68729 569.48029
543.0 0.001842 459.48721 552.92914
518.0 0.001931 459.28717 540.90442
520.0 0.001923 459.08719 531.91040
540.0 0.001852 458.88712 525.09332
536.0 0.001866 458.68719 509.80112
527.0 0.001898 458.48712 506.79871
524.0 0.001908 458.28720 504.81326
512.0 0.001953 458.08728 498.01605
531.0 0.001883 457.88748 498.31461
520.0 0.001923 457.68753 496.26157
526.0 0.001901 457.48770 498.95483
479.0 0.002088 457.28799 496.15128
508.0 0.001969 457.08817 502.33392
538.0 0.001859 456.88861 511.69485
579.0 0.001727 456.68896 524.92731
602.0 0.001661 456.48932 547.68951
676.0 0.001479 456.28983 599.56958
790.0 0.001266 456.09042 688.39032
859.0 0.001164 455.89096 819.36139
1036.0 0.000965 455.69171 990.00122
1137.0 0.000880 455.49243 1213.39380
1475.0 0.000678 455.29330 1522.00610
1960.0 0.000510 455.09412 1967.04895
2683.0 0.000373 454.89523 2652.35571
3935.0 0.0002541 454.69632 3656.34741
4347.0 0.0002300 454.49744 4244.68750
3080.0 0.0003247 454.29868 3121.55542
1915.0 0.000522 454.10004 2088.17798
2034.0 0.000492 453.90149 2035.65076
2317.0 0.000432 453.70306 2314.16382
1978.0 0.000506 453.50470 1944.49536
1163.0 0.000860 453.30652 1146.84070
722.0 0.001385 453.10834 782.11359
665.0 0.001504 452.91043 695.92920
648.0 0.001543 452.71246 694.63312
665.0 0.001504 452.51468 727.48706
681.0 0.001468 452.31705 788.40936
791.0 0.001264 452.11951 885.00104
1019.0 0.000981 451.92212 1033.33545
1246.0 0.000803 451.72498 1269.82104
1616.0 0.000619 451.52765 1616.17920
1749.0 0.000572 451.33078 1797.51855
1382.0 0.000724 451.13388 1389.47571
1002.0 0.000998 450.93729 1044.41309
966.0 0.001035 450.74069 1035.23962
1098.0 0.000911 450.54419 1135.06897
965.0 0.001036 450.34805 1010.26935
750.0 0.001333 450.15198 730.16559
648.0 0.001543 449.95599 608.71484
656.0 0.001524 449.76028 586.07489
675.0 0.001481 449.56461 606.53888
737.0 0.001357 449.36923 666.61768
792.0 0.001263 449.17392 777.93488
920.0 0.001087 448.97891 932.04504
1107.0 0.000903 448.78391 1138.86731
1375.0 0.000727 448.58920 1423.00574
1861.0 0.000537 448.39471 1825.17090
2608.0 0.000383 448.20032 2434.95972
3712.0 0.0002694 448.00623 3383.12231
4550.0 0.0002198 447.81219 4319.78076
3838.0 0.0002606 447.61835 3718.17529
2441.0 0.000410 447.42480 2342.93970
2002.0 0.000500 447.23141 1975.29297
2344.0 0.000427 447.03830 2249.02612
2263.0 0.000442 446.84534 2265.84814
1507.0 0.000664 446.65250 1454.21460
885.0 0.001130 446.45996 855.92450
647.0 0.001546 446.26758 653.80334
574.0 0.001742 446.07553 588.97552
556.0 0.001799 445.88364 559.61890
569.0 0.001757 445.69189 541.55743
529.0 0.001890 445.50049 520.36865
482.0 0.002075 445.30923 502.84293
476.0 0.002101 445.11829 494.02182
499.0 0.002004 444.92752 489.66122
485.0 0.002062 444.73697 483.65131
437.0 0.002288 444.54663 474.71826
411.0 0.002433 444.35666 468.64026
426.0 0.002347 444.16684 465.02606
411.0 0.002433 443.97733 462.38846
409.0 0.002445 443.78802 460.22781
401.0 0.002494 443.59900 450.28680
424.0 0.002358 443.41013 449.37656
424.0 0.002358 443.22162 448.58292
434.0 0.002304 443.03336 447.88031
424.0 0.002358 442.84531 443.03485
404.0 0.002475 442.65762 442.82117
390.0 0.002564 442.47009 442.61273
402.0 0.002488 442.28290 442.40848
396.0 0.002525 442.09604 442.20740
395.0 0.002532 441.90927 442.00885
406.0 0.002463 441.72290 441.81247
391.0 0.002558 441.53683 441.57141
411.0 0.002433 441.35107 441.38205
419.0 0.002387 441.16547 441.19345
405.0 0.002469 440.98016 441.00543
401.0 0.002494 440.79532 440.79410
425.0 0.002353 440.61063 440.60934
402.0 0.002488 440.42630 440.42508
399.0 0.002506 440.24219 440.24103
386.0 0.002591 440.05841 440.05716
381.0 0.002625 439.87491 439.87375
366.0 0.002732 439.69177 439.69055
421.0 0.002375 439.50897 439.50775
425.0 0.002353 439.32645 439.32520
427.0 0.002342 439.14413 439.14294
416.0 0.002404 438.96222 438.96097
416.0 0.002404 438.78064 438.77942
417.0 0.002398 438.59943 438.59814
397.0 0.002519 438.41843 438.41721
392.0 0.002551 438.23776 438.23648
397.0 0.002519 438.05750 438.05621
417.0 0.002398 437.87744 437.87622
392.0 0.002551 437.69788 437.69662
377.0 0.002653 437.51846 437.51724
396.0 0.002525 437.33951 437.33826
424.0 0.002358 437.16083 437.15961
409.0 0.002445 436.98257 436.98132
388.0 0.002577 436.80463 436.80334
387.0 0.002584 436.62698 436.62576
388.0 0.002577 436.44968 436.44849
397.0 0.002519 436.27274 436.27155
426.0 0.002347 436.09622 436.09491
409.0 0.002445 435.92001 435.91873
406.0 0.002463 435.74411 435.74289
402.0 0.002488 435.56860 435.56738
428.0 0.002336 435.39352 435.39224
386.0 0.002591 435.21869 435.21741
407.0 0.002457 435.04437 435.04306
396.0 0.002525 434.87021 434.86896
388.0 0.002577 434.69647 434.69522
389.0 0.002571 434.52319 434.52194
404.0 0.002475 434.35025 434.34900
411.0 0.002433 434.17767 434.17633
414.0 0.002415 434.00552 434.00418
438.0 0.002283 433.83365 433.83234
412.0 0.002427 433.66226 433.66092
417.0 0.002398 433.49115 433.48981
359.0 0.002786 433.32056 433.31918
398.0 0.002513 433.15021 433.14886
401.0 0.002494 432.98026 432.97894
376.0 0.002660 432.81082 432.80942
437.0 0.002288 432.64166 432.64035
406.0 0.002463 432.47296 432.47165
438.0 0.002283 432.30466 432.30334
381.0 0.002625 432.13660 432.13531
441.0 0.002268 431.96921 431.96783
397.0 0.002519 431.80203 431.80063
449.0 0.002227 431.63535 431.63400
405.0 0.002469 431.46899 431.46765
408.0 0.002451 431.30307 431.30167
403.0 0.002481 431.13757 431.13623
390.0 0.002564 430.97250 430.97107
437.0 0.002288 430.80786 430.80646
383.0 0.002611 430.64362 430.64224
392.0 0.002551 430.47964 430.47827
370.0 0.002703 430.31628 432.16849
419.0 0.002387 430.15323 432.12839
433.0 0.002309 429.99072 432.10135
415.0 0.002410 429.82858 432.08929
421.0 0.002375 429.66678 432.09433
418.0 0.002392 429.50549 433.05292
410.0 0.002439 429.34457 433.16281
412.0 0.002427 429.18417 433.30548
436.0 0.002294 429.02411 433.48679
420.0 0.002381 428.86447 433.71344
407.0 0.002457 428.70544 433.99365
397.0 0.002519 428.54663 442.18637
393.0 0.002545 428.38843 443.14423
391.0 0.002558 428.23059 444.25366
426.0 0.002347 428.07318 445.54520
434.0 0.002304 427.91629 450.75934
427.0 0.002342 427.75974 452.78915
444.0 0.002252 427.60367 455.18393
461.0 0.002169 427.44815 461.44821
467.0 0.002141 427.29291 465.13901
459.0 0.002179 427.13828 469.65466
464.0 0.002155 426.98398 475.31570
481.0 0.002079 426.83020 482.66162
504.0 0.001984 426.67691 495.75436
558.0 0.001792 426.52399 512.96924
588.0 0.001701 426.37152 545.62292
615.0 0.001626 426.21957 599.48254
656.0 0.001524 426.06812 680.51038
740.0 0.001351 425.91711 785.60870
940.0 0.001064 425.76654 927.66132
1145.0 0.000873 425.61646 1134.77148
1546.0 0.000647 425.46683 1453.74805
2145.0 0.000466 425.31775 1924.20105
2506.0 0.000399 425.16898 2246.00781
2041.0 0.000490 425.02078 1821.06445
1541.0 0.000649 424.87308 1425.20959
1614.0 0.000620 424.72583 1541.20862
1929.0 0.000518 424.57907 1977.35596
2231.0 0.000448 424.43271 2394.84131
2458.0 0.000407 424.28690 2585.73413
2875.0 0.0003478 424.14157 3078.81250
3877.0 0.0002579 423.99670 4164.61621
5727.0 0.0001746 423.85242 5930.91846
6985.0 0.0001432 423.70847 7322.77637
5328.0 0.0001877 423.56506 5766.63330
3353.0 0.0002982 423.42221 3777.52490
3142.0 0.0003183 423.27975 3573.31006
4177.0 0.0002394 423.13791 4426.76709
5046.0 0.0001982 422.99643 5204.56543
4902.0 0.0002040 422.85538 4749.22266
4425.0 0.0002260 422.71506 4301.62598
3440.0 0.0002907 422.57507 3398.78198
2295.0 0.000436 422.43561 2331.47607
2096.0 0.000477 422.29675 2132.23950
2549.0 0.000392 422.15820 2528.80200
2991.0 0.0003343 422.02032 2913.03296
2252.0 0.000444 421.88284 2275.68433
1281.0 0.000781 421.74591 1355.24597
955.0 0.001047 421.60950 1016.20386
905.0 0.001105 421.47351 995.23029
963.0 0.001038 421.33810 1020.71295
832.0 0.001202 421.20319 853.62097
634.0 0.001577 421.06882 647.31415
549.0 0.001821 420.93491 556.17224
489.0 0.002045 420.80151 521.30353
462.0 0.002165 420.66867 487.95624
471.0 0.002123 420.53632 476.22473
471.0 0.002123 420.40451 467.75323
441.0 0.002268 420.27316 461.35260
443.0 0.002257 420.14230 456.37296
440.0 0.002273 420.01208 445.36023
436.0 0.002294 419.88229 442.79739
465.0 0.002151 419.75302 434.43323
429.0 0.002331 419.62433 433.51413
406.0 0.002463 419.49609 433.07657
414.0 0.002415 419.36847 433.35297
420.0 0.002381 419.24127 435.14490
405.0 0.002469 419.11469 436.61612
413.0 0.002421 418.98853 445.14609
447.0 0.002237 418.86298 457.28549
454.0 0.002203 418.73795 474.02945
462.0 0.002165 418.61349 497.46454
506.0 0.001976 418.48947 533.48718
509.0 0.001965 418.36606 590.06152
544.0 0.001838 418.24307 645.41095
536.0 0.001866 418.12073 609.91620
456.0 0.002193 417.99893 528.47693
473.0 0.002114 417.87756 503.27579
456.0 0.002193 417.75677 517.36237
476.0 0.002101 417.63654 536.52557
506.0 0.001976 417.51682 510.04251
421.0 0.002375 417.39767 463.67883
444.0 0.002252 417.27902 443.42636
424.0 0.002358 417.16101 437.82150
422.0 0.002370 417.04340 436.35342
406.0 0.002463 416.92645 436.42950
438.0 0.002283 416.81000 437.54654
449.0 0.002227 416.69409 439.63571
426.0 0.002347 416.57877 444.25272
439.0 0.002278 416.46384 449.11554
501.0 0.001996 416.34958 456.49503
503.0 0.001988 416.23584 471.20602
544.0 0.001838 416.12274 497.95093
549.0 0.001821 416.01007 549.83032
661.0 0.001513 415.89798 630.90485
743.0 0.001346 415.78647 741.25293
850.0 0.001176 415.67545 893.55737
1124.0 0.000890 415.56503 1115.88586
1636.0 0.000611 415.45517 1463.22852
2189.0 0.000457 415.34583 1971.23193
2435.0 0.000411 415.23709 2273.69751
1841.0 0.000543 415.12885 1714.08472
1105.0 0.000905 415.02124 1165.55212
1107.0 0.000903 414.91412 1083.58508
1274.0 0.000785 414.80753 1244.28870
1320.0 0.000758 414.70154 1342.09033
1063.0 0.000941 414.59610 1016.71210
701.0 0.001427 414.49124 682.35614
569.0 0.001757 414.38690 555.48346
512.0 0.001953 414.28314 517.44159
529.0 0.001890 414.17993 503.81552
535.0 0.001869 414.07739 501.59171
549.0 0.001821 413.97525 511.59720
603.0 0.001658 413.87375 542.00391
644.0 0.001553 413.77274 591.03473
740.0 0.001351 413.67236 668.88995
840.0 0.001190 413.57251 784.65503
1024.0 0.000977 413.47330 959.17859
1281.0 0.000781 413.37463 1236.07532
1703.0 0.000587 413.27646 1644.42249
2038.0 0.000491 413.17889 2024.97998
1950.0 0.000513 413.08188 1945.69775
1959.0 0.000510 412.98541 1890.53296
2406.0 0.000416 412.88959 2248.34375
2532.0 0.000395 412.79425 2438.63062
2003.0 0.000499 412.69955 1952.16296
1463.0 0.000684 412.60532 1427.73596
1219.0 0.000820 412.51181 1184.69592
1306.0 0.000766 412.41873 1239.17102
1285.0 0.000778 412.32626 1245.47681
984.0 0.001016 412.23438 916.17657
704.0 0.001420 412.14304 658.82971
576.0 0.001736 412.05231 577.00995
584.0 0.001712 411.96210 572.95483
611.0 0.001637 411.87250 603.99213
646.0 0.001548 411.78351 666.43597
723.0 0.001383 411.69504 758.50586
910.0 0.001099 411.60712 894.22382
1130.0 0.000885 411.51981 1117.62646
1471.0 0.000680 411.43304 1465.46143
1713.0 0.000584 411.34686 1742.39722
1411.0 0.000709 411.26129 1495.87915
1191.0 0.000840 411.17627 1203.11523
1225.0 0.000816 411.09183 1254.81104
1632.0 0.000613 411.00790 1558.56519
2087.0 0.000479 410.92468 1976.71692
2140.0 0.000467 410.84198 2045.13843
1385.0 0.000722 410.75977 1475.99634
895.0 0.001117 410.67825 987.24469
822.0 0.001217 410.59717 873.13324
949.0 0.001054 410.51675 948.89044
1024.0 0.000977 410.43689 1036.16614
878.0 0.001139 410.35767 876.59460
616.0 0.001623 410.27893 628.45251
483.0 0.002070 410.20081 518.52112
489.0 0.002045 410.12329 482.68457
479.0 0.002088 410.04636 467.37381
436.0 0.002294 409.96994 459.06638
451.0 0.002217 409.89413 454.34412
417.0 0.002398 409.81885 451.85498
445.0 0.002247 409.74426 451.59125
459.0 0.002179 409.67014 453.71207
474.0 0.002110 409.59662 456.25906
491.0 0.002037 409.52374 467.79398
539.0 0.001855 409.45142 493.55545
548.0 0.001825 409.37964 542.36377
644.0 0.001553 409.30847 619.98608
714.0 0.001401 409.23785 724.18323
825.0 0.001212 409.16788 873.38287
1106.0 0.000904 409.09839 1101.30273
1511.0 0.000662 409.02948 1460.41711
1878.0 0.000532 408.96121 1871.40503
1729.0 0.000578 408.89352 1771.79761
1146.0 0.000873 408.82642 1184.40686
913.0 0.001095 408.75986 927.63739
999.0 0.001001 408.69385 969.96057
1140.0 0.000877 408.62848 1128.24719
1080.0 0.000926 408.56363 1119.85925
781.0 0.001280 408.49942 791.80798
556.0 0.001799 408.43573 567.60205
472.0 0.002119 408.37268 490.05316
450.0 0.002222 408.31018 462.18964
442.0 0.002262 408.24823 447.65048
423.0 0.002364 408.18692 438.53616
435.0 0.002299 408.12616 432.35211
447.0 0.002237 408.06595 427.92700
418.0 0.002392 408.00641 424.62787
426.0 0.002347 407.94736 422.08932
444.0 0.002252 407.88895 420.08429
431.0 0.002320 407.83102 418.46631
450.0 0.002222 407.77380 417.13828
416.0 0.002404 407.71707 417.42432
392.0 0.002551 407.66095 416.58240
405.0 0.002469 407.60538 412.26950
392.0 0.002551 407.55035 411.99741
423.0 0.002364 407.49600 411.79013
391.0 0.002558 407.44220 412.31866
434.0 0.002304 407.38892 412.26474
422.0 0.002370 407.33627 412.26404
416.0 0.002404 407.28421 410.63452
403.0 0.002481 407.23270 416.88693
435.0 0.002299 407.18173 417.57401
412.0 0.002427 407.13135 418.35275
411.0 0.002433 407.08157 419.23996
419.0 0.002387 407.03241 420.25650
436.0 0.002294 406.98373 424.34875
442.0 0.002262 406.93570 425.90112
430.0 0.002326 406.88824 427.70456
413.0 0.002421 406.84134 429.82111
472.0 0.002119 406.79501 432.33405
439.0 0.002278 406.74927 435.35843
450.0 0.002222 406.70407 439.06616
475.0 0.002105 406.65952 443.71616
440.0 0.002273 406.61545 449.74380
507.0 0.001972 406.57205 458.41171
497.0 0.002012 406.52911 471.46625
518.0 0.001931 406.48682 495.73700
577.0 0.001733 406.44510 538.85657
606.0 0.001650 406.40393 605.67407
708.0 0.001412 406.36334 697.33594
850.0 0.001176 406.32336 827.73511
1077.0 0.000929 406.28387 1024.62207
1409.0 0.000710 406.24506 1327.74988
1757.0 0.000569 406.20673 1628.23328
1666.0 0.000600 406.16895 1484.25378
1318.0 0.000759 406.13187 1140.27991
1212.0 0.000825 406.09528 1146.47559
1369.0 0.000730 406.05927 1430.63660
1780.0 0.000562 406.02380 1911.15173
2284.0 0.000438 405.98889 2377.76172
2982.0 0.0003353 405.95465 2848.44238
4096.0 0.0002441 405.92087 3843.34985
5224.0 0.0001914 405.88763 5139.11133
4727.0 0.0002116 405.85507 4926.27490
2915.0 0.0003431 405.82303 2997.44922
1951.0 0.000513 405.79147 2083.17017
2085.0 0.000480 405.76062 2152.48096
2612.0 0.000383 405.73022 2656.93115
2687.0 0.000372 405.70050 2864.79248
1937.0 0.000516 405.67126 1931.07617
1091.0 0.000917 405.64261 1082.86133
729.0 0.001372 405.61453 776.36285
684.0 0.001462 405.58704 691.52167
657.0 0.001522 405.56003 677.51672
678.0 0.001475 405.53369 706.92841
774.0 0.001292 405.50784 768.38470
800.0 0.001250 405.48254 789.34766
720.0 0.001389 405.45782 677.96808
608.0 0.001645 405.43369 594.96167
624.0 0.001603 405.41003 589.75494
637.0 0.001570 405.38705 634.10303
680.0 0.001471 405.36453 695.03729
692.0 0.001445 405.34262 714.62482
725.0 0.001379 405.32132 728.09070
821.0 0.001218 405.30054 816.22540
1031.0 0.000970 405.28024 1000.31567
1154.0 0.000867 405.26053 1220.65405
1116.0 0.000896 405.24142 1201.55688
951.0 0.001052 405.22284 1003.05096
953.0 0.001049 405.20483 1006.72833
1216.0 0.000822 405.18738 1203.73022
1540.0 0.000649 405.17041 1550.40210
1822.0 0.000549 405.15402 1780.52002
1347.0 0.000742 405.13824 1377.41614
841.0 0.001189 405.12296 911.47839
761.0 0.001314 405.10831 774.31641
836.0 0.001196 405.09412 818.81281
916.0 0.001092 405.08051 920.50330
908.0 0.001101 405.06744 879.03882
666.0 0.001502 405.05493 652.54449
515.0 0.001942 405.04294 514.93842
434.0 0.002304 405.03149 466.99213
426.0 0.002347 405.02060 448.25998
430.0 0.002326 405.01035 437.86957
411.0 0.002433 405.00052 431.12473
425.0 0.002353 404.99127 426.42105
421.0 0.002375 404.98257 422.97104
425.0 0.002353 404.97443 419.98929
400.0 0.002500 404.96683 417.95441
390.0 0.002564 404.95975 416.32547
413.0 0.002421 404.95322 414.99765
443.0 0.002257 404.94724 413.89783
411.0 0.002433 404.94180 412.79239
411.0 0.002433 404.93692 412.02039
405.0 0.002469 404.93253 411.35922
383.0 0.002611 404.92865 410.78864
375.0 0.002667 404.92535 410.44800
393.0 0.002545 404.92261 409.13202
396.0 0.002525 404.92035 408.81482
393.0 0.002545 404.91864 408.53787
373.0 0.002681 404.91751 408.29553
370.0 0.002703 404.91687 408.15778
405.0 0.002469 404.91678 406.20255
400.0 0.002500 404.91721 406.15524
399.0 0.002506 404.91818 406.11978
414.0 0.002415 404.91968 406.09534
403.0 0.002481 404.92169 406.08188
401.0 0.002494 404.92422 406.07938
408.0 0.002451 404.92734 405.45456
400.0 0.002500 404.93088 405.51465
390.0 0.002564 404.93500 405.58496
400.0 0.002500 404.93964 405.66791
404.0 0.002475 404.94485 405.76678
404.0 0.002475 404.95059 405.88596
387.0 0.002584 404.95679 406.51862
387.0 0.002584 404.96350 406.73273
432.0 0.002315 404.97070 406.99942
418.0 0.002392 404.97855 407.34003
390.0 0.002564 404.98682 407.79056
379.0 0.002639 404.99567 408.64975
400.0 0.002500 405.00500 409.63293
410.0 0.002439 405.01486 411.45886
425.0 0.002353 405.02518 416.40775
396.0 0.002525 405.03607 422.55045
433.0 0.002309 405.04749 432.17480
447.0 0.002237 405.05939 445.26794
467.0 0.002141 405.07178 464.98288
502.0 0.001992 405.08475 495.82330
558.0 0.001792 405.09818 529.48969
592.0 0.001689 405.11212 517.08453
471.0 0.002123 405.12650 469.74808
448.0 0.002232 405.14151 450.28195
435.0 0.002299 405.15692 453.66058
477.0 0.002096 405.17300 467.54083
499.0 0.002004 405.18942 476.78018
498.0 0.002008 405.20639 457.34769
424.0 0.002358 405.22385 435.80194
442.0 0.002262 405.24182 428.83313
399.0 0.002506 405.26031 429.65140
444.0 0.002252 405.27933 435.25089
427.0 0.002342 405.29877 447.93253
484.0 0.002066 405.31876 468.91016
517.0 0.001934 405.33923 501.40601
573.0 0.001745 405.36020 547.31451
674.0 0.001484 405.38165 616.59210
760.0 0.001316 405.40356 721.83636
875.0 0.001143 405.42606 812.25293
837.0 0.001195 405.44897 738.67041
652.0 0.001534 405.47244 629.79547
620.0 0.001613 405.49631 634.12970
677.0 0.001477 405.52075 723.39581
858.0 0.001166 405.54559 865.99872
1035.0 0.000966 405.57098 1029.94312
1167.0 0.000857 405.59692 1191.86365
1311.0 0.000763 405.62317 1409.16040
1258.0 0.000795 405.65009 1354.10010
909.0 0.001100 405.67737 950.97095
693.0 0.001443 405.70517 746.33502
689.0 0.001451 405.73340 745.80927
817.0 0.001224 405.76218 848.66718
909.0 0.001100 405.79141 954.01184
824.0 0.001214 405.82114 850.14221
667.0 0.001499 405.85129 664.96344
637.0 0.001570 405.88193 608.16223
700.0 0.001429 405.91306 637.10797
750.0 0.001333 405.94467 671.94598
672.0 0.001488 405.97672 603.42712
565.0 0.001770 406.00934 520.85767
532.0 0.001880 406.04230 496.06656
536.0 0.001866 406.07581 505.13434
587.0 0.001704 406.10971 529.35040
565.0 0.001770 406.14417 535.78308
511.0 0.001957 406.17902 488.64359
474.0 0.002110 406.21442 450.92334
429.0 0.002331 406.25015 436.91919
452.0 0.002212 406.28644 432.16461
425.0 0.002353 406.32318 430.12033
453.0 0.002208 406.36035 428.79913
411.0 0.002433 406.39801 428.75082
472.0 0.002119 406.43604 429.29483
448.0 0.002232 406.47467 430.37170
414.0 0.002415 406.51370 431.99252
458.0 0.002183 406.55313 433.97363
510.0 0.001961 406.59302 437.54672
496.0 0.002016 406.63339 441.50385
472.0 0.002119 406.67419 445.41397
512.0 0.001953 406.71548 452.50070
510.0 0.001961 406.75720 462.24115
601.0 0.001664 406.79935 476.28537
591.0 0.001692 406.84198 499.04758
683.0 0.001464 406.88498 542.52850
755.0 0.001325 406.92850 632.12775
835.0 0.001198 406.97247 780.21198
989.0 0.001011 407.01682 1020.55457
1353.0 0.000739 407.06161 1346.84619
2026.0 0.000494 407.10681 1872.23083
3098.0 0.0003228 407.15265 2634.24731
3666.0 0.0002728 407.19867 3230.06006
2673.0 0.000374 407.24530 2541.43896
1596.0 0.000627 407.29227 1552.68018
1180.0 0.000847 407.33966 1242.87976
1377.0 0.000726 407.38751 1364.07288
1784.0 0.000561 407.43582 1683.48499
1977.0 0.000506 407.48453 1840.83557
1493.0 0.000670 407.53366 1325.29224
895.0 0.001117 407.58325 814.56329
611.0 0.001637 407.63327 613.11322
557.0 0.001795 407.68365 545.92981
538.0 0.001859 407.73447 517.34265
536.0 0.001866 407.78577 509.65631
555.0 0.001802 407.83743 514.55011
563.0 0.001776 407.88956 533.58313
604.0 0.001656 407.94205 572.52380
671.0 0.001490 407.99496 629.40985
808.0 0.001238 408.04834 723.96954
925.0 0.001081 408.10211 856.55878
945.0 0.001058 408.15631 918.46649
834.0 0.001199 408.21078 758.64709
685.0 0.001460 408.26584 622.09497
638.0 0.001567 408.32120 595.18927
659.0 0.001517 408.37704 628.24219
748.0 0.001337 408.43320 688.49457
816.0 0.001225 408.48981 702.91211
760.0 0.001316 408.54688 612.84955
659.0 0.001517 408.60431 549.98895
627.0 0.001595 408.66211 538.27722
680.0 0.001471 408.72031 550.63599
751.0 0.001332 408.77896 579.54681
829.0 0.001206 408.83792 634.09137
930.0 0.001075 408.89734 758.48663
1040.0 0.000962 408.95721 992.30731
1349.0 0.000741 409.01736 1358.43457
1832.0 0.000546 409.07797 1910.34839
2695.0 0.000371 409.13892 2747.10889
4284.0 0.0002334 409.20026 3996.45776
5727.0 0.0001746 409.26202 5312.12500
5008.0 0.0001997 409.32425 4743.73730
2875.0 0.0003478 409.38666 2777.15137
1888.0 0.000530 409.44962 1932.58020
1941.0 0.000515 409.51291 1992.43140
2502.0 0.000400 409.57657 2485.85693
3140.0 0.0003185 409.64063 3007.26074
2639.0 0.000379 409.70505 2518.05957
1586.0 0.000631 409.76990 1467.44141
1050.0 0.000952 409.83508 986.83850
950.0 0.001053 409.90063 888.48779
1004.0 0.000996 409.96658 930.85809
1042.0 0.000960 410.03284 1077.42957
1502.0 0.000666 410.09952 1325.67322
1785.0 0.000560 410.16656 1524.52771
1568.0 0.000638 410.23398 1345.75220
1252.0 0.000799 410.30173 1164.06946
1290.0 0.000775 410.36987 1219.69922
1560.0 0.000641 410.43839 1456.91748
1996.0 0.000501 410.50720 1776.16748
2095.0 0.000477 410.57645 1716.73328
1389.0 0.000720 410.64603 1224.84827
961.0 0.001041 410.71594 927.67535
955.0 0.001047 410.78625 875.57312
1040.0 0.000962 410.85687 941.69788
1155.0 0.000866 410.92798 1050.82666
1126.0 0.000888 410.99927 1020.89020
1045.0 0.000957 411.07104 923.79248
1077.0 0.000929 411.14304 995.93781
1284.0 0.000779 411.21548 1230.19482
1719.0 0.000582 411.28824 1646.95654
2316.0 0.000432 411.36133 2228.37793
2640.0 0.000379 411.43472 2583.35669
2554.0 0.000392 411.50848 2612.42627
2849.0 0.000351 411.58267 3040.47485
3250.0 0.0003077 411.65714 3421.05786
3109.0 0.0003216 411.73190 3080.84814
2777.0 0.000360 411.80701 2911.65723
2419.0 0.000413 411.88251 2519.82520
1880.0 0.000532 411.95834 1948.62598
1735.0 0.000576 412.03448 1866.05322
1728.0 0.000579 412.11090 1900.25293
1540.0 0.000649 412.18774 1585.25134
1332.0 0.000751 412.26492 1335.04993
1019.0 0.000981 412.34235 1048.58459
767.0 0.001304 412.42017 760.18878
664.0 0.001506 412.49826 633.05756
627.0 0.001595 412.57660 594.90149
635.0 0.001575 412.65540 601.84967
658.0 0.001520 412.73447 645.71802
722.0 0.001385 412.81384 731.90839
968.0 0.001033 412.89352 866.11511
1223.0 0.000818 412.97357 1086.81335
1529.0 0.000654 413.05386 1394.15308
1706.0 0.000586 413.13455 1567.85254
1361.0 0.000735 413.21552 1232.76355
958.0 0.001044 413.29678 894.70850
809.0 0.001236 413.37836 831.17200
920.0 0.001087 413.46024 934.31641
1150.0 0.000870 413.54245 1133.82373
1372.0 0.000729 413.62494 1327.91016
1357.0 0.000737 413.70776 1316.38464
1293.0 0.000773 413.79083 1221.17139
972.0 0.001029 413.87424 970.61536
759.0 0.001318 413.95798 736.46204
663.0 0.001508 414.04187 665.34521
709.0 0.001410 414.12619 684.81268
796.0 0.001256 414.21075 754.04169
899.0 0.001112 414.29565 819.15106
815.0 0.001227 414.38080 761.87189
794.0 0.001259 414.46625 688.60016
838.0 0.001193 414.55197 729.05768
915.0 0.001093 414.63800 872.88416
1123.0 0.000890 414.72427 1134.55603
1517.0 0.000659 414.81094 1546.91907
2313.0 0.000432 414.89777 2167.39185
2957.0 0.0003382 414.98492 2847.53296
3343.0 0.0002991 415.07236 2964.00732
3073.0 0.0003254 415.16006 2714.58203
2379.0 0.000420 415.24811 2157.53589
1571.0 0.000637 415.33643 1579.42468
1486.0 0.000673 415.42493 1519.15027
1678.0 0.000596 415.51373 1731.74951
1890.0 0.000529 415.60278 1760.56580
1810.0 0.000552 415.69214 1576.66125
1397.0 0.000716 415.78171 1251.59204
942.0 0.001062 415.87173 835.36646
638.0 0.001567 415.96176 626.19489
557.0 0.001795 416.05219 548.47528
542.0 0.001845 416.14288 513.21375
510.0 0.001961 416.23380 492.50549
502.0 0.001992 416.32495 478.49921
478.0 0.002092 416.41644 469.46899
453.0 0.002208 416.50812 462.48788
430.0 0.002326 416.60013 458.66928
442.0 0.002262 416.69229 456.37793
460.0 0.002174 416.78482 455.80280
448.0 0.002232 416.87750 457.43155
462.0 0.002165 416.97040 463.18661
473.0 0.002114 417.06366 477.51401
524.0 0.001908 417.15707 506.11261
574.0 0.001742 417.25082 553.74103
617.0 0.001621 417.34470 624.45093
752.0 0.001330 417.43890 737.16254
915.0 0.001093 417.53333 888.18005
956.0 0.001046 417.62799 950.00702
803.0 0.001245 417.72287 764.53876
606.0 0.001650 417.81802 604.75739
551.0 0.001815 417.91333 568.59967
588.0 0.001701 418.00891 594.47058
676.0 0.001479 418.10471 656.51068
704.0 0.001420 418.20081 699.18909
659.0 0.001517 418.29712 618.99133
528.0 0.001894 418.39346 518.11847
451.0 0.002217 418.49030 480.67050
442.0 0.002262 418.58725 479.10043
489.0 0.002045 418.68442 496.96109
521.0 0.001919 418.78183 532.66797
521.0 0.001919 418.87943 589.80829
692.0 0.001445 418.97720 676.84839
744.0 0.001344 419.07532 758.54944
713.0 0.001403 419.17355 700.37347
547.0 0.001828 419.27194 569.07880
495.0 0.002020 419.37061 516.52814
483.0 0.002070 419.46951 518.90613
541.0 0.001848 419.56863 550.65649
567.0 0.001764 419.66794 589.55347
590.0 0.001695 419.76743 575.44409
503.0 0.001988 419.86710 501.42957
457.0 0.002188 419.96704 456.94968
412.0 0.002427 420.06714 440.92456
409.0 0.002445 420.16745 434.63074
409.0 0.002445 420.26797 431.24060
396.0 0.002525 420.36862 429.10461
389.0 0.002571 420.46954 427.65927
385.0 0.002597 420.57065 425.89612
433.0 0.002309 420.67191 425.19165
413.0 0.002421 420.77338 424.66980
420.0 0.002381 420.87500 424.27722
404.0 0.002475 420.97684 423.97925
413.0 0.002421 421.07892 423.75253
393.0 0.002545 421.18109 423.20053
408.0 0.002451 421.28351 423.10287
405.0 0.002469 421.38602 423.03058
411.0 0.002433 421.48883 422.98419
391.0 0.002558 421.59171 423.02005
413.0 0.002421 421.69482 423.01678
405.0 0.002469 421.79803 423.15329
400.0 0.002500 421.90155 423.18643
389.0 0.002571 422.00516 423.23196
396.0 0.002525 422.10892 423.28864
438.0 0.002283 422.21292 422.89047
435.0 0.002299 422.31708 423.02731
425.0 0.002353 422.42136 423.14206
435.0 0.002299 422.52579 423.32944
429.0 0.002331 422.63040 423.46576
409.0 0.002445 422.73523 423.61337
405.0 0.002469 422.84012 423.53925
428.0 0.002336 422.94525 423.73245
415.0 0.002410 423.05051 423.94849
417.0 0.002398 423.15591 424.19980
406.0 0.002463 423.26151 424.51773
415.0 0.002410 423.36716 424.98798
410.0 0.002439 423.47296 425.75140
414.0 0.002415 423.57901 426.84558
425.0 0.002353 423.68521 428.57849
422.0 0.002370 423.79147 430.96802
415.0 0.002410 423.89795 434.41464
415.0 0.002410 424.00449 436.94479
432.0 0.002315 424.11127 434.74472
422.0 0.002370 424.21817 431.69476
429.0 0.002331 424.32523 431.59201
421.0 0.002375 424.43231 433.79620
403.0 0.002481 424.53958 438.44925
451.0 0.002217 424.64703 445.69278
441.0 0.002268 424.75458 456.04965
484.0 0.002066 424.86227 469.93509
553.0 0.001808 424.97006 494.02332
557.0 0.001795 425.07803 519.64154
593.0 0.001686 425.18613 533.00482
586.0 0.001706 425.29431 537.55762
510.0 0.001961 425.40262 514.51300
480.0 0.002083 425.51099 481.12189
482.0 0.002075 425.61960 473.54855
486.0 0.002058 425.72824 481.02673
480.0 0.002083 425.83710 488.02289
432.0 0.002315 425.94598 490.13950
514.0 0.001946 426.05502 484.95953
464.0 0.002155 426.16406 463.28976
464.0 0.002155 426.27341 450.30624
450.0 0.002222 426.38272 446.26816
442.0 0.002262 426.49231 445.64941
439.0 0.002278 426.60178 446.33914
441.0 0.002268 426.71143 447.92722
471.0 0.002123 426.82123 450.54175
451.0 0.002217 426.93115 454.97061
462.0 0.002165 427.04111 463.06439
462.0 0.002165 427.15118 476.24036
493.0 0.002028 427.26141 497.62759
511.0 0.001957 427.37164 528.21759
579.0 0.001727 427.48199 574.26514
633.0 0.001580 427.59253 620.04462
683.0 0.001464 427.70306 607.81445
593.0 0.001686 427.81369 556.68854
573.0 0.001745 427.92447 543.42346
585.0 0.001709 428.03534 565.25830
657.0 0.001522 428.14624 612.37213
727.0 0.001376 428.25723 693.67517
860.0 0.001163 428.36829 817.28412
1021.0 0.000979 428.47949 992.29688
1320.0 0.000758 428.59073 1308.56104
1831.0 0.000546 428.70209 1821.79004
2589.0 0.000386 428.81345 2621.27734
3254.0 0.0003073 428.92490 3363.44922
2881.0 0.0003471 429.03644 2913.58643
1807.0 0.000553 429.14813 1737.66052
1229.0 0.000814 429.25980 1214.38306
1151.0 0.000869 429.37161 1207.09863
1377.0 0.000726 429.48340 1435.69458
1767.0 0.000566 429.59528 1816.02283
1835.0 0.000545 429.70724 1935.52649
1390.0 0.000719 429.81931 1362.32605
878.0 0.001139 429.93140 858.52759
664.0 0.001506 430.04355 659.83960
636.0 0.001572 430.15579 595.14746
565.0 0.001770 430.26810 580.10651
589.0 0.001698 430.38043 594.29663
704.0 0.001420 430.49283 636.90668
824.0 0.001214 430.60522 719.45337
993.0 0.001007 430.71774 850.98761
1248.0 0.000801 430.83029 1002.25433
1146.0 0.000873 430.94287 985.05060
868.0 0.001152 431.05554 758.33026
679.0 0.001473 431.16821 627.38940
623.0 0.001605 431.28091 608.20306
672.0 0.001488 431.39374 641.50171
829.0 0.001206 431.50656 710.94794
864.0 0.001157 431.61942 762.56750
823.0 0.001215 431.73233 687.77362
646.0 0.001548 431.84528 581.04602
559.0 0.001789 431.95825 536.37939
553.0 0.001808 432.07129 527.54517
538.0 0.001859 432.18430 532.84393
569.0 0.001757 432.29736 548.00824
659.0 0.001517 432.41049 572.93530
683.0 0.001464 432.52362 633.06616
817.0 0.001224 432.63687 761.10803
1032.0 0.000969 432.75003 987.08234
1269.0 0.000788 432.86319 1363.37048
1736.0 0.000576 432.97647 1934.75830
2619.0 0.000382 433.08975 2787.68140
3485.0 0.0002869 433.20306 3474.33154
2878.0 0.0003475 433.31635 2825.04321
1708.0 0.000585 433.42963 1707.49939
1135.0 0.000881 433.54303 1297.49182
1226.0 0.000816 433.65637 1383.26672
1587.0 0.000630 433.76978 1673.81030
1934.0 0.000517 433.88312 2004.88342
2021.0 0.000495 433.99652 2032.28552
1506.0 0.000664 434.10989 1410.21277
941.0 0.001063 434.22330 905.51282
706.0 0.001416 434.33679 719.85675
661.0 0.001513 434.45020 673.35114
616.0 0.001623 434.56357 641.60150
600.0 0.001667 434.67706 576.54291
561.0 0.001783 434.79050 530.44403
510.0 0.001961 434.90396 515.86755
519.0 0.001927 435.01733 515.75262
501.0 0.001996 435.13077 527.86877
503.0 0.001988 435.24417 553.51227
558.0 0.001792 435.35773 595.58698
623.0 0.001605 435.47110 627.26807
575.0 0.001739 435.58447 586.11353
504.0 0.001984 435.69778 524.27655
484.0 0.002066 435.81119 499.64523
502.0 0.001992 435.92465 500.27145
496.0 0.002016 436.03799 513.10809
520.0 0.001923 436.15128 534.07526
528.0 0.001894 436.26462 541.46820
502.0 0.001992 436.37793 511.13477
481.0 0.002079 436.49124 486.06766
466.0 0.002146 436.60446 480.27051
458.0 0.002183 436.71783 480.77982
457.0 0.002188 436.83099 494.13815
503.0 0.001988 436.94415 515.37390
544.0 0.001838 437.05743 543.77289
572.0 0.001748 437.17053 553.16620
510.0 0.001961 437.28360 521.82605
515.0 0.001942 437.39670 497.76273
504.0 0.001984 437.50977 497.51843
511.0 0.001957 437.62277 510.47070
555.0 0.001802 437.73578 534.20990
596.0 0.001678 437.84869 569.81812
655.0 0.001527 437.96158 613.73651
679.0 0.001473 438.07452 685.80615
841.0 0.001189 438.18735 836.04523
1042.0 0.000960 438.30017 1089.38940
1463.0 0.000684 438.41287 1472.98206
1917.0 0.000522 438.52557 1899.76050
2129.0 0.000470 438.63828 2005.33643
1696.0 0.000590 438.75085 1556.87048
993.0 0.001007 438.86346 1042.83533
771.0 0.001297 438.97592 874.05792
923.0 0.001083 439.08841 927.26074
1053.0 0.000950 439.20087 1093.15869
1252.0 0.000799 439.31323 1271.67737
1396.0 0.000716 439.42557 1262.39111
1114.0 0.000898 439.53772 1006.33936
844.0 0.001185 439.64996 820.68878
819.0 0.001221 439.76212 812.85669
950.0 0.001053 439.87421 899.58368
1040.0 0.000962 439.98621 916.34222
835.0 0.001198 440.09814 743.79224
615.0 0.001626 440.21002 609.96796
547.0 0.001828 440.32184 571.15405
565.0 0.001770 440.43365 584.05505
596.0 0.001678 440.54535 625.27448
697.0 0.001435 440.65698 678.39728
714.0 0.001401 440.76852 668.36102
603.0 0.001658 440.88000 575.88593
534.0 0.001873 440.99142 515.83673
484.0 0.002066 441.10275 493.94778
473.0 0.002114 441.21402 486.79050
469.0 0.002132 441.32516 484.71417
475.0 0.002105 441.43637 485.68350
493.0 0.002028 441.54730 489.38922
493.0 0.002028 441.65829 496.73944
517.0 0.001934 441.76913 511.65948
573.0 0.001745 441.87988 540.38092
612.0 0.001634 441.99060 589.59509
696.0 0.001437 442.10132 676.73883
839.0 0.001192 442.21179 816.38892
1064.0 0.000940 442.32220 1029.67297
1272.0 0.000786 442.43265 1219.21265
1258.0 0.000795 442.54285 1196.32837
1309.0 0.000764 442.65302 1202.22937
1517.0 0.000659 442.76309 1421.33594
1602.0 0.000624 442.87311 1582.59448
1380.0 0.000725 442.98294 1372.60327
1198.0 0.000835 443.09277 1241.39795
1181.0 0.000847 443.20245 1288.08972
1129.0 0.000886 443.31201 1208.61877
1031.0 0.000970 443.42154 1048.08069
1044.0 0.000958 443.53094 1032.40149
1038.0 0.000963 443.64020 1009.55280
864.0 0.001157 443.74936 833.78027
689.0 0.001451 443.85852 723.19934
616.0 0.001623 443.96747 710.07770
624.0 0.001603 444.07629 670.41833
523.0 0.001912 444.18506 584.95526
571.0 0.001751 444.29376 538.47620
566.0 0.001767 444.40228 525.85614
565.0 0.001770 444.51071 520.31268
551.0 0.001815 444.61902 513.17065
553.0 0.001808 444.72723 521.09253
569.0 0.001757 444.83533 553.26892
618.0 0.001618 444.94327 608.16040
681.0 0.001468 445.05115 711.24042
835.0 0.001198 445.15881 848.52808
966.0 0.001035 445.26645 971.90863
918.0 0.001089 445.37384 871.44415
685.0 0.001460 445.48120 667.26874
577.0 0.001733 445.58847 580.06586
557.0 0.001795 445.69559 569.99231
543.0 0.001842 445.80258 605.48676
651.0 0.001536 445.90942 667.54193
685.0 0.001460 446.01611 719.46771
653.0 0.001531 446.12271 658.56409
520.0 0.001923 446.22922 553.19269
488.0 0.002049 446.33557 503.55865
443.0 0.002257 446.44168 485.38354
459.0 0.002179 446.54782 476.95166
463.0 0.002160 446.65369 474.47089
462.0 0.002165 446.75946 472.58658
474.0 0.002110 446.86511 471.09323
482.0 0.002075 446.97067 471.11664
454.0 0.002203 447.07605 471.74176
455.0 0.002198 447.18127 472.89865
505.0 0.001980 447.28629 474.30341
491.0 0.002037 447.39124 476.55939
475.0 0.002105 447.49606 479.45526
495.0 0.002020 447.60074 483.12637
535.0 0.001869 447.70520 487.74118
513.0 0.001949 447.80951 493.68851
509.0 0.001965 447.91367 501.41031
542.0 0.001845 448.01776 511.66556
556.0 0.001799 448.12173 525.72675
568.0 0.001761 448.22543 545.93811
627.0 0.001595 448.32898 577.79510
720.0 0.001389 448.43250 636.55304
845.0 0.001183 448.53571 753.46790
1006.0 0.000994 448.63889 955.90283
1353.0 0.000739 448.74176 1301.14075
1942.0 0.000515 448.84457 1872.11169
2631.0 0.000380 448.94724 2591.09766
2962.0 0.0003376 449.04977 2935.20264
2861.0 0.0003495 449.15207 2660.16040
2896.0 0.0003453 449.25418 2656.31519
2612.0 0.000383 449.35617 2406.59180
1904.0 0.000525 449.45795 1755.61633
1517.0 0.000659 449.55963 1548.83936
1659.0 0.000603 449.66116 1714.31885
1777.0 0.000563 449.76242 1813.04187
1697.0 0.000589 449.86362 1625.57947
1665.0 0.000601 449.96454 1566.98108
1490.0 0.000671 450.06537 1392.76733
1039.0 0.000962 450.16595 975.38214
765.0 0.001307 450.26642 717.66046
610.0 0.001639 450.36664 614.62506
555.0 0.001802 450.46680 570.78076
506.0 0.001976 450.56674 546.74628
489.0 0.002045 450.66650 531.75781
539.0 0.001855 450.76605 522.01807
473.0 0.002114 450.86542 518.54236
494.0 0.002024 450.96457 514.84680
494.0 0.002024 451.06357 513.08881
484.0 0.002066 451.16245 513.01599
524.0 0.001908 451.26105 514.56818
511.0 0.001957 451.35953 517.85675
476.0 0.002101 451.45779 523.18787
512.0 0.001953 451.55591 532.53473
540.0 0.001852 451.65378 544.18036
549.0 0.001821 451.75143 561.20703
613.0 0.001631 451.84897 587.24011
674.0 0.001484 451.94629 630.21051
733.0 0.001364 452.04343 711.52985
903.0 0.001107 452.14032 889.62756
1189.0 0.000841 452.23709 1204.88855
1601.0 0.000625 452.33362 1724.78638
2345.0 0.000426 452.42993 2552.57666
3228.0 0.0003098 452.52609 3494.66016
3337.0 0.0002997 452.62204 3495.23242
2211.0 0.000452 452.71777 2204.49048
1289.0 0.000776 452.81329 1358.88672
1047.0 0.000955 452.90860 1151.30225
1173.0 0.000853 453.00378 1259.35950
1474.0 0.000678 453.09872 1596.40027
1800.0 0.000556 453.19342 2036.09656
1954.0 0.000512 453.28790 2129.22192
1593.0 0.000628 453.38223 1517.45703
1103.0 0.000907 453.47635 1049.12317
901.0 0.001110 453.57025 948.76599
965.0 0.001036 453.66388 1065.97803
1250.0 0.000800 453.75739 1361.30176
1694.0 0.000590 453.85062 1845.69556
2170.0 0.000461 453.94366 2373.82935
2108.0 0.000474 454.03650 2238.76782
1474.0 0.000678 454.12918 1447.33350
976.0 0.001025 454.22153 990.64777
813.0 0.001230 454.31372 889.66144
866.0 0.001155 454.40567 964.38458
1043.0 0.000959 454.49744 1172.37012
1301.0 0.000769 454.58896 1437.99976
1404.0 0.000712 454.68027 1465.05652
1140.0 0.000877 454.77136 1103.66272
848.0 0.001179 454.86227 852.27502
727.0 0.001376 454.95282 761.85834
661.0 0.001513 455.04321 674.93994
599.0 0.001669 455.13345 602.05585
562.0 0.001779 455.22348 572.94360
525.0 0.001905 455.31323 571.41840
597.0 0.001675 455.40265 586.25720
652.0 0.001534 455.49197 633.08728
718.0 0.001393 455.58102 714.37347
779.0 0.001284 455.66983 808.39667
957.0 0.001045 455.75848 975.25995
1187.0 0.000842 455.84677 1221.23987
1402.0 0.000713 455.93491 1406.92542
1187.0 0.000842 456.02283 1164.08032
809.0 0.001236 456.11044 815.04449
654.0 0.001529 456.19788 670.73047
633.0 0.001580 456.28506 657.45435
708.0 0.001412 456.37201 716.34631
829.0 0.001206 456.45874 826.11133
889.0 0.001125 456.54520 936.96484
891.0 0.001122 456.63147 865.86365
624.0 0.001603 456.71744 666.76257
558.0 0.001792 456.80316 556.73871
496.0 0.002016 456.88867 515.28973
459.0 0.002179 456.97397 498.16031
438.0 0.002283 457.05896 488.93857
468.0 0.002137 457.14374 483.47629
462.0 0.002165 457.22830 480.48349
436.0 0.002294 457.31253 477.91693
487.0 0.002053 457.39661 479.50519
501.0 0.001996 457.48038 483.13196
524.0 0.001908 457.56396 488.10287
499.0 0.002004 457.64722 490.57068
462.0 0.002165 457.73016 492.97168
498.0 0.002008 457.81302 503.18964
501.0 0.001996 457.89557 517.09772
524.0 0.001908 457.97784 516.46613
494.0 0.002024 458.05981 498.97110
468.0 0.002137 458.14166 488.12659
470.0 0.002128 458.22314 485.29443
465.0 0.002151 458.30441 484.76819
477.0 0.002096 458.38544 488.92139
495.0 0.002020 458.46613 496.64255
489.0 0.002045 458.54666 500.38492
491.0 0.002037 458.62689 496.45706
492.0 0.002033 458.70682 499.99850
479.0 0.002088 458.78662 514.36371
515.0 0.001942 458.86600 543.92273
556.0 0.001799 458.94513 587.48859
552.0 0.001812 459.02414 628.21466
513.0 0.001949 459.10281 608.45758
518.0 0.001931 459.18121 560.99451
537.0 0.001862 459.25925 553.08258
559.0 0.001789 459.33716 582.72137
651.0 0.001536 459.41476 638.99414
723.0 0.001383 459.49210 701.95410
704.0 0.001420 459.56915 702.42023
629.0 0.001590 459.64594 653.54095
578.0 0.001730 459.72250 621.15247
616.0 0.001623 459.79868 642.24591
698.0 0.001433 459.87469 720.47961
832.0 0.001202 459.95038 826.78033
870.0 0.001149 460.02582 862.44714
767.0 0.001304 460.10098 759.79285
697.0 0.001435 460.17587 665.41809
715.0 0.001399 460.25046 659.84308
784.0 0.001276 460.32486 741.09247
881.0 0.001135 460.39886 905.13330
1159.0 0.000863 460.47266 1186.78772
1524.0 0.000656 460.54620 1509.38074
1601.0 0.000625 460.61942 1581.70740
1176.0 0.000850 460.69235 1187.29663
814.0 0.001229 460.76501 863.48639
750.0 0.001333 460.83740 786.96973
831.0 0.001203 460.90952 867.23804
978.0 0.001022 460.98138 1073.77161
1449.0 0.000690 461.05295 1408.26233
1795.0 0.000557 461.12418 1739.98169
1593.0 0.000628 461.19513 1611.37012
1106.0 0.000904 461.26587 1173.17761
989.0 0.001011 461.33621 1007.73199
1111.0 0.000900 461.40640 1070.09558
1195.0 0.000837 461.47623 1153.37134
1124.0 0.000890 461.54578 1065.12744
998.0 0.001002 461.61499 988.86047
928.0 0.001078 461.68402 958.22589
818.0 0.001222 461.75275 821.27893
729.0 0.001372 461.82108 722.02069
722.0 0.001385 461.88919 724.27826
749.0 0.001335 461.95706 763.86200
741.0 0.001350 462.02460 725.68854
615.0 0.001626 462.09180 618.89142
562.0 0.001779 462.15869 556.13770
527.0 0.001898 462.22540 533.84302
507.0 0.001972 462.29175 529.34601
515.0 0.001942 462.35779 536.13031
573.0 0.001745 462.42355 557.34827
607.0 0.001647 462.48907 607.61523
705.0 0.001418 462.55420 698.58118
936.0 0.001068 462.61911 857.53491
1240.0 0.000806 462.68369 1067.63049
1442.0 0.000693 462.74799 1198.63110
1237.0 0.000808 462.81198 1004.51758
873.0 0.001145 462.87567 741.68243
649.0 0.001541 462.93906 628.42163
595.0 0.001681 463.00214 615.30591
643.0 0.001555 463.06494 654.93292
751.0 0.001332 463.12741 740.03973
905.0 0.001105 463.18964 833.03247
935.0 0.001070 463.25150 818.47583
773.0 0.001294 463.31302 674.41028
621.0 0.001610 463.37436 574.80133
523.0 0.001912 463.43530 538.52820
513.0 0.001949 463.49600 531.31677
525.0 0.001905 463.55637 543.91943
556.0 0.001799 463.61633 577.34552
628.0 0.001592 463.67618 640.41205
687.0 0.001456 463.73566 738.34113
765.0 0.001307 463.79480 832.67023
749.0 0.001335 463.85358 789.47363
624.0 0.001603 463.91211 653.95392
562.0 0.001779 463.97034 587.48572
598.0 0.001672 464.02823 587.40771
640.0 0.001563 464.08578 635.68182
712.0 0.001404 464.14310 741.57806
852.0 0.001174 464.20004 911.04950
1054.0 0.000949 464.25681 1122.43420
1202.0 0.000832 464.31308 1246.10645
1063.0 0.000941 464.36917 1111.78101
746.0 0.001340 464.42487 812.43097
613.0 0.001631 464.48029 649.81305
575.0 0.001739 464.53546 606.64142
603.0 0.001658 464.59021 622.58844
660.0 0.001515 464.64465 684.56921
742.0 0.001348 464.69882 775.90576
826.0 0.001211 464.75266 826.76337
728.0 0.001374 464.80621 721.52087
583.0 0.001715 464.85941 598.78571
523.0 0.001912 464.91229 543.59369
556.0 0.001799 464.96490 525.79675
505.0 0.001980 465.01718 523.96100
567.0 0.001764 465.06909 534.84875
553.0 0.001808 465.12073 559.59619
598.0 0.001672 465.17200 605.35449
635.0 0.001575 465.22302 665.47168
706.0 0.001416 465.27365 700.33643
685.0 0.001460 465.32407 659.28033
645.0 0.001550 465.37405 639.86780
715.0 0.001399 465.42374 694.50146
846.0 0.001182 465.47308 828.29016
1132.0 0.000883 465.52222 1028.43372
1281.0 0.000781 465.57095 1191.17322
1179.0 0.000848 465.61932 1070.66687
857.0 0.001167 465.66742 842.47931
743.0 0.001346 465.71518 727.83978
765.0 0.001307 465.76273 746.51843
858.0 0.001166 465.80984 871.26166
1101.0 0.000908 465.85660 1100.68201
1361.0 0.000735 465.90308 1339.27832
1305.0 0.000766 465.94916 1284.25989
952.0 0.001050 465.99503 930.62628
690.0 0.001449 466.04050 700.90588
594.0 0.001684 466.08569 624.86298
583.0 0.001715 466.13055 624.92352
617.0 0.001621 466.17508 665.62988
672.0 0.001488 466.21921 746.25391
751.0 0.001332 466.26309 781.32263
734.0 0.001362 466.30661 688.63635
573.0 0.001745 466.34982 579.58496
488.0 0.002049 466.39264 529.51855
486.0 0.002058 466.43524 509.62112
478.0 0.002092 466.47745 500.35257
491.0 0.002037 466.51935 495.01978
476.0 0.002101 466.56082 491.69714
452.0 0.002212 466.60208 489.60345
454.0 0.002203 466.64294 488.03226
470.0 0.002128 466.68359 487.42090
505.0 0.001980 466.72375 490.37344
481.0 0.002079 466.76361 490.93900
485.0 0.002062 466.80322 491.98782
507.0 0.001972 466.84244 493.56049
482.0 0.002075 466.88132 494.64838
475.0 0.002105 466.91986 497.65329
459.0 0.002179 466.95810 502.65149
477.0 0.002096 466.99603 508.06342
457.0 0.002188 467.03360 516.95526
516.0 0.001938 467.07080 527.37305
567.0 0.001764 467.10767 542.64624
599.0 0.001669 467.14429 568.34521
624.0 0.001603 467.18048 612.76398
711.0 0.001406 467.21634 710.70026
865.0 0.001156 467.25192 903.42950
1126.0 0.000888 467.28711 1195.94983
1559.0 0.000641 467.32199 1693.66833
2125.0 0.000471 467.35651 2086.20483
1818.0 0.000550 467.39066 1839.06616
1188.0 0.000842 467.42453 1198.97754
815.0 0.001227 467.45810 864.76349
709.0 0.001410 467.49133 786.62604
772.0 0.001295 467.52411 841.05902
941.0 0.001063 467.55673 979.95490
1108.0 0.000903 467.58887 1231.12817
1296.0 0.000772 467.62061 1381.41919
1190.0 0.000840 467.65216 1190.43701
998.0 0.001002 467.68329 919.19403
877.0 0.001140 467.71408 846.03204
950.0 0.001053 467.74460 956.43542
1202.0 0.000832 467.77475 1224.54871
1686.0 0.000593 467.80457 1677.19604
2343.0 0.000427 467.83392 2312.58350
2661.0 0.000376 467.86313 2511.26538
1970.0 0.000508 467.89191 1862.60730
1317.0 0.000759 467.92029 1314.17908
1151.0 0.000869 467.94836 1206.55188
1382.0 0.000724 467.97617 1419.56555
1684.0 0.000594 468.00360 1729.86597
1865.0 0.000536 468.03067 1904.09448
1922.0 0.000520 468.05734 1984.97571
1928.0 0.000519 468.08377 1975.79919
1812.0 0.000552 468.10977 1785.71667
1720.0 0.000581 468.13544 1710.26367
1555.0 0.000643 468.16086 1532.46802
1314.0 0.000761 468.18585 1278.19189
1213.0 0.000824 468.21051 1172.05872
1111.0 0.000900 468.23483 1066.88782
1049.0 0.000953 468.25888 1008.35828
1119.0 0.000894 468.28241 1113.42639
1342.0 0.000745 468.30576 1404.18701
1690.0 0.000592 468.32870 1706.48413
1637.0 0.000611 468.35129 1622.22241
1258.0 0.000795 468.37357 1191.44043
1040.0 0.000962 468.39554 968.88434
1060.0 0.000943 468.41708 1017.29889
1301.0 0.000769 468.43832 1264.49634
1791.0 0.000558 468.45920 1729.22498
2485.0 0.000402 468.47971 2289.15405
2480.0 0.000403 468.49994 2351.94141
1784.0 0.000561 468.51974 1690.94019
1119.0 0.000894 468.53928 1106.97253
853.0 0.001172 468.55841 865.02039
811.0 0.001233 468.57721 837.39130
861.0 0.001161 468.59573 931.95447
1178.0 0.000849 468.61380 1145.14368
1430.0 0.000699 468.63159 1377.82275
1398.0 0.000715 468.64905 1322.40393
1006.0 0.000994 468.66608 960.32880
711.0 0.001406 468.68289 720.42059
578.0 0.001730 468.69928 629.89038
549.0 0.001821 468.71530 599.12714
497.0 0.002012 468.73102 581.63892
538.0 0.001859 468.74631 566.35687
558.0 0.001792 468.76138 562.71436
552.0 0.001812 468.77600 557.25598
531.0 0.001883 468.79028 535.24323
468.0 0.002137 468.80426 518.22540
538.0 0.001859 468.81790 513.35992
470.0 0.002128 468.83112 512.87451
505.0 0.001980 468.84406 510.86368
479.0 0.002088 468.85669 502.65756
473.0 0.002114 468.86890 495.73648
467.0 0.002141 468.88074 493.83459
512.0 0.001953 468.89230 493.33609
504.0 0.001984 468.90353 493.62512
504.0 0.001984 468.91437 494.80905
541.0 0.001848 468.92484 496.66190
513.0 0.001949 468.93497 501.15131
504.0 0.001984 468.94479 503.95581
514.0 0.001946 468.95428 512.29041
564.0 0.001773 468.96335 525.16290
562.0 0.001779 468.97208 538.42773
572.0 0.001748 468.98050 545.12927
562.0 0.001779 468.98856 553.94403
613.0 0.001631 468.99619 581.71930
667.0 0.001499 469.00360 649.51404
830.0 0.001205 469.01062 785.57556
1096.0 0.000912 469.01733 1003.77911
1447.0 0.000691 469.02359 1349.60706
1716.0 0.000583 469.02960 1571.88660
1493.0 0.000670 469.03528 1324.85925
1030.0 0.000971 469.04053 921.93799
742.0 0.001348 469.04541 731.70026
674.0 0.001484 469.05005 691.28375
728.0 0.001374 469.05423 733.93768
898.0 0.001114 469.05811 837.35278
1103.0 0.000907 469.06168 1022.11792
1236.0 0.000809 469.06488 1185.50879
1293.0 0.000773 469.06775 1188.95850
1264.0 0.000791 469.07025 1214.42175
1480.0 0.000676 469.07236 1475.97986
1872.0 0.000534 469.07419 1957.04333
2028.0 0.000493 469.07562 2120.31885
1599.0 0.000625 469.07681 1580.55798
1073.0 0.000932 469.07748 1059.53906
879.0 0.001138 469.07791 864.18213
939.0 0.001065 469.07794 868.29315
1024.0 0.000977 469.07776 979.97070
1142.0 0.000876 469.07706 1144.41492
1368.0 0.000731 469.07608 1394.09790
1565.0 0.000639 469.07474 1550.68286
1453.0 0.000688 469.07312 1407.89038
1220.0 0.000820 469.07104 1192.76904
1001.0 0.000999 469.06866 1027.68286
993.0 0.001007 469.06604 1008.09961
1139.0 0.000878 469.06296 1097.02087
1166.0 0.000858 469.05954 1068.13477
917.0 0.001091 469.05576 872.79346
784.0 0.001276 469.05170 758.43439
745.0 0.001342 469.04724 754.92517
733.0 0.001364 469.04242 778.18329
785.0 0.001274 469.03729 773.36731
844.0 0.001185 469.03180 813.80426
945.0 0.001058 469.02597 932.82959
1032.0 0.000969 469.01981 1024.81787
931.0 0.001074 469.01331 937.97198
754.0 0.001326 469.00644 746.29395
602.0 0.001661 468.99918 625.20929
560.0 0.001786 468.99164 581.46143
562.0 0.001779 468.98376 576.55756
557.0 0.001795 468.97552 596.24084
621.0 0.001610 468.96695 639.93359
699.0 0.001431 468.95798 710.06812
778.0 0.001285 468.94873 781.62537
828.0 0.001208 468.93903 847.50568
966.0 0.001035 468.92908 991.56006
1230.0 0.000813 468.91876 1251.36414
1348.0 0.000742 468.90808 1358.06677
1078.0 0.000928 468.89713 1078.38318
767.0 0.001304 468.88571 777.18591
608.0 0.001645 468.87408 643.69458
586.0 0.001706 468.86200 614.60931
603.0 0.001658 468.84961 642.91705
668.0 0.001497 468.83688 717.21338
783.0 0.001277 468.82382 845.21906
866.0 0.001155 468.81046 923.55103
797.0 0.001255 468.79666 811.53015
650.0 0.001538 468.78259 644.87286
534.0 0.001873 468.76816 560.15991
504.0 0.001984 468.75339 527.60840
508.0 0.001969 468.73825 512.06055
492.0 0.002033 468.72278 501.29050
461.0 0.002169 468.70697 494.19955
456.0 0.002193 468.69083 489.83817
463.0 0.002160 468.67435 486.69855
457.0 0.002188 468.65744 484.52011
471.0 0.002123 468.64032 483.74838
469.0 0.002132 468.62280 483.65442
450.0 0.002222 468.60495 483.33731
463.0 0.002160 468.58667 485.38409
458.0 0.002183 468.56824 484.75708
480.0 0.002083 468.54932 484.98517
459.0 0.002179 468.53012 485.92010
435.0 0.002299 468.51053 487.29022
448.0 0.002232 468.49069 489.97061
473.0 0.002114 468.47040 494.54196
510.0 0.001961 468.44989 503.08578
515.0 0.001942 468.42889 519.04810
534.0 0.001873 468.40771 545.74066
578.0 0.001730 468.38611 589.32703
607.0 0.001647 468.36423 636.05695
639.0 0.001565 468.34189 670.97784
702.0 0.001425 468.31927 733.04236
800.0 0.001250 468.29630 804.83398
801.0 0.001248 468.27304 789.23254
674.0 0.001484 468.24945 688.73041
596.0 0.001678 468.22552 605.05963
577.0 0.001733 468.20117 581.26898
613.0 0.001631 468.17657 589.05988
578.0 0.001730 468.15158 601.76282
579.0 0.001727 468.12628 625.34558
639.0 0.001565 468.10068 664.86450
684.0 0.001462 468.07474 677.35345
616.0 0.001623 468.04840 641.31049
595.0 0.001681 468.02179 600.41620
610.0 0.001639 467.99481 592.83685
631.0 0.001585 467.96744 617.18774
729.0 0.001372 467.93982 683.23865
879.0 0.001138 467.91193 833.76672
1164.0 0.000859 467.88361 1132.53528
1616.0 0.000619 467.85492 1611.84961
2144.0 0.000466 467.82596 2244.95630
2358.0 0.000424 467.79666 2391.79150
1691.0 0.000591 467.76691 1695.17908
1079.0 0.000927 467.73700 1079.26318
794.0 0.001259 467.70670 823.74475
754.0 0.001326 467.67615 771.10919
818.0 0.001222 467.64505 840.35608
984.0 0.001016 467.61386 1014.20355
1261.0 0.000793 467.58218 1304.59436
1435.0 0.000697 467.55023 1494.13452
1291.0 0.000775 467.51794 1262.89026
903.0 0.001107 467.48532 894.14624
727.0 0.001376 467.45239 713.42627
657.0 0.001522 467.41916 668.60559
673.0 0.001486 467.38550 692.01587
717.0 0.001395 467.35159 760.54272
760.0 0.001316 467.31729 806.13708
705.0 0.001418 467.28271 753.69800
660.0 0.001515 467.24780 699.14343
701.0 0.001427 467.21262 716.27350
749.0 0.001335 467.17697 752.01813
725.0 0.001379 467.14111 715.26013
658.0 0.001520 467.10486 649.38147
651.0 0.001536 467.06836 637.21936
637.0 0.001570 467.03146 656.81158
639.0 0.001565 466.99429 646.18799
639.0 0.001565 466.95676 608.20142
611.0 0.001637 466.91888 600.99408
623.0 0.001605 466.88071 620.44922
631.0 0.001585 466.84232 617.82813
601.0 0.001664 466.80344 576.71265
553.0 0.001808 466.76431 543.48883
505.0 0.001980 466.72482 534.45245
555.0 0.001802 466.68506 536.53644
525.0 0.001905 466.64490 545.17474
556.0 0.001799 466.60452 560.48389
562.0 0.001779 466.56375 585.62958
685.0 0.001460 466.52267 629.80438
774.0 0.001292 466.48129 716.90326
894.0 0.001119 466.43961 903.73132
1264.0 0.000791 466.39761 1274.22876
1973.0 0.000507 466.35522 1866.12183
2728.0 0.000367 466.31253 2591.39478
2857.0 0.0003500 466.26950 2658.29346
1885.0 0.000531 466.22626 1804.71375
1126.0 0.000888 466.18268 1131.26794
842.0 0.001188 466.13867 858.75897
755.0 0.001325 466.09442 802.09900
832.0 0.001202 466.04990 880.27771
1121.0 0.000892 466.00497 1082.55530
1404.0 0.000712 465.95978 1417.00867
1645.0 0.000608 465.91428 1646.70349
1422.0 0.000703 465.86844 1382.60132
996.0 0.001004 465.82224 940.77423
709.0 0.001410 465.77582 702.91656
555.0 0.001802 465.72903 605.91785
516.0 0.001938 465.68192 563.11993
486.0 0.002058 465.63452 539.40009
508.0 0.001969 465.58685 524.45490
508.0 0.001969 465.53882 514.29968
488.0 0.002049 465.49051 507.52808
515.0 0.001942 465.44183 503.05331
530.0 0.001887 465.39288 505.31964
487.0 0.002053 465.34357 504.59183
490.0 0.002041 465.29407 505.93848
513.0 0.001949 465.24411 510.74982
534.0 0.001873 465.19397 523.07813
546.0 0.001832 465.14343 551.51086
635.0 0.001575 465.09265 603.89014
731.0 0.001368 465.04150 684.67468
788.0 0.001269 464.99011 750.55261
774.0 0.001292 464.93832 707.86493
627.0 0.001595 464.88632 605.39703
546.0 0.001832 464.83392 544.50360
530.0 0.001887 464.78134 525.93146
537.0 0.001862 464.72836 526.73248
563.0 0.001776 464.67505 542.71503
601.0 0.001664 464.62155 573.88025
668.0 0.001497 464.56763 617.70801
708.0 0.001412 464.51346 634.86493
650.0 0.001538 464.45898 594.96161
571.0 0.001751 464.40421 558.26044
564.0 0.001773 464.34915 554.29633
582.0 0.001718 464.29379 571.24902
602.0 0.001661 464.23807 598.51782
629.0 0.001590 464.18213 610.03735
607.0 0.001647 464.12579 599.58246
644.0 0.001553 464.06921 602.77710
691.0 0.001447 464.01239 632.21460
735.0 0.001361 463.95526 693.16614
914.0 0.001094 463.89774 820.28217
1144.0 0.000874 463.83997 1096.08838
1628.0 0.000614 463.78189 1626.81470
2473.0 0.000404 463.72351 2453.36108
3350.0 0.0002985 463.66486 3308.63696
2977.0 0.0003359 463.60590 3133.48291
1841.0 0.000543 463.54663 2000.74365
1169.0 0.000855 463.48709 1240.42639
869.0 0.001151 463.42731 946.24274
855.0 0.001170 463.36716 892.16296
934.0 0.001071 463.30670 997.81708
1181.0 0.000847 463.24594 1266.49207
1531.0 0.000653 463.18503 1697.46887
1784.0 0.000561 463.12369 1990.37537
1650.0 0.000606 463.06213 1656.86072
1102.0 0.000907 463.00021 1112.65784
793.0 0.001261 462.93805 829.97406
701.0 0.001427 462.87555 738.47839
766.0 0.001305 462.81284 749.76361
785.0 0.001274 462.74979 846.84668
977.0 0.001024 462.68646 1030.10010
1239.0 0.000807 462.62283 1284.98352
1303.0 0.000767 462.55899 1349.56799
1010.0 0.000990 462.49475 1055.84216
730.0 0.001370 462.43033 784.28619
626.0 0.001597 462.36551 665.80493
605.0 0.001653 462.30054 637.94550
629.0 0.001590 462.23520 666.57141
711.0 0.001406 462.16959 756.57092
930.0 0.001075 462.10367 917.40082
1153.0 0.000867 462.03751 1117.34644
1181.0 0.000847 461.97104 1147.58643
954.0 0.001048 461.90430 919.66888
757.0 0.001321 461.83731 702.53406
597.0 0.001675 461.77005 598.43628
538.0 0.001859 461.70239 553.38434
525.0 0.001905 461.63461 542.26031
555.0 0.001802 461.56644 550.15442
599.0 0.001669 461.49802 576.08582
643.0 0.001555 461.42935 616.27759
641.0 0.001560 461.36038 631.07336
584.0 0.001712 461.29117 588.43909
568.0 0.001761 461.22162 546.91937
550.0 0.001818 461.15179 536.04016
527.0 0.001898 461.08176 545.72821
579.0 0.001727 461.01141 589.48407
681.0 0.001468 460.94077 679.55243
812.0 0.001232 460.86993 822.15594
917.0 0.001091 460.79874 952.17419
857.0 0.001167 460.72736 891.65149
693.0 0.001443 460.65564 704.69476
548.0 0.001825 460.58359 591.78619
521.0 0.001919 460.51135 548.96924
501.0 0.001996 460.43884 542.68011
530.0 0.001887 460.36612 561.88342
605.0 0.001653 460.29300 609.76056
676.0 0.001479 460.21973 684.68060
671.0 0.001490 460.14609 739.62805
654.0 0.001529 460.07217 697.14502
650.0 0.001538 459.99811 635.44751
702.0 0.001425 459.92374 633.36322
705.0 0.001418 459.84912 665.15094
772.0 0.001295 459.77414 687.06299
690.0 0.001449 459.69901 621.71924
575.0 0.001739 459.62363 559.62146
527.0 0.001898 459.54791 533.53210
506.0 0.001976 459.47186 529.15894
525.0 0.001905 459.39569 537.88727
568.0 0.001761 459.31912 561.11743
582.0 0.001718 459.24240 599.13470
665.0 0.001504 459.16544 652.16577
745.0 0.001342 459.08817 715.50586
820.0 0.001220 459.01059 804.20197
962.0 0.001040 458.93283 1002.03998
1223.0 0.000818 458.85483 1263.92786
1452.0 0.000689 458.77655 1529.30945
1408.0 0.000710 458.69791 1395.15967
1186.0 0.000843 458.61917 1199.82043
1259.0 0.000794 458.54010 1221.38135
1488.0 0.000672 458.46082 1368.86047
1362.0 0.000734 458.38116 1265.51880
1104.0 0.000906 458.30136 1011.86975
907.0 0.001103 458.22128 935.08099
970.0 0.001031 458.14099 987.84296
958.0 0.001044 458.06046 1068.40771
933.0 0.001072 457.97961 957.76569
842.0 0.001188 457.89850 862.08282
942.0 0.001062 457.81717 875.99805
1015.0 0.000985 457.73566 945.02844
1004.0 0.000996 457.65384 872.06042
905.0 0.001105 457.57175 755.43872
814.0 0.001229 457.48947 721.24255
809.0 0.001236 457.40683 743.40546
792.0 0.001263 457.32410 717.27808
701.0 0.001427 457.24103 646.66504
616.0 0.001623 457.15771 579.12640
521.0 0.001919 457.07422 539.56696
511.0 0.001957 456.99039 525.75153
518.0 0.001931 456.90640 527.76782
541.0 0.001848 456.82220 544.85284
557.0 0.001795 456.73764 571.86023
592.0 0.001689 456.65289 602.66718
640.0 0.001563 456.56790 598.01532
625.0 0.001600 456.48270 573.12714
586.0 0.001706 456.39725 553.87592
576.0 0.001736 456.31161 559.28632
611.0 0.001637 456.22562 601.95276
741.0 0.001350 456.13943 705.09796
922.0 0.001085 456.05307 848.88904
1084.0 0.000923 455.96643 999.92023
1034.0 0.000967 455.87961 965.67029
795.0 0.001258 455.79242 755.73828
649.0 0.001541 455.70511 626.27020
586.0 0.001706 455.61755 581.70874
582.0 0.001718 455.52982 580.65906
607.0 0.001647 455.44171 613.11249
733.0 0.001364 455.35345 698.21210
919.0 0.001088 455.26498 852.04333
1101.0 0.000908 455.17627 1096.29175
1356.0 0.000737 455.08734 1308.49878
1490.0 0.000671 454.99808 1441.16138
1389.0 0.000720 454.90875 1301.56458
958.0 0.001044 454.81909 936.31805
706.0 0.001416 454.72925 724.19360
676.0 0.001479 454.63922 658.66119
690.0 0.001449 454.54886 674.05426
764.0 0.001309 454.45834 737.00110
829.0 0.001206 454.36758 832.72498
946.0 0.001057 454.27661 891.35010
947.0 0.001056 454.18546 958.02869
942.0 0.001062 454.09402 904.29956
735.0 0.001361 454.00238 737.98798
667.0 0.001499 453.91052 648.14282
614.0 0.001629 453.81848 628.43341
584.0 0.001712 453.72617 616.49780
598.0 0.001672 453.63364 599.59302
574.0 0.001742 453.54089 590.51245
559.0 0.001789 453.44800 557.89258
549.0 0.001821 453.35483 532.45038
515.0 0.001942 453.26160 526.71973
520.0 0.001923 453.16791 536.73126
567.0 0.001764 453.07410 564.60773
628.0 0.001592 452.98007 621.04749
696.0 0.001437 452.88586 711.89362
810.0 0.001235 452.79144 829.95129
986.0 0.001014 452.69684 964.59698
993.0 0.001007 452.60196 958.98169
846.0 0.001182 452.50684 847.54095
847.0 0.001181 452.41165 806.97937
785.0 0.001274 452.31613 749.78235
657.0 0.001522 452.22046 650.86639
603.0 0.001658 452.12463 606.27802
592.0 0.001689 452.02844 625.19891
657.0 0.001522 451.93219 683.71515
742.0 0.001348 451.83572 760.31244
783.0 0.001277 451.73901 788.86450
793.0 0.001261 451.64209 784.86481
874.0 0.001144 451.54489 874.42950
1031.0 0.000970 451.44769 1020.19122
1148.0 0.000871 451.35013 1145.84839
1050.0 0.000952 451.25247 1108.73438
783.0 0.001277 451.15460 843.60608
601.0 0.001664 451.05640 661.16833
565.0 0.001770 450.95804 584.90009
549.0 0.001821 450.85965 562.34912
561.0 0.001783 450.76089 571.26642
573.0 0.001745 450.66199 616.55322
637.0 0.001570 450.56293 698.89185
761.0 0.001314 450.46362 792.93182
786.0 0.001272 450.36417 825.01550
730.0 0.001370 450.26453 727.85736
688.0 0.001453 450.16455 676.87140
742.0 0.001348 450.06464 729.72754
824.0 0.001214 449.96436 878.02435
998.0 0.001002 449.86392 1064.97888
1105.0 0.000905 449.76328 1201.55957
1017.0 0.000983 449.66241 1029.61365
790.0 0.001266 449.56143 826.38379
654.0 0.001529 449.46030 690.57068
584.0 0.001712 449.35892 606.47601
585.0 0.001709 449.25735 578.57135
553.0 0.001808 449.15558 597.55750
613.0 0.001631 449.05362 662.23364
701.0 0.001427 448.95154 750.13995
798.0 0.001253 448.84930 830.46930
774.0 0.001292 448.74677 769.09937
652.0 0.001534 448.64413 658.42163
553.0 0.001808 448.54129 584.81110
529.0 0.001890 448.43829 534.62891
498.0 0.002008 448.33511 511.33875
520.0 0.001923 448.23169 502.41959
507.0 0.001972 448.12820 500.82455
497.0 0.002012 448.02451 499.59317
519.0 0.001927 447.92050 510.00903
515.0 0.001942 447.81650 533.19293
582.0 0.001718 447.71222 559.23615
587.0 0.001704 447.60779 554.72998
540.0 0.001852 447.50314 515.77545
473.0 0.002114 447.39847 490.49738
467.0 0.002141 447.29346 480.56793
459.0 0.002179 447.18832 478.63263
478.0 0.002092 447.08304 477.65921
457.0 0.002188 446.97760 481.95981
464.0 0.002155 446.87201 493.08578
472.0 0.002119 446.76630 506.90744
489.0 0.002045 446.66028 510.72238
485.0 0.002062 446.55411 494.33899
472.0 0.002119 446.44778 481.26135
452.0 0.002212 446.34140 478.09750
452.0 0.002212 446.23480 482.59085
457.0 0.002188 446.12802 493.09506
508.0 0.001969 446.02103 511.47910
519.0 0.001927 445.91391 539.89996
537.0 0.001862 445.80664 578.96051
584.0 0.001712 445.69916 624.06116
623.0 0.001605 445.59161 654.63550
695.0 0.001439 445.48392 728.97205
805.0 0.001242 445.37598 849.94635
893.0 0.001120 445.26794 952.05322
858.0 0.001166 445.15973 841.98743
701.0 0.001427 445.05133 671.21350
555.0 0.001802 444.94278 587.40424
521.0 0.001919 444.83411 566.29431
548.0 0.001825 444.72522 576.11835
556.0 0.001799 444.61630 591.84344
622.0 0.001608 444.50711 626.89240
707.0 0.001414 444.39783 696.23663
779.0 0.001284 444.28833 761.91174
736.0 0.001359 444.17871 735.31311
633.0 0.001580 444.06909 628.24548
568.0 0.001761 443.95917 564.54834
553.0 0.001808 443.84909 555.36896
567.0 0.001764 443.73889 595.92627
675.0 0.001481 443.62857 681.04700
778.0 0.001285 443.51807 778.81152
799.0 0.001252 443.40741 809.77954
707.0 0.001414 443.29666 695.61157
587.0 0.001704 443.18570 591.44928
510.0 0.001961 443.07468 537.41272
499.0 0.002004 442.96353 513.95898
457.0 0.002188 442.85217 510.27142
503.0 0.001988 442.74069 523.65210
552.0 0.001812 442.62903 559.33014
606.0 0.001650 442.51730 606.59436
604.0 0.001656 442.40546 642.93866
615.0 0.001626 442.29340 605.91931
546.0 0.001832 442.18124 550.03119
517.0 0.001934 442.06882 524.63531
474.0 0.002110 441.95645 520.62463
537.0 0.001862 441.84390 532.85547
605.0 0.001653 441.73114 564.17633
652.0 0.001534 441.61829 633.71619
750.0 0.001333 441.50534 767.46552
984.0 0.001016 441.39224 957.54364
1186.0 0.000843 441.27902 1152.42627
1241.0 0.000806 441.16559 1176.45374
1134.0 0.000882 441.05212 1117.08826
981.0 0.001019 440.93845 931.29095
815.0 0.001227 440.82480 792.76050
882.0 0.001134 440.71088 802.14813
1042.0 0.000960 440.59692 960.21552
1410.0 0.000709 440.48273 1226.07190
1737.0 0.000576 440.36844 1514.98718
1773.0 0.000564 440.25412 1577.79382
1665.0 0.000601 440.13962 1517.64075
1409.0 0.000710 440.02502 1339.24792
1116.0 0.000896 439.91028 1040.34839
835.0 0.001198 439.79535 803.35522
703.0 0.001422 439.68039 704.31531
700.0 0.001429 439.56531 709.78876
811.0 0.001233 439.45010 784.08398
944.0 0.001059 439.33475 888.60480
1000.0 0.001000 439.21924 930.52740
951.0 0.001052 439.10370 872.36938
837.0 0.001195 438.98801 823.55310
719.0 0.001391 438.87222 727.58496
641.0 0.001560 438.75632 671.26715
611.0 0.001637 438.64026 699.15051
652.0 0.001534 438.52411 773.22449
705.0 0.001418 438.40790 828.51300
659.0 0.001517 438.29150 754.79822
595.0 0.001681 438.17502 665.55377
587.0 0.001704 438.05835 625.14172
555.0 0.001802 437.94177 595.13354
549.0 0.001821 437.82498 587.38092
586.0 0.001706 437.70807 630.29517
707.0 0.001414 437.59100 729.96661
807.0 0.001239 437.47394 857.15576
832.0 0.001202 437.35663 919.90906
786.0 0.001272 437.23944 832.23395
702.0 0.001425 437.12195 718.12238
639.0 0.001565 437.00439 658.23285
622.0 0.001608 436.88669 623.47479
606.0 0.001650 436.76898 615.04865
632.0 0.001582 436.65115 665.97968
739.0 0.001353 436.53323 797.09369
935.0 0.001070 436.41519 975.51544
1025.0 0.000976 436.29706 1108.71094
979.0 0.001021 436.17880 997.78143
795.0 0.001258 436.06055 844.74835
788.0 0.001269 435.94205 808.90112
847.0 0.001181 435.82355 879.53308
1069.0 0.000935 435.70493 1067.86462
1326.0 0.000754 435.58624 1335.81335
1532.0 0.000653 435.46744 1479.29724
1347.0 0.000742 435.34857 1405.17090
988.0 0.001012 435.22955 1140.09619
872.0 0.001147 435.11047 926.18280
704.0 0.001420 434.99139 757.58264
650.0 0.001538 434.87216 676.87073
616.0 0.001623 434.75275 665.00830
729.0 0.001372 434.63330 715.90155
802.0 0.001247 434.51379 825.19818
929.0 0.001076 434.39423 935.85724
940.0 0.001064 434.27454 954.72394
875.0 0.001143 434.15472 854.29340
731.0 0.001368 434.03488 752.57861
736.0 0.001359 433.91495 749.45465
738.0 0.001355 433.79495 788.68402
730.0 0.001370 433.67490 748.77399
608.0 0.001645 433.55469 629.32483
553.0 0.001808 433.43445 549.97937
514.0 0.001946 433.31409 514.91522
485.0 0.002062 433.19363 502.79956
490.0 0.002041 433.07321 503.51944
509.0 0.001965 432.95267 518.64380
541.0 0.001848 432.83194 554.88495
632.0 0.001582 432.71121 607.94336
687.0 0.001456 432.59039 660.95251
713.0 0.001403 432.46964 683.77441
764.0 0.001309 432.34866 737.81934
841.0 0.001189 432.22763 830.24371
879.0 0.001138 432.10657 864.34711
785.0 0.001274 431.98538 724.87689
622.0 0.001608 431.86417 590.09882
504.0 0.001984 431.74289 522.50909
481.0 0.002079 431.62152 497.13889
491.0 0.002037 431.50003 490.44952
493.0 0.002028 431.37854 499.42200
530.0 0.001887 431.25699 530.68097
607.0 0.001647 431.13535 585.71692
674.0 0.001484 431.01364 640.81458
628.0 0.001592 430.89182 634.14081
585.0 0.001709 430.77008 557.21271
515.0 0.001942 430.64822 502.57715
484.0 0.002066 430.52628 478.84467
490.0 0.002041 430.40421 470.94809
449.0 0.002227 430.28214 470.90717
479.0 0.002088 430.16000 478.01266
490.0 0.002041 430.03784 497.65305
533.0 0.001876 429.91559 545.78870
568.0 0.001761 429.79327 631.33746
673.0 0.001486 429.67090 725.27698
723.0 0.001383 429.54852 748.39703
627.0 0.001595 429.42606 638.66974
484.0 0.002066 429.30353 541.88733
482.0 0.002075 429.18094 495.60532
529.0 0.001890 429.05826 478.46030
489.0 0.002045 428.93558 475.05695
479.0 0.002088 428.81284 482.81451
493.0 0.002028 428.69006 508.43900
546.0 0.001832 428.56720 552.38281
591.0 0.001692 428.44427 594.66809
565.0 0.001770 428.32135 588.14148
522.0 0.001916 428.19843 529.11658
517.0 0.001934 428.07541 487.37723
462.0 0.002165 427.95227 469.04150
435.0 0.002299 427.82907 462.76190
447.0 0.002237 427.70593 461.70633
471.0 0.002123 427.58282 463.76718
470.0 0.002128 427.45947 469.22165
498.0 0.002008 427.33624 478.48117
487.0 0.002053 427.21283 494.75821
498.0 0.002008 427.08948 528.46405
592.0 0.001689 426.96603 602.36420
696.0 0.001437 426.84262 750.84479
847.0 0.001181 426.71912 956.62610
1054.0 0.000949 426.59549 1112.37378
944.0 0.001059 426.47198 995.96381
699.0 0.001431 426.34836 769.83057
603.0 0.001658 426.22470 660.62555
620.0 0.001613 426.10098 663.32983
695.0 0.001439 425.97726 712.86560
769.0 0.001300 425.85358 737.74518
711.0 0.001406 425.72977 693.68677
685.0 0.001460 425.60590 695.13092
723.0 0.001383 425.48206 757.42743
738.0 0.001355 425.35815 802.58966
672.0 0.001488 425.23428 714.93707
557.0 0.001795 425.11035 601.55890
544.0 0.001838 424.98636 551.10010
564.0 0.001773 424.86230 552.70703
583.0 0.001715 424.73831 571.56512
581.0 0.001721 424.61423 568.09332
527.0 0.001898 424.49020 523.40601
490.0 0.002041 424.36612 487.86176
469.0 0.002132 424.24194 471.29327
461.0 0.002169 424.11777 466.00092
482.0 0.002075 423.99356 467.33298
485.0 0.002062 423.86938 476.35788
525.0 0.001905 423.74521 501.74258
566.0 0.001767 423.62094 548.58417
662.0 0.001511 423.49670 606.65948
649.0 0.001541 423.37238 636.47577
560.0 0.001786 423.24805 585.65375
498.0 0.002008 423.12375 528.47137
507.0 0.001972 422.99939 503.44965
541.0 0.001848 422.87500 501.21896
515.0 0.001942 422.75067 517.89081
572.0 0.001748 422.62631 562.12842
647.0 0.001546 422.50192 662.65253
804.0 0.001244 422.37744 852.63348
1051.0 0.000951 422.25299 1087.47131
1174.0 0.000852 422.12866 1216.15515
920.0 0.001087 422.00415 1009.25128
683.0 0.001464 421.87973 743.93677
571.0 0.001751 421.75525 601.58490
545.0 0.001835 421.63074 547.23212
515.0 0.001942 421.50626 533.60120
551.0 0.001815 421.38168 546.32019
601.0 0.001664 421.25723 588.32227
656.0 0.001524 421.13269 665.61371
733.0 0.001364 421.00824 759.45319
778.0 0.001285 420.88367 809.67566
732.0 0.001366 420.75912 717.90448
596.0 0.001678 420.63452 606.20703
513.0 0.001949 420.51001 552.35950
569.0 0.001757 420.38544 543.96942
565.0 0.001770 420.26099 566.56989
655.0 0.001527 420.13644 634.36700
769.0 0.001300 420.01187 785.77148
962.0 0.001040 419.88730 1034.63318
1197.0 0.000835 419.76273 1277.33801
1213.0 0.000824 419.63821 1257.47913
916.0 0.001092 419.51367 958.27972
716.0 0.001397 419.38913 751.03003
642.0 0.001558 419.26459 668.33362
616.0 0.001623 419.14001 632.95197
609.0 0.001642 419.01553 600.73090
613.0 0.001631 418.89105 606.67902
660.0 0.001515 418.76651 672.70581
728.0 0.001374 418.64197 806.28467
870.0 0.001149 418.51746 954.17950
944.0 0.001059 418.39294 979.65228
850.0 0.001176 418.26846 841.46637
753.0 0.001328 418.14401 744.69208
739.0 0.001353 418.01953 758.95923
838.0 0.001193 417.89505 894.03625
1091.0 0.000917 417.77066 1169.57849
1414.0 0.000707 417.64630 1490.59705
1477.0 0.000677 417.52185 1574.06592
1197.0 0.000835 417.39737 1225.63330
918.0 0.001089 417.27301 933.27881
821.0 0.001218 417.14859 832.65430
821.0 0.001218 417.02429 820.43890
827.0 0.001209 416.89990 788.96930
801.0 0.001248 416.77560 742.50421
788.0 0.001269 416.65121 781.53656
909.0 0.001100 416.52695 931.48059
1084.0 0.000923 416.40271 1118.38062
1103.0 0.000907 416.27847 1166.75610
925.0 0.001081 416.15421 977.91943
816.0 0.001225 416.02997 823.63995
818.0 0.001222 415.90582 804.40375
909.0 0.001100 415.78168 890.59296
1076.0 0.000929 415.65747 1015.78784
1150.0 0.000870 415.53339 1146.39575
1384.0 0.000723 415.40921 1386.93713
1926.0 0.000519 415.28522 1938.19226
2750.0 0.000364 415.16122 2615.19946
2806.0 0.000356 415.03711 2787.51782
1993.0 0.000502 414.91312 2014.00464
1334.0 0.000750 414.78912 1288.23206
855.0 0.001170 414.66522 932.61505
771.0 0.001297 414.54135 814.07770
777.0 0.001287 414.41742 805.71167
850.0 0.001176 414.29358 849.45441
910.0 0.001099 414.16971 948.70306
1159.0 0.000863 414.04593 1194.60132
1512.0 0.000661 413.92218 1525.04321
1736.0 0.000576 413.79849 1658.55713
1414.0 0.000707 413.67477 1310.82263
950.0 0.001053 413.55109 910.65192
645.0 0.001550 413.42755 686.86121
604.0 0.001656 413.30392 585.14093
513.0 0.001949 413.18033 537.46985
516.0 0.001938 413.05685 513.48962
534.0 0.001873 412.93332 502.39404
542.0 0.001845 412.80994 499.04187
535.0 0.001869 412.68658 496.27972
500.0 0.002000 412.56317 484.28006
517.0 0.001934 412.43988 474.24570
474.0 0.002110 412.31656 471.11911
472.0 0.002119 412.19333 468.28271
446.0 0.002242 412.07010 470.03906
494.0 0.002024 411.94693 479.41617
533.0 0.001876 411.82382 504.29553
603.0 0.001658 411.70071 560.99054
694.0 0.001441 411.57767 654.96899
754.0 0.001326 411.45480 743.28357
717.0 0.001395 411.33182 720.47375
601.0 0.001664 411.20889 607.14832
539.0 0.001855 411.08600 527.82953
503.0 0.001988 410.96329 493.03833
490.0 0.002041 410.84045 484.48489
496.0 0.002016 410.71777 492.36646
525.0 0.001905 410.59509 517.91876
615.0 0.001626 410.47256 564.50842
644.0 0.001553 410.34998 626.47009
726.0 0.001377 410.22745 682.66107
803.0 0.001245 410.10501 725.17688
855.0 0.001170 409.98260 743.40460
905.0 0.001105 409.86017 790.30298
937.0 0.001067 409.73798 825.00659
845.0 0.001183 409.61569 815.97754
689.0 0.001451 409.49350 713.95367
621.0 0.001610 409.37134 627.68030
650.0 0.001538 409.24927 608.61694
675.0 0.001481 409.12726 629.89270
657.0 0.001522 409.00534 652.79742
736.0 0.001359 408.88342 683.23694
809.0 0.001236 408.76154 796.47858
1053.0 0.000950 408.63971 1049.95215
1428.0 0.000700 408.51804 1394.45862
1545.0 0.000647 408.39636 1615.48132
1281.0 0.000781 408.27472 1371.59058
910.0 0.001099 408.15320 959.40900
711.0 0.001406 408.03165 718.08276
641.0 0.001560 407.91022 619.20703
562.0 0.001779 407.78888 583.85480
567.0 0.001764 407.66757 567.20337
598.0 0.001672 407.54636 578.24609
661.0 0.001513 407.42511 648.11914
793.0 0.001261 407.30405 784.98224
866.0 0.001155 407.18301 920.13751
879.0 0.001138 407.06201 895.39532
713.0 0.001403 406.94113 714.18835
602.0 0.001661 406.82022 576.12408
542.0 0.001845 406.69940 506.72244
501.0 0.001996 406.57877 477.09100
454.0 0.002203 406.45813 465.59042
466.0 0.002146 406.33752 460.24252
485.0 0.002062 406.21698 452.96185
464.0 0.002155 406.09659 443.65930
437.0 0.002288 405.97626 439.09552
439.0 0.002278 405.85599 441.64337
465.0 0.002151 405.73569 450.28278
501.0 0.001996 405.61563 458.82919
501.0 0.001996 405.49554 456.03250
447.0 0.002237 405.37552 441.97504
429.0 0.002331 405.25565 432.59296
432.0 0.002315 405.13574 429.35275
432.0 0.002315 405.01593 427.58435
427.0 0.002342 404.89630 425.40079
443.0 0.002257 404.77670 423.03943
462.0 0.002165 404.65717 421.30344
477.0 0.002096 404.53766 427.05960
484.0 0.002066 404.41827 436.32281
462.0 0.002165 404.29898 444.63287
457.0 0.002188 404.17978 443.06735
472.0 0.002119 404.06055 432.81464
439.0 0.002278 403.94156 423.63184
460.0 0.002174 403.82248 419.03592
456.0 0.002193 403.70364 418.40256
446.0 0.002242 403.58484 418.24081
451.0 0.002217 403.46606 417.78275
449.0 0.002227 403.34738 419.45224
428.0 0.002336 403.22876 422.41483
430.0 0.002326 403.11032 427.01175
454.0 0.002203 402.99200 432.23840
484.0 0.002066 402.87363 436.08679
474.0 0.002110 402.75543 438.43936
466.0 0.002146 402.63718 444.17596
485.0 0.002062 402.51920 456.23355
511.0 0.001957 402.40121 481.04962
574.0 0.001742 402.28333 532.92645
650.0 0.001538 402.16550 635.04852
804.0 0.001244 402.04779 777.54303
853.0 0.001172 401.93021 870.36646
753.0 0.001328 401.81268 786.61249
631.0 0.001585 401.69522 651.21399
574.0 0.001742 401.57785 582.88934
598.0 0.001672 401.46057 588.18604
647.0 0.001546 401.34341 676.78754
806.0 0.001241 401.22641 875.25720
986.0 0.001014 401.10944 1111.02795
1137.0 0.000880 400.99249 1087.52319
1013.0 0.000987 400.87570 928.96545
877.0 0.001140 400.75903 828.98077
800.0 0.001250 400.64243 701.88910
633.0 0.001580 400.52591 598.31891
569.0 0.001757 400.40948 548.52948
547.0 0.001828 400.29324 544.92944
578.0 0.001730 400.17697 591.61224
668.0 0.001497 400.06091 712.59796
837.0 0.001195 399.94489 893.00397
966.0 0.001035 399.82889 940.52753
878.0 0.001139 399.71310 774.16693
733.0 0.001364 399.59738 622.01703
594.0 0.001684 399.48184 552.50281
581.0 0.001721 399.36615 549.17444
667.0 0.001499 399.25079 595.53906
683.0 0.001464 399.13544 668.55725
732.0 0.001366 399.02032 673.82220
716.0 0.001397 398.90521 628.35834
644.0 0.001553 398.79010 634.49603
711.0 0.001406 398.67523 678.40082
705.0 0.001418 398.56039 666.60388
636.0 0.001572 398.44577 589.62933
632.0 0.001582 398.33115 533.32092
531.0 0.001883 398.21661 514.67792
541.0 0.001848 398.10226 528.29120
574.0 0.001742 397.98792 569.89581
643.0 0.001555 397.87378 619.52350
671.0 0.001490 397.75974 640.82477
708.0 0.001412 397.64575 682.74799
773.0 0.001294 397.53195 788.13239
945.0 0.001058 397.41809 1001.59247
1174.0 0.000852 397.30453 1229.25293
1232.0 0.000812 397.19104 1143.91064
1035.0 0.000966 397.07761 905.77948
900.0 0.001111 396.96420 803.81366
941.0 0.001063 396.85107 851.37299
1045.0 0.000957 396.73801 898.65363
974.0 0.001027 396.62506 799.18390
797.0 0.001255 396.51218 700.48230
697.0 0.001435 396.39938 675.41821
701.0 0.001427 396.28677 722.25964
791.0 0.001264 396.17422 845.79767
941.0 0.001063 396.06180 971.17145
1042.0 0.000960 395.94958 995.57385
1119.0 0.000894 395.83737 1124.71350
1375.0 0.000727 395.72531 1471.18359
1592.0 0.000628 395.61334 1703.98315
1511.0 0.000662 395.50159 1414.91846
1149.0 0.000870 395.38983 1032.30518
918.0 0.001089 395.27823 822.47437
808.0 0.001238 395.16672 761.49335
843.0 0.001186 395.05539 809.70441
1039.0 0.000962 394.94406 1000.31122
1420.0 0.000704 394.83295 1445.62952
1997.0 0.000501 394.72195 2186.68872
2662.0 0.000376 394.61105 2706.86768
2586.0 0.000387 394.50027 2415.83008
2008.0 0.000498 394.38971 1783.24304
1350.0 0.000741 394.27914 1206.93811
943.0 0.001060 394.16876 878.40210
740.0 0.001351 394.05841 731.07214
688.0 0.001453 393.94830 679.53662
678.0 0.001475 393.83820 692.65387
845.0 0.001183 393.72833 798.27936
1019.0 0.000981 393.61850 1051.39014
1387.0 0.000721 393.50882 1418.20825
1627.0 0.000615 393.39926 1521.42615
1509.0 0.000663 393.28986 1218.53271
1071.0 0.000934 393.18051 937.33881
884.0 0.001131 393.07135 811.23096
792.0 0.001263 392.96231 711.06146
728.0 0.001374 392.85336 602.71082
581.0 0.001721 392.74460 531.15033
521.0 0.001919 392.63593 496.20117
483.0 0.002070 392.52734 481.50693
490.0 0.002041 392.41888 481.52130
561.0 0.001783 392.31064 487.92694
521.0 0.001919 392.20251 487.91064
521.0 0.001919 392.09448 483.86295
520.0 0.001923 391.98651 497.60138
550.0 0.001818 391.87875 516.47540
550.0 0.001818 391.77109 497.29703
510.0 0.001961 391.66364 461.43768
463.0 0.002160 391.55621 438.14749
443.0 0.002257 391.44894 427.37134
458.0 0.002183 391.34189 418.52576
439.0 0.002278 391.23489 414.03223
430.0 0.002326 391.12802 411.27750
431.0 0.002320 391.02127 410.71866
454.0 0.002203 390.91464 410.59427
458.0 0.002183 390.80814 410.99860
442.0 0.002262 390.70190 411.93246
425.0 0.002353 390.59570 413.46204
425.0 0.002353 390.48969 415.72400
452.0 0.002212 390.38361 418.95163
448.0 0.002232 390.27786 423.65176
461.0 0.002169 390.17218 428.06329
463.0 0.002160 390.06674 437.85385
481.0 0.002079 389.96127 453.97433
490.0 0.002041 389.85599 483.54233
557.0 0.001795 389.75089 543.16382
655.0 0.001527 389.64603 659.33905
792.0 0.001263 389.54111 830.61566
985.0 0.001015 389.43637 964.67310
1114.0 0.000898 389.33182 1068.17322
1162.0 0.000861 389.22739 1035.38306
997.0 0.001003 389.12311 821.12848
781.0 0.001280 389.01901 666.25934
699.0 0.001431 388.91492 621.61816
645.0 0.001550 388.81107 641.25220
641.0 0.001560 388.70731 632.42316
624.0 0.001603 388.60370 597.16876
632.0 0.001582 388.50037 609.51031
675.0 0.001481 388.39694 673.72070
721.0 0.001387 388.29382 737.63074
813.0 0.001230 388.19073 807.99707
893.0 0.001120 388.08786 817.98810
847.0 0.001181 387.98517 714.33649
658.0 0.001520 387.88257 600.64691
593.0 0.001686 387.78009 543.61877
570.0 0.001754 387.67780 530.95880
532.0 0.001880 387.57559 508.81146
504.0 0.001984 387.47357 471.84625
452.0 0.002212 387.37167 446.90027
461.0 0.002169 387.26990 436.41101
497.0 0.002012 387.16833 437.86066
528.0 0.001894 387.06689 452.36649
516.0 0.001938 386.96561 479.96100
545.0 0.001835 386.86441 501.89343
547.0 0.001828 386.76337 504.28976
558.0 0.001792 386.66251 479.81543
499.0 0.002004 386.56186 446.29175
472.0 0.002119 386.46124 425.18668
464.0 0.002155 386.36084 414.41470
451.0 0.002217 386.26053 410.10834
428.0 0.002336 386.16040 408.32730
443.0 0.002257 386.06039 406.83896
437.0 0.002288 385.96057 408.81708
438.0 0.002283 385.86084 414.50476
462.0 0.002165 385.76129 425.58701
470.0 0.002128 385.66190 437.85849
458.0 0.002183 385.56265 437.31961
488.0 0.002049 385.46362 429.11230
480.0 0.002083 385.36465 426.25772
464.0 0.002155 385.26584 430.40964
450.0 0.002222 385.16718 442.82748
491.0 0.002037 385.06873 468.85864
539.0 0.001855 384.97037 526.09125
628.0 0.001592 384.87216 649.84174
739.0 0.001353 384.77411 851.28778
850.0 0.001176 384.67624 977.45569
804.0 0.001244 384.57849 829.72089
642.0 0.001558 384.48093 635.67047
547.0 0.001828 384.38345 522.40796
504.0 0.001984 384.28622 471.60715
461.0 0.002169 384.18903 451.16293
461.0 0.002169 384.09207 444.95612
449.0 0.002227 383.99524 449.91266
469.0 0.002132 383.89859 472.49603
532.0 0.001880 383.80206 529.70117
569.0 0.001757 383.70572 629.24481
639.0 0.001565 383.60947 711.10791
695.0 0.001439 383.51343 668.17487
630.0 0.001587 383.41751 592.48871
578.0 0.001730 383.32181 526.81195
539.0 0.001855 383.22617 471.02847
506.0 0.001976 383.13080 437.73898
456.0 0.002193 383.03552 420.59207
435.0 0.002299 382.94040 411.82346
436.0 0.002294 382.84546 407.08795
439.0 0.002278 382.75058 404.71292
414.0 0.002415 382.65601 404.52264
406.0 0.002463 382.56152 407.91379
448.0 0.002232 382.46713 416.64603
467.0 0.002141 382.37296 428.72012
459.0 0.002179 382.27890 429.29636
442.0 0.002262 382.18506 416.78766
438.0 0.002283 382.09134 406.42294
441.0 0.002268 381.99780 401.31226
435.0 0.002299 381.90439 399.53500
418.0 0.002392 381.81119 399.46283
373.0 0.002681 381.71814 399.09720
423.0 0.002364 381.62521 401.28979
431.0 0.002320 381.53238 405.02103
431.0 0.002320 381.43985 411.56189
407.0 0.002457 381.34738 422.91937
428.0 0.002336 381.25510 440.00732
435.0 0.002299 381.16299 457.33835
489.0 0.002045 381.07104 476.70837
486.0 0.002058 380.97925 527.62549
556.0 0.001799 380.88766 643.44836
748.0 0.001337 380.79617 823.96729
875.0 0.001143 380.70486 907.62262
767.0 0.001304 380.61362 759.48511
603.0 0.001658 380.52274 593.83545
504.0 0.001984 380.43185 500.93454
457.0 0.002188 380.34125 461.76144
433.0 0.002309 380.25067 448.71896
456.0 0.002193 380.16037 446.19574
448.0 0.002232 380.07013 447.62695
456.0 0.002193 379.98010 463.29880
481.0 0.002079 379.89029 509.68542
533.0 0.001876 379.80060 594.45203
602.0 0.001661 379.71106 661.89288
622.0 0.001608 379.62167 607.64209
567.0 0.001764 379.53247 514.09967
476.0 0.002101 379.44345 454.64166
433.0 0.002309 379.35452 426.09613
410.0 0.002439 379.26587 412.96283
417.0 0.002398 379.17728 406.30997
412.0 0.002427 379.08887 402.73938
395.0 0.002532 379.00067 401.19107
415.0 0.002410 378.91269 401.57590
444.0 0.002252 378.82477 404.37149
444.0 0.002252 378.73700 410.09998
454.0 0.002203 378.64944 418.14435
483.0 0.002070 378.56204 432.32782
525.0 0.001905 378.47482 463.26172
571.0 0.001751 378.38773 508.77771
608.0 0.001645 378.30081 520.95520
575.0 0.001739 378.21408 478.98087
495.0 0.002020 378.12759 439.75272
444.0 0.002252 378.04117 419.01563
437.0 0.002288 377.95490 413.57468
443.0 0.002257 377.86877 416.92862
477.0 0.002096 377.78287 423.41711
435.0 0.002299 377.69714 425.02945
455.0 0.002198 377.61166 428.19888
472.0 0.002119 377.52615 445.24289
519.0 0.001927 377.44092 481.50500
581.0 0.001721 377.35583 518.04468
590.0 0.001695 377.27097 507.46976
563.0 0.001776 377.18625 469.30945
480.0 0.002083 377.10162 444.39359
482.0 0.002075 377.01724 439.45752
470.0 0.002128 376.93304 453.73447
494.0 0.002024 376.84891 491.77737
561.0 0.001783 376.76505 568.63373
654.0 0.001529 376.68130 688.93018
741.0 0.001350 376.59775 765.93634
711.0 0.001406 376.51431 686.53058
603.0 0.001658 376.43109 581.36743
552.0 0.001812 376.34799 524.82434
491.0 0.002037 376.26514 501.72937
469.0 0.002132 376.18234 499.70770
520.0 0.001923 376.09985 491.21045
535.0 0.001869 376.01746 473.49683
489.0 0.002045 375.93524 474.16165
518.0 0.001931 375.85315 507.72864
574.0 0.001742 375.77136 583.05206
649.0 0.001541 375.68961 666.47650
640.0 0.001563 375.60806 646.87854
584.0 0.001712 375.52670 556.50946
525.0 0.001905 375.44550 492.15451
517.0 0.001934 375.36441 465.09805
486.0 0.002058 375.28363 462.56531
462.0 0.002165 375.20291 467.81833
468.0 0.002137 375.12241 467.60666
490.0 0.002041 375.04202 477.59216
518.0 0.001931 374.96185 515.04639
556.0 0.001799 374.88181 592.11908
666.0 0.001502 374.80194 687.38379
757.0 0.001321 374.72229 730.23181
800.0 0.001250 374.64279 762.77667
791.0 0.001264 374.56342 812.27325
703.0 0.001422 374.48425 746.39258
644.0 0.001553 374.40527 616.91583
563.0 0.001776 374.32645 530.85071
487.0 0.002053 374.24774 491.58896
457.0 0.002188 374.16931 481.83105
473.0 0.002114 374.09094 492.14984
488.0 0.002049 374.01285 523.01959
512.0 0.001953 373.93484 574.99835
619.0 0.001616 373.85709 630.25171
721.0 0.001387 373.77945 697.24347
845.0 0.001183 373.70197 842.74463
1005.0 0.000995 373.62463 1063.26379
1214.0 0.000824 373.54761 1273.81250
1283.0 0.000779 373.47061 1252.86487
1106.0 0.000904 373.39383 1017.84192
920.0 0.001087 373.31723 886.85773
957.0 0.001045 373.24081 933.62030
1096.0 0.000912 373.16449 1067.41113
1092.0 0.000916 373.08847 1055.01648
923.0 0.001083 373.01242 852.88708
757.0 0.001321 372.93671 689.77002
635.0 0.001575 372.86121 627.43201
611.0 0.001637 372.78580 656.61682
690.0 0.001449 372.71054 759.86292
815.0 0.001227 372.63547 850.80634
857.0 0.001167 372.56052 791.38324
721.0 0.001387 372.48590 697.56891
674.0 0.001484 372.41135 686.25452
727.0 0.001376 372.33691 758.68829
839.0 0.001192 372.26270 838.84833
837.0 0.001195 372.18869 811.18933
755.0 0.001325 372.11484 774.24677
885.0 0.001130 372.04114 849.79614
1053.0 0.000950 371.96759 1003.15723
1084.0 0.000923 371.89420 1006.57092
928.0 0.001078 371.82104 850.56903
743.0 0.001346 371.74808 756.20422
717.0 0.001395 371.67520 733.03601
653.0 0.001531 371.60251 672.20013
596.0 0.001678 371.53012 594.35284
573.0 0.001745 371.45776 557.56500
542.0 0.001845 371.38556 552.49548
553.0 0.001808 371.31363 549.77789
559.0 0.001789 371.24185 571.00482
646.0 0.001548 371.17014 639.79858
671.0 0.001490 371.09869 707.56995
684.0 0.001462 371.02744 668.55377
635.0 0.001575 370.95627 594.56342
572.0 0.001748 370.88531 564.78528
526.0 0.001901 370.81464 551.61499
515.0 0.001942 370.74393 512.24365
514.0 0.001946 370.67349 477.11911
482.0 0.002075 370.60333 462.70013
495.0 0.002020 370.53317 460.03629
477.0 0.002096 370.46317 457.72009
449.0 0.002227 370.39346 470.32642
494.0 0.002024 370.32388 515.29803
566.0 0.001767 370.25446 607.49622
650.0 0.001538 370.18524 719.05054
693.0 0.001443 370.11621 717.85114
625.0 0.001600 370.04727 606.90320
552.0 0.001812 369.97861 519.38647
543.0 0.001842 369.91006 476.88693
535.0 0.001869 369.84164 452.97076
476.0 0.002101 369.77341 434.75961
420.0 0.002381 369.70538 424.84909
421.0 0.002375 369.63751 425.15897
444.0 0.002252 369.56989 437.91373
461.0 0.002169 369.50232 470.47501
538.0 0.001859 369.43497 527.59045
602.0 0.001661 369.36777 579.86670
607.0 0.001647 369.30072 562.71411
543.0 0.001842 369.23392 519.26324
539.0 0.001855 369.16730 511.97049
588.0 0.001701 369.10071 544.79785
580.0 0.001724 369.03439 573.50745
557.0 0.001795 368.96823 535.82452
497.0 0.002012 368.90231 477.15573
452.0 0.002212 368.83646 438.27823
454.0 0.002203 368.77081 418.05908
424.0 0.002358 368.70529 409.34467
409.0 0.002445 368.64008 406.65894
404.0 0.002475 368.57498 406.28369
402.0 0.002488 368.50995 408.73990
436.0 0.002294 368.44510 417.36298
470.0 0.002128 368.38049 438.03738
501.0 0.001996 368.31607 471.34317
509.0 0.001965 368.25180 496.21640
515.0 0.001942 368.18759 486.08841
498.0 0.002008 368.12375 471.95926
497.0 0.002012 368.05988 483.92795
505.0 0.001980 367.99628 525.72681
554.0 0.001805 367.93286 558.86560
555.0 0.001802 367.86957 526.07410
429.0 0.002331 367.80649 474.19641
468.0 0.002137 367.74359 442.72882
449.0 0.002227 367.68079 431.55127
456.0 0.002193 367.61829 434.80264
415.0 0.002410 367.55579 452.32074
485.0 0.002062 367.49353 490.76712
581.0 0.001721 367.43143 556.74353
701.0 0.001427 367.36957 643.36920
719.0 0.001391 367.30780 698.02240
762.0 0.001312 367.24625 739.03168
813.0 0.001230 367.18478 791.90051
801.0 0.001248 367.12360 752.42511
664.0 0.001506 367.06247 631.19354
552.0 0.001812 367.00162 533.32178
499.0 0.002004 366.94092 483.16522
483.0 0.002070 366.88028 466.76843
496.0 0.002016 366.81989 473.54053
525.0 0.001905 366.75964 506.55228
559.0 0.001789 366.69952 582.33167
671.0 0.001490 366.63971 711.29510
811.0 0.001233 366.57993 858.04346
921.0 0.001086 366.52042 923.27631
859.0 0.001164 366.46094 835.41486
709.0 0.001410 366.40182 695.24927
587.0 0.001704 366.34274 569.92706
482.0 0.002075 366.28378 492.69495
466.0 0.002146 366.22510 454.03934
442.0 0.002262 366.16653 437.03070
395.0 0.002532 366.10806 432.58594
413.0 0.002421 366.04987 439.92740
441.0 0.002268 365.99182 464.74539
497.0 0.002012 365.93390 513.32526
542.0 0.001845 365.87619 575.93719
554.0 0.001805 365.81863 595.59631
516.0 0.001938 365.76117 540.00934
468.0 0.002137 365.70401 484.13095
463.0 0.002160 365.64694 459.51559
477.0 0.002096 365.59003 464.27762
480.0 0.002083 365.53329 487.25351
548.0 0.001825 365.47668 509.27499
523.0 0.001912 365.42029 527.91577
559.0 0.001789 365.36404 562.52753
611.0 0.001637 365.30795 625.11395
656.0 0.001524 365.25211 647.25238
622.0 0.001608 365.19629 591.91986
557.0 0.001795 365.14078 521.47266
473.0 0.002114 365.08527 465.07858
424.0 0.002358 365.03006 434.03317
406.0 0.002463 364.97495 422.25275
389.0 0.002571 364.92001 424.31699
412.0 0.002427 364.86520 434.74213
438.0 0.002283 364.81067 444.68036
437.0 0.002288 364.75616 453.74393
479.0 0.002088 364.70200 470.57272
522.0 0.001916 364.64780 502.48062
485.0 0.002062 364.59384 518.53265
478.0 0.002092 364.54004 501.99661
451.0 0.002217 364.48645 480.14893
471.0 0.002123 364.43295 452.86145
413.0 0.002421 364.37970 423.99805
426.0 0.002347 364.32660 404.38919
405.0 0.002469 364.27353 392.86990
349.0 0.002865 364.22079 386.99945
371.0 0.002695 364.16809 383.70651
381.0 0.002625 364.11560 382.62662
399.0 0.002506 364.06332 382.44669
366.0 0.002732 364.01102 383.62048
375.0 0.002667 363.95901 386.85397
389.0 0.002571 363.90723 393.09015
419.0 0.002387 363.85550 402.04800
421.0 0.002375 363.80402 407.40714
409.0 0.002445 363.75262 409.49609
386.0 0.002591 363.70145 418.04688
422.0 0.002370 363.65036 434.95859
416.0 0.002404 363.59949 450.63855
442.0 0.002262 363.54874 458.71094
463.0 0.002160 363.49817 480.68076
502.0 0.001992 363.44778 528.09967
561.0 0.001783 363.39752 586.14355
566.0 0.001767 363.34741 605.69720
525.0 0.001905 363.29749 590.71783
489.0 0.002045 363.24765 544.19385
458.0 0.002183 363.19806 492.65289
430.0 0.002326 363.14862 464.51315
387.0 0.002584 363.09927 451.82077
367.0 0.002725 363.05017 448.33780
392.0 0.002551 363.00113 451.05264
433.0 0.002309 362.95224 451.76303
441.0 0.002268 362.90363 460.58862
459.0 0.002179 362.85510 487.13052
480.0 0.002083 362.80673 529.60352
526.0 0.001901 362.75851 572.55292
592.0 0.001689 362.71045 629.90216
671.0 0.001490 362.66257 724.19452
788.0 0.001269 362.61484 845.62256
809.0 0.001236 362.56723 865.25214
676.0 0.001479 362.51984 722.68201
550.0 0.001818 362.47250 580.13849
463.0 0.002160 362.42545 497.23157
428.0 0.002336 362.37845 458.16226
409.0 0.002445 362.33160 442.53091
441.0 0.002268 362.28494 437.30838
408.0 0.002451 362.23846 435.13269
421.0 0.002375 362.19208 440.87100
423.0 0.002364 362.14594 464.40051
475.0 0.002105 362.09982 515.61450
526.0 0.001901 362.05389 592.47949
545.0 0.001835 362.00821 638.63159
552.0 0.001812 361.96262 602.34033
519.0 0.001927 361.91724 567.01190
542.0 0.001845 361.87192 588.33148
580.0 0.001724 361.82678 653.87225
646.0 0.001548 361.78183 680.35583
547.0 0.001828 361.73697 641.01996
568.0 0.001761 361.69226 595.30237
509.0 0.001965 361.64774 550.24255
481.0 0.002079 361.60333 532.68042
450.0 0.002222 361.55917 540.01605
451.0 0.002217 361.51508 523.16559
479.0 0.002088 361.47116 479.74091
409.0 0.002445 361.42734 449.55118
384.0 0.002604 361.38373 442.75583
405.0 0.002469 361.34033 460.21713
427.0 0.002342 361.29700 496.93625
471.0 0.002123 361.25375 522.90448
481.0 0.002079 361.21078 509.78418
461.0 0.002169 361.16785 488.70508
433.0 0.002309 361.12503 468.78903
417.0 0.002398 361.08252 458.73141
410.0 0.002439 361.04004 461.07901
405.0 0.002469 360.99780 455.55670
372.0 0.002688 360.95563 432.12305
378.0 0.002646 360.91360 410.65533
386.0 0.002591 360.87183 398.49277
373.0 0.002681 360.83011 393.86154
371.0 0.002695 360.78851 393.49738
378.0 0.002646 360.74716 398.80392
376.0 0.002660 360.70581 412.58527
404.0 0.002475 360.66473 442.78281
453.0 0.002208 360.62378 497.43719
509.0 0.001965 360.58292 563.25555
545.0 0.001835 360.54218 571.03833
484.0 0.002066 360.50168 509.56873
410.0 0.002439 360.46127 452.00256
374.0 0.002674 360.42102 419.67130
372.0 0.002688 360.38089 406.39990
379.0 0.002639 360.34091 405.04117
394.0 0.002538 360.30115 413.98169
436.0 0.002294 360.26141 436.72247
435.0 0.002299 360.22192 475.71124
460.0 0.002174 360.18250 512.05933
450.0 0.002222 360.14322 517.59485
456.0 0.002193 360.10413 519.73816
452.0 0.002212 360.06509 517.05829
443.0 0.002257 360.02625 478.31030
436.0 0.002294 359.98755 434.14981
398.0 0.002513 359.94907 406.52350
398.0 0.002513 359.91064 392.62320
374.0 0.002674 359.87241 387.16284
383.0 0.002611 359.83423 387.17700
371.0 0.002695 359.79623 393.44388
382.0 0.002618 359.75836 407.24084
381.0 0.002625 359.72070 424.26205
413.0 0.002421 359.68307 426.63263
396.0 0.002525 359.64563 414.97980
380.0 0.002632 359.60840 405.17111
363.0 0.002755 359.57114 394.09332
343.0 0.002915 359.53418 382.60019
363.0 0.002755 359.49728 375.05203
331.0 0.003021 359.46048 370.71317
362.0 0.002762 359.42389 368.35916
333.0 0.003003 359.38742 366.90891
334.0 0.002994 359.35104 366.08740
405.0 0.002469 359.31485 365.62823
342.0 0.002924 359.27875 365.54272
340.0 0.002941 359.24289 365.98904
341.0 0.002933 359.20703 367.16916
355.0 0.002817 359.17136 368.84592
334.0 0.002994 359.13586 369.32489
340.0 0.002941 359.10043 367.79706
365.0 0.002740 359.06516 366.19623
387.0 0.002584 359.03006 364.97852
363.0 0.002755 358.99503 364.71057
354.0 0.002825 358.96014 364.82483
372.0 0.002688 358.92542 365.18823
347.0 0.002882 358.89084 365.77554
373.0 0.002681 358.85632 366.61987
351.0 0.002849 358.82199 367.81424
347.0 0.002882 358.78778 369.48190
379.0 0.002639 358.75372 371.84808
414.0 0.002415 358.71973 375.39801
402.0 0.002488 358.68597 381.22720
380.0 0.002632 358.65222 391.77301
423.0 0.002364 358.61871 412.47220
473.0 0.002114 358.58524 449.39575
531.0 0.001883 358.55197 501.45834
559.0 0.001789 358.51880 541.21729
570.0 0.001754 358.48581 556.51166
570.0 0.001754 358.45285 544.07288
520.0 0.001923 358.42010 490.22662
440.0 0.002273 358.38739 438.46246
390.0 0.002564 358.35486 407.32672
381.0 0.002625 358.32245 391.97186
377.0 0.002653 358.29013 385.54749
363.0 0.002755 358.25800 384.22040
378.0 0.002646 358.22601 388.01785
390.0 0.002564 358.19403 399.12683
401.0 0.002494 358.16235 419.56631
406.0 0.002463 358.13065 443.98172
458.0 0.002183 358.09912 457.31644
484.0 0.002066 358.06772 460.30783
495.0 0.002020 358.03647 444.08713
442.0 0.002262 358.00528 414.43381
398.0 0.002513 357.97424 391.79987
365.0 0.002740 357.94333 378.90747
366.0 0.002732 357.91254 372.25681
348.0 0.002874 357.88184 368.69116
388.0 0.002577 357.85132 366.54321
368.0 0.002717 357.82092 365.10483
346.0 0.002890 357.79068 364.16959
353.0 0.002833 357.76047 363.53745
341.0 0.002933 357.73041 363.13663
363.0 0.002755 357.70038 362.89651
370.0 0.002703 357.67062 362.65903
374.0 0.002674 357.64096 362.56250
339.0 0.002950 357.61136 362.88696
377.0 0.002653 357.58188 363.62653
358.0 0.002793 357.55255 365.33499
359.0 0.002786 357.52335 368.56818
358.0 0.002793 357.49423 373.08014
362.0 0.002762 357.46524 376.28653
356.0 0.002809 357.43634 376.57831
363.0 0.002755 357.40762 374.52783
349.0 0.002865 357.37900 370.19843
347.0 0.002882 357.35046 366.83511
355.0 0.002817 357.32208 364.92557
383.0 0.002611 357.29373 364.15427
345.0 0.002899 357.26559 363.99768
349.0 0.002865 357.23749 364.58246
358.0 0.002793 357.20966 365.48822
364.0 0.002747 357.18179 367.58472
387.0 0.002584 357.15399 371.12308
389.0 0.002571 357.12640 376.43118
357.0 0.002801 357.09897 383.14566
397.0 0.002519 357.07150 393.00333
409.0 0.002445 357.04428 406.33856
423.0 0.002364 357.01709 417.88651
454.0 0.002203 356.99008 425.85394
428.0 0.002336 356.96317 438.65790
443.0 0.002257 356.93637 443.19128
433.0 0.002309 356.90964 423.52338
393.0 0.002545 356.88303 400.34702
376.0 0.002660 356.85657 385.64987
375.0 0.002667 356.83020 378.86102
375.0 0.002667 356.80389 377.11618
368.0 0.002717 356.77777 379.15967
380.0 0.002632 356.75168 385.68115
373.0 0.002681 356.72574 397.13525
414.0 0.002415 356.69986 410.65714
459.0 0.002179 356.67419 419.80389
427.0 0.002342 356.64853 425.44208
416.0 0.002404 356.62302 431.25388
410.0 0.002439 356.59769 433.49664
417.0 0.002398 356.57239 428.99911
405.0 0.002469 356.54718 425.60370
419.0 0.002387 356.52206 427.70963
414.0 0.002415 356.49701 437.22165
451.0 0.002217 356.47217 455.12692
445.0 0.002247 356.44745 462.18210
425.0 0.002353 356.42273 449.08698
413.0 0.002421 356.39819 441.88058
427.0 0.002342 356.37378 453.73056
463.0 0.002160 356.34937 481.56262
444.0 0.002252 356.32513 505.24384
466.0 0.002146 356.30090 503.63724
435.0 0.002299 356.27682 503.32962
426.0 0.002347 356.25293 521.57098
473.0 0.002114 356.22900 537.47131
461.0 0.002169 356.20529 513.18127
410.0 0.002439 356.18161 475.81320
444.0 0.002252 356.15808 454.10114
406.0 0.002463 356.13467 439.04700
424.0 0.002358 356.11124 423.09778
400.0 0.002500 356.08801 415.13727
419.0 0.002387 356.06488 419.41669
384.0 0.002604 356.04181 433.62363
450.0 0.002222 356.01886 446.91510
417.0 0.002398 355.99597 451.99692
408.0 0.002451 355.97333 465.52118
460.0 0.002174 355.95056 500.54114
484.0 0.002066 355.92801 547.75006
484.0 0.002066 355.90555 570.29138
511.0 0.001957 355.88318 538.54193
458.0 0.002183 355.86087 482.76077
433.0 0.002309 355.83865 444.12567
440.0 0.002273 355.81659 429.48224
445.0 0.002247 355.79459 436.79300
466.0 0.002146 355.77264 466.31290
493.0 0.002028 355.75085 513.90070
523.0 0.001912 355.72910 546.65875
490.0 0.002041 355.70746 528.17828
455.0 0.002198 355.68588 493.19861
441.0 0.002268 355.66452 470.96368
421.0 0.002375 355.64313 466.44299
440.0 0.002273 355.62186 469.95016
419.0 0.002387 355.60068 457.05304
426.0 0.002347 355.57962 433.96307
419.0 0.002387 355.55862 419.19183
427.0 0.002342 355.53772 416.88025
436.0 0.002294 355.51682 428.68549
450.0 0.002222 355.49615 459.27533
532.0 0.001880 355.47549 515.21796
590.0 0.001695 355.45496 590.13177
662.0 0.001511 355.43454 660.09875
649.0 0.001541 355.41415 680.40466
565.0 0.001770 355.39383 608.20349
481.0 0.002079 355.37369 517.14825
443.0 0.002257 355.35349 455.22906
408.0 0.002451 355.33353 421.72534
399.0 0.002506 355.31354 405.90683
406.0 0.002463 355.29373 399.17590
385.0 0.002597 355.27386 397.81015
383.0 0.002611 355.25424 401.69379
404.0 0.002475 355.23459 412.97241
422.0 0.002370 355.21506 435.44766
440.0 0.002273 355.19565 470.13513
452.0 0.002212 355.17630 511.09213
499.0 0.002004 355.15698 538.33752
497.0 0.002012 355.13785 529.35828
509.0 0.001965 355.11871 524.65265
468.0 0.002137 355.09973 551.83997
562.0 0.001779 355.08066 594.77747
544.0 0.001838 355.06183 592.46698
446.0 0.002242 355.04306 531.86548
432.0 0.002315 355.02438 476.17703
449.0 0.002227 355.00571 447.66138
413.0 0.002421 354.98715 436.90329
426.0 0.002347 354.96869 427.68216
410.0 0.002439 354.95026 418.82016
406.0 0.002463 354.93198 413.65610
434.0 0.002304 354.91367 416.20276
422.0 0.002370 354.89548 429.59229
431.0 0.002320 354.87747 450.48587
450.0 0.002222 354.85947 471.01910
449.0 0.002227 354.84152 490.05215
485.0 0.002062 354.82370 490.10068
406.0 0.002463 354.80588 460.29654
426.0 0.002347 354.78815 430.70712
411.0 0.002433 354.77048 415.21786
448.0 0.002232 354.75293 410.23578
413.0 0.002421 354.73541 407.92334
419.0 0.002387 354.71802 407.00516
419.0 0.002387 354.70065 412.60635
428.0 0.002336 354.68338 429.73788
466.0 0.002146 354.66626 467.14642
541.0 0.001848 354.64911 534.20667
681.0 0.001468 354.63199 630.68250
779.0 0.001284 354.61499 709.18616
711.0 0.001406 354.59808 673.97644
605.0 0.001653 354.58127 570.37372
508.0 0.001969 354.56448 487.77197
425.0 0.002353 354.54776 441.17087
403.0 0.002481 354.53113 419.45758
415.0 0.002410 354.51453 411.52148
415.0 0.002410 354.49799 411.39575
432.0 0.002315 354.48160 418.80112
448.0 0.002232 354.46521 438.32492
483.0 0.002070 354.44891 481.04230
580.0 0.001724 354.43274 561.28583
660.0 0.001515 354.41650 679.38879
711.0 0.001406 354.40039 767.26599
677.0 0.001477 354.38437 720.59869
572.0 0.001748 354.36835 599.65253
511.0 0.001957 354.35248 501.69577
450.0 0.002222 354.33658 445.26044
403.0 0.002481 354.32077 416.64639
412.0 0.002427 354.30505 402.79593
410.0 0.002439 354.28946 396.05154
396.0 0.002525 354.27383 393.91922
405.0 0.002469 354.25833 396.54767
414.0 0.002415 354.24277 406.61343
431.0 0.002320 354.22742 428.78265
459.0 0.002179 354.21207 462.96170
467.0 0.002141 354.19675 492.34357
463.0 0.002160 354.18152 481.71039
435.0 0.002299 354.16638 446.66962
422.0 0.002370 354.15121 418.85922
397.0 0.002519 354.13617 405.09119
403.0 0.002481 354.12122 402.38165
396.0 0.002525 354.10623 409.75177
433.0 0.002309 354.09137 430.72974
472.0 0.002119 354.07654 472.37637
513.0 0.001949 354.06180 536.04810
585.0 0.001709 354.04706 586.66809
535.0 0.001869 354.03241 564.88312
469.0 0.002132 354.01779 505.03995
452.0 0.002212 354.00327 459.41977
429.0 0.002331 353.98880 434.67786
398.0 0.002513 353.97437 427.11838
402.0 0.002488 353.95996 438.34015
433.0 0.002309 353.94568 468.90616
529.0 0.001890 353.93140 511.33121
541.0 0.001848 353.91721 529.20538
511.0 0.001957 353.90298 503.58414
450.0 0.002222 353.88885 478.61420
473.0 0.002114 353.87491 478.76764
460.0 0.002174 353.86081 496.26068
488.0 0.002049 353.84683 494.13727
493.0 0.002028 353.83295 464.68988
417.0 0.002398 353.81912 437.46362
383.0 0.002611 353.80530 421.96680
436.0 0.002294 353.79150 417.63803
442.0 0.002262 353.77783 425.14539
490.0 0.002041 353.76419 447.49408
516.0 0.001938 353.75052 490.30243
537.0 0.001862 353.73700 547.45135
585.0 0.001709 353.72345 600.83704
623.0 0.001605 353.70993 631.12323
619.0 0.001616 353.69650 604.98230
563.0 0.001776 353.68323 547.34796
501.0 0.001996 353.66983 507.75381
502.0 0.001992 353.65652 506.51663
560.0 0.001786 353.64325 546.88782
637.0 0.001570 353.63010 618.47949
712.0 0.001404 353.61688 675.43933
668.0 0.001497 353.60382 662.34198
574.0 0.001742 353.59076 591.12347
523.0 0.001912 353.57773 529.48236
513.0 0.001949 353.56473 504.11029
521.0 0.001919 353.55182 514.95563
592.0 0.001689 353.53888 551.75964
670.0 0.001493 353.52606 592.99518
684.0 0.001462 353.51321 639.04895
761.0 0.001314 353.50046 719.03687
879.0 0.001138 353.48773 807.36810
826.0 0.001211 353.47507 799.99176
695.0 0.001439 353.46240 719.15894
634.0 0.001577 353.44977 657.54791
591.0 0.001692 353.43723 612.70569
565.0 0.001770 353.42474 559.03546
496.0 0.002016 353.41214 508.55197
454.0 0.002203 353.39969 477.74411
457.0 0.002188 353.38730 461.87616
463.0 0.002160 353.37494 460.63776
478.0 0.002092 353.36258 478.30823
544.0 0.001838 353.35031 525.27881
620.0 0.001613 353.33798 615.43225
776.0 0.001289 353.32574 745.39917
877.0 0.001140 353.31354 839.06427
802.0 0.001247 353.30136 785.71674
631.0 0.001585 353.28922 661.57330
553.0 0.001808 353.27716 570.52234
504.0 0.001984 353.26505 532.60138
545.0 0.001835 353.25302 543.69794
592.0 0.001689 353.24106 605.29132
711.0 0.001406 353.22903 724.75177
901.0 0.001110 353.21704 882.75281
1003.0 0.000997 353.20520 956.87177
821.0 0.001218 353.19330 849.16699
642.0 0.001558 353.18146 701.97040
597.0 0.001675 353.16962 616.44659
626.0 0.001597 353.15784 590.23090
551.0 0.001815 353.14609 576.09698
523.0 0.001912 353.13437 535.14526
488.0 0.002049 353.12268 491.84329
478.0 0.002092 353.11105 465.57477
448.0 0.002232 353.09930 460.00974
490.0 0.002041 353.08771 474.87381
520.0 0.001923 353.07611 514.83313
625.0 0.001600 353.06454 583.33582
673.0 0.001486 353.05304 657.53815
622.0 0.001608 353.04153 661.10144
576.0 0.001736 353.03006 588.74377
516.0 0.001938 353.01859 517.51770
445.0 0.002247 353.00714 475.24356
431.0 0.002320 352.99576 457.07669
450.0 0.002222 352.98438 454.42004
504.0 0.001984 352.97299 465.31097
501.0 0.001996 352.96170 489.76877
518.0 0.001931 352.95035 535.89008
597.0 0.001675 352.93909 614.97278
731.0 0.001368 352.92780 733.84552
908.0 0.001101 352.91656 888.99939
1104.0 0.000906 352.90533 1108.49988
1285.0 0.000778 352.89413 1353.14746
1294.0 0.000773 352.88297 1398.59399
1113.0 0.000898 352.87180 1193.92053
844.0 0.001185 352.86063 919.67261
659.0 0.001517 352.84955 714.67133
573.0 0.001745 352.83847 598.83160
539.0 0.001855 352.82733 547.77563
534.0 0.001873 352.81631 537.38702
567.0 0.001764 352.80524 554.78601
617.0 0.001621 352.79425 588.74146
645.0 0.001550 352.78323 625.15240
657.0 0.001522 352.77222 674.27985
732.0 0.001366 352.76117 755.21497
845.0 0.001183 352.75031 887.44080
990.0 0.001010 352.73932 1028.89233
1010.0 0.000990 352.72842 1071.65649
998.0 0.001002 352.71753 1048.63171
1009.0 0.000991 352.70663 1035.72620
927.0 0.001079 352.69574 977.42493
765.0 0.001307 352.68481 822.40430
657.0 0.001522 352.67404 676.02820
555.0 0.001802 352.66318 591.35809
558.0 0.001792 352.65237 564.74469
587.0 0.001704 352.64148 577.50470
684.0 0.001462 352.63074 607.01471
632.0 0.001582 352.61993 622.88263
564.0 0.001773 352.60913 593.82312
522.0 0.001916 352.59833 551.60193
536.0 0.001866 352.58755 531.25977
514.0 0.001946 352.57687 540.54028
601.0 0.001664 352.56616 583.98840
681.0 0.001468 352.55536 643.71387
669.0 0.001495 352.54471 662.48035
634.0 0.001577 352.53400 638.62512
633.0 0.001580 352.52325 642.38513
742.0 0.001348 352.51263 696.60443
696.0 0.001437 352.50198 750.51434
689.0 0.001451 352.49118 719.68317
632.0 0.001582 352.48059 645.28339
581.0 0.001721 352.46991 579.21063
532.0 0.001880 352.45926 517.52130
471.0 0.002123 352.44861 468.07193
448.0 0.002232 352.43799 438.90979
485.0 0.002062 352.42737 425.38821
462.0 0.002165 352.41675 423.28625
447.0 0.002237 352.40607 432.44843
499.0 0.002004 352.39557 455.45306
537.0 0.001862 352.38486 493.65091
543.0 0.001842 352.37427 532.92462
555.0 0.001802 352.36368 561.20404
605.0 0.001653 352.35306 568.80396
529.0 0.001890 352.34244 531.50403
455.0 0.002198 352.33185 478.02963
445.0 0.002247 352.32129 439.31326
434.0 0.002304 352.31064 417.84482
420.0 0.002381 352.30002 407.48700
435.0 0.002299 352.28946 405.16016
451.0 0.002217 352.27890 409.12549
451.0 0.002217 352.26831 420.76700
500.0 0.002000 352.25766 443.71231
520.0 0.001923 352.24713 482.52316
554.0 0.001805 352.23648 527.98700
573.0 0.001745 352.22595 544.97125
538.0 0.001859 352.21533 526.72992
534.0 0.001873 352.20474 517.80420
568.0 0.001761 352.19415 547.55988
657.0 0.001522 352.18356 628.92822
765.0 0.001307 352.17294 749.36786
807.0 0.001239 352.16232 827.53265
768.0 0.001302 352.15176 777.00488
654.0 0.001529 352.14105 664.67957
564.0 0.001773 352.13052 573.05542
534.0 0.001873 352.11984 517.65717
519.0 0.001927 352.10922 492.18027
488.0 0.002049 352.09860 493.21497
525.0 0.001905 352.08798 514.67633
552.0 0.001812 352.07730 547.17267
595.0 0.001681 352.06665 594.24274
668.0 0.001497 352.05609 670.04590
753.0 0.001328 352.04535 742.09003
716.0 0.001397 352.03473 760.48566
697.0 0.001435 352.02402 747.62451
716.0 0.001397 352.01331 723.77069
627.0 0.001595 352.00256 663.67706
601.0 0.001664 351.99188 593.94934
583.0 0.001715 351.98123 552.26392
541.0 0.001848 351.97049 550.65643
586.0 0.001706 351.95981 596.63446
733.0 0.001364 351.94907 696.98737
818.0 0.001222 351.93832 826.90033
834.0 0.001199 351.92755 880.62219
702.0 0.001425 351.91675 807.40485
633.0 0.001580 351.90591 716.13550
620.0 0.001613 351.89523 651.80212
569.0 0.001757 351.88446 588.24054
530.0 0.001887 351.87360 522.44293
492.0 0.002033 351.86273 471.95923
461.0 0.002169 351.85190 441.40054
457.0 0.002188 351.84103 426.50369
425.0 0.002353 351.83020 423.52222
447.0 0.002237 351.81934 432.86975
490.0 0.002041 351.80844 459.35632
549.0 0.001821 351.79749 508.00244
588.0 0.001701 351.78656 570.58026
600.0 0.001667 351.77567 600.01971
566.0 0.001767 351.76471 558.20807
505.0 0.001980 351.75372 493.65640
427.0 0.002342 351.74277 443.96683
382.0 0.002618 351.73181 413.75803
375.0 0.002667 351.72076 396.85330
389.0 0.002571 351.70972 389.57742
401.0 0.002494 351.69870 387.92349
418.0 0.002392 351.68762 390.71518
433.0 0.002309 351.67657 396.48337
436.0 0.002294 351.66541 402.60541
403.0 0.002481 351.65427 404.00577
411.0 0.002433 351.64316 398.50131
420.0 0.002381 351.63202 389.44058
405.0 0.002469 351.62088 382.10858
393.0 0.002545 351.60965 378.84897
420.0 0.002381 351.59845 381.06110
448.0 0.002232 351.58725 388.73749
444.0 0.002252 351.57593 400.29657
453.0 0.002208 351.56470 407.11429
442.0 0.002262 351.55334 403.55780
421.0 0.002375 351.54208 396.15796
407.0 0.002457 351.53076 390.07053
386.0 0.002591 351.51935 387.38165
387.0 0.002584 351.50803 388.00293
404.0 0.002475 351.49661 389.44339
405.0 0.002469 351.48517 390.00153
395.0 0.002532 351.47372 389.72156
413.0 0.002421 351.46222 394.02286
406.0 0.002463 351.45074 404.74805
432.0 0.002315 351.43924 423.52060
465.0 0.002151 351.42767 443.19479
461.0 0.002169 351.41617 445.44806
456.0 0.002193 351.40454 431.31326
436.0 0.002294 351.39288 413.39597
408.0 0.002451 351.38132 398.81305
411.0 0.002433 351.36960 389.67935
374.0 0.002674 351.35794 385.25647
389.0 0.002571 351.34619 385.29175
415.0 0.002410 351.33447 389.89923
425.0 0.002353 351.32266 400.76187
441.0 0.002268 351.31088 420.29349
507.0 0.001972 351.29907 454.43100
546.0 0.001832 351.28720 507.40970
658.0 0.001520 351.27527 568.39423
656.0 0.001524 351.26343 591.37402
567.0 0.001764 351.25146 550.74170
457.0 0.002188 351.23956 488.99854
431.0 0.002320 351.22748 441.57471
424.0 0.002358 351.21545 414.29230
441.0 0.002268 351.20343 402.30289
430.0 0.002326 351.19141 398.81955
435.0 0.002299 351.17929 402.52844
431.0 0.002320 351.16708 414.50989
440.0 0.002273 351.15488 437.15622
496.0 0.002016 351.14273 470.20700
496.0 0.002016 351.13052 503.25150
539.0 0.001855 351.11823 524.26251
558.0 0.001792 351.10593 546.30060
588.0 0.001701 351.09354 572.95502
578.0 0.001730 351.08121 581.49487
555.0 0.001802 351.06888 558.76532
503.0 0.001988 351.05640 513.45117
464.0 0.002155 351.04401 478.48438
464.0 0.002155 351.03146 468.84482
507.0 0.001972 351.01895 483.53369
557.0 0.001795 351.00632 516.18219
588.0 0.001701 350.99380 557.58124
587.0 0.001704 350.98117 588.77893
550.0 0.001818 350.96844 576.58997
535.0 0.001869 350.95578 535.41504
490.0 0.002041 350.94312 494.86264
455.0 0.002198 350.93030 463.37427
464.0 0.002155 350.91754 448.49741
477.0 0.002096 350.90463 448.93008
475.0 0.002105 350.89182 452.63324
446.0 0.002242 350.87885 445.29102
451.0 0.002217 350.86597 433.41214
434.0 0.002304 350.85291 429.48825
450.0 0.002222 350.84000 435.74115
471.0 0.002123 350.82687 448.84323
451.0 0.002217 350.81375 466.30927
475.0 0.002105 350.80066 484.53027
479.0 0.002088 350.78751 489.18414
457.0 0.002188 350.77426 474.03119
473.0 0.002114 350.76105 460.31497
484.0 0.002066 350.74774 462.17810
474.0 0.002110 350.73444 485.17133
519.0 0.001927 350.72113 528.81622
580.0 0.001724 350.70770 587.00684
660.0 0.001515 350.69424 662.19507
771.0 0.001297 350.68082 753.58997
843.0 0.001186 350.66727 809.53461
704.0 0.001420 350.65366 759.69135
615.0 0.001626 350.64014 655.05640
550.0 0.001818 350.62653 576.56982
565.0 0.001770 350.61276 546.14111
594.0 0.001684 350.59906 561.18042
668.0 0.001497 350.58536 607.37109
735.0 0.001361 350.57150 652.03174
687.0 0.001456 350.55768 671.50116
748.0 0.001337 350.54379 701.92810
806.0 0.001241 350.52988 771.16840
844.0 0.001185 350.51587 829.78119
707.0 0.001414 350.50183 803.15851
708.0 0.001412 350.48779 742.57806
669.0 0.001495 350.47366 703.01752
671.0 0.001490 350.45956 659.64301
590.0 0.001695 350.44537 588.75653
555.0 0.001802 350.43115 523.03937
491.0 0.002037 350.41690 484.63986
516.0 0.001938 350.40256 473.96945
541.0 0.001848 350.38818 486.73175
521.0 0.001919 350.37378 512.86206
559.0 0.001789 350.35941 533.14276
560.0 0.001786 350.34488 540.74329
563.0 0.001776 350.33035 550.42065
629.0 0.001590 350.31577 567.55109
570.0 0.001754 350.30112 561.61383
510.0 0.001961 350.28644 515.56525
489.0 0.002045 350.27173 464.58124
438.0 0.002283 350.25699 429.69568
413.0 0.002421 350.24216 411.66559
414.0 0.002415 350.22726 406.31152
448.0 0.002232 350.21243 408.51828
453.0 0.002208 350.19745 410.70499
423.0 0.002364 350.18246 405.60086
393.0 0.002545 350.16736 396.12692
375.0 0.002667 350.15228 389.66861
396.0 0.002525 350.13708 387.11868
389.0 0.002571 350.12192 384.69263
397.0 0.002519 350.10675 379.88187
407.0 0.002457 350.09146 374.78406
386.0 0.002591 350.07602 370.94107
385.0 0.002597 350.06076 370.33481
402.0 0.002488 350.04535 371.70123
409.0 0.002445 350.02982 374.53159
398.0 0.002513 350.01431 377.82959
400.0 0.002500 349.99869 382.24139
406.0 0.002463 349.98306 387.52661
411.0 0.002433 349.96744 389.06918
416.0 0.002404 349.95169 385.71185
397.0 0.002519 349.93588 381.26111
394.0 0.002538 349.92004 378.86838
403.0 0.002481 349.90421 378.35117
384.0 0.002604 349.88824 382.74698
411.0 0.002433 349.87228 392.89252
459.0 0.002179 349.85629 409.53726
478.0 0.002092 349.84015 430.98285
494.0 0.002024 349.82410 446.70001
484.0 0.002066 349.80786 439.48294
425.0 0.002353 349.79163 419.28308
412.0 0.002427 349.77536 402.00934
390.0 0.002564 349.75903 392.21579
410.0 0.002439 349.74261 388.96432
390.0 0.002564 349.72623 390.53769
432.0 0.002315 349.70978 397.13669
449.0 0.002227 349.69318 410.73026
454.0 0.002203 349.67657 431.59802
471.0 0.002123 349.65988 454.06497
464.0 0.002155 349.64322 470.93146
499.0 0.002004 349.62646 486.55475
495.0 0.002020 349.60962 499.14365
513.0 0.001949 349.59283 499.23871
473.0 0.002114 349.57593 494.95602
496.0 0.002016 349.55893 496.47974
538.0 0.001859 349.54187 520.91254
606.0 0.001650 349.52481 583.38916
739.0 0.001353 349.50769 680.29321
845.0 0.001183 349.49048 758.63263
811.0 0.001233 349.47330 733.46075
656.0 0.001524 349.45593 637.49121
507.0 0.001972 349.43860 554.47113
481.0 0.002079 349.42123 507.54141
491.0 0.002037 349.40372 484.52029
489.0 0.002045 349.38629 469.93002
493.0 0.002028 349.36871 462.12671
491.0 0.002037 349.35107 455.62976
468.0 0.002137 349.33340 443.08661
431.0 0.002320 349.31561 432.25406
442.0 0.002262 349.29791 431.75800
471.0 0.002123 349.28000 446.66867
517.0 0.001934 349.26215 481.03317
586.0 0.001706 349.24414 531.57227
647.0 0.001546 349.22607 570.95715
579.0 0.001727 349.20810 560.18500
534.0 0.001873 349.18994 520.65295
532.0 0.001880 349.17178 493.35696
550.0 0.001818 349.15359 486.19223
529.0 0.001890 349.13525 483.11652
471.0 0.002123 349.11694 472.77951
461.0 0.002169 349.09851 469.87570
497.0 0.002012 349.08008 480.80176
525.0 0.001905 349.06149 490.95346
488.0 0.002049 349.04288 476.43158
440.0 0.002273 349.02429 444.47232
430.0 0.002326 349.00555 416.43311
407.0 0.002457 348.98682 398.56207
390.0 0.002564 348.96805 389.36285
408.0 0.002451 348.94916 386.29840
418.0 0.002392 348.93024 387.73981
408.0 0.002451 348.91125 393.65735
432.0 0.002315 348.89224 403.81125
460.0 0.002174 348.87308 418.23590
464.0 0.002155 348.85394 433.99463
437.0 0.002288 348.83472 451.72675
507.0 0.001972 348.81543 481.95016
580.0 0.001724 348.79611 523.94049
597.0 0.001675 348.77670 548.35345
562.0 0.001779 348.75723 524.12683
504.0 0.001984 348.73779 479.27527
432.0 0.002315 348.71820 444.02991
407.0 0.002457 348.69858 421.61172
402.0 0.002488 348.67889 405.29562
383.0 0.002611 348.65912 393.72943
384.0 0.002604 348.63931 387.23303
403.0 0.002481 348.61938 385.68274
421.0 0.002375 348.59955 385.41125
415.0 0.002410 348.57950 386.00912
378.0 0.002646 348.55945 389.09293
404.0 0.002475 348.53940 397.31003
450.0 0.002222 348.51926 412.29437
425.0 0.002353 348.49902 432.25244
479.0 0.002088 348.47870 446.61597
473.0 0.002114 348.45834 444.08905
441.0 0.002268 348.43799 436.62823
412.0 0.002427 348.41751 438.65030
477.0 0.002096 348.39697 456.35806
551.0 0.001815 348.37643 495.60092
601.0 0.001664 348.35574 563.50134
694.0 0.001441 348.33496 654.82037
764.0 0.001309 348.31424 719.93866
717.0 0.001395 348.29346 690.53101
642.0 0.001558 348.27255 606.40820
562.0 0.001779 348.25162 538.46283
530.0 0.001887 348.23065 508.01688
575.0 0.001739 348.20947 507.47586
561.0 0.001783 348.18839 511.20938
492.0 0.002033 348.16718 492.12723
446.0 0.002242 348.14594 460.72046
450.0 0.002222 348.12466 436.64340
440.0 0.002273 348.10321 426.00308
431.0 0.002320 348.08176 430.27548
467.0 0.002141 348.06027 451.15375
515.0 0.001942 348.03870 490.44064
573.0 0.001745 348.01712 542.04230
590.0 0.001695 347.99542 578.70032
559.0 0.001789 347.97372 565.76392
526.0 0.001901 347.95187 518.09711
494.0 0.002024 347.93002 476.07080
470.0 0.002128 347.90805 455.61673
471.0 0.002123 347.88608 454.34976
466.0 0.002146 347.86401 461.94879
492.0 0.002033 347.84192 464.57828
485.0 0.002062 347.81976 466.84961
476.0 0.002101 347.79752 486.45895
571.0 0.001751 347.77518 535.97101
670.0 0.001493 347.75293 617.20880
732.0 0.001366 347.73038 701.29547
679.0 0.001473 347.70792 715.23596
576.0 0.001736 347.68536 644.34039
479.0 0.002088 347.66278 556.40955
446.0 0.002242 347.64014 488.84030
438.0 0.002283 347.61734 447.84671
404.0 0.002475 347.59454 428.66501
418.0 0.002392 347.57169 426.11783
435.0 0.002299 347.54883 437.44724
450.0 0.002222 347.52588 460.49838
503.0 0.001988 347.50278 485.51273
480.0 0.002083 347.47968 491.60471
461.0 0.002169 347.45651 480.11197
483.0 0.002070 347.43326 477.39426
475.0 0.002105 347.40997 495.05518
530.0 0.001887 347.38663 528.63049
550.0 0.001818 347.36319 544.66565
511.0 0.001957 347.33972 516.92914
499.0 0.002004 347.31616 471.28699
401.0 0.002494 347.29260 433.66504
382.0 0.002618 347.26892 408.46967
397.0 0.002519 347.24524 395.07565
366.0 0.002732 347.22134 390.82159
418.0 0.002392 347.19754 394.08560
401.0 0.002494 347.17365 403.52554
418.0 0.002392 347.14969 414.85526
408.0 0.002451 347.12558 417.96359
376.0 0.002660 347.10153 406.90756
395.0 0.002532 347.07733 391.28336
383.0 0.002611 347.05313 378.44089
394.0 0.002538 347.02878 370.73492
379.0 0.002639 347.00449 366.66431
380.0 0.002632 346.98010 364.91296
370.0 0.002703 346.95557 364.49518
399.0 0.002506 346.93106 364.55655
392.0 0.002551 346.90637 363.95380
377.0 0.002653 346.88177 363.27347
391.0 0.002558 346.85709 362.93738
400.0 0.002500 346.83228 363.36652
375.0 0.002667 346.80743 364.68176
376.0 0.002660 346.78250 366.53558
411.0 0.002433 346.75754 367.62616
412.0 0.002427 346.73248 370.29556
413.0 0.002421 346.70743 374.75287
411.0 0.002433 346.68222 381.30283
405.0 0.002469 346.65698 391.81180
448.0 0.002232 346.63168 407.37119
471.0 0.002123 346.60648 424.31226
454.0 0.002203 346.58093 433.10742
455.0 0.002198 346.55557 435.36295
462.0 0.002165 346.53000 446.14780
493.0 0.002028 346.50436 473.50665
549.0 0.001821 346.47876 511.61353
545.0 0.001835 346.45297 533.27002
517.0 0.001934 346.42722 514.56671
481.0 0.002079 346.40137 481.47711
450.0 0.002222 346.37552 461.87686
494.0 0.002024 346.34958 460.18393
503.0 0.001988 346.32349 465.48398
491.0 0.002037 346.29749 459.49985
454.0 0.002203 346.27127 444.29123
406.0 0.002463 346.24509 434.74753
453.0 0.002208 346.21881 436.52087
480.0 0.002083 346.19247 448.21317
484.0 0.002066 346.16611 468.76648
497.0 0.002012 346.13968 506.29492
541.0 0.001848 346.11313 566.30060
610.0 0.001639 346.08664 631.08551
624.0 0.001603 346.05997 655.41473
593.0 0.001686 346.03323 616.13098
506.0 0.001976 346.00650 546.26459
495.0 0.002020 345.97961 488.21490
435.0 0.002299 345.95273 454.77084
425.0 0.002353 345.92584 440.42801
431.0 0.002320 345.89883 432.50668
408.0 0.002451 345.87177 421.30368
411.0 0.002433 345.84464 410.24670
400.0 0.002500 345.81750 404.48660
406.0 0.002463 345.79028 406.21295
438.0 0.002283 345.76288 417.76627
408.0 0.002451 345.73553 443.08270
506.0 0.001976 345.70816 485.94089
537.0 0.001862 345.68073 542.82867
582.0 0.001718 345.65311 586.70056
550.0 0.001818 345.62552 579.80865
523.0 0.001912 345.59784 533.94214
452.0 0.002212 345.57013 490.68802
462.0 0.002165 345.54236 468.33780
482.0 0.002075 345.51450 463.56775
474.0 0.002110 345.48657 459.54007
448.0 0.002232 345.45862 443.51541
425.0 0.002353 345.43057 424.42996
400.0 0.002500 345.40259 411.94217
404.0 0.002475 345.37433 408.91931
410.0 0.002439 345.34619 416.92816
473.0 0.002114 345.31790 438.62225
526.0 0.001901 345.28961 476.45148
554.0 0.001805 345.26123 526.18579
586.0 0.001706 345.23276 563.40912
548.0 0.001825 345.20438 555.74994
494.0 0.002024 345.17581 513.99823
460.0 0.002174 345.14713 470.82623
438.0 0.002283 345.11850 443.35071
421.0 0.002375 345.08978 432.61105
435.0 0.002299 345.06104 432.47586
429.0 0.002331 345.03214 433.20587
440.0 0.002273 345.00323 432.27493
441.0 0.002268 344.97427 438.95993
475.0 0.002105 344.94528 461.87860
543.0 0.001842 344.91623 506.29861
616.0 0.001623 344.88708 569.24750
652.0 0.001534 344.85785 623.85229
626.0 0.001597 344.82861 628.91089
556.0 0.001799 344.79929 596.28320
496.0 0.002016 344.77005 554.50580
464.0 0.002155 344.74057 509.82440
456.0 0.002193 344.71109 476.14444
430.0 0.002326 344.68155 462.99689
470.0 0.002128 344.65198 470.62341
493.0 0.002028 344.62231 495.28717
554.0 0.001805 344.59262 530.65039
615.0 0.001626 344.56281 560.12585
525.0 0.001905 344.53305 557.10748
506.0 0.001976 344.50314 531.21783
500.0 0.002000 344.47327 514.40625
500.0 0.002000 344.44324 516.10370
510.0 0.001961 344.41315 526.40460
532.0 0.001880 344.38318 526.86096
459.0 0.002179 344.35300 502.77066
444.0 0.002252 344.32281 467.73917
466.0 0.002146 344.29257 439.78613
407.0 0.002457 344.26221 423.68091
411.0 0.002433 344.23187 419.79453
440.0 0.002273 344.20142 429.27896
458.0 0.002183 344.17096 454.19232
563.0 0.001776 344.14041 495.66693
574.0 0.001742 344.10983 549.52869
661.0 0.001513 344.07922 590.02191
598.0 0.001672 344.04855 577.67493
479.0 0.002088 344.01773 526.17883
460.0 0.002174 343.98697 475.90952
389.0 0.002571 343.95612 440.65561
453.0 0.002208 343.92520 416.32834
387.0 0.002584 343.89420 398.92581
403.0 0.002481 343.86331 387.40082
395.0 0.002532 343.83218 380.78644
376.0 0.002660 343.80112 377.83524
382.0 0.002618 343.76990 378.06915
414.0 0.002415 343.73862 381.79480
418.0 0.002392 343.70737 390.35440
477.0 0.002096 343.67606 404.25842
483.0 0.002070 343.64465 423.40912
492.0 0.002033 343.61325 446.13513
497.0 0.002012 343.58170 463.77933
515.0 0.001942 343.55026 458.39636
472.0 0.002119 343.51862 433.92719
428.0 0.002336 343.48697 409.56964
409.0 0.002445 343.45535 394.29935
394.0 0.002538 343.42358 388.87405
407.0 0.002457 343.39178 391.28046
437.0 0.002288 343.35989 397.28174
427.0 0.002342 343.32803 398.78738
412.0 0.002427 343.29614 391.43900
399.0 0.002506 343.26407 381.54306
378.0 0.002646 343.23209 374.31821
372.0 0.002688 343.19998 371.28299
374.0 0.002674 343.16779 371.64764
382.0 0.002618 343.13568 373.08661
397.0 0.002519 343.10339 374.99078
383.0 0.002611 343.07111 377.00211
384.0 0.002604 343.03879 376.74420
377.0 0.002653 343.00641 373.75278
375.0 0.002667 342.97394 371.33478
380.0 0.002632 342.94147 371.42209
401.0 0.002494 342.90894 374.83566
400.0 0.002500 342.87643 382.34756
463.0 0.002160 342.84378 392.80948
474.0 0.002110 342.81110 402.38321
445.0 0.002247 342.77838 408.08133
470.0 0.002128 342.74564 412.69717
431.0 0.002320 342.71274 418.98956
431.0 0.002320 342.67996 429.30368
421.0 0.002375 342.64703 441.44287
449.0 0.002227 342.61401 443.67349
413.0 0.002421 342.58105 433.58582
408.0 0.002451 342.54803 423.95578
416.0 0.002404 342.51492 422.69446
452.0 0.002212 342.48184 430.13275
399.0 0.002506 342.44861 443.48715
456.0 0.002193 342.41537 464.42755
488.0 0.002049 342.38214 504.56729
535.0 0.001869 342.34882 572.41608
678.0 0.001475 342.31543 660.02704
699.0 0.001431 342.28204 722.38873
640.0 0.001563 342.24857 700.95984
514.0 0.001946 342.21518 622.55768
492.0 0.002033 342.18152 548.49896
470.0 0.002128 342.14801 502.00607
466.0 0.002146 342.11435 482.02515
427.0 0.002342 342.08072 477.01669
463.0 0.002160 342.04697 475.80508
447.0 0.002237 342.01321 476.60773
464.0 0.002155 341.97946 483.21548
498.0 0.002008 341.94562 493.97079
468.0 0.002137 341.91177 494.72778
473.0 0.002114 341.87781 483.53296
451.0 0.002217 341.84384 478.31305
487.0 0.002053 341.80988 491.48114
536.0 0.001866 341.77585 522.58453
534.0 0.001873 341.74173 553.20306
520.0 0.001923 341.70758 550.50055
475.0 0.002105 341.67343 514.62183
459.0 0.002179 341.63922 477.12109
435.0 0.002299 341.60501 455.00732
454.0 0.002203 341.57071 452.37482
490.0 0.002041 341.53635 469.72238
554.0 0.001805 341.50201 506.48303
592.0 0.001689 341.46768 558.16064
626.0 0.001597 341.43326 612.50183
695.0 0.001439 341.39868 661.48987
734.0 0.001362 341.36417 699.48938
681.0 0.001468 341.32962 692.74072
576.0 0.001736 341.29504 629.71802
472.0 0.002119 341.26041 556.06677
433.0 0.002309 341.22577 505.02594
438.0 0.002283 341.19104 480.63385
458.0 0.002183 341.15625 473.03827
447.0 0.002237 341.12155 465.01297
417.0 0.002398 341.08676 449.69739
409.0 0.002445 341.05191 436.47678
424.0 0.002358 341.01700 433.26804
427.0 0.002342 340.98209 443.68100
456.0 0.002193 340.94714 470.76099
530.0 0.001887 340.91214 514.79272
533.0 0.001876 340.87711 565.61890
584.0 0.001712 340.84201 600.35388
632.0 0.001582 340.80692 612.22534
613.0 0.001631 340.77182 608.32074
563.0 0.001776 340.73666 579.55585
511.0 0.001957 340.70151 537.36816
468.0 0.002137 340.66623 504.51450
469.0 0.002132 340.63089 483.54440
489.0 0.002045 340.59570 467.84866
469.0 0.002132 340.56030 456.04678
435.0 0.002299 340.52499 447.67969
398.0 0.002513 340.48953 446.55148
442.0 0.002262 340.45419 454.31271
479.0 0.002088 340.41876 463.55045
484.0 0.002066 340.38315 460.66678
424.0 0.002358 340.34775 450.09949
407.0 0.002457 340.31207 443.98792
432.0 0.002315 340.27649 440.44614
432.0 0.002315 340.24103 432.11005
402.0 0.002488 340.20529 421.36395
398.0 0.002513 340.16968 413.64624
406.0 0.002463 340.13394 408.77179
416.0 0.002404 340.09824 406.71729
442.0 0.002262 340.06256 406.02457
442.0 0.002262 340.02673 401.45068
403.0 0.002481 339.99094 393.95465
391.0 0.002558 339.95508 389.33551
417.0 0.002398 339.91916 390.40906
404.0 0.002475 339.88333 397.09082
401.0 0.002494 339.84735 407.05948
412.0 0.002427 339.81146 413.82053
399.0 0.002506 339.77545 415.28586
415.0 0.002410 339.73944 418.83655
444.0 0.002252 339.70346 430.17957
481.0 0.002079 339.66733 448.20044
520.0 0.001923 339.63126 471.61417
537.0 0.001862 339.59518 497.81970
528.0 0.001894 339.55908 514.76959
530.0 0.001887 339.52295 518.46497
470.0 0.002128 339.48669 507.60181
446.0 0.002242 339.45059 477.83908
419.0 0.002387 339.41431 441.49915
390.0 0.002564 339.37808 412.52896
394.0 0.002538 339.34186 394.04797
390.0 0.002564 339.30548 384.40610
378.0 0.002646 339.26917 380.96762
355.0 0.002817 339.23282 382.55402
374.0 0.002674 339.19641 388.92517
409.0 0.002445 339.16013 400.76797
436.0 0.002294 339.12366 417.99200
446.0 0.002242 339.08731 436.25537
456.0 0.002193 339.05078 450.45544
467.0 0.002141 339.01437 462.10580
481.0 0.002079 338.97794 468.06915
467.0 0.002141 338.94138 463.39380
456.0 0.002193 338.90488 453.03717
420.0 0.002381 338.86832 437.46808
403.0 0.002481 338.83173 416.98666
382.0 0.002618 338.79520 398.87799
378.0 0.002646 338.75858 386.69717
366.0 0.002732 338.72195 380.54156
398.0 0.002513 338.68533 378.80975
384.0 0.002604 338.64865 380.93796
392.0 0.002551 338.61200 386.93329
405.0 0.002469 338.57529 397.81976
428.0 0.002336 338.53860 415.56433
416.0 0.002404 338.50186 442.29297
447.0 0.002237 338.46515 480.24878
522.0 0.001916 338.42844 532.04285
631.0 0.001585 338.39166 593.53296
623.0 0.001605 338.35483 641.72449
631.0 0.001585 338.31808 649.29865
548.0 0.001825 338.28125 609.82635
473.0 0.002114 338.24442 547.77295
408.0 0.002451 338.20758 491.21802
428.0 0.002336 338.17078 454.24829
439.0 0.002278 338.13385 437.78076
424.0 0.002358 338.09705 438.35907
456.0 0.002193 338.06015 449.78409
479.0 0.002088 338.02325 461.92831
440.0 0.002273 337.98633 466.04056
413.0 0.002421 337.94940 468.99219
460.0 0.002174 337.91245 477.04385
480.0 0.002083 337.87552 483.41068
459.0 0.002179 337.83859 484.15494
465.0 0.002151 337.80161 489.93198
444.0 0.002252 337.76468 504.54364
479.0 0.002088 337.72769 516.94727
475.0 0.002105 337.69070 512.35022
438.0 0.002283 337.65372 488.01880
407.0 0.002457 337.61670 455.55487
420.0 0.002381 337.57965 428.04111
404.0 0.002475 337.54266 411.42313
388.0 0.002577 337.50565 406.54385
389.0 0.002571 337.46857 412.17047
403.0 0.002481 337.43152 426.59601
449.0 0.002227 337.39450 446.05670
526.0 0.001901 337.35742 467.35400
523.0 0.001912 337.32037 489.29208
510.0 0.001961 337.28326 499.15958
471.0 0.002123 337.24625 483.79843
423.0 0.002364 337.20908 454.66235
413.0 0.002421 337.17209 430.15118
407.0 0.002457 337.13501 418.08603
428.0 0.002336 337.09787 419.19870
443.0 0.002257 337.06085 429.94397
463.0 0.002160 337.02368 441.66278
441.0 0.002268 336.98657 441.55029
430.0 0.002326 336.94952 430.78445
429.0 0.002331 336.91235 422.97385
437.0 0.002288 336.87524 426.73746
478.0 0.002092 336.83813 445.10458
531.0 0.001883 336.80103 475.14209
576.0 0.001736 336.76395 503.50873
574.0 0.001742 336.72684 510.10019
514.0 0.001946 336.68976 495.83795
495.0 0.002020 336.65268 471.74725
455.0 0.002198 336.61557 442.73761
407.0 0.002457 336.57849 417.65881
399.0 0.002506 336.54132 402.00415
396.0 0.002525 336.50424 396.21991
406.0 0.002463 336.46713 399.43729
380.0 0.002632 336.42999 410.55136
441.0 0.002268 336.39291 426.40704
427.0 0.002342 336.35580 443.21307
465.0 0.002151 336.31882 460.15195
462.0 0.002165 336.28168 475.52905
484.0 0.002066 336.24463 478.86838
466.0 0.002146 336.20758 470.90494
471.0 0.002123 336.17050 465.60672
481.0 0.002079 336.13345 466.31757
465.0 0.002151 336.09634 465.85706
479.0 0.002088 336.05930 465.19461
470.0 0.002128 336.02225 467.65393
435.0 0.002299 335.98523 463.79239
415.0 0.002410 335.94818 443.93536
398.0 0.002513 335.91113 417.45663
346.0 0.002890 335.87418 395.59134
402.0 0.002488 335.83722 381.50110
396.0 0.002525 335.80017 374.67636
345.0 0.002899 335.76321 373.84216
368.0 0.002717 335.72620 378.53012
386.0 0.002591 335.68918 387.11884
390.0 0.002564 335.65231 395.59933
376.0 0.002660 335.61533 396.42719
382.0 0.002618 335.57843 388.38406
369.0 0.002710 335.54144 378.90527
377.0 0.002653 335.50452 373.39209
374.0 0.002674 335.46768 373.40714
345.0 0.002899 335.43076 378.82980
374.0 0.002674 335.39389 387.26895
391.0 0.002558 335.35703 392.39737
391.0 0.002558 335.32013 388.68561
369.0 0.002710 335.28339 379.99304
348.0 0.002874 335.24652 372.90350
374.0 0.002674 335.20972 369.41580
352.0 0.002841 335.17288 368.74313
332.0 0.003012 335.13611 369.09198
342.0 0.002924 335.09943 370.74338
360.0 0.002778 335.06259 375.05463
386.0 0.002591 335.02591 382.07990
385.0 0.002597 334.98920 389.73001
395.0 0.002532 334.95251 398.66080
442.0 0.002262 334.91583 412.53949
450.0 0.002222 334.87912 430.28156
454.0 0.002203 334.84259 441.82925
446.0 0.002242 334.80588 436.33096
396.0 0.002525 334.76929 416.45654
367.0 0.002725 334.73270 394.31558
347.0 0.002882 334.69614 377.00861
343.0 0.002915 334.65967 366.06119
337.0 0.002967 334.62302 360.36725
354.0 0.002825 334.58661 358.23459
346.0 0.002890 334.55014 358.26617
347.0 0.002882 334.51364 359.35999
336.0 0.002976 334.47720 361.73431
351.0 0.002849 334.44077 366.66534
375.0 0.002667 334.40442 374.91739
400.0 0.002500 334.36807 385.22876
362.0 0.002762 334.33173 394.73914
414.0 0.002415 334.29538 400.94452
397.0 0.002519 334.25912 403.83569
405.0 0.002469 334.22281 404.23740
391.0 0.002558 334.18661 398.67902
374.0 0.002674 334.15036 386.93484
374.0 0.002674 334.11423 373.67691
362.0 0.002762 334.07797 362.54254
342.0 0.002924 334.04181 354.71277
355.0 0.002817 334.00568 349.71747
366.0 0.002732 333.96960 346.68610
338.0 0.002959 333.93359 344.98505
355.0 0.002817 333.89755 344.23416
329.0 0.003040 333.86154 344.25763
352.0 0.002841 333.82559 345.17856
335.0 0.002985 333.78964 347.14816
363.0 0.002755 333.75381 350.14481
346.0 0.002890 333.71783 353.30588
365.0 0.002740 333.68195 354.72159
332.0 0.003012 333.64615 353.07770
366.0 0.002732 333.61038 350.23126
341.0 0.002933 333.57465 348.00357
350.0 0.002857 333.53891 347.15060
372.0 0.002688 333.50320 347.79831
359.0 0.002786 333.46756 349.82587
370.0 0.002703 333.43188 354.09708
343.0 0.002915 333.39633 361.63281
368.0 0.002717 333.36069 373.48315
393.0 0.002545 333.32526 389.04285
395.0 0.002532 333.28973 403.20938
394.0 0.002538 333.25424 405.68246
355.0 0.002817 333.21887 394.17896
365.0 0.002740 333.18341 378.69424
399.0 0.002506 333.14813 366.19263
388.0 0.002577 333.11288 358.10400
367.0 0.002725 333.07751 353.59637
370.0 0.002703 333.04230 351.21271
351.0 0.002849 333.00708 350.12115
348.0 0.002874 332.97195 350.36594
365.0 0.002740 332.93683 351.88419
368.0 0.002717 332.90176 355.87878
376.0 0.002660 332.86667 363.04547
376.0 0.002660 332.83170 374.45392
377.0 0.002653 332.79669 390.02725
402.0 0.002488 332.76184 406.25681
399.0 0.002506 332.72687 415.00571
395.0 0.002532 332.69208 413.98438
383.0 0.002611 332.65729 406.92786
371.0 0.002695 332.62247 395.06458
357.0 0.002801 332.58780 382.29431
373.0 0.002681 332.55310 372.97263
348.0 0.002874 332.51852 368.52695
343.0 0.002915 332.48386 368.90219
359.0 0.002786 332.44937 373.92102
389.0 0.002571 332.41492 383.44553
417.0 0.002398 332.38043 398.40594
453.0 0.002208 332.34607 418.23187
440.0 0.002273 332.31168 438.04852
484.0 0.002066 332.27731 452.91702
454.0 0.002203 332.24316 466.15988
489.0 0.002045 332.20886 476.34601
467.0 0.002141 332.17477 474.11920
457.0 0.002188 332.14056 461.18469
395.0 0.002532 332.10654 445.57529
418.0 0.002392 332.07254 432.12753
383.0 0.002611 332.03857 419.97043
404.0 0.002475 332.00461 406.89548
345.0 0.002899 331.97070 393.95950
387.0 0.002584 331.93680 383.49881
388.0 0.002577 331.90314 376.75629
348.0 0.002874 331.86938 374.00900
375.0 0.002667 331.83569 375.81503
414.0 0.002415 331.80209 382.81039
384.0 0.002604 331.76852 395.94632
414.0 0.002415 331.73505 414.78656
401.0 0.002494 331.70157 435.82211
447.0 0.002237 331.66812 454.11749
468.0 0.002137 331.63474 462.89441
458.0 0.002183 331.60147 455.16440
417.0 0.002398 331.56824 435.38196
376.0 0.002660 331.53497 415.48611
382.0 0.002618 331.50192 402.45581
367.0 0.002725 331.46875 395.96237
366.0 0.002732 331.43576 392.96216
375.0 0.002667 331.40280 391.06000
387.0 0.002584 331.36987 389.99722
380.0 0.002632 331.33707 389.86359
357.0 0.002801 331.30423 388.88559
364.0 0.002747 331.27155 386.69681
380.0 0.002632 331.23889 387.02710
390.0 0.002564 331.20624 393.23245
438.0 0.002283 331.17371 406.26703
456.0 0.002193 331.14117 423.60834
443.0 0.002257 331.10873 437.62625
434.0 0.002304 331.07632 442.46878
416.0 0.002404 331.04401 441.37006
443.0 0.002257 331.01172 441.57382
459.0 0.002179 330.97955 449.48038
474.0 0.002110 330.94736 462.77423
463.0 0.002160 330.91534 469.30093
428.0 0.002336 330.88336 462.11551
420.0 0.002381 330.85141 449.19925
439.0 0.002278 330.81943 440.07059
426.0 0.002347 330.78772 437.74353
424.0 0.002358 330.75592 438.37454
466.0 0.002146 330.72427 437.10571
443.0 0.002257 330.69260 436.06631
430.0 0.002326 330.66104 437.97125
459.0 0.002179 330.62955 438.88837
431.0 0.002320 330.59818 436.55881
422.0 0.002370 330.56671 435.50827
414.0 0.002415 330.53549 438.45490
420.0 0.002381 330.50424 446.93542
454.0 0.002203 330.47308 465.21954
492.0 0.002033 330.44202 491.68762
524.0 0.001908 330.41095 518.47607
567.0 0.001764 330.38007 537.74701
512.0 0.001953 330.34921 539.18115
529.0 0.001890 330.31833 522.28809
500.0 0.002000 330.28766 504.12973
471.0 0.002123 330.25693 495.14874
473.0 0.002114 330.22638 490.08145
513.0 0.001949 330.19586 480.32208
467.0 0.002141 330.16541 468.84335
449.0 0.002227 330.13495 461.15030
492.0 0.002033 330.10468 454.97543
481.0 0.002079 330.07446 443.74524
400.0 0.002500 330.04428 425.50284
379.0 0.002639 330.01419 407.53577
392.0 0.002551 329.98422 396.10141
383.0 0.002611 329.95419 392.85263
363.0 0.002755 329.92438 396.90405
381.0 0.002625 329.89456 404.84818
410.0 0.002439 329.86481 411.76031
410.0 0.002439 329.83527 415.00079
428.0 0.002336 329.80563 412.46307
384.0 0.002604 329.77618 405.06534
390.0 0.002564 329.74677 398.85504
385.0 0.002597 329.71741 396.48340
387.0 0.002584 329.68826 394.57187
378.0 0.002646 329.65897 390.02878
376.0 0.002660 329.62991 385.01508
390.0 0.002564 329.60092 381.79068
384.0 0.002604 329.57193 379.33401
372.0 0.002688 329.54315 375.88324
379.0 0.002639 329.51434 370.92041
375.0 0.002667 329.48569 365.95966
353.0 0.002833 329.45700 362.11069
368.0 0.002717 329.42850 359.17123
373.0 0.002681 329.40015 357.53247
341.0 0.002933 329.37173 357.47784
345.0 0.002899 329.34344 358.43304
381.0 0.002625 329.31522 361.28760
395.0 0.002532 329.28705 367.22809
405.0 0.002469 329.25906 376.70831
413.0 0.002421 329.23111 387.05725
397.0 0.002519 329.20331 391.28964
391.0 0.002558 329.17554 384.91800
398.0 0.002513 329.14780 373.18289
374.0 0.002674 329.12027 362.55548
350.0 0.002857 329.09274 355.29404
351.0 0.002849 329.06531 351.77875
355.0 0.002817 329.03793 350.57312
351.0 0.002849 329.01068 350.29987
336.0 0.002976 328.98352 349.83615
331.0 0.003021 328.95642 348.98816
337.0 0.002967 328.92944 347.95303
352.0 0.002841 328.90253 347.52515
356.0 0.002809 328.87570 347.98026
346.0 0.002890 328.84906 349.03806
343.0 0.002915 328.82236 351.58902
343.0 0.002915 328.79581 356.25845
339.0 0.002950 328.76935 363.69034
364.0 0.002747 328.74298 372.82938
382.0 0.002618 328.71674 380.38000
372.0 0.002688 328.69058 381.76428
364.0 0.002747 328.66446 377.03098
367.0 0.002725 328.63843 370.75104
397.0 0.002519 328.61255 367.17700
392.0 0.002551 328.58676 368.65839
388.0 0.002577 328.56107 376.47559
424.0 0.002358 328.53546 391.51498
437.0 0.002288 328.50992 413.83743
476.0 0.002101 328.48450 440.91467
449.0 0.002227 328.45920 464.05396
502.0 0.001992 328.43390 472.43564
443.0 0.002257 328.40878 459.99469
391.0 0.002558 328.38370 433.39462
395.0 0.002532 328.35880 406.73242
402.0 0.002488 328.33395 387.30725
382.0 0.002618 328.30920 376.14673
356.0 0.002809 328.28452 371.94775
391.0 0.002558 328.25998 373.29892
404.0 0.002475 328.23550 377.72507
395.0 0.002532 328.21115 381.09918
385.0 0.002597 328.18689 379.37613
373.0 0.002681 328.16272 373.41544
364.0 0.002747 328.13870 367.84164
359.0 0.002786 328.11475 365.79346
362.0 0.002762 328.09088 368.59628
384.0 0.002604 328.06711 376.76981
399.0 0.002506 328.04346 389.32175
409.0 0.002445 328.01987 402.69489
441.0 0.002268 327.99646 411.28964
431.0 0.002320 327.97314 411.28491
409.0 0.002445 327.94989 403.62085
407.0 0.002457 327.92676 394.52509
385.0 0.002597 327.90369 388.22836
374.0 0.002674 327.88074 385.04767
365.0 0.002740 327.85797 382.85837
356.0 0.002809 327.83527 381.15295
363.0 0.002755 327.81259 382.20569
371.0 0.002695 327.79010 388.27509
366.0 0.002732 327.76767 399.30209
402.0 0.002488 327.74536 414.22290
445.0 0.002247 327.72321 430.74069
458.0 0.002183 327.70111 439.87897
416.0 0.002404 327.67911 431.48608
346.0 0.002890 327.65726 410.59766
331.0 0.003021 327.63550 389.21716
359.0 0.002786 327.61380 372.99664
374.0 0.002674 327.59222 362.50290
375.0 0.002667 327.57080 356.82074
372.0 0.002688 327.54944 354.65225
395.0 0.002532 327.52829 354.82538
350.0 0.002857 327.50711 356.40906
383.0 0.002611 327.48615 358.58170
359.0 0.002786 327.46530 360.59061
370.0 0.002703 327.44449 362.12796
374.0 0.002674 327.42380 364.31174
351.0 0.002849 327.40329 369.43164
379.0 0.002639 327.38284 379.55182
413.0 0.002421 327.36255 396.04294
448.0 0.002232 327.34229 418.34738
492.0 0.002033 327.32224 442.40857
479.0 0.002088 327.30222 461.68735
441.0 0.002268 327.28235 470.70407
460.0 0.002174 327.26260 470.20447
472.0 0.002119 327.24292 466.80957
433.0 0.002309 327.22342 464.23688
423.0 0.002364 327.20398 457.13611
414.0 0.002415 327.18472 443.57248
430.0 0.002326 327.16550 431.81641
445.0 0.002247 327.14642 427.38742
420.0 0.002381 327.12750 427.31342
406.0 0.002463 327.10864 423.81662
407.0 0.002457 327.09000 413.69348
377.0 0.002653 327.07129 399.70389
372.0 0.002688 327.05283 386.41525
369.0 0.002710 327.03455 377.30457
366.0 0.002732 327.01627 373.75558
384.0 0.002604 326.99817 376.00726
374.0 0.002674 326.98007 382.61948
395.0 0.002532 326.96225 392.31259
416.0 0.002404 326.94449 403.24744
414.0 0.002415 326.92682 411.40784
406.0 0.002463 326.90930 413.49045
399.0 0.002506 326.89185 411.57361
424.0 0.002358 326.87457 407.80362
414.0 0.002415 326.85745 400.78677
364.0 0.002747 326.84036 392.66882
352.0 0.002841 326.82349 387.22131
399.0 0.002506 326.80667 385.89438
402.0 0.002488 326.79001 385.75885
379.0 0.002639 326.77347 383.03076
361.0 0.002770 326.75699 377.38303
351.0 0.002849 326.74072 370.80881
343.0 0.002915 326.72452 365.59210
358.0 0.002793 326.70847 363.43958
370.0 0.002703 326.69260 365.14285
396.0 0.002525 326.67673 372.01166
409.0 0.002445 326.66104 384.30499
439.0 0.002278 326.64545 402.03741
466.0 0.002146 326.63000 422.57996
476.0 0.002101 326.61478 438.55325
479.0 0.002088 326.59958 440.81952
453.0 0.002208 326.58450 429.29398
416.0 0.002404 326.56964 413.93225
394.0 0.002538 326.55478 402.71951
398.0 0.002513 326.54010 397.16623
388.0 0.002577 326.52554 394.90668
418.0 0.002392 326.51117 395.29691
434.0 0.002304 326.49689 399.38986
402.0 0.002488 326.48273 407.28452
428.0 0.002336 326.46875 419.59286
457.0 0.002188 326.45480 438.41748
494.0 0.002024 326.44107 463.10065
494.0 0.002024 326.42746 488.47873
507.0 0.001972 326.41391 506.14743
500.0 0.002000 326.40057 505.13846
462.0 0.002165 326.38727 485.25607
480.0 0.002083 326.37427 461.31323
434.0 0.002304 326.36118 443.41382
449.0 0.002227 326.34836 431.54703
439.0 0.002278 326.33572 420.76126
396.0 0.002525 326.32303 410.02106
405.0 0.002469 326.31064 402.68057
403.0 0.002481 326.29828 400.93243
454.0 0.002203 326.28604 404.50320
432.0 0.002315 326.27405 410.85666
422.0 0.002370 326.26215 417.71713
418.0 0.002392 326.25031 426.56549
448.0 0.002232 326.23868 441.23734
446.0 0.002242 326.22714 465.54431
557.0 0.001795 326.21579 498.95615
547.0 0.001828 326.20462 531.67169
530.0 0.001887 326.19342 546.14539
528.0 0.001894 326.18246 536.86200
488.0 0.002049 326.17163 513.29260
447.0 0.002237 326.16092 487.53851
475.0 0.002105 326.15036 470.67996
453.0 0.002208 326.13992 467.17249
502.0 0.001992 326.12964 475.19916
528.0 0.001894 326.11951 491.51151
558.0 0.001792 326.10947 508.70941
491.0 0.002037 326.09958 510.33499
439.0 0.002278 326.08987 488.80295
427.0 0.002342 326.08026 457.55804
378.0 0.002646 326.07074 430.35568
373.0 0.002681 326.06146 410.51889
356.0 0.002809 326.05228 398.38510
391.0 0.002558 326.04321 393.96326
402.0 0.002488 326.03427 396.91107
407.0 0.002457 326.02557 405.12286
412.0 0.002427 326.01688 413.01660
410.0 0.002439 326.00845 413.09116
385.0 0.002597 326.00009 404.60767
389.0 0.002571 325.99191 394.58496
369.0 0.002710 325.98383 389.19305
374.0 0.002674 325.97595 390.10684
413.0 0.002421 325.96805 396.55154
437.0 0.002288 325.96048 405.72025
450.0 0.002222 325.95300 415.23822
462.0 0.002165 325.94565 422.82935
449.0 0.002227 325.93845 422.16016
425.0 0.002353 325.93146 409.69467
394.0 0.002538 325.92444 391.92178
370.0 0.002703 325.91766 376.01633
359.0 0.002786 325.91104 364.61972
386.0 0.002591 325.90454 357.50653
357.0 0.002801 325.89816 353.77850
343.0 0.002915 325.89200 352.85269
356.0 0.002809 325.88589 353.68744
352.0 0.002841 325.88000 355.95956
372.0 0.002688 325.87424 359.03455
336.0 0.002976 325.86856 363.31131
345.0 0.002899 325.86313 368.98691
379.0 0.002639 325.85782 375.02777
386.0 0.002591 325.85257 379.12167
397.0 0.002519 325.84760 381.75482
392.0 0.002551 325.84265 386.53113
408.0 0.002451 325.83798 396.58173
411.0 0.002433 325.83331 413.82275
446.0 0.002242 325.82886 437.72867
489.0 0.002045 325.82455 462.09207
498.0 0.002008 325.82037 472.77451
431.0 0.002320 325.81638 459.81830
391.0 0.002558 325.81250 432.68469
415.0 0.002410 325.80884 405.45624
369.0 0.002710 325.80527 385.12375
365.0 0.002740 325.80185 372.23465
391.0 0.002558 325.79861 365.54239
349.0 0.002865 325.79550 363.66272
359.0 0.002786 325.79245 365.14752
404.0 0.002475 325.78964 369.22949
397.0 0.002519 325.78699 375.34689
374.0 0.002674 325.78448 381.34177
392.0 0.002551 325.78210 384.36469
389.0 0.002571 325.77988 385.97055
411.0 0.002433 325.77780 390.43201
419.0 0.002387 325.77591 402.17526
422.0 0.002370 325.77414 423.52789
499.0 0.002004 325.77249 453.72385
538.0 0.001859 325.77106 485.74719
543.0 0.001842 325.76974 503.95621
482.0 0.002075 325.76852 497.37320
453.0 0.002208 325.76752 475.39618
435.0 0.002299 325.76666 451.63266
394.0 0.002538 325.76596 429.26343
402.0 0.002488 325.76544 407.14862
401.0 0.002494 325.76498 387.73358
365.0 0.002740 325.76477 373.41122
356.0 0.002809 325.76468 364.19562
359.0 0.002786 325.76468 359.16110
375.0 0.002667 325.76495 357.16650
401.0 0.002494 325.76529 356.92657
381.0 0.002625 325.76587 357.02261
362.0 0.002762 325.76651 357.33511
357.0 0.002801 325.76727 358.80823
368.0 0.002717 325.76822 362.62250
394.0 0.002538 325.76941 369.60083
386.0 0.002591 325.77066 379.47949
393.0 0.002545 325.77216 389.99219
383.0 0.002611 325.77371 396.82431
403.0 0.002481 325.77551 396.99188
414.0 0.002415 325.77744 393.31708
416.0 0.002404 325.77948 390.45749
406.0 0.002463 325.78168 389.05933
387.0 0.002584 325.78403 387.26691
381.0 0.002625 325.78662 385.08313
397.0 0.002519 325.78928 382.66806
402.0 0.002488 325.79218 378.13657
370.0 0.002703 325.79507 371.47073
374.0 0.002674 325.79828 365.79587
383.0 0.002611 325.80161 363.16190
377.0 0.002653 325.80508 363.64722
367.0 0.002725 325.80869 365.80246
356.0 0.002809 325.81247 366.84167
372.0 0.002688 325.81644 365.96030
391.0 0.002558 325.82047 365.49344
387.0 0.002584 325.82474 365.79327
371.0 0.002695 325.82916 364.76459
344.0 0.002907 325.83374 360.84592
370.0 0.002703 325.83844 355.52347
342.0 0.002924 325.84338 351.17737
371.0 0.002695 325.84839 348.81174
373.0 0.002681 325.85358 348.63000
366.0 0.002732 325.85901 350.27377
358.0 0.002793 325.86453 353.10602
391.0 0.002558 325.87015 356.36096
352.0 0.002841 325.87601 358.19131
365.0 0.002740 325.88199 357.57712
337.0 0.002967 325.88818 355.24802
353.0 0.002833 325.89450 352.69473
345.0 0.002899 325.90091 351.13876
342.0 0.002924 325.90759 350.96564
332.0 0.003012 325.91434 351.26395
353.0 0.002833 325.92133 351.28513
367.0 0.002725 325.92844 351.43570
350.0 0.002857 325.93570 352.18414
362.0 0.002762 325.94315 352.87616
377.0 0.002653 325.95078 352.16479
374.0 0.002674 325.95850 349.78925
378.0 0.002646 325.96640 347.31882
365.0 0.002740 325.97446 346.08502
359.0 0.002786 325.98276 346.39206
382.0 0.002618 325.99109 348.54620
390.0 0.002564 325.99966 352.48959
364.0 0.002747 326.00839 358.08316
386.0 0.002591 326.01721 365.27011
402.0 0.002488 326.02634 373.92688
405.0 0.002469 326.03546 382.47415
393.0 0.002545 326.04486 385.81537
376.0 0.002660 326.05441 381.31744
372.0 0.002688 326.06409 372.49850
365.0 0.002740 326.07394 364.05331
370.0 0.002703 326.08392 358.39392
372.0 0.002688 326.09409 355.91370
386.0 0.002591 326.10440 356.70511
410.0 0.002439 326.11490 360.61728
399.0 0.002506 326.12558 367.90076
378.0 0.002646 326.13638 378.83630
433.0 0.002309 326.14737 393.42706
473.0 0.002114 326.15848 410.07492
496.0 0.002016 326.16983 424.32663
532.0 0.001880 326.18127 432.35248
466.0 0.002146 326.19290 433.64767
433.0 0.002309 326.20468 430.07300
429.0 0.002331 326.21667 426.13284
423.0 0.002364 326.22876 425.28375
431.0 0.002320 326.24109 427.09589
435.0 0.002299 326.25354 429.33713
416.0 0.002404 326.26608 431.18338
434.0 0.002304 326.27890 433.91724
442.0 0.002262 326.29178 438.03189
453.0 0.002208 326.30490 441.44382
425.0 0.002353 326.31815 442.77133
453.0 0.002208 326.33160 443.82727
401.0 0.002494 326.34512 444.80380
420.0 0.002381 326.35892 443.30115
433.0 0.002309 326.37280 441.29959
462.0 0.002165 326.38690 445.42319
453.0 0.002208 326.40112 459.58810
491.0 0.002037 326.41550 481.77942
510.0 0.001961 326.43011 502.27246
505.0 0.001980 326.44482 506.85037
452.0 0.002212 326.45972 490.44830
434.0 0.002304 326.47476 463.30057
414.0 0.002415 326.49002 437.54129
407.0 0.002457 326.50540 418.74814
398.0 0.002513 326.52090 406.42807
367.0 0.002725 326.53662 399.46011
425.0 0.002353 326.55255 397.42752
411.0 0.002433 326.56860 400.16055
367.0 0.002725 326.58478 405.66031
411.0 0.002433 326.60110 410.53238
406.0 0.002463 326.61765 412.81387
392.0 0.002551 326.63440 413.39722
389.0 0.002571 326.65118 413.31726
395.0 0.002532 326.66821 412.93494
429.0 0.002331 326.68542 414.66855
442.0 0.002262 326.70276 423.02158
426.0 0.002347 326.72031 441.30075
473.0 0.002114 326.73798 469.83301
513.0 0.001949 326.75583 503.78006
548.0 0.001825 326.77380 531.53003
529.0 0.001890 326.79199 540.63470
493.0 0.002028 326.81033 532.64948
455.0 0.002198 326.82886 518.40881
470.0 0.002128 326.84744 503.43307
473.0 0.002114 326.86630 488.26196
450.0 0.002222 326.88528 472.92380
434.0 0.002304 326.90451 458.00397
422.0 0.002370 326.92377 446.47119
427.0 0.002342 326.94327 438.55365
407.0 0.002457 326.96292 429.59927
411.0 0.002433 326.98270 416.46793
408.0 0.002451 327.00275 401.79346
375.0 0.002667 327.02286 389.58182
377.0 0.002653 327.04318 381.78024
392.0 0.002551 327.06360 379.01089
409.0 0.002445 327.08429 381.53119
385.0 0.002597 327.10504 389.76041
414.0 0.002415 327.12604 403.55756
457.0 0.002188 327.14719 422.67963
455.0 0.002198 327.16846 443.99719
455.0 0.002198 327.18991 460.49176
448.0 0.002232 327.21155 466.60049
445.0 0.002247 327.23331 464.43039
440.0 0.002273 327.25525 457.58896
442.0 0.002262 327.27731 447.51761
406.0 0.002463 327.29971 435.67236
390.0 0.002564 327.32211 425.03195
405.0 0.002469 327.34479 418.15775
425.0 0.002353 327.36740 416.31924
430.0 0.002326 327.39038 418.10464
378.0 0.002646 327.41342 421.97174
445.0 0.002247 327.43674 429.28827
505.0 0.001980 327.46017 439.13861
474.0 0.002110 327.48370 445.46255
448.0 0.002232 327.50754 440.44827
438.0 0.002283 327.53140 425.55817
425.0 0.002353 327.55554 408.32086
351.0 0.002849 327.57977 394.20953
365.0 0.002740 327.60413 385.15433
424.0 0.002358 327.62872 381.03571
393.0 0.002545 327.65338 380.26407
370.0 0.002703 327.67834 380.29263
389.0 0.002571 327.70337 379.80075
403.0 0.002481 327.72864 379.18402
385.0 0.002597 327.75397 379.22275
404.0 0.002475 327.77951 381.21329
420.0 0.002381 327.80524 387.36176
415.0 0.002410 327.83112 400.06876
457.0 0.002188 327.85712 420.90286
492.0 0.002033 327.88333 450.23581
558.0 0.001792 327.90970 484.70935
589.0 0.001698 327.93625 513.91083
521.0 0.001919 327.96292 522.99652
500.0 0.002000 327.98975 508.97455
453.0 0.002208 328.01672 481.63989
434.0 0.002304 328.04388 451.12268
426.0 0.002347 328.07126 424.42404
390.0 0.002564 328.09875 404.81064
392.0 0.002551 328.12643 392.31085
387.0 0.002584 328.15427 385.11209
375.0 0.002667 328.18225 380.29840
377.0 0.002653 328.21033 375.54532
354.0 0.002825 328.23865 370.99463
344.0 0.002907 328.26712 367.96603
348.0 0.002874 328.29578 367.47305
370.0 0.002703 328.32458 370.36276
375.0 0.002667 328.35349 377.63351
397.0 0.002519 328.38257 390.36783
441.0 0.002268 328.41187 409.21445
457.0 0.002188 328.44125 433.08606
491.0 0.002037 328.47089 457.18994
489.0 0.002045 328.50064 471.91266
458.0 0.002183 328.53058 469.80035
458.0 0.002183 328.56067 452.22021
415.0 0.002410 328.59091 428.57458
392.0 0.002551 328.62128 407.60379
373.0 0.002681 328.65186 392.77179
352.0 0.002841 328.68253 384.86551
403.0 0.002481 328.71338 383.10944
409.0 0.002445 328.74445 386.91284
419.0 0.002387 328.77560 395.48328
435.0 0.002299 328.80701 407.46896
395.0 0.002532 328.83856 420.79446
476.0 0.002101 328.87015 432.34204
474.0 0.002110 328.90207 438.46591
448.0 0.002232 328.93399 436.57019
416.0 0.002404 328.96622 429.14758
408.0 0.002451 328.99847 422.64618
410.0 0.002439 329.03088 421.90988
363.0 0.002755 329.06354 429.12582
444.0 0.002252 329.09631 443.70914
476.0 0.002101 329.12930 460.76712
458.0 0.002183 329.16238 472.21909
424.0 0.002358 329.19565 471.56686
424.0 0.002358 329.22906 457.92029
398.0 0.002513 329.26266 436.91898
381.0 0.002625 329.29642 416.98022
373.0 0.002681 329.33029 403.29489
378.0 0.002646 329.36435 397.46857
402.0 0.002488 329.39859 399.03033
406.0 0.002463 329.43286 406.55487
415.0 0.002410 329.46738 416.18311
419.0 0.002387 329.50208 422.71738
402.0 0.002488 329.53693 423.49869
406.0 0.002463 329.57190 419.88278
410.0 0.002439 329.60706 413.31366
385.0 0.002597 329.64233 404.07974
374.0 0.002674 329.67786 393.80377
372.0 0.002688 329.71341 385.19153
358.0 0.002793 329.74918 380.10657
372.0 0.002688 329.78516 379.49399
383.0 0.002611 329.82120 382.99774
386.0 0.002591 329.85748 388.77872
384.0 0.002604 329.89383 393.22949
401.0 0.002494 329.93036 392.72440
382.0 0.002618 329.96707 386.45544
354.0 0.002825 330.00391 377.23822
353.0 0.002833 330.04092 368.53137
364.0 0.002747 330.07806 362.89850
360.0 0.002778 330.11536 360.34955
367.0 0.002725 330.15280 360.71274
383.0 0.002611 330.19049 362.75629
358.0 0.002793 330.22827 364.34848
373.0 0.002681 330.26611 363.26520
391.0 0.002558 330.30426 359.43857
384.0 0.002604 330.34238 354.73975
373.0 0.002681 330.38086 350.64243
349.0 0.002865 330.41940 347.44308
339.0 0.002950 330.45807 344.93222
344.0 0.002907 330.49695 342.99689
356.0 0.002809 330.53592 341.69357
338.0 0.002959 330.57504 341.03433
325.0 0.003077 330.61441 341.17087
332.0 0.003012 330.65375 341.71420
342.0 0.002924 330.69342 342.80759
332.0 0.003012 330.73312 344.40808
341.0 0.002933 330.77301 346.20761
330.0 0.003030 330.81308 347.82513
334.0 0.002994 330.85327 349.16095
356.0 0.002809 330.89365 350.64032
364.0 0.002747 330.93414 352.97977
384.0 0.002604 330.97479 356.40417
360.0 0.002778 331.01563 359.95602
404.0 0.002475 331.05646 361.47070
338.0 0.002959 331.09760 359.41190
361.0 0.002770 331.13882 354.93121
351.0 0.002849 331.18021 350.21802
324.0 0.003086 331.22180 346.44077
350.0 0.002857 331.26337 343.87726
340.0 0.002941 331.30524 342.58591
332.0 0.003012 331.34726 342.34662
371.0 0.002695 331.38940 343.35931
354.0 0.002825 331.43167 345.62851
362.0 0.002762 331.47403 349.38782
351.0 0.002849 331.51663 354.56592
412.0 0.002427 331.55933 360.56210
340.0 0.002941 331.60217 365.70737
347.0 0.002882 331.64520 367.37079
345.0 0.002899 331.68835 364.85034
339.0 0.002950 331.73163 360.32236
367.0 0.002725 331.77502 355.96036
348.0 0.002874 331.81863 353.17798
340.0 0.002941 331.86243 352.08829
327.0 0.003058 331.90622 352.02884
337.0 0.002967 331.95026 351.68378
347.0 0.002882 331.99442 350.03619
334.0 0.002994 332.03870 347.42053
342.0 0.002924 332.08319 344.84439
354.0 0.002825 332.12769 342.91043
342.0 0.002924 332.17242 341.55673
334.0 0.002994 332.21732 340.89679
324.0 0.003086 332.26236 340.80765
347.0 0.002882 332.30756 341.36893
364.0 0.002747 332.35278 342.59009
354.0 0.002825 332.39828 344.55789
355.0 0.002817 332.44382 347.27585
368.0 0.002717 332.48953 350.56723
364.0 0.002747 332.53546 353.83673
368.0 0.002717 332.58145 355.91425
392.0 0.002551 332.62756 356.81247
387.0 0.002584 332.67380 357.84125
374.0 0.002674 332.72028 360.33612
371.0 0.002695 332.76682 364.93976
369.0 0.002710 332.81351 371.02051
365.0 0.002740 332.86035 376.40076
345.0 0.002899 332.90729 377.73145
350.0 0.002857 332.95444 374.00351
366.0 0.002732 333.00171 367.77866
362.0 0.002762 333.04901 361.93472
359.0 0.002786 333.09665 357.52661
345.0 0.002899 333.14423 355.06815
336.0 0.002976 333.19202 354.35040
306.0 0.003268 333.23999 355.43356
362.0 0.002762 333.28802 358.13406
376.0 0.002660 333.33621 363.06732
366.0 0.002732 333.38461 371.16330
386.0 0.002591 333.43304 383.38840
408.0 0.002451 333.48169 400.01996
474.0 0.002110 333.53046 419.58621
440.0 0.002273 333.57935 437.25717
423.0 0.002364 333.62833 445.04514
461.0 0.002169 333.67746 439.08035
432.0 0.002315 333.72681 424.13013
399.0 0.002506 333.77609 408.03403
345.0 0.002899 333.82571 395.23929
396.0 0.002525 333.87534 386.44766
382.0 0.002618 333.92520 379.88425
376.0 0.002660 333.97510 373.75293
394.0 0.002538 334.02515 368.02496
392.0 0.002551 334.07532 363.53006
370.0 0.002703 334.12570 360.50705
395.0 0.002532 334.17624 358.57849
347.0 0.002882 334.22684 357.31958
349.0 0.002865 334.27747 356.62280
371.0 0.002695 334.32834 356.85236
360.0 0.002778 334.37933 358.36267
354.0 0.002825 334.43048 361.79675
374.0 0.002674 334.48172 367.77609
385.0 0.002597 334.53299 376.70740
406.0 0.002463 334.58456 388.37299
439.0 0.002278 334.63617 400.94391
440.0 0.002273 334.68793 410.45285
433.0 0.002309 334.73981 412.92603
391.0 0.002558 334.79181 408.66617
403.0 0.002481 334.84387 400.11069
384.0 0.002604 334.89615 390.11029
375.0 0.002667 334.94855 380.92639
362.0 0.002762 335.00110 374.20584
377.0 0.002653 335.05365 370.47327
379.0 0.002639 335.10648 369.52643
379.0 0.002639 335.15933 371.24725
407.0 0.002457 335.21234 375.97931
378.0 0.002646 335.26541 384.40759
410.0 0.002439 335.31866 396.88556
450.0 0.002222 335.37207 412.91602
458.0 0.002183 335.42560 429.98056
456.0 0.002193 335.47922 442.27405
420.0 0.002381 335.53290 442.85977
386.0 0.002591 335.58673 431.86298
385.0 0.002597 335.64078 416.76984
400.0 0.002500 335.69489 404.22079
426.0 0.002347 335.74911 396.99878
423.0 0.002364 335.80341 395.46234
420.0 0.002381 335.85782 398.29355
405.0 0.002469 335.91248 403.00366
411.0 0.002433 335.96716 405.73813
399.0 0.002506 336.02194 403.74872
405.0 0.002469 336.07697 397.95349
411.0 0.002433 336.13190 391.64645
399.0 0.002506 336.18713 386.87112
385.0 0.002597 336.24234 384.67584
396.0 0.002525 336.29788 385.96115
407.0 0.002457 336.35333 391.46310
426.0 0.002347 336.40897 401.38239
436.0 0.002294 336.46469 415.19885
466.0 0.002146 336.52054 430.99677
436.0 0.002294 336.57660 446.13339
457.0 0.002188 336.63266 458.55289
477.0 0.002096 336.68881 466.88419
444.0 0.002252 336.74521 469.45813
443.0 0.002257 336.80157 465.33301
464.0 0.002155 336.85822 453.95319
402.0 0.002488 336.91489 437.45227
389.0 0.002571 336.97159 421.28214
413.0 0.002421 337.02850 409.60364
407.0 0.002457 337.08551 403.62845
414.0 0.002415 337.14258 402.13586
376.0 0.002660 337.19986 403.34906
430.0 0.002326 337.25708 405.12769
383.0 0.002611 337.31464 406.08923
414.0 0.002415 337.37210 404.31470
375.0 0.002667 337.42984 398.96332
371.0 0.002695 337.48764 391.71582
382.0 0.002618 337.54547 385.47815
400.0 0.002500 337.60349 381.93600
379.0 0.002639 337.66156 381.31067
389.0 0.002571 337.71976 382.85886
389.0 0.002571 337.77798 385.12061
372.0 0.002688 337.83640 386.83801
369.0 0.002710 337.89502 388.09677
388.0 0.002577 337.95355 389.86118
411.0 0.002433 338.01230 392.26816
408.0 0.002451 338.07117 393.72946
397.0 0.002519 338.13010 392.36932
377.0 0.002653 338.18915 388.80234
377.0 0.002653 338.24829 385.82156
361.0 0.002770 338.30756 385.85358
370.0 0.002703 338.36688 390.32950
388.0 0.002577 338.42624 400.02863
397.0 0.002519 338.48584 414.71609
437.0 0.002288 338.54553 432.69299
490.0 0.002041 338.60535 449.91650
478.0 0.002092 338.66522 459.25119
422.0 0.002370 338.72510 454.99445
408.0 0.002451 338.78519 439.40158
391.0 0.002558 338.84531 419.72238
369.0 0.002710 338.90564 401.37265
360.0 0.002778 338.96597 386.84433
379.0 0.002639 339.02637 376.44272
398.0 0.002513 339.08701 369.51389
378.0 0.002646 339.14761 365.18463
369.0 0.002710 339.20840 362.71701
353.0 0.002833 339.26932 361.41418
350.0 0.002857 339.33017 361.36267
346.0 0.002890 339.39127 362.34610
353.0 0.002833 339.45236 364.37619
353.0 0.002833 339.51367 367.73260
364.0 0.002747 339.57501 372.80145
385.0 0.002597 339.63629 380.03735
424.0 0.002358 339.69785 389.81805
403.0 0.002481 339.75949 402.08670
425.0 0.002353 339.82120 416.62234
439.0 0.002278 339.88306 434.22049
490.0 0.002041 339.94485 455.38007
514.0 0.001946 340.00690 478.35278
556.0 0.001799 340.06888 498.46735
551.0 0.001815 340.13110 509.99893
509.0 0.001965 340.19333 506.16464
481.0 0.002079 340.25562 486.34720
438.0 0.002283 340.31815 459.10934
440.0 0.002273 340.38062 433.37537
439.0 0.002278 340.44327 413.17880
366.0 0.002732 340.50598 399.37158
378.0 0.002646 340.56870 390.85123
351.0 0.002849 340.63159 385.99808
371.0 0.002695 340.69461 382.15726
391.0 0.002558 340.75769 378.26474
362.0 0.002762 340.82080 374.99377
361.0 0.002770 340.88394 372.99469
354.0 0.002825 340.94736 372.73956
364.0 0.002747 341.01065 374.35547
360.0 0.002778 341.07422 377.64319
349.0 0.002865 341.13782 381.89307
363.0 0.002755 341.20135 386.22757
364.0 0.002747 341.26517 390.56406
381.0 0.002625 341.32895 396.19678
414.0 0.002415 341.39288 404.70877
450.0 0.002222 341.45682 416.03967
454.0 0.002203 341.52084 427.25003
423.0 0.002364 341.58508 433.35440
420.0 0.002381 341.64920 430.86191
410.0 0.002439 341.71353 421.64481
360.0 0.002778 341.77802 409.89349
362.0 0.002762 341.84235 398.75827
366.0 0.002732 341.90692 390.22604
375.0 0.002667 341.97153 384.95624
394.0 0.002538 342.03635 382.34500
396.0 0.002525 342.10110 381.14081
409.0 0.002445 342.16592 379.79651
375.0 0.002667 342.23083 378.36868
365.0 0.002740 342.29590 377.40369
370.0 0.002703 342.36102 377.81024
402.0 0.002488 342.42621 380.35867
413.0 0.002421 342.49136 385.55136
412.0 0.002427 342.55670 393.43076
431.0 0.002320 342.62204 403.16043
430.0 0.002326 342.68759 413.18604
440.0 0.002273 342.75308 422.31137
456.0 0.002193 342.81863 431.33664
477.0 0.002096 342.88440 439.72495
487.0 0.002053 342.95010 445.24921
437.0 0.002288 343.01599 445.39056
431.0 0.002320 343.08194 439.63647
393.0 0.002545 343.14777 429.79584
376.0 0.002660 343.21390 418.06854
370.0 0.002703 343.27991 406.17657
379.0 0.002639 343.34616 395.90884
385.0 0.002597 343.41241 388.66550
404.0 0.002475 343.47870 384.74957
370.0 0.002703 343.54510 383.67017
375.0 0.002667 343.61151 384.55283
408.0 0.002451 343.67813 386.55624
407.0 0.002457 343.74469 388.91653
354.0 0.002825 343.81131 390.26242
405.0 0.002469 343.87811 390.00616
381.0 0.002625 343.94479 389.22211
379.0 0.002639 344.01172 389.63284
369.0 0.002710 344.07864 392.36713
388.0 0.002577 344.14557 397.46509
437.0 0.002288 344.21268 404.33459
420.0 0.002381 344.27982 412.66861
453.0 0.002208 344.34698 421.45526
419.0 0.002387 344.41428 427.98318
438.0 0.002283 344.48154 429.33127
431.0 0.002320 344.54892 425.25470
400.0 0.002500 344.61627 418.33728
417.0 0.002398 344.68381 411.89572
383.0 0.002611 344.75137 408.23822
416.0 0.002404 344.81894 408.90192
393.0 0.002545 344.88666 415.26755
458.0 0.002183 344.95432 427.44644
501.0 0.001996 345.02216 444.51584
542.0 0.001845 345.09000 462.59485
512.0 0.001953 345.15787 474.67969
468.0 0.002137 345.22589 474.39743
448.0 0.002232 345.29385 462.50159
400.0 0.002500 345.36197 445.06879
406.0 0.002463 345.43018 428.15793
372.0 0.002688 345.49826 415.39975
396.0 0.002525 345.56656 408.35941
411.0 0.002433 345.63486 407.24695
431.0 0.002320 345.70328 411.16824
449.0 0.002227 345.77164 418.05728
455.0 0.002198 345.84003 424.16382
435.0 0.002299 345.90866 425.13333
418.0 0.002392 345.97717 419.68423
402.0 0.002488 346.04581 410.45773
408.0 0.002451 346.11453 400.92770
373.0 0.002681 346.18320 393.54608
393.0 0.002545 346.25198 389.48315
420.0 0.002381 346.32080 389.05322
413.0 0.002421 346.38977 392.03143
421.0 0.002375 346.45865 398.07751
431.0 0.002320 346.52762 406.51974
441.0 0.002268 346.59668 416.72754
438.0 0.002283 346.66568 426.79022
448.0 0.002232 346.73489 433.31732
476.0 0.002101 346.80408 433.33371
456.0 0.002193 346.87323 426.94214
413.0 0.002421 346.94260 416.51263
392.0 0.002551 347.01184 405.49789
390.0 0.002564 347.08133 396.40012
402.0 0.002488 347.15070 390.74768
413.0 0.002421 347.22012 388.56128
409.0 0.002445 347.28961 389.05948
378.0 0.002646 347.35919 390.62204
394.0 0.002538 347.42883 391.19269
417.0 0.002398 347.49850 389.01108
396.0 0.002525 347.56808 384.73557
392.0 0.002551 347.63785 379.99814
373.0 0.002681 347.70755 376.08353
404.0 0.002475 347.77747 373.43906
379.0 0.002639 347.84735 372.15262
367.0 0.002725 347.91708 372.16675
361.0 0.002770 347.98712 373.45816
390.0 0.002564 348.05713 376.06467
393.0 0.002545 348.12714 380.07709
386.0 0.002591 348.19720 385.64951
415.0 0.002410 348.26718 392.69135
451.0 0.002217 348.33743 400.30930
435.0 0.002299 348.40762 406.00555
421.0 0.002375 348.47781 407.16287
411.0 0.002433 348.54807 403.67093
385.0 0.002597 348.61835 397.73224
421.0 0.002375 348.68869 391.37515
316.0 0.003165 348.75906 385.69550
350.0 0.002857 348.82944 381.22858
389.0 0.002571 348.89987 378.32635
353.0 0.002833 348.97031 377.25986
366.0 0.002732 349.04089 377.65976
348.0 0.002874 349.11142 379.97894
387.0 0.002584 349.18201 384.68912
403.0 0.002481 349.25262 392.35986
420.0 0.002381 349.32318 403.38617
450.0 0.002222 349.39392 417.80283
472.0 0.002119 349.46460 434.67514
456.0 0.002193 349.53540 451.95532
446.0 0.002242 349.60617 465.62073
447.0 0.002237 349.67688 471.08353
434.0 0.002304 349.74783 468.16931
432.0 0.002315 349.81870 460.05661
444.0 0.002252 349.88962 451.22360
453.0 0.002208 349.96051 444.54276
418.0 0.002392 350.03143 439.63165
408.0 0.002451 350.10245 433.65771
394.0 0.002538 350.17349 424.74670
425.0 0.002353 350.24454 413.87747
416.0 0.002404 350.31567 403.22418
378.0 0.002646 350.38666 394.09973
361.0 0.002770 350.45789 387.24570
374.0 0.002674 350.52902 382.45117
397.0 0.002519 350.60022 380.01022
386.0 0.002591 350.67148 379.81277
384.0 0.002604 350.74268 381.71994
395.0 0.002532 350.81396 385.60669
404.0 0.002475 350.88528 391.75058
414.0 0.002415 350.95660 400.04321
410.0 0.002439 351.02792 409.80640
417.0 0.002398 351.09921 419.85391
447.0 0.002237 351.17072 429.10663
419.0 0.002387 351.24207 436.04657
392.0 0.002551 351.31354 438.79379
390.0 0.002564 351.38501 437.75909
413.0 0.002421 351.45645 435.09012
419.0 0.002387 351.52798 433.79837
428.0 0.002336 351.59949 435.86560
447.0 0.002237 351.67111 441.23380
499.0 0.002004 351.74265 447.11725
450.0 0.002222 351.81424 448.81128
434.0 0.002304 351.88589 443.39020
435.0 0.002299 351.95746 432.75464
386.0 0.002591 352.02914 421.07178
385.0 0.002597 352.10086 411.36697
402.0 0.002488 352.17249 404.56918
394.0 0.002538 352.24432 400.39743
400.0 0.002500 352.31601 397.74506
382.0 0.002618 352.38782 395.77896
395.0 0.002532 352.45953 394.32886
411.0 0.002433 352.53125 393.23151
363.0 0.002755 352.60315 392.68420
401.0 0.002494 352.67490 392.80276
419.0 0.002387 352.74686 393.49466
376.0 0.002660 352.81873 394.74661
374.0 0.002674 352.89044 396.84760
401.0 0.002494 352.96249 400.33228
418.0 0.002392 353.03430 406.05029
432.0 0.002315 353.10626 415.34866
457.0 0.002188 353.17819 429.77328
462.0 0.002165 353.25006 450.51642
536.0 0.001866 353.32208 478.53052
611.0 0.001637 353.39407 513.50970
637.0 0.001570 353.46606 552.76770
680.0 0.001471 353.53812 589.41107
678.0 0.001475 353.61008 614.54108
694.0 0.001441 353.68210 622.79504
618.0 0.001618 353.75418 613.42273
588.0 0.001701 353.82626 588.01080
523.0 0.001912 353.89838 552.18701
481.0 0.002079 353.97040 514.34521
460.0 0.002174 354.04245 480.52115
405.0 0.002469 354.11456 453.53763
393.0 0.002545 354.18674 433.52713
407.0 0.002457 354.25894 419.55490
412.0 0.002427 354.33099 410.83643
397.0 0.002519 354.40320 405.92651
405.0 0.002469 354.47528 404.30966
417.0 0.002398 354.54752 404.76184
408.0 0.002451 354.61975 406.60895
426.0 0.002347 354.69183 409.15894
444.0 0.002252 354.76410 412.58710
433.0 0.002309 354.83624 418.08670
438.0 0.002283 354.90857 426.81802
463.0 0.002160 354.98071 439.55554
479.0 0.002088 355.05292 456.67169
518.0 0.001931 355.12527 478.07443
544.0 0.001838 355.19739 502.54007
565.0 0.001770 355.26978 526.77289
613.0 0.001631 355.34201 547.04114
580.0 0.001724 355.41422 560.99542
593.0 0.001686 355.48657 566.10114
545.0 0.001835 355.55881 558.83948
492.0 0.002033 355.63110 538.76703
491.0 0.002037 355.70340 511.49924
461.0 0.002169 355.77563 485.05643
444.0 0.002252 355.84802 464.78085
439.0 0.002278 355.92029 452.92563
410.0 0.002439 355.99271 449.55804
483.0 0.002070 356.06500 453.79843
493.0 0.002028 356.13721 463.00595
491.0 0.002037 356.20963 472.97189
499.0 0.002004 356.28189 477.52429
481.0 0.002079 356.35428 472.77194
448.0 0.002232 356.42673 460.04794
416.0 0.002404 356.49893 444.35190
388.0 0.002577 356.57132 429.79413
412.0 0.002427 356.64368 418.73300
407.0 0.002457 356.71606 411.52325
375.0 0.002667 356.78842 407.88123
443.0 0.002257 356.86072 407.23965
406.0 0.002463 356.93311 409.07166
398.0 0.002513 357.00549 412.86652
440.0 0.002273 357.07785 418.24161
436.0 0.002294 357.15033 424.17590
458.0 0.002183 357.22256 428.63602
444.0 0.002252 357.29507 429.16165
466.0 0.002146 357.36740 424.85373
406.0 0.002463 357.43982 417.57010
403.0 0.002481 357.51218 410.31833
378.0 0.002646 357.58444 405.21057
407.0 0.002457 357.65692 403.32101
414.0 0.002415 357.72928 404.57828
433.0 0.002309 357.80170 408.79181
434.0 0.002304 357.87411 414.88623
433.0 0.002309 357.94644 420.79919
434.0 0.002304 358.01892 423.91940
443.0 0.002257 358.09119 422.82538
420.0 0.002381 358.16370 418.61551
393.0 0.002545 358.23605 413.50421
392.0 0.002551 358.30832 409.37988
400.0 0.002500 358.38080 407.04413
417.0 0.002398 358.45319 407.46732
433.0 0.002309 358.52563 410.10260
439.0 0.002278 358.59799 414.68817
435.0 0.002299 358.67032 419.90448
411.0 0.002433 358.74280 425.36227
395.0 0.002532 358.81509 431.69040
403.0 0.002481 358.88757 439.40054
445.0 0.002247 358.95993 448.40134
481.0 0.002079 359.03229 457.98413
479.0 0.002088 359.10468 467.42694
479.0 0.002088 359.17703 475.14853
487.0 0.002053 359.24948 479.40149
462.0 0.002165 359.32184 477.86401
434.0 0.002304 359.39420 469.34796
410.0 0.002439 359.46658 456.34103
407.0 0.002457 359.53888 443.78241
403.0 0.002481 359.61133 434.99496
383.0 0.002611 359.68378 431.34177
440.0 0.002273 359.75610 432.78888
477.0 0.002096 359.82843 438.08066
485.0 0.002062 359.90085 444.68735
463.0 0.002160 359.97321 449.45099
451.0 0.002217 360.04556 449.91422
431.0 0.002320 360.11789 445.87811
462.0 0.002165 360.19028 439.36069
430.0 0.002326 360.26260 431.75140
431.0 0.002320 360.33496 424.62744
422.0 0.002370 360.40738 418.55444
396.0 0.002525 360.47974 414.34317
424.0 0.002358 360.55209 412.30273
420.0 0.002381 360.62439 412.48505
412.0 0.002427 360.69681 414.81387
408.0 0.002451 360.76910 418.67560
436.0 0.002294 360.84143 423.29935
433.0 0.002309 360.91382 427.55655
416.0 0.002404 360.98618 430.13495
425.0 0.002353 361.05853 429.93680
437.0 0.002288 361.13092 426.16812
431.0 0.002320 361.20313 419.68433
426.0 0.002347 361.27557 412.75891
422.0 0.002370 361.34778 407.34668
394.0 0.002538 361.42020 404.42419
410.0 0.002439 361.49252 404.24457
382.0 0.002618 361.56479 406.29913
397.0 0.002519 361.63721 409.36484
389.0 0.002571 361.70947 412.09842
433.0 0.002309 361.78186 413.18228
441.0 0.002268 361.85422 412.37759
409.0 0.002445 361.92648 410.67142
400.0 0.002500 361.99881 409.23267
394.0 0.002538 362.07111 409.22812
414.0 0.002415 362.14349 411.59250
396.0 0.002525 362.21585 417.02451
444.0 0.002252 362.28809 425.11209
460.0 0.002174 362.36041 434.23703
453.0 0.002208 362.43271 441.06082
434.0 0.002304 362.50510 442.15771
432.0 0.002315 362.57755 436.68903
423.0 0.002364 362.64972 427.75296
406.0 0.002463 362.72208 418.57474
390.0 0.002564 362.79434 411.09760
373.0 0.002681 362.86673 406.02402
392.0 0.002551 362.93909 403.55692
409.0 0.002445 363.01141 403.76624
425.0 0.002353 363.08371 406.37680
455.0 0.002198 363.15604 410.75769
461.0 0.002169 363.22836 415.82227
443.0 0.002257 363.30078 419.64682
417.0 0.002398 363.37302 421.06461
415.0 0.002410 363.44537 420.95468
410.0 0.002439 363.51767 421.51215
411.0 0.002433 363.59015 424.49252
430.0 0.002326 363.66245 430.16806
438.0 0.002283 363.73471 437.62189
457.0 0.002188 363.80710 444.33197
437.0 0.002288 363.87939 447.05658
426.0 0.002347 363.95184 444.85690
429.0 0.002331 364.02420 440.17960
420.0 0.002381 364.09650 435.53967
438.0 0.002283 364.16888 431.41110
415.0 0.002410 364.24121 427.01865
429.0 0.002331 364.31369 421.02344
400.0 0.002500 364.38599 413.88535
399.0 0.002506 364.45828 407.04446
370.0 0.002703 364.53079 401.47473
388.0 0.002577 364.60312 397.57379
378.0 0.002646 364.67560 395.31168
369.0 0.002710 364.74802 394.72076
400.0 0.002500 364.82031 395.92905
385.0 0.002597 364.89279 398.72894
414.0 0.002415 364.96515 402.93506
415.0 0.002410 365.03769 408.03134
418.0 0.002392 365.11011 413.29718
426.0 0.002347 365.18253 418.70743
453.0 0.002208 365.25504 424.89795
452.0 0.002212 365.32745 432.34821
458.0 0.002183 365.39999 440.34766
431.0 0.002320 365.47244 446.73318
462.0 0.002165 365.54489 449.71912
435.0 0.002299 365.61740 448.75555
431.0 0.002320 365.68988 444.16202
407.0 0.002457 365.76251 437.26031
408.0 0.002451 365.83505 430.11798
398.0 0.002513 365.90750 424.73550
404.0 0.002475 365.98010 422.76074
417.0 0.002398 366.05258 424.95010
452.0 0.002212 366.12524 431.59427
441.0 0.002268 366.19781 442.38547
537.0 0.001862 366.27039 456.04288
528.0 0.001894 366.34302 469.78842
515.0 0.001942 366.41565 479.40219
499.0 0.002004 366.48837 481.77963
501.0 0.001996 366.56104 477.52783
464.0 0.002155 366.63367 469.16669
421.0 0.002375 366.70633 458.55435
406.0 0.002463 366.77902 447.06802
411.0 0.002433 366.85184 436.43356
398.0 0.002513 366.92447 428.34970
393.0 0.002545 366.99719 423.81851
408.0 0.002451 367.07004 423.03546
435.0 0.002299 367.14282 425.59998
450.0 0.002222 367.21561 430.50717
449.0 0.002227 367.28848 436.14890
454.0 0.002203 367.36130 441.48627
436.0 0.002294 367.43420 445.18423
426.0 0.002347 367.50702 445.71741
425.0 0.002353 367.58002 442.24118
408.0 0.002451 367.65289 436.13251
406.0 0.002463 367.72580 429.87241
426.0 0.002347 367.79886 425.29678
423.0 0.002364 367.87177 423.37875
444.0 0.002252 367.94482 424.45825
440.0 0.002273 368.01791 428.32635
418.0 0.002392 368.09091 434.03403
453.0 0.002208 368.16400 440.28900
433.0 0.002309 368.23715 445.21387
443.0 0.002257 368.31030 447.70212
473.0 0.002114 368.38354 448.40216
459.0 0.002179 368.45663 448.87012
451.0 0.002217 368.52991 450.20389
447.0 0.002237 368.60309 452.89987
483.0 0.002070 368.67648 457.57001
502.0 0.001992 368.74985 463.42352
459.0 0.002179 368.82312 468.59317
464.0 0.002155 368.89651 471.45203
483.0 0.002070 368.96985 472.71210
501.0 0.001996 369.04340 475.06989
529.0 0.001890 369.11685 480.89929
533.0 0.001876 369.19034 490.97394
595.0 0.001681 369.26385 503.45642
573.0 0.001745 369.33743 514.59515
583.0 0.001715 369.41107 520.58490
517.0 0.001934 369.48480 518.86127
502.0 0.001992 369.55838 508.48425
435.0 0.002299 369.63217 490.98911
429.0 0.002331 369.70578 470.52036
407.0 0.002457 369.77975 451.03940
393.0 0.002545 369.85355 434.73816
395.0 0.002532 369.92740 422.24307
407.0 0.002457 370.00131 413.24789
390.0 0.002564 370.07529 407.29767
375.0 0.002667 370.14932 403.93845
397.0 0.002519 370.22342 402.66534
409.0 0.002445 370.29739 403.29669
431.0 0.002320 370.37161 405.38235
401.0 0.002494 370.44574 408.50269
419.0 0.002387 370.52002 412.49600
464.0 0.002155 370.59430 416.87659
478.0 0.002092 370.66852 420.74030
451.0 0.002217 370.74289 423.17728
464.0 0.002155 370.81735 424.19958
460.0 0.002174 370.89188 424.90134
437.0 0.002288 370.96634 426.51990
432.0 0.002315 371.04086 429.39349
453.0 0.002208 371.11560 433.30133
439.0 0.002278 371.19019 437.31168
440.0 0.002273 371.26501 440.14063
442.0 0.002262 371.33978 440.51755
453.0 0.002208 371.41458 437.45132
451.0 0.002217 371.48953 430.65680
424.0 0.002358 371.56442 421.75226
403.0 0.002481 371.63953 412.67459
423.0 0.002364 371.71463 404.77313
427.0 0.002342 371.78964 398.60648
405.0 0.002469 371.86496 394.18924
395.0 0.002532 371.94016 391.33630
384.0 0.002604 372.01550 389.74176
403.0 0.002481 372.09091 389.02612
396.0 0.002525 372.16632 388.82962
379.0 0.002639 372.24182 388.80301
373.0 0.002681 372.31744 388.76700
359.0 0.002786 372.39310 388.81009
383.0 0.002611 372.46890 389.18643
379.0 0.002639 372.54453 390.12817
396.0 0.002525 372.62054 391.70984
412.0 0.002427 372.69638 393.76093
411.0 0.002433 372.77246 395.87125
410.0 0.002439 372.84851 397.50168
417.0 0.002398 372.92462 398.19089
393.0 0.002545 373.00089 397.53403
366.0 0.002732 373.07718 395.70743
365.0 0.002740 373.15369 393.33438
383.0 0.002611 373.23007 391.02048
364.0 0.002747 373.30652 389.06448
377.0 0.002653 373.38330 387.59238
393.0 0.002545 373.45993 386.61203
371.0 0.002695 373.53677 386.12598
387.0 0.002584 373.61362 386.13223
348.0 0.002874 373.69049 386.44080
402.0 0.002488 373.76755 387.16699
436.0 0.002294 373.84470 388.48193
393.0 0.002545 373.92200 390.54147
390.0 0.002564 373.99930 393.38983
373.0 0.002681 374.07657 396.83051
407.0 0.002457 374.15421 400.42255
426.0 0.002347 374.23175 403.11081
397.0 0.002519 374.30948 403.89368
407.0 0.002457 374.38724 402.64417
410.0 0.002439 374.46512 400.12701
412.0 0.002427 374.54306 397.34589
402.0 0.002488 374.62112 395.16269
367.0 0.002725 374.69937 393.65875
389.0 0.002571 374.77771 392.69220
376.0 0.002660 374.85596 391.94235
374.0 0.002674 374.93454 391.20563
365.0 0.002740 375.01309 390.35318
367.0 0.002725 375.09180 389.36655
387.0 0.002584 375.17065 388.46542
396.0 0.002525 375.24945 387.84665
367.0 0.002725 375.32852 387.51282
355.0 0.002817 375.40768 387.77823
358.0 0.002793 375.48694 388.59412
369.0 0.002710 375.56635 390.11588
395.0 0.002532 375.64569 392.39120
405.0 0.002469 375.72537 395.20978
406.0 0.002463 375.80505 398.61389
394.0 0.002538 375.88492 402.18488
375.0 0.002667 375.96497 405.29514
361.0 0.002770 376.04486 407.49353
371.0 0.002695 376.12518 408.82455
377.0 0.002653 376.20544 409.43558
418.0 0.002392 376.28598 409.01187
435.0 0.002299 376.36649 407.29227
398.0 0.002513 376.44717 404.57584
391.0 0.002558 376.52811 401.63223
387.0 0.002584 376.60904 399.17123
386.0 0.002591 376.69012 397.57217
378.0 0.002646 376.77139 397.09579
400.0 0.002500 376.85269 397.81769
398.0 0.002513 376.93423 400.02725
422.0 0.002370 377.01587 403.86459
425.0 0.002353 377.09778 409.33850
472.0 0.002119 377.17963 416.15933
494.0 0.002024 377.26166 423.53802
484.0 0.002066 377.34396 429.85721
424.0 0.002358 377.42630 433.08984
461.0 0.002169 377.50891 432.15939
431.0 0.002320 377.59158 428.19806
427.0 0.002342 377.67429 423.39191
419.0 0.002387 377.75735 419.33176
422.0 0.002370 377.84042 417.00092
405.0 0.002469 377.92383 416.31223
383.0 0.002611 378.00726 416.59253
386.0 0.002591 378.09076 416.93015
417.0 0.002398 378.17459 416.65829
416.0 0.002404 378.25848 415.78696
399.0 0.002506 378.34262 414.50366
386.0 0.002591 378.42694 412.67609
382.0 0.002618 378.51123 410.04050
414.0 0.002415 378.59589 406.76334
409.0 0.002445 378.68063 403.44211
402.0 0.002488 378.76569 400.61914
414.0 0.002415 378.85080 398.59045
391.0 0.002558 378.93597 397.51010
403.0 0.002481 379.02151 397.34622
402.0 0.002488 379.10718 398.17322
415.0 0.002410 379.19296 400.10385
417.0 0.002398 379.27908 403.06519
412.0 0.002427 379.36514 407.02197
436.0 0.002294 379.45163 411.72745
453.0 0.002208 379.53818 416.64648
449.0 0.002227 379.62503 420.93369
431.0 0.002320 379.71191 424.19525
415.0 0.002410 379.79901 427.00806
426.0 0.002347 379.88644 430.57138
483.0 0.002070 379.97391 435.68582
520.0 0.001923 380.06171 442.38556
532.0 0.001880 380.14969 449.61191
520.0 0.001923 380.23773 455.33627
477.0 0.002096 380.32617 457.45569
463.0 0.002160 380.41458 455.28754
442.0 0.002262 380.50348 450.32684
446.0 0.002242 380.59250 444.90237
469.0 0.002132 380.68161 440.64200
468.0 0.002137 380.77106 437.95172
476.0 0.002101 380.86063 436.38931
459.0 0.002179 380.95056 435.00311
454.0 0.002203 381.04062 432.54346
429.0 0.002331 381.13077 428.19650
405.0 0.002469 381.22137 422.39401
427.0 0.002342 381.31201 416.34781
424.0 0.002358 381.40314 410.92636
379.0 0.002639 381.49426 406.60095
402.0 0.002488 381.58554 403.51846
372.0 0.002688 381.67731 401.60046
354.0 0.002825 381.76920 400.70572
384.0 0.002604 381.86139 400.84000
405.0 0.002469 381.95374 402.05405
422.0 0.002370 382.04630 404.44241
412.0 0.002427 382.13916 408.24908
416.0 0.002404 382.23224 413.70953
413.0 0.002421 382.32565 421.01416
452.0 0.002212 382.41928 430.16895
443.0 0.002257 382.51312 440.49451
464.0 0.002155 382.60718 450.78397
473.0 0.002114 382.70157 458.99054
429.0 0.002331 382.79630 463.18906
466.0 0.002146 382.89117 462.63962
444.0 0.002252 382.98621 458.02576
425.0 0.002353 383.08173 450.98428
413.0 0.002421 383.17737 443.50854
432.0 0.002315 383.27335 437.11636
397.0 0.002519 383.36969 432.25833
404.0 0.002475 383.46603 428.73218
398.0 0.002513 383.56290 425.92429
446.0 0.002242 383.65991 423.62054
403.0 0.002481 383.75732 422.08966
417.0 0.002398 383.85495 421.67044
414.0 0.002415 383.95279 422.33615
442.0 0.002262 384.05109 423.63721
429.0 0.002331 384.14951 424.72705
419.0 0.002387 384.24841 424.66592
411.0 0.002433 384.34750 423.13046
388.0 0.002577 384.44675 420.89706
419.0 0.002387 384.54654 419.06641
401.0 0.002494 384.64642 418.37271
431.0 0.002320 384.74686 419.38937
423.0 0.002364 384.84741 422.12189
428.0 0.002336 384.94827 426.27844
468.0 0.002137 385.04953 431.13101
401.0 0.002494 385.15103 435.60065
443.0 0.002257 385.25293 438.68152
441.0 0.002268 385.35513 440.09396
437.0 0.002288 385.45755 440.04962
423.0 0.002364 385.56042 438.83582
440.0 0.002273 385.66351 436.70264
454.0 0.002203 385.76709 434.06219
430.0 0.002326 385.87094 431.40436
414.0 0.002415 385.97504 429.22247
420.0 0.002381 386.07953 428.13782
441.0 0.002268 386.18430 428.73840
466.0 0.002146 386.28955 431.32837
463.0 0.002160 386.39514 435.74429
469.0 0.002132 386.50085 441.23120
463.0 0.002160 386.60709 446.68402
435.0 0.002299 386.71368 450.64526
436.0 0.002294 386.82059 452.76981
457.0 0.002188 386.92798 453.12430
445.0 0.002247 387.03549 451.44949
423.0 0.002364 387.14362 447.69031
437.0 0.002288 387.25192 442.72836
427.0 0.002342 387.36069 437.76968
407.0 0.002457 387.46985 433.62720
440.0 0.002273 387.57919 430.32111
424.0 0.002358 387.68921 427.69995
384.0 0.002604 387.79941 425.75818
442.0 0.002262 387.91019 424.48343
411.0 0.002433 388.02115 423.49402
421.0 0.002375 388.13242 422.71530
403.0 0.002481 388.24435 422.27432
430.0 0.002326 388.35648 422.38965
433.0 0.002309 388.46918 423.36142
424.0 0.002358 388.58215 424.97906
430.0 0.002326 388.69540 426.78894
432.0 0.002315 388.80927 428.17267
397.0 0.002519 388.92346 428.63266
435.0 0.002299 389.03827 428.51605
392.0 0.002551 389.15317 428.60641
423.0 0.002364 389.26852 429.83325
446.0 0.002242 389.38455 432.58093
440.0 0.002273 389.50070 436.84967
461.0 0.002169 389.61752 442.26703
447.0 0.002237 389.73477 448.40781
458.0 0.002183 389.85217 454.76544
476.0 0.002101 389.97028 460.95697
522.0 0.001916 390.08865 466.19284
509.0 0.001965 390.20773 469.58081
471.0 0.002123 390.32709 470.44937
493.0 0.002028 390.44675 468.60971
470.0 0.002128 390.56699 464.78662
452.0 0.002212 390.68765 460.35645
440.0 0.002273 390.80890 456.64474
405.0 0.002469 390.93060 454.55807
434.0 0.002304 391.05258 454.41098
425.0 0.002353 391.17514 455.72299
454.0 0.002203 391.29819 457.14084
458.0 0.002183 391.42175 457.07562
434.0 0.002304 391.54568 455.09604
448.0 0.002232 391.67001 452.12122
466.0 0.002146 391.79501 449.35040
428.0 0.002336 391.92035 447.47162
426.0 0.002347 392.04633 446.26425
449.0 0.002227 392.17282 444.88217
433.0 0.002309 392.29950 442.36786
418.0 0.002392 392.42706 438.61929
405.0 0.002469 392.55481 434.33112
397.0 0.002519 392.68338 430.44617
426.0 0.002347 392.81226 427.59113
433.0 0.002309 392.94156 426.03802
414.0 0.002415 393.07153 425.76944
418.0 0.002392 393.20197 426.63162
438.0 0.002283 393.33295 428.38391
454.0 0.002203 393.46454 430.50833
451.0 0.002217 393.59634 432.53467
449.0 0.002227 393.72903 433.98001
460.0 0.002174 393.86206 434.54593
438.0 0.002283 393.99573 434.14172
428.0 0.002336 394.12994 433.44290
446.0 0.002242 394.26453 433.20633
420.0 0.002381 394.39999 434.03348
417.0 0.002398 394.53571 436.20908
435.0 0.002299 394.67224 439.59677
490.0 0.002041 394.80911 443.78024
478.0 0.002092 394.94644 447.95963
469.0 0.002132 395.08472 451.38892
461.0 0.002169 395.22321 453.97650
480.0 0.002083 395.36258 455.72736
430.0 0.002326 395.50235 456.78024
441.0 0.002268 395.64255 457.62460
441.0 0.002268 395.78369 459.16675
468.0 0.002137 395.92514 462.20102
455.0 0.002198 396.06735 467.26953
504.0 0.001984 396.21021 474.85776
558.0 0.001792 396.35333 485.24207
583.0 0.001715 396.49731 497.96243
603.0 0.001658 396.64188 510.88873
552.0 0.001812 396.78711 520.32922
557.0 0.001795 396.93301 522.26196
516.0 0.001938 397.07925 515.28967
466.0 0.002146 397.22629 501.87231
449.0 0.002227 397.37393 486.32535
426.0 0.002347 397.52228 471.82446
445.0 0.002247 397.67120 460.07080
452.0 0.002212 397.82065 451.70993
448.0 0.002232 397.97092 446.70764
466.0 0.002146 398.12167 444.74042
464.0 0.002155 398.27332 445.17920
474.0 0.002110 398.42545 447.11612
431.0 0.002320 398.57803 449.33755
422.0 0.002370 398.73166 450.76721
442.0 0.002262 398.88568 450.97009
452.0 0.002212 399.04059 450.64706
474.0 0.002110 399.19611 450.67181
437.0 0.002288 399.35208 451.10922
433.0 0.002309 399.50900 451.77957
456.0 0.002193 399.66641 452.23239
484.0 0.002066 399.82474 452.25082
475.0 0.002105 399.98364 452.04593
457.0 0.002188 400.14307 452.08875
440.0 0.002273 400.30344 453.00021
457.0 0.002188 400.46439 455.43692
481.0 0.002079 400.62622 459.70361
492.0 0.002033 400.78864 465.45615
490.0 0.002041 400.95154 471.36697
515.0 0.001942 401.11554 475.48819
487.0 0.002053 401.28003 475.86496
437.0 0.002288 401.44550 472.10803
443.0 0.002257 401.61160 466.08615
450.0 0.002222 401.77817 459.78244
464.0 0.002155 401.94586 454.59982
468.0 0.002137 402.11407 451.04083
461.0 0.002169 402.28323 448.94370
474.0 0.002110 402.45309 447.66214
467.0 0.002141 402.62347 446.54388
467.0 0.002141 402.79480 445.26157
451.0 0.002217 402.96683 443.69006
435.0 0.002299 403.13977 441.87546
417.0 0.002398 403.31357 439.66885
403.0 0.002481 403.48773 437.12610
438.0 0.002283 403.66306 434.68225
437.0 0.002288 403.83902 432.78903
419.0 0.002387 404.01593 431.71017
417.0 0.002398 404.19354 431.30756
426.0 0.002347 404.37177 431.44183
435.0 0.002299 404.55106 431.84882
447.0 0.002237 404.73102 432.46085
468.0 0.002137 404.91193 433.21198
415.0 0.002410 405.09372 434.22757
447.0 0.002237 405.27594 435.73560
430.0 0.002326 405.45944 437.93500
404.0 0.002475 405.64349 440.67184
460.0 0.002174 405.82861 443.87323
478.0 0.002092 406.01440 447.36304
457.0 0.002188 406.20096 451.11987
501.0 0.001996 406.38867 455.22433
459.0 0.002179 406.57700 459.64621
488.0 0.002049 406.76636 464.03091
491.0 0.002037 406.95648 467.82037
477.0 0.002096 407.14731 470.33569
459.0 0.002179 407.33932 471.10117
440.0 0.002273 407.53201 470.31854
463.0 0.002160 407.72583 468.63049
439.0 0.002278 407.92035 466.80441
474.0 0.002110 408.11563 465.37219
456.0 0.002193 408.31216 464.76163
486.0 0.002058 408.50925 464.82065
456.0 0.002193 408.70755 464.78064
458.0 0.002183 408.90668 463.50644
444.0 0.002252 409.10645 460.69312
440.0 0.002273 409.30759 456.67581
442.0 0.002262 409.50928 452.70419
441.0 0.002268 409.71222 449.68631
433.0 0.002309 409.91608 448.06442
442.0 0.002262 410.12045 447.99994
438.0 0.002283 410.32623 449.21652
452.0 0.002212 410.53278 451.12173
471.0 0.002123 410.74051 452.94229
452.0 0.002212 410.94907 453.82257
444.0 0.002252 411.15829 453.97424
437.0 0.002288 411.36890 453.74835
447.0 0.002237 411.58026 453.72488
452.0 0.002212 411.79288 454.37750
439.0 0.002278 412.00632 456.02603
445.0 0.002247 412.22052 458.81821
460.0 0.002174 412.43597 462.77295
477.0 0.002096 412.65237 467.83914
496.0 0.002016 412.86993 473.93460
471.0 0.002123 413.08838 480.98013
469.0 0.002132 413.30771 488.98828
494.0 0.002024 413.52844 498.00061
511.0 0.001957 413.74979 507.99390
533.0 0.001876 413.97253 518.47424
587.0 0.001704 414.19623 528.48932
598.0 0.001672 414.42059 536.35608
538.0 0.001859 414.64651 539.94727
515.0 0.001942 414.87323 537.69122
522.0 0.001916 415.10123 529.67767
523.0 0.001912 415.33014 517.98376
497.0 0.002012 415.55988 505.41885
492.0 0.002033 415.79111 493.80389
457.0 0.002188 416.02316 484.07349
473.0 . . .
loop_
_refln_index_h
_refln_index_k
_refln_index_l
_pd_refln_wavelength_id
_refln_observed_status
_refln_F_squared_meas
_refln_F_squared_calc
_refln_phase_calc
_refln_d_spacing
_gsas_i100_meas
0 2 0 1 o 42775.04 38875.76 0.00 6.67813 15.20
0 2 0 2 o 42775.97 38875.76 0.00 6.67813 7.56
1 1 1 1 o 18841.740 18403.723 0.00 6.04453 18.76
1 1 1 2 o 18101.424 18403.723 0.00 6.04453 8.93
2 0 0 1 o 700.778 867.301 180.00 4.81178 0.00
2 0 0 2 o 700.778 867.301 180.00 4.81178 0.00
0 0 2 1 o 32599.834 35393.08 0.00 4.77455 3.61
0 0 2 2 o 33733.648 35393.08 0.00 4.77455 1.89
1 2 1 1 o 6362.880 6628.395 0.00 4.75721 2.33
1 2 1 2 o 6141.553 6628.395 0.00 4.75721 1.08
2 1 0 1 o 161395.83 161710.89 180.00 4.52696 40.77
2 1 0 2 o 160680.69 161710.89 180.00 4.52696 20.17
1 0 2 1 o 221597.06 226066.06 0.00 4.27709 49.77
1 0 2 2 o 217486.06 226066.06 0.00 4.27709 24.23
2 1 1 1 o 123559.09 117599.08 0.00 4.09057 52.41
2 1 1 2 o 121335.13 117599.08 0.00 4.09057 25.54
1 1 2 1 o 121420.68 118999.92 0.00 4.07333 50.68
1 1 2 2 o 118005.81 118999.92 0.00 4.07333 24.40
0 3 1 1 o 429391.4 442842.3 180.00 4.03508 100.00
0 3 1 2 o 434610.2 442842.3 180.00 4.03508 50.45
2 2 0 1 o 87040.68 81373.76 180.00 3.90395 17.30
2 2 0 2 o 82514.33 81373.76 180.00 3.90395 8.09
0 2 2 1 o 51400.01 51888.25 0.00 3.88398 10.00
0 2 2 2 o 52814.07 51888.25 0.00 3.88398 5.13
1 3 1 1 o 82109.85 76798.23 180.00 3.72121 32.47
1 3 1 2 o 80776.68 76798.23 180.00 3.72121 15.85
2 2 1 1 o 182234.56 177249.81 180.00 3.61362 61.59
2 2 1 2 o 180278.52 177249.81 180.00 3.61362 30.26
1 2 2 1 o 476.560 465.069 0.00 3.60171 0.16
1 2 2 2 o 325.627 465.069 0.00 3.60171 0.05
2 0 2 1 o 152689.95 143270.06 180.00 3.38920 22.86
2 0 2 2 o 153640.83 143270.06 180.00 3.38920 11.45
0 4 0 1 o 148250.75 139847.63 180.00 3.33906 13.29
0 4 0 2 o 144445.17 139847.63 180.00 3.33906 6.43
2 1 2 1 o 12650.149 13228.824 180.00 3.28509 3.50
2 1 2 2 o 12575.666 13228.824 180.00 3.28509 1.73
2 3 0 1 o 38848.53 42663.43 180.00 3.26787 5.32
2 3 0 2 o 35005.535 42663.43 180.00 3.26787 2.33
0 1 3 1 o 148232.44 148519.34 180.00 3.09632 17.18
2 3 1 1 o 40824.71 40556.97 0.00 3.09183 10.25
0 1 3 2 o 151152.41 148519.34 180.00 3.09632 8.74
1 3 2 1 o 28134.879 26652.500 0.00 3.08437 7.07
2 3 1 2 o 42869.84 40556.97 0.00 3.09183 5.40
1 3 2 2 o 28922.586 26652.500 0.00 3.08437 3.63
2 2 2 1 o 59902.42 58457.91 180.00 3.02226 13.57
2 2 2 2 o 58112.45 58457.91 180.00 3.02226 6.52
1 4 1 1 o 16755.547 17593.617 180.00 2.99536 4.30
1 4 1 2 o 17058.451 17593.617 180.00 2.99536 2.19
3 1 1 1 o 65488.23 62885.20 0.00 2.96498 14.27
3 1 1 2 o 63467.42 62885.20 0.00 2.96498 6.85
1 1 3 1 o 165.404 491.753 0.00 2.94751 0.00
1 1 3 2 o 165.404 491.753 0.00 2.94751 0.00
3 2 1 1 o 31809.008 30214.711 180.00 2.76746 6.19
3 2 1 2 o 29964.314 30214.711 180.00 2.76746 2.88
1 2 3 1 o 116671.49 123221.98 0.00 2.75324 21.86
1 2 3 2 o 117807.73 123221.98 0.00 2.75324 11.00
2 4 0 1 o 98404.62 99496.95 180.00 2.74326 10.05
2 4 0 2 o 98463.71 99496.95 180.00 2.74326 5.00
0 4 2 1 o 30931.771 31312.996 0.00 2.73631 3.29
0 4 2 2 o 28712.117 31312.996 0.00 2.73631 1.51
2 3 2 1 o 2287.925 3972.549 180.00 2.69671 0.43
2 3 2 2 o 2332.896 3972.549 180.00 2.69671 0.22
3 0 2 1 o 85671.54 80433.48 0.00 2.66269 7.01
3 0 2 2 o 82932.45 80433.48 0.00 2.66269 3.35
2 4 1 1 o 23886.908 22581.570 0.00 2.63662 4.34
1 4 2 1 o 32334.451 30924.797 180.00 2.63198 5.86
2 4 1 2 o 23501.260 22581.570 0.00 2.63662 2.12
1 4 2 2 o 32657.227 30924.797 180.00 2.63198 2.95
3 1 2 1 o 26676.324 27032.359 180.00 2.61130 4.11
3 1 2 2 o 27326.582 27032.359 180.00 2.61130 2.11
2 1 3 1 o 26896.297 26879.271 0.00 2.60381 4.18
2 1 3 2 o 25966.258 26879.271 0.00 2.60381 1.99
0 3 3 1 o 21.318 25.994 0.00 2.58932 0.00
0 3 3 2 o 30.370 25.994 0.00 2.58932 0.00
0 5 1 1 o 60974.54 60845.59 180.00 2.57249 5.38
0 5 1 2 o 60151.18 60845.59 180.00 2.57249 2.63
3 3 1 1 o 28762.434 26255.658 180.00 2.51103 4.45
3 3 1 2 o 26545.855 26255.658 180.00 2.51103 2.01
1 3 3 1 o 115863.04 115414.86 180.00 2.50040 17.49
1 3 3 2 o 112463.69 115414.86 180.00 2.50040 8.39
1 5 1 1 o 6266.890 6227.019 180.00 2.48523 1.07
1 5 1 2 o 6261.619 6227.019 180.00 2.48523 0.53
3 2 2 1 o 17813.625 18494.893 180.00 2.47334 2.43
3 2 2 2 o 17854.205 18494.893 180.00 2.47334 1.21
2 2 3 1 o 25365.482 26303.850 0.00 2.46697 3.42
2 2 3 2 o 25278.555 26303.850 0.00 2.46697 1.69
4 0 0 1 o 15816.388 15523.998 180.00 2.40589 0.45
4 0 0 2 o 16624.609 15523.998 180.00 2.40589 0.24
0 0 4 1 o 48713.43 43820.96 180.00 2.38728 1.53
0 0 4 2 o 43284.23 43820.96 180.00 2.38728 0.66
2 4 2 1 o 26530.611 27668.000 180.00 2.37860 3.40
2 4 2 2 o 26706.467 27668.000 180.00 2.37860 1.70
4 1 0 1 o 15141.872 12751.455 180.00 2.36778 0.99
4 1 0 2 o 16265.420 12751.455 180.00 2.36778 0.54
2 5 0 1 o 161920.83 144020.50 0.00 2.33550 11.63
2 5 0 2 o 156214.98 144020.50 0.00 2.33550 5.54
1 0 4 1 o 34716.293 30313.602 0.00 2.31705 2.00
1 0 4 2 o 38405.43 30313.602 0.00 2.31705 1.13
4 1 1 1 o 161029.84 151595.11 180.00 2.29818 19.34
4 1 1 2 o 158030.97 151595.11 180.00 2.29818 9.40
3 3 2 1 o 26859.795 23569.146 180.00 2.28517 3.64
1 1 4 1 o 2921.855 2656.621 0.00 2.28295 0.30
2 3 3 1 o 31296.213 27699.867 0.00 2.28015 3.76
3 3 2 2 o 27244.896 23569.146 180.00 2.28517 1.84
1 1 4 2 o 2942.553 2656.621 0.00 2.28295 0.15
2 3 3 2 o 31224.586 27699.867 0.00 2.28015 1.86
2 5 1 1 o 36401.71 35020.262 0.00 2.26863 4.84
1 5 2 1 o 58159.32 58935.50 180.00 2.26568 7.30
4 2 0 1 o 71112.48 72775.47 0.00 2.26348 4.06
2 5 1 2 o 34120.738 35020.262 0.00 2.26863 2.22
1 5 2 2 o 56538.14 58935.50 180.00 2.26568 3.50
4 2 0 2 o 71487.89 72775.47 0.00 2.26348 2.03
3 4 1 1 o 4941.779 4466.372 0.00 2.24826 0.62
0 2 4 1 o 65040.18 58871.60 0.00 2.24796 3.83
3 4 1 2 o 4616.082 4466.372 0.00 2.24826 0.29
0 2 4 2 o 60926.17 58871.60 0.00 2.24796 1.76
1 4 3 1 o 18227.152 17480.883 180.00 2.24062 2.26
1 4 3 2 o 19547.502 17480.883 180.00 2.24062 1.22
3 1 3 1 o 59977.52 56321.05 0.00 2.22781 6.38
0 6 0 1 o 189951.44 175842.17 0.00 2.22604 6.35
3 1 3 2 o 58739.02 56321.05 0.00 2.22781 3.09
0 6 0 2 o 192650.86 175842.17 0.00 2.22604 3.21
4 2 1 1 o 16743.145 16334.953 180.00 2.20245 1.95
4 2 1 2 o 16348.730 16334.953 180.00 2.20245 0.94
1 2 4 1 o 9423.009 11278.319 0.00 2.18903 0.97
1 2 4 2 o 8203.373 11278.319 0.00 2.18903 0.40
4 0 2 1 o -485.737 149.164 180.00 2.14853 0.00
4 0 2 2 o -315.109 149.164 180.00 2.14853 0.01
3 2 3 1 o 3224.881 3024.396 180.00 2.14028 0.19
2 0 4 1 o 10209.110 9252.850 180.00 2.13854 0.40
3 2 3 2 o 2952.294 3024.396 180.00 2.14028 0.08
2 0 4 2 o 8733.081 9252.850 180.00 2.13854 0.15
4 1 2 1 o 5207.941 4721.336 180.00 2.12126 0.62
4 3 0 1 o 1488.211 1350.460 180.00 2.11660 0.07
4 1 2 2 o 5290.577 4721.336 180.00 2.12126 0.31
1 6 1 1 o 108.532 104.304 180.00 2.11492 0.01
2 1 4 1 o 106008.41 105384.72 0.00 2.11165 10.80
4 3 0 2 o 1357.350 1350.460 180.00 2.11660 0.03
1 6 1 2 o 104.713 104.304 180.00 2.11492 0.00
2 1 4 2 o 104454.83 105384.72 0.00 2.11165 5.28
2 5 2 1 o 21358.262 16759.471 0.00 2.09795 2.62
2 5 2 2 o 21598.838 16759.471 0.00 2.09795 1.32
3 4 2 1 o 107473.03 108858.91 180.00 2.08181 10.76
2 4 3 1 o 7182.087 7593.116 180.00 2.07801 0.74
3 4 2 2 o 106727.02 108858.91 180.00 2.08181 5.31
2 4 3 2 o 7542.632 7593.116 180.00 2.07801 0.39
4 3 1 1 o 5163.133 5896.405 0.00 2.06645 0.50
4 3 1 2 o 5181.817 5896.405 0.00 2.06645 0.25
1 3 4 1 o 3115.013 3319.421 0.00 2.05535 0.31
1 3 4 2 o 3659.229 3319.421 0.00 2.05535 0.18
0 5 3 1 o 34685.230 34243.809 180.00 2.04618 1.91
4 2 2 1 o 47115.15 46137.40 0.00 2.04529 4.48
0 5 3 2 o 34179.570 34243.809 180.00 2.04618 0.93
4 2 2 2 o 48017.54 46137.40 0.00 2.04529 2.28
2 2 4 1 o 18713.211 16975.705 180.00 2.03666 1.75
2 2 4 2 o 17573.381 16975.705 180.00 2.03666 0.81
2 6 0 1 o 39997.69 37634.60 180.00 2.02032 2.23
0 6 2 1 o 64846.18 62427.49 0.00 2.01754 3.50
2 6 0 2 o 36374.73 37634.60 180.00 2.02032 0.99
3 3 3 1 o 14990.275 15531.720 180.00 2.01484 1.26
0 6 2 2 o 62124.41 62427.49 0.00 2.01754 1.65
3 3 3 2 o 14050.605 15531.720 180.00 2.01484 0.57
3 5 1 1 o 906.808 698.813 180.00 2.00688 0.11
3 5 1 2 o 713.643 698.813 180.00 2.00688 0.04
1 5 3 1 o 19544.777 19218.988 180.00 2.00144 1.89
1 5 3 2 o 16961.080 19218.988 180.00 2.00144 0.79
2 6 1 1 o 69435.77 65717.77 0.00 1.97657 7.17
1 6 2 1 o 67083.38 62879.86 0.00 1.97461 6.89
2 6 1 2 o 66603.66 65717.77 0.00 1.97657 3.40
1 6 2 2 o 65758.00 62879.86 0.00 1.97461 3.35
4 4 0 1 o 253915.78 267754.50 0.00 1.95197 11.03
4 4 0 2 o 250157.97 267754.50 0.00 1.95197 5.39
0 4 4 1 o 155445.25 166590.91 0.00 1.94199 6.43
0 4 4 2 o 154188.05 166590.91 0.00 1.94199 3.16
4 3 2 1 o 4870.671 5192.511 180.00 1.93499 0.51
4 3 2 2 o 5046.063 5192.511 180.00 1.93499 0.26
2 3 4 1 o 36974.25 38044.36 0.00 1.92769 3.27
2 3 4 2 o 35111.28 38044.36 0.00 1.92769 1.53
3 0 4 1 o 1175.061 1015.118 180.00 1.91514 0.06
4 4 1 1 o 1832.119 2142.983 0.00 1.91243 0.15
3 0 4 2 o 603.692 1015.118 180.00 1.91514 0.01
4 4 1 2 o 1640.056 2142.983 0.00 1.91243 0.07
1 4 4 1 o 3850.816 5918.368 0.00 1.90362 0.34
4 1 3 1 o 6712.918 7115.169 180.00 1.89979 0.56
1 4 4 2 o 5472.694 5918.368 0.00 1.90362 0.25
3 1 4 1 o 12097.827 12347.354 180.00 1.89575 1.04
4 1 3 2 o 7204.603 7115.169 180.00 1.89979 0.30
3 1 4 2 o 12357.301 12347.354 180.00 1.89575 0.53
0 1 5 1 o 94464.13 95092.00 180.00 1.89059 3.59
0 1 5 2 o 93595.53 95092.00 180.00 1.89059 1.76
3 5 2 1 o 31544.168 32042.715 0.00 1.88583 2.63
2 5 3 1 o 22105.902 21644.393 0.00 1.88300 1.82
3 5 2 2 o 32213.176 32042.715 0.00 1.88583 1.34
2 5 3 2 o 21593.965 21644.393 0.00 1.88300 0.88
3 4 3 1 o 18753.574 15504.559 0.00 1.87130 1.67
0 7 1 1 o 32339.920 26451.203 0.00 1.87105 1.64
5 1 1 1 o 80.463 79.862 180.00 1.86822 0.00
3 4 3 2 o 17691.678 15504.559 0.00 1.87130 0.78
0 7 1 2 o 30692.270 26451.203 0.00 1.87105 0.77
5 1 1 2 o 79.114 79.862 180.00 1.86822 0.00
2 6 2 1 o 14429.226 16075.489 180.00 1.86061 1.10
2 6 2 2 o 14994.859 16075.489 180.00 1.86061 0.58
1 1 5 1 o 30855.619 33446.172 180.00 1.85513 2.23
1 1 5 2 o 31786.941 33446.172 180.00 1.85513 1.15
4 2 3 1 o 8292.594 8271.627 0.00 1.84464 0.68
3 2 4 1 o 32901.227 30391.375 180.00 1.84094 2.54
4 2 3 2 o 8884.718 8271.627 0.00 1.84464 0.36
3 2 4 2 o 30175.381 30391.375 180.00 1.84094 1.14
1 7 1 1 o 23121.668 23224.498 0.00 1.83666 2.12
1 7 1 2 o 20113.781 23224.498 0.00 1.83666 0.90
5 2 1 1 o 73995.29 77953.26 180.00 1.81569 5.62
5 2 1 2 o 73226.63 77953.26 180.00 1.81569 2.76
4 4 2 1 o 93891.26 92069.26 0.00 1.80681 7.42
1 2 5 1 o 32170.756 32985.363 180.00 1.80367 2.63
4 4 2 2 o 90643.89 92069.26 0.00 1.80681 3.54
2 4 4 1 o 35613.11 35266.80 180.00 1.80086 2.99
1 2 5 2 o 34222.430 32985.363 180.00 1.80367 1.39
2 4 4 2 o 35623.80 35266.80 180.00 1.80086 1.49
3 6 1 1 o 31986.039 31494.578 0.00 1.79620 2.84
1 6 3 1 o 72780.95 69328.20 180.00 1.79229 6.19
3 6 1 2 o 32895.477 31494.578 0.00 1.79620 1.46
1 6 3 2 o 69488.62 69328.20 180.00 1.79229 2.92
4 5 0 1 o 9825.503 9802.879 0.00 1.78770 0.35
5 0 2 1 o 2740.701 3619.652 180.00 1.78512 0.08
4 5 0 2 o 8221.129 9802.879 0.00 1.78770 0.14
5 0 2 2 o 2634.496 3619.652 180.00 1.78512 0.04
2 7 0 1 o 2441.317 1869.517 180.00 1.77368 0.12
5 1 2 1 o 66500.59 59520.02 180.00 1.76939 4.52
2 7 0 2 o 2138.795 1869.517 180.00 1.77368 0.05
5 1 2 2 o 63954.75 59520.02 180.00 1.76939 2.14
4 3 3 1 o 87639.37 87200.13 180.00 1.76250 5.98
2 1 5 1 o 5460.467 5226.909 0.00 1.75964 0.36
3 3 4 1 o 1742.023 1680.194 180.00 1.75927 0.13
4 3 3 2 o 88774.54 87200.13 180.00 1.76250 3.02
4 5 1 1 o 16957.842 16681.834 180.00 1.75717 1.23
2 1 5 2 o 5432.812 5226.909 0.00 1.75964 0.18
0 3 5 1 o 51425.37 49137.56 0.00 1.75515 1.79
3 3 4 2 o 1770.807 1680.194 180.00 1.75927 0.06
4 5 1 2 o 16614.102 16681.834 180.00 1.75717 0.60
0 3 5 2 o 49280.14 49137.56 0.00 1.75515 0.85
1 5 4 1 o 15365.308 15497.786 180.00 1.75033 1.13
1 5 4 2 o 14415.969 15497.786 180.00 1.75033 0.52
2 7 1 1 o 40659.07 42767.89 0.00 1.74385 3.03
1 7 2 1 o 13.811 14.885 0.00 1.74251 0.00
2 7 1 2 o 36607.97 42767.89 0.00 1.74385 1.32
1 7 2 2 o 12.720 14.885 0.00 1.74251 0.00
5 3 1 1 o 350.792 443.309 0.00 1.73720 0.01
5 3 1 2 o 198.436 443.309 0.00 1.73720 0.00
1 3 5 1 o 4053.773 4853.778 180.00 1.72667 0.25
3 5 3 1 o 6837.771 7641.213 0.00 1.72511 0.54
5 2 2 1 o 9393.704 10112.715 0.00 1.72457 0.60
1 3 5 2 o 4610.567 4853.778 180.00 1.72667 0.14
3 5 3 2 o 6891.708 7641.213 0.00 1.72511 0.27
5 2 2 2 o 9439.478 10112.715 0.00 1.72457 0.30
2 2 5 1 o 113277.64 114503.59 0.00 1.71554 7.21
2 2 5 2 o 111724.73 114503.59 0.00 1.71554 3.53
3 6 2 1 o 12827.871 14006.796 0.00 1.70784 0.86
2 6 3 1 o 11644.592 11923.258 180.00 1.70574 0.78
3 6 2 2 o 14137.358 14006.796 0.00 1.70784 0.48
2 6 3 2 o 12537.991 11923.258 180.00 1.70574 0.42
4 0 4 1 o 280041.34 269732.13 0.00 1.69460 8.93
4 0 4 2 o 267350.72 269732.13 0.00 1.69460 4.21
4 1 4 1 o 17184.547 15104.275 0.00 1.68112 1.15
4 1 4 2 o 18948.596 15104.275 0.00 1.68112 0.64
4 5 2 1 o 3847.031 3455.361 0.00 1.67419 0.29
4 5 2 2 o 3541.732 3455.361 0.00 1.67419 0.13
2 5 4 1 o 98098.24 99102.40 180.00 1.66945 6.26
0 8 0 1 o 238877.42 240379.75 0.00 1.66953 4.56
2 5 4 2 o 92397.05 99102.40 180.00 1.66945 2.89
0 8 0 2 o 222662.41 240379.75 0.00 1.66953 2.09
4 4 3 1 o 110.068 115.081 180.00 1.66400 0.01
2 7 2 1 o 717.739 780.641 0.00 1.66266 0.06
3 4 4 1 o 47863.69 51217.84 180.00 1.66128 2.91
4 4 3 2 o 105.535 115.081 180.00 1.66400 0.00
2 7 2 2 o 688.539 780.641 0.00 1.66266 0.03
3 4 4 2 o 51564.29 51217.84 180.00 1.66128 1.59
5 3 2 1 o 17541.332 17187.799 180.00 1.65689 1.05
5 3 2 2 o 18140.318 17187.799 180.00 1.65689 0.54
2 3 5 1 o 28092.918 29958.668 0.00 1.64888 1.68
2 3 5 2 o 27515.252 29958.668 0.00 1.64888 0.81
5 4 1 1 o 7430.764 6416.627 0.00 1.64266 0.44
4 2 4 1 o 6587.388 5597.120 0.00 1.64254 0.41
5 4 1 2 o 6503.349 6416.627 0.00 1.64266 0.19
4 2 4 2 o 5693.410 5597.120 0.00 1.64254 0.17
0 7 3 1 o 106827.91 108186.05 180.00 1.63653 3.53
5 1 3 1 o 50634.79 47807.67 180.00 1.63464 3.09
4 6 0 1 o 1583.885 1501.527 180.00 1.63394 0.05
1 4 5 1 o 298.832 289.245 0.00 1.63374 0.01
0 7 3 2 o 106322.16 108186.05 180.00 1.63653 1.75
5 1 3 2 o 54830.92 47807.67 180.00 1.63464 1.68
4 6 0 2 o 1830.460 1501.527 180.00 1.63394 0.03
1 4 5 2 o 337.535 289.245 0.00 1.63374 0.01
3 1 5 1 o 13602.474 11159.443 0.00 1.62876 0.83
0 6 4 1 o 8675.451 7366.535 180.00 1.62807 0.29
3 1 5 2 o 11845.493 11159.443 0.00 1.62876 0.35
0 6 4 2 o 8566.404 7366.535 180.00 1.62807 0.14
1 8 1 1 o 32138.986 28727.146 0.00 1.62109 2.31
1 8 1 2 o 30407.117 28727.146 0.00 1.62109 1.08
3 7 1 1 o 53445.56 50909.92 0.00 1.61622 3.47
1 7 3 1 o 9627.273 9264.640 0.00 1.61337 0.60
3 7 1 2 o 52406.23 50909.92 0.00 1.61622 1.69
4 6 1 1 o 4253.742 4384.112 0.00 1.61053 0.26
1 7 3 2 o 8954.122 9264.640 0.00 1.61337 0.27
4 6 1 2 o 4302.424 4384.112 0.00 1.61053 0.13
1 6 4 1 o 28404.682 28177.098 0.00 1.60526 1.71
6 0 0 1 o 71446.34 69275.53 180.00 1.60393 0.92
1 6 4 2 o 27028.266 28177.098 0.00 1.60526 0.80
6 0 0 2 o 68099.47 69275.53 180.00 1.60393 0.43
5 2 3 1 o 45652.24 47943.66 180.00 1.59910 2.29
5 2 3 2 o 44138.51 47943.66 180.00 1.59910 1.09
3 2 5 1 o 591.213 641.680 180.00 1.59360 0.07
6 1 0 1 o 82897.48 89717.02 0.00 1.59248 2.31
0 0 6 1 o 27628.557 30358.910 180.00 1.59152 0.40
3 2 5 2 o 486.108 641.680 180.00 1.59360 0.03
6 1 0 2 o 81632.00 89717.02 0.00 1.59248 1.13
0 0 6 2 o 27915.104 30358.910 180.00 1.59152 0.20
3 6 3 1 o 1825.042 1802.824 0.00 1.58574 0.06
4 3 4 1 o 6481.561 6190.095 0.00 1.58375 0.40
3 6 3 2 o 1531.926 1802.824 0.00 1.58574 0.02
4 3 4 2 o 3772.824 6190.095 0.00 1.58375 0.11
2 8 0 1 o 1826.034 2226.832 180.00 1.57729 0.02
0 8 2 1 o 12730.555 15110.211 0.00 1.57596 0.30
5 4 2 1 o 30580.738 33447.820 0.00 1.57427 1.65
2 8 0 2 o 2130.458 2226.832 180.00 1.57729 0.02
0 8 2 2 o 13318.734 15110.211 0.00 1.57596 0.16
6 1 1 1 o 3152.842 3241.311 0.00 1.57079 0.14
5 4 2 2 o 32882.406 33447.820 0.00 1.57427 0.90
1 0 6 1 o 3376.757 3428.631 180.00 1.57019 0.10
2 4 5 1 o 22268.896 23252.568 180.00 1.56739 1.20
6 1 1 2 o 3102.709 3241.311 0.00 1.57079 0.07
1 0 6 2 o 3042.549 3428.631 180.00 1.57019 0.04
2 4 5 2 o 21409.791 23252.568 180.00 1.56739 0.57
6 2 0 1 o 18745.693 18103.244 180.00 1.55957 0.49
1 1 6 1 o 24574.186 23702.486 180.00 1.55945 1.24
4 5 3 1 o 32916.973 31300.404 180.00 1.55869 1.82
3 5 4 1 o 2694.765 2406.415 0.00 1.55645 0.14
2 8 1 1 o 44942.61 39917.60 180.00 1.55620 2.77
6 2 0 2 o 20172.850 18103.244 180.00 1.55957 0.27
1 1 6 2 o 26244.748 23702.486 180.00 1.55945 0.67
1 8 2 1 o 32727.928 29943.785 0.00 1.55525 1.98
4 5 3 2 o 33844.969 31300.404 180.00 1.55869 0.94
0 5 5 1 o 964.479 935.133 180.00 1.55359 0.02
3 5 4 2 o 2523.329 2406.415 0.00 1.55645 0.06
2 8 1 2 o 42206.21 39917.60 180.00 1.55620 1.28
1 8 2 2 o 30439.828 29943.785 0.00 1.55525 0.90
3 7 2 1 o 55.154 58.622 0.00 1.55095 0.00
0 5 5 2 o 767.252 935.133 180.00 1.55359 0.01
2 7 3 1 o 15705.129 20043.117 0.00 1.54937 0.89
0 2 6 1 o 8649.867 10587.878 0.00 1.54816 0.20
3 7 2 2 o 44.973 58.622 0.00 1.55095 0.00
4 6 2 1 o 16918.193 19152.527 0.00 1.54592 0.95
2 7 3 2 o 17907.961 20043.117 0.00 1.54937 0.52
5 3 3 1 o 2553.321 2804.042 0.00 1.54470 0.16
0 2 6 2 o 9920.542 10587.878 0.00 1.54816 0.12
2 6 4 1 o 27613.975 30009.742 180.00 1.54218 1.53
4 6 2 2 o 17631.094 19152.527 0.00 1.54592 0.50
5 5 1 1 o 2786.754 3014.156 180.00 1.54111 0.18
5 3 3 2 o 2611.356 2804.042 0.00 1.54470 0.08
3 3 5 1 o 29001.047 29886.557 0.00 1.53974 1.39
6 2 1 1 o 49079.79 51484.51 0.00 1.53918 2.44
2 6 4 2 o 27291.590 30009.742 180.00 1.54218 0.75
5 5 1 2 o 2678.275 3014.156 180.00 1.54111 0.09
3 3 5 2 o 28890.127 29886.557 0.00 1.53974 0.69
6 2 1 2 o 50143.70 51484.51 0.00 1.53918 1.25
1 5 5 1 o 19290.137 20520.721 180.00 1.53374 1.05
1 5 5 2 o 21311.617 20520.721 180.00 1.53374 0.58
1 2 6 1 o 33938.113 32396.688 0.00 1.52851 1.68
1 2 6 2 o 34268.848 32396.688 0.00 1.52851 0.84
6 0 2 1 o 43616.34 48828.58 180.00 1.52043 1.08
6 0 2 2 o 46832.97 48828.58 180.00 1.52043 0.59
4 4 4 1 o 31882.111 35924.46 180.00 1.51113 1.69
2 0 6 1 o 22628.012 25566.311 180.00 1.51101 0.59
6 1 2 1 o -0.851 1.821 0.00 1.51067 0.00
6 3 0 1 o 32109.496 33521.199 0.00 1.50899 0.85
4 4 4 2 o 32861.188 35924.46 180.00 1.51113 0.87
2 0 6 2 o 23209.342 25566.311 180.00 1.51101 0.30
6 1 2 2 o -0.352 1.821 0.00 1.51067 0.00
6 3 0 2 o 34492.457 33521.199 0.00 1.50899 0.46
2 1 6 1 o 16832.529 15950.906 0.00 1.50143 0.78
5 0 4 1 o 2658.851 2753.095 0.00 1.49838 0.06
2 1 6 2 o 15043.697 15950.906 0.00 1.50143 0.34
2 8 2 1 o 41477.40 44441.59 180.00 1.49768 2.46
4 7 0 1 o 2299.199 2359.927 180.00 1.49497 0.08
5 0 4 2 o 2687.802 2753.095 0.00 1.49838 0.03
2 8 2 2 o 42794.37 44441.59 180.00 1.49768 1.27
4 7 0 2 o 2269.304 2359.927 180.00 1.49497 0.04
6 3 1 1 o 67046.73 70921.47 0.00 1.49049 3.15
5 1 4 1 o 6420.996 6768.566 180.00 1.48904 0.29
6 3 1 2 o 66407.98 70921.47 0.00 1.49049 1.55
4 1 5 1 o 5674.030 5961.500 0.00 1.48653 0.25
5 1 4 2 o 6452.893 6768.566 180.00 1.48904 0.14
5 5 2 1 o 83731.41 88088.13 0.00 1.48421 4.07
4 1 5 2 o 5941.243 5961.500 0.00 1.48653 0.13
6 2 2 1 o 16530.119 16253.050 180.00 1.48249 0.75
1 3 6 1 o 8752.446 8953.568 180.00 1.48079 0.41
5 5 2 2 o 85570.15 88088.13 0.00 1.48421 2.08
6 2 2 2 o 16569.025 16253.050 180.00 1.48249 0.37
2 5 5 1 o 18110.512 17765.066 0.00 1.47844 0.92
1 3 6 2 o 9036.206 8953.568 180.00 1.48079 0.21
5 4 3 1 o 14349.400 14226.406 0.00 1.47710 0.68
4 7 1 1 o 165306.39 164145.19 180.00 1.47698 8.53
2 5 5 2 o 17213.174 17765.066 0.00 1.47844 0.43
2 2 6 1 o 4426.063 4422.001 180.00 1.47376 0.20
5 4 3 2 o 14462.139 14226.406 0.00 1.47710 0.34
4 7 1 2 o 167893.09 164145.19 180.00 1.47698 4.32
1 7 4 1 o 81.244 78.041 0.00 1.47291 0.00
3 4 5 1 o 873.361 843.115 180.00 1.47276 0.04
2 2 6 2 o 5517.547 4422.001 180.00 1.47376 0.13
1 7 4 2 o 96.810 78.041 0.00 1.47291 0.00
3 4 5 2 o 1001.582 843.115 180.00 1.47276 0.03
0 9 1 1 o 49577.18 46376.18 180.00 1.46643 1.36
3 8 1 1 o 5346.357 4770.441 180.00 1.46347 0.27
0 9 1 2 o 53636.41 46376.18 180.00 1.46643 0.75
5 2 4 1 o 14163.926 12093.609 0.00 1.46203 0.65
1 8 3 1 o 25854.773 23410.541 0.00 1.46135 1.32
4 2 5 1 o 7119.819 6576.971 0.00 1.45966 0.31
3 8 1 2 o 5163.565 4770.441 180.00 1.46347 0.13
5 2 4 2 o 12439.800 12093.609 0.00 1.46203 0.28
3 7 3 1 o 82594.55 83036.37 0.00 1.45778 3.97
1 8 3 2 o 23260.059 23410.541 0.00 1.46135 0.58
4 2 5 2 o 6637.890 6576.971 0.00 1.45966 0.14
3 7 3 2 o 85353.57 83036.37 0.00 1.45778 2.06
4 6 3 1 o 822.068 765.516 180.00 1.45361 0.04
3 6 4 1 o 1732.036 1419.249 180.00 1.45179 0.09
4 6 3 2 o 1011.198 765.516 180.00 1.45361 0.02
1 9 1 1 o 3860.831 2831.413 180.00 1.44969 0.21
3 6 4 2 o 1902.598 1419.249 180.00 1.45179 0.05
1 9 1 2 o 5232.052 2831.413 180.00 1.44969 0.15
6 4 0 1 o 5363.039 2728.139 180.00 1.44578 0.14
6 4 0 2 o 4877.331 2728.139 180.00 1.44578 0.06
5 6 1 1 o 37240.02 34408.805 0.00 1.43931 1.88
6 3 2 1 o 578.405 548.287 180.00 1.43884 0.04
0 4 6 1 o 103192.62 101442.81 0.00 1.43667 2.48
5 6 1 2 o 38644.36 34408.805 0.00 1.43931 0.98
6 3 2 2 o 667.013 548.287 180.00 1.43884 0.02
1 6 5 1 o 14787.347 13923.082 0.00 1.43330 0.80
0 4 6 2 o 110625.28 101442.81 0.00 1.43667 1.34
4 5 4 1 o 17442.789 14799.009 180.00 1.43095 0.86
2 3 6 1 o 2444.921 2143.138 0.00 1.43085 0.10
1 6 5 2 o 16263.256 13923.082 0.00 1.43330 0.44
6 4 1 1 o 13079.143 11229.556 180.00 1.42949 0.60
4 5 4 2 o 16166.602 14799.009 180.00 1.43095 0.40
2 3 6 2 o 2294.502 2143.138 0.00 1.43085 0.04
4 7 2 1 o 3636.431 3417.055 0.00 1.42667 0.22
6 4 1 2 o 11610.528 11229.556 180.00 1.42949 0.26
3 0 6 1 o 133648.42 126294.02 180.00 1.42569 2.86
6 1 3 1 o 37888.83 31913.410 0.00 1.42419 1.67
2 7 4 1 o 305.706 240.144 180.00 1.42373 0.02
4 7 2 2 o 3821.581 3417.055 0.00 1.42667 0.12
3 0 6 2 o 127145.70 126294.02 180.00 1.42569 1.34
1 4 6 1 o 90284.63 88706.63 0.00 1.42092 3.97
6 1 3 2 o 33194.422 31913.410 0.00 1.42419 0.71
5 3 4 1 o 321.165 301.670 180.00 1.42011 0.01
2 7 4 2 o 270.599 240.144 180.00 1.42373 0.01
4 3 5 1 o 123635.29 119851.47 180.00 1.41793 5.29
2 9 0 1 o 86613.09 84834.52 180.00 1.41811 2.17
3 1 6 1 o 15148.061 14315.650 0.00 1.41764 0.66
1 4 6 2 o 95328.85 88706.63 0.00 1.42092 2.11
5 3 4 2 o 318.498 301.670 180.00 1.42011 0.00
4 3 5 2 o 133301.97 119851.47 180.00 1.41793 2.88
2 9 0 2 o 92266.22 84834.52 180.00 1.41811 1.17
3 8 2 1 o 7762.238 7037.825 0.00 1.41448 0.37
3 1 6 2 o 16611.203 14315.650 0.00 1.41764 0.37
2 8 3 1 o 17855.695 14550.253 0.00 1.41329 0.90
3 8 2 2 o 9239.587 7037.825 0.00 1.41448 0.23
2 8 3 2 o 19944.561 14550.253 0.00 1.41329 0.51
2 9 1 1 o 24418.197 22181.051 0.00 1.40273 1.23
5 5 3 1 o 92.944 91.847 180.00 1.40195 0.00
1 9 2 1 o 52193.16 44752.13 0.00 1.40203 2.61
6 2 3 1 o 16758.641 14770.435 180.00 1.40050 0.70
2 9 1 2 o 24219.908 22181.051 0.00 1.40273 0.61
5 5 3 2 o 92.853 91.847 180.00 1.40195 0.00
1 9 2 2 o 51439.56 44752.13 0.00 1.40203 1.28
3 5 5 1 o 13072.136 10998.166 0.00 1.39824 0.54
6 2 3 2 o 18619.441 14770.435 180.00 1.40050 0.40
3 5 5 2 o 16100.744 10998.166 0.00 1.39824 0.35
3 2 6 1 o 10287.883 6597.823 180.00 1.39428 0.45
5 6 2 1 o 111.025 64.498 180.00 1.39264 0.00
3 2 6 2 o 10746.027 6597.823 180.00 1.39428 0.24
5 6 2 2 o 78.073 64.498 180.00 1.39264 0.00
2 6 5 1 o 53326.38 52491.36 180.00 1.38787 2.33
2 6 5 2 o 56194.66 52491.36 180.00 1.38787 1.23
6 4 2 1 o 9980.718 7831.087 180.00 1.38373 0.40
6 4 2 2 o 12284.271 7831.087 180.00 1.38373 0.26
2 4 6 1 o 1368.956 1409.860 0.00 1.37662 0.10
6 5 0 1 o 91884.91 95785.55 180.00 1.37509 1.96
6 5 0 2 o 95922.77 95785.55 180.00 1.37509 1.03
4 8 0 1 o 1237.223 1203.114 0.00 1.37163 0.04
2 4 6 2 o 1407.574 1409.860 0.00 1.37662 0.05
4 8 0 2 o 2431.290 1203.114 0.00 1.37163 0.04
0 8 4 1 o 562.277 190.108 0.00 1.36815 0.02
5 4 4 1 o 21312.871 13931.178 0.00 1.36705 0.90
4 4 5 1 o 2841.660 1869.553 180.00 1.36511 0.12
0 8 4 2 o 435.479 190.108 0.00 1.36815 0.01
5 4 4 2 o 19434.818 13931.178 0.00 1.36705 0.40
6 3 3 1 o 8403.895 5827.871 0.00 1.36352 0.36
4 4 5 2 o 2077.556 1869.553 180.00 1.36511 0.04
6 5 1 1 o 36648.39 34832.934 0.00 1.36105 1.53
6 3 3 2 o 6245.420 5827.871 0.00 1.36352 0.13
2 9 2 1 o 5480.206 4970.122 180.00 1.35942 0.27
3 3 6 1 o 3692.690 3492.209 0.00 1.35778 0.15
6 5 1 2 o 36962.66 34832.934 0.00 1.36105 0.77
4 8 1 1 o 5285.732 4974.081 180.00 1.35770 0.24
0 1 7 1 o 560.676 494.880 180.00 1.35710 0.01
2 9 2 2 o 5470.637 4970.122 180.00 1.35942 0.13
3 3 6 2 o 3514.131 3492.209 0.00 1.35778 0.07
1 8 4 1 o 17000.496 16968.795 0.00 1.35453 0.72
4 8 1 2 o 5022.582 4974.081 180.00 1.35770 0.11
7 1 1 1 o 719.016 717.026 180.00 1.35376 0.01
0 1 7 2 o 497.690 494.880 180.00 1.35710 0.00
1 5 6 1 o 34642.020 34516.039 0.00 1.35365 1.39
4 7 3 1 o 95.163 93.695 0.00 1.35315 0.00
3 7 4 1 o 92.535 107.776 0.00 1.35169 0.01
1 8 4 2 o 15793.754 16968.795 0.00 1.35453 0.33
7 1 1 2 o 710.837 717.026 180.00 1.35376 0.01
1 5 6 2 o 33905.500 34516.039 0.00 1.35365 0.67
4 7 3 2 o 94.079 93.695 0.00 1.35315 0.00
0 7 5 1 o 146125.63 145479.88 180.00 1.34982 3.07
5 1 5 1 o 6551.108 6323.198 180.00 1.34875 0.23
4 6 4 1 o 61547.63 58922.79 0.00 1.34836 2.43
3 7 4 2 o 114.359 107.776 0.00 1.35169 0.00
0 7 5 2 o 143927.94 145479.88 180.00 1.34982 1.50
5 1 5 2 o 6313.258 6323.198 180.00 1.34875 0.11
4 6 4 2 o 59213.16 58922.79 0.00 1.34836 1.15
0 9 3 1 o 7398.561 7358.181 180.00 1.34503 0.16
1 1 7 1 o 64010.20 61029.26 180.00 1.34380 2.41
3 8 3 1 o 19315.629 19266.258 180.00 1.34274 0.87
5 7 1 1 o 5274.076 5257.691 180.00 1.34160 0.20
0 9 3 2 o 7396.305 7358.181 180.00 1.34503 0.08
1 1 7 2 o 61807.41 61029.26 180.00 1.34380 1.15
3 8 3 2 o 20115.299 19266.258 180.00 1.34274 0.45
5 7 1 2 o 5856.110 5257.691 180.00 1.34160 0.11
1 7 5 1 o 34352.480 34135.066 180.00 1.33673 1.43
0 10 0 1 o 13140.558 10150.525 180.00 1.33563 0.15
3 9 1 1 o 420.335 369.814 0.00 1.33368 0.03
7 2 1 1 o 735.568 673.630 0.00 1.33336 0.02
1 7 5 2 o 37822.18 34135.066 180.00 1.33673 0.80
0 10 0 2 o 11420.591 10150.525 180.00 1.33563 0.06
1 9 3 1 o 17301.365 15271.595 180.00 1.33208 0.78
6 0 4 1 o 1108.127 895.799 0.00 1.33134 0.02
3 9 1 2 o 449.519 369.814 0.00 1.33368 0.01
7 2 1 2 o 729.735 673.630 0.00 1.33336 0.01
5 2 5 1 o 2919.240 2595.248 0.00 1.32858 0.10
1 9 3 2 o 17768.662 15271.595 180.00 1.33208 0.40
6 0 4 2 o 1003.633 895.799 0.00 1.33134 0.01
4 0 6 1 o 39404.81 38258.20 0.00 1.32737 0.69
5 2 5 2 o 2668.891 2595.248 0.00 1.32858 0.04
6 1 4 1 o 24487.201 23006.746 180.00 1.32478 0.85
4 0 6 2 o 40731.76 38258.20 0.00 1.32737 0.36
5 6 3 1 o 17592.590 16567.826 0.00 1.32401 0.62
1 2 7 1 o 20861.891 19623.053 180.00 1.32385 0.67
6 1 4 2 o 22595.291 23006.746 180.00 1.32478 0.38
6 5 2 1 o 93.724 94.047 180.00 1.32138 0.00
7 0 2 1 o 91106.38 92078.05 180.00 1.32112 1.62
4 1 6 1 o 96.725 96.710 0.00 1.32087 0.00
3 6 5 1 o 119.612 119.838 0.00 1.32089 0.01
5 6 3 2 o 16621.105 16567.826 0.00 1.32401 0.29
1 2 7 2 o 19728.426 19623.053 180.00 1.32385 0.31
4 8 2 1 o 1846.991 2017.702 0.00 1.31831 0.05
6 5 2 2 o 92.129 94.047 180.00 1.32138 0.00
7 0 2 2 o 82627.89 92078.05 180.00 1.32112 0.71
4 1 6 2 o 94.042 96.710 0.00 1.32087 0.00
3 6 5 2 o 90.504 119.838 0.00 1.32089 0.01
6 4 3 1 o 4718.083 4616.213 0.00 1.31635 0.18
2 8 4 1 o 5911.461 5829.990 180.00 1.31599 0.19
2 5 6 1 o 24655.258 24443.813 180.00 1.31518 0.93
4 8 2 2 o 2037.516 2017.702 0.00 1.31831 0.03
7 1 2 1 o 5741.387 5599.531 0.00 1.31470 0.22
6 4 3 2 o 3842.080 4616.213 0.00 1.31635 0.07
2 8 4 2 o 5342.325 5829.990 180.00 1.31599 0.08
2 5 6 2 o 22715.709 24443.813 180.00 1.31518 0.42
7 1 2 2 o 5096.199 5599.531 0.00 1.31470 0.10
3 4 6 1 o 3988.604 4241.572 0.00 1.31118 0.15
1 10 1 1 o 289.441 298.886 0.00 1.31043 0.01
3 4 6 2 o 4154.150 4241.572 0.00 1.31118 0.08
1 10 1 2 o 275.802 298.886 0.00 1.31043 0.00
5 5 4 1 o 4492.631 5448.271 0.00 1.30683 0.14
2 1 7 1 o 1209.631 1431.419 0.00 1.30614 0.04
6 2 4 1 o 14715.044 17692.990 180.00 1.30565 0.50
4 5 5 1 o 11417.743 14484.554 180.00 1.30513 0.38
0 3 7 1 o 3183.045 5042.700 180.00 1.30430 0.05
5 5 4 2 o 3560.805 5448.271 0.00 1.30683 0.05
5 7 2 1 o 413.539 726.781 180.00 1.30356 0.02
2 1 7 2 o 1109.042 1431.419 0.00 1.30614 0.02
6 2 4 2 o 14214.415 17692.990 180.00 1.30565 0.24
4 2 6 1 o 353.849 410.425 0.00 1.30191 0.01
4 5 5 2 o 12269.991 14484.554 180.00 1.30513 0.21
7 3 1 1 o 17918.855 20567.182 0.00 1.30133 0.56
6 6 0 1 o 56010.86 65497.33 180.00 1.30132 1.05
0 3 7 2 o 4299.432 5042.700 180.00 1.30430 0.04
5 7 2 2 o 557.845 726.781 180.00 1.30356 0.01
2 7 5 1 o 1153.262 1428.062 0.00 1.29965 0.04
4 2 6 2 o 325.735 410.425 0.00 1.30191 0.00
7 3 1 2 o 16317.087 20567.182 0.00 1.30133 0.24
6 6 0 2 o 50323.48 65497.33 180.00 1.30132 0.46
5 3 5 1 o 21392.883 26826.373 180.00 1.29689 0.76
2 7 5 2 o 1152.357 1428.062 0.00 1.29965 0.02
3 9 2 1 o 8452.435 10434.003 180.00 1.29629 0.29
7 2 2 1 o 165.228 217.213 0.00 1.29600 0.01
2 9 3 1 o 9314.788 12904.654 0.00 1.29537 0.33
0 6 6 1 o 23.246 24.177 180.00 1.29466 0.00
5 3 5 2 o 17987.926 26826.373 180.00 1.29689 0.30
3 9 2 2 o 7662.005 10434.003 180.00 1.29629 0.12
7 2 2 2 o 143.600 217.213 0.00 1.29600 0.00
1 3 7 1 o 694.704 1137.013 0.00 1.29249 0.02
2 9 3 2 o 7576.890 12904.654 0.00 1.29537 0.12
0 6 6 2 o 22.943 24.177 180.00 1.29466 0.00
6 6 1 1 o 16623.768 23411.881 180.00 1.28940 0.56
1 3 7 2 o 800.108 1137.013 0.00 1.29249 0.01
2 2 7 1 o -5.974 23.558 0.00 1.28780 0.00
2 10 0 1 o 17022.451 23877.725 180.00 1.28697 0.30
6 6 1 2 o 16626.004 23411.881 180.00 1.28940 0.28
0 10 2 1 o 3175.628 4337.134 0.00 1.28625 0.05
2 2 7 2 o -6.610 23.558 0.00 1.28780 0.00
2 10 0 2 o 13243.333 23877.725 180.00 1.28697 0.10
1 6 6 1 o 322.587 1272.481 0.00 1.28310 0.01
0 10 2 2 o 1466.064 4337.134 0.00 1.28625 0.00
1 6 6 2 o 176.922 1272.481 0.00 1.28310 0.00
6 3 4 1 o 3388.677 3231.558 180.00 1.27553 0.10
2 10 1 1 o 9547.150 9039.484 180.00 1.27544 0.40
1 10 2 1 o 15165.769 14915.112 180.00 1.27491 0.63
6 3 4 2 o 2827.346 3231.558 180.00 1.27553 0.04
2 10 1 2 o 7834.304 9039.484 180.00 1.27544 0.16
4 3 6 1 o 23.328 27.088 180.00 1.27204 0.00
1 10 2 2 o 15431.380 14915.112 180.00 1.27491 0.32
4 3 6 2 o -22.875 27.088 180.00 1.27204 0.00
4 7 4 1 o 103.146 884.087 180.00 1.26703 0.01
7 3 2 1 o 244.047 1207.990 0.00 1.26653 0.00
4 7 4 2 o 804.067 884.087 180.00 1.26703 0.02
7 3 2 2 o 1125.570 1207.990 0.00 1.26653 0.02
4 9 0 1 o 7195.486 7300.197 180.00 1.26307 0.14
6 5 3 1 o 9098.384 9438.338 0.00 1.26233 0.31
7 4 1 1 o 1391.339 1532.216 180.00 1.26014 0.05
4 9 0 2 o 7021.118 7300.197 180.00 1.26307 0.07
4 8 3 1 o 1573.901 1647.792 0.00 1.25965 0.06
6 5 3 2 o 8271.212 9438.338 0.00 1.26233 0.13
2 3 7 1 o 1374.282 1637.819 0.00 1.25887 0.05
3 8 4 1 o 1613.047 1936.749 180.00 1.25847 0.06
3 5 6 1 o 8424.807 10042.763 180.00 1.25777 0.27
7 4 1 2 o 1155.745 1532.216 180.00 1.26014 0.02
7 1 3 1 o 8074.254 11083.912 180.00 1.25651 0.28
4 8 3 2 o 1227.949 1647.792 0.00 1.25965 0.02
5 4 5 1 o 1297.565 1867.527 180.00 1.25610 0.04
2 3 7 2 o 1132.369 1637.819 0.00 1.25887 0.02
6 6 2 1 o 11949.373 16731.025 180.00 1.25552 0.36
3 8 4 2 o 1364.445 1936.749 180.00 1.25847 0.02
3 5 6 2 o 7959.775 10042.763 180.00 1.25777 0.12
7 1 3 2 o 8432.337 11083.912 180.00 1.25651 0.15
5 4 5 2 o 1380.694 1867.527 180.00 1.25610 0.02
6 6 2 2 o 13006.117 16731.025 180.00 1.25552 0.20
1 4 7 1 o 8991.574 11257.240 0.00 1.25210 0.30
4 9 1 1 o 5221.115 6545.644 180.00 1.25216 0.19
5 8 1 1 o 12832.905 14527.716 180.00 1.25032 0.44
2 6 6 1 o 4747.653 5459.830 180.00 1.25020 0.15
3 1 7 1 o 690.217 867.586 180.00 1.24985 0.03
1 9 4 1 o 1974.354 2348.908 0.00 1.24968 0.06
1 4 7 2 o 9215.264 11257.240 0.00 1.25210 0.15
4 9 1 2 o 5359.970 6545.644 180.00 1.25216 0.10
5 8 1 2 o 14084.896 14527.716 180.00 1.25032 0.25
2 6 6 2 o 5248.883 5459.830 180.00 1.25020 0.09
3 1 7 2 o 791.119 867.586 180.00 1.24985 0.02
5 7 3 1 o 29472.219 31919.375 180.00 1.24677 1.06
1 9 4 2 o 2162.959 2348.908 0.00 1.24968 0.03
1 8 5 1 o 631.161 689.047 180.00 1.24637 0.02
3 7 5 1 o 1959.501 2436.688 0.00 1.24416 0.07
5 7 3 2 o 25940.475 31919.375 180.00 1.24677 0.45
1 8 5 2 o 597.843 689.047 180.00 1.24637 0.01
5 6 4 1 o 1924.547 2309.252 0.00 1.24301 0.06
2 10 2 1 o 18661.869 23266.121 180.00 1.24262 0.71
4 6 5 1 o 3319.777 3777.866 180.00 1.24156 0.11
3 7 5 2 o 2233.413 2436.688 0.00 1.24416 0.04
3 9 3 1 o 203.585 231.769 180.00 1.24040 0.01
7 2 3 1 o 3749.497 4182.204 0.00 1.24015 0.13
5 6 4 2 o 2069.524 2309.252 0.00 1.24301 0.03
2 10 2 2 o 20427.256 23266.121 180.00 1.24262 0.40
4 6 5 2 o 4130.261 3777.866 180.00 1.24156 0.07
3 9 3 2 o 251.342 231.769 180.00 1.24040 0.01
7 2 3 2 o 4459.436 4182.204 0.00 1.24015 0.08
6 4 4 1 o 49060.59 45408.13 180.00 1.23667 1.68
3 2 7 1 o 30798.131 31791.430 0.00 1.23375 1.06
6 4 4 2 o 43851.69 45408.13 180.00 1.23667 0.73
4 4 6 1 o 666.534 679.672 180.00 1.23348 0.01
3 2 7 2 o 30049.104 31791.430 0.00 1.23375 0.52
4 4 6 2 o 656.117 679.672 180.00 1.23348 0.01
7 4 2 1 o 28115.033 30428.867 0.00 1.22846 0.89
6 7 0 1 o 1569.309 1879.618 180.00 1.22776 0.04
5 0 6 1 o 39339.52 41653.36 0.00 1.22652 0.61
7 4 2 2 o 28768.863 30428.867 0.00 1.22846 0.46
6 7 0 2 o 1771.791 1879.618 180.00 1.22776 0.02
5 0 6 2 o 43317.23 41653.36 0.00 1.22652 0.34
6 1 5 1 o 24347.799 23963.580 0.00 1.22308 0.77
3 10 1 1 o 5298.787 5189.121 180.00 1.22287 0.23
2 4 7 1 o 408.286 395.092 0.00 1.22147 0.01
1 10 3 1 o 12356.761 11912.690 0.00 1.22163 0.52
5 1 6 1 o 28159.160 27416.535 0.00 1.22138 0.90
4 9 2 1 o 391.471 383.337 180.00 1.22106 0.02
6 1 5 2 o 26368.021 23963.580 0.00 1.22308 0.42
3 10 1 2 o 5813.776 5189.121 180.00 1.22287 0.13
5 8 2 1 o 37.157 35.287 180.00 1.21936 0.00
2 9 4 1 o 52124.48 49629.41 0.00 1.21922 1.87
2 4 7 2 o 386.245 395.092 0.00 1.22147 0.01
1 10 3 2 o 11743.842 11912.690 0.00 1.22163 0.24
5 1 6 2 o 26788.670 27416.535 0.00 1.22138 0.42
4 9 2 2 o 370.034 383.337 180.00 1.22106 0.01
6 7 1 1 o 1289.841 1335.342 0.00 1.21774 0.04
5 8 2 2 o 35.830 35.287 180.00 1.21936 0.00
2 9 4 2 o 50298.08 49629.41 0.00 1.21922 0.89
2 8 5 1 o 35643.83 35320.00 0.00 1.21615 1.22
0 5 7 1 o 2166.052 2222.463 180.00 1.21490 0.04
6 7 1 2 o 1310.018 1335.342 0.00 1.21774 0.02
7 3 3 1 o 79358.97 80433.10 0.00 1.21425 2.54
2 8 5 2 o 34702.855 35320.00 0.00 1.21615 0.59
7 5 1 1 o 128.637 128.632 0.00 1.21251 0.00
1 7 6 1 o 58.681 58.488 180.00 1.21243 0.00
0 5 7 2 o 2274.232 2222.463 180.00 1.21490 0.02
7 3 3 2 o 79780.45 80433.10 0.00 1.21425 1.27
7 5 1 2 o 128.676 128.632 0.00 1.21251 0.00
1 7 6 2 o 58.304 58.488 180.00 1.21243 0.00
5 5 5 1 o 17274.432 17606.648 180.00 1.20891 0.59
3 3 7 1 o 109304.29 114626.22 0.00 1.20825 3.43
6 2 5 1 o 41775.27 44394.86 180.00 1.20798 1.27
5 2 6 1 o 10221.991 10148.543 0.00 1.20634 0.32
5 5 5 2 o 17313.842 17606.648 180.00 1.20891 0.29
1 5 7 1 o 5886.822 6132.420 180.00 1.20534 0.18
3 3 7 2 o 109622.27 114626.22 0.00 1.20825 1.71
6 2 5 2 o 42378.74 44394.86 180.00 1.20798 0.64
6 6 3 1 o 7396.116 7772.276 0.00 1.20454 0.24
0 11 1 1 o 93532.76 98283.11 180.00 1.20451 1.74
5 2 6 2 o 10287.019 10148.543 0.00 1.20634 0.16
8 0 0 1 o 105598.85 104536.16 0.00 1.20294 0.80
1 5 7 2 o 6029.342 6132.420 180.00 1.20534 0.09
6 6 3 2 o 7939.104 7772.276 0.00 1.20454 0.13
0 11 1 2 o 100384.21 98283.11 180.00 1.20451 0.95
3 6 6 1 o 47281.05 47107.17 180.00 1.20057 1.50
8 0 0 2 o 108968.19 104536.16 0.00 1.20294 0.42
8 1 0 1 o 24661.166 21480.875 0.00 1.19809 0.41
3 6 6 2 o 50941.95 47107.17 180.00 1.20057 0.82
8 1 0 2 o 24909.857 21480.875 0.00 1.19809 0.21
1 11 1 1 o 15703.481 13577.067 180.00 1.19518 0.60
3 10 2 1 o 52964.91 51388.44 180.00 1.19385 1.86
0 0 8 1 o 47384.73 46346.59 0.00 1.19364 0.37
2 10 3 1 o 3075.917 2978.242 0.00 1.19313 0.11
1 11 1 2 o 13902.564 13577.067 180.00 1.19518 0.26
6 5 4 1 o 30595.912 30844.061 0.00 1.19155 0.91
7 0 4 1 o 30999.879 31604.154 180.00 1.19136 0.46
3 10 2 2 o 50299.57 51388.44 180.00 1.19385 0.87
0 0 8 2 o 45774.18 46346.59 0.00 1.19364 0.18
2 10 3 2 o 3008.479 2978.242 0.00 1.19313 0.06
4 8 4 1 o 60593.88 62838.92 0.00 1.18930 2.06
6 7 2 1 o 1857.896 1998.160 0.00 1.18908 0.08
8 1 1 1 o 665.095 698.853 180.00 1.18877 0.02
4 5 6 1 o 535.704 552.987 180.00 1.18870 0.01
6 5 4 2 o 29929.543 30844.061 0.00 1.19155 0.44
7 0 4 2 o 31590.143 31604.154 180.00 1.19136 0.24
7 1 4 1 o 109.737 101.210 0.00 1.18665 0.00
4 8 4 2 o 67150.85 62838.92 0.00 1.18930 1.16
6 7 2 2 o 2095.340 1998.160 0.00 1.18908 0.04
8 1 1 2 o 690.455 698.853 180.00 1.18877 0.01
4 5 6 2 o 543.169 552.987 180.00 1.18870 0.01
1 0 8 1 o 752.762 536.963 0.00 1.18456 0.01
2 7 6 1 o 590.624 410.250 0.00 1.18456 0.02
7 5 2 1 o 4445.061 3267.174 180.00 1.18420 0.15
6 3 5 1 o 1012.136 730.143 180.00 1.18401 0.03
8 2 0 1 o 5308.374 3881.817 0.00 1.18389 0.08
7 1 4 2 o 137.757 101.210 0.00 1.18665 0.00
5 3 6 1 o 9920.525 6250.504 0.00 1.18247 0.32
4 1 7 1 o 2182.990 1584.646 180.00 1.18202 0.07
1 0 8 2 o 705.260 536.963 0.00 1.18456 0.01
2 7 6 2 o 549.881 410.250 0.00 1.18456 0.01
7 5 2 2 o 4017.385 3267.174 180.00 1.18420 0.06
6 3 5 2 o 905.966 730.143 180.00 1.18401 0.01
8 2 0 2 o 4712.274 3881.817 0.00 1.18389 0.03
7 4 3 1 o 805.090 666.255 180.00 1.18058 0.03
1 1 8 1 o 13882.365 11645.844 180.00 1.17993 0.43
5 3 6 2 o 7568.469 6250.504 0.00 1.18247 0.12
4 1 7 2 o 1887.621 1584.646 180.00 1.18202 0.03
5 7 4 1 o 0.359 0.171 0.00 1.17844 0.00
2 5 7 1 o 1223.834 970.726 0.00 1.17794 0.04
7 4 3 2 o 840.617 666.255 180.00 1.18058 0.01
4 7 5 1 o 26004.943 21980.221 0.00 1.17720 0.85
2 11 0 1 o 19220.971 15882.647 0.00 1.17730 0.37
1 1 8 2 o 13392.525 11645.844 180.00 1.17993 0.21
5 7 4 2 o 0.341 0.171 0.00 1.17844 0.00
3 4 7 1 o 3406.334 3074.182 180.00 1.17506 0.10
0 2 8 1 o 337.629 309.820 180.00 1.17502 0.00
2 5 7 2 o 1070.216 970.726 0.00 1.17794 0.02
8 2 1 1 o 12350.589 11347.550 0.00 1.17490 0.37
4 7 5 2 o 22939.424 21980.221 0.00 1.17720 0.37
2 11 0 2 o 16718.084 15882.647 0.00 1.17730 0.15
4 9 3 1 o 17284.191 16897.014 180.00 1.17402 0.57
3 9 4 1 o 2950.070 2770.052 180.00 1.17306 0.10
7 2 4 1 o 4433.199 4162.883 180.00 1.17284 0.13
5 8 3 1 o 26793.365 25925.053 180.00 1.17250 0.87
3 4 7 2 o 3132.085 3074.182 180.00 1.17506 0.05
0 2 8 2 o 315.131 309.820 180.00 1.17502 0.00
8 2 1 2 o 11620.881 11347.550 0.00 1.17490 0.17
0 9 5 1 o 245.669 236.433 180.00 1.17183 0.00
4 9 3 2 o 18508.633 16897.014 180.00 1.17402 0.31
3 8 5 1 o 1515.015 1413.317 0.00 1.17032 0.05
3 9 4 2 o 2915.020 2770.052 180.00 1.17306 0.05
7 2 4 2 o 4259.021 4162.883 180.00 1.17284 0.06
5 8 3 2 o 25858.537 25925.053 180.00 1.17250 0.42
0 9 5 2 o 240.861 236.433 180.00 1.17183 0.00
4 2 7 1 o 104.635 104.470 180.00 1.16837 0.00
2 11 1 1 o 8582.958 8569.502 0.00 1.16845 0.30
1 11 2 1 o 7137.027 7107.441 180.00 1.16805 0.25
4 10 0 1 o 108510.03 108787.13 0.00 1.16775 1.83
3 8 5 2 o 1401.078 1413.317 0.00 1.17032 0.02
8 0 2 1 o 21762.199 19925.863 0.00 1.16649 0.32
1 2 8 1 o 22206.670 20356.383 0.00 1.16635 0.66
5 9 1 1 o 864.082 759.055 0.00 1.16645 0.04
4 2 7 2 o 105.317 104.470 180.00 1.16837 0.00
0 10 4 1 o 99722.64 97876.33 0.00 1.16560 1.72
2 11 1 2 o 8708.073 8569.502 0.00 1.16845 0.15
1 11 2 2 o 7112.982 7107.441 180.00 1.16805 0.12
4 10 0 2 o 111791.98 108787.13 0.00 1.16775 0.95
8 0 2 2 o 22487.086 19925.863 0.00 1.16649 0.16
1 2 8 2 o 22861.496 20356.383 0.00 1.16635 0.34
5 9 1 2 o 902.678 759.055 0.00 1.16645 0.02
1 9 5 1 o 5368.201 4839.414 180.00 1.16324 0.17
0 10 4 2 o 109145.98 97876.33 0.00 1.16560 0.96
8 1 2 1 o 19.997 10.515 180.00 1.16207 0.00
8 3 0 1 o 13122.148 10153.772 0.00 1.16130 0.22
7 6 1 1 o 392.095 335.526 180.00 1.16102 0.01
1 9 5 2 o 6233.376 4839.414 180.00 1.16324 0.10
8 1 2 2 o 53.599 10.515 180.00 1.16207 0.00
4 10 1 1 o 1427.959 847.280 180.00 1.15911 0.05
2 0 8 1 o 3361.902 2049.806 0.00 1.15852 0.06
8 3 0 2 o 15835.199 10153.772 0.00 1.16130 0.14
7 6 1 2 o 467.100 335.526 180.00 1.16102 0.01
5 6 5 1 o 1039.356 779.639 180.00 1.15786 0.03
1 10 4 1 o 911.943 651.989 0.00 1.15714 0.03
6 8 0 1 o 36383.53 27391.170 180.00 1.15664 0.59
4 10 1 2 o 1072.242 847.280 180.00 1.15911 0.02
2 0 8 2 o 2678.373 2049.806 0.00 1.15852 0.02
5 6 5 2 o 917.095 779.639 180.00 1.15786 0.01
1 6 7 1 o 11162.944 9815.296 0.00 1.15472 0.31
2 1 8 1 o 14318.870 13408.125 180.00 1.15419 0.40
1 10 4 2 o 705.546 651.989 0.00 1.15714 0.01
6 8 0 2 o 28771.707 27391.170 180.00 1.15664 0.22
8 3 1 1 o 67520.08 61606.98 180.00 1.15281 1.98
6 4 5 1 o 8044.216 7387.915 0.00 1.15272 0.24
0 8 6 1 o 5232.412 4879.347 180.00 1.15197 0.10
1 6 7 2 o 10433.817 9815.296 0.00 1.15472 0.14
2 1 8 2 o 15307.829 13408.125 180.00 1.15419 0.22
5 4 6 1 o 2051.793 1777.833 0.00 1.15130 0.06
7 3 4 1 o 542.409 464.871 0.00 1.15087 0.02
8 3 1 2 o 72308.10 61606.98 180.00 1.15281 1.07
6 4 5 2 o 8630.449 7387.915 0.00 1.15272 0.13
3 10 3 1 o 189.078 177.550 180.00 1.14977 0.00
8 2 2 1 o 13225.345 11351.991 0.00 1.14909 0.39
0 8 6 2 o 5888.039 4879.347 180.00 1.15197 0.06
5 4 6 2 o 1982.356 1777.833 0.00 1.15130 0.03
6 8 1 1 o 19204.150 17220.578 0.00 1.14825 0.61
7 3 4 2 o 529.049 464.871 0.00 1.15087 0.01
3 10 3 2 o 198.434 177.550 180.00 1.14977 0.00
4 3 7 1 o 670.666 505.602 180.00 1.14664 0.02
8 2 2 2 o 14041.435 11351.991 0.00 1.14909 0.21
6 7 3 1 o 25250.494 21929.598 0.00 1.14550 0.79
6 8 1 2 o 19711.760 17220.578 0.00 1.14825 0.31
1 3 8 1 o 3545.865 3427.319 180.00 1.14473 0.10
4 3 7 2 o 645.421 505.602 180.00 1.14664 0.01
1 8 6 1 o 1066.903 850.390 0.00 1.14380 0.03
2 11 2 1 o 35.820 34.032 0.00 1.14306 0.00
6 7 3 2 o 25160.352 21929.598 0.00 1.14550 0.39
6 6 4 1 o 507.710 446.356 180.00 1.14259 0.02
3 7 6 1 o 16.865 14.526 180.00 1.14209 0.00
1 3 8 2 o 3819.149 3427.319 180.00 1.14473 0.06
2 2 8 1 o 202.638 183.027 180.00 1.14147 0.01
7 5 3 1 o 19202.744 17122.080 0.00 1.14114 0.61
5 9 2 1 o 44848.66 40321.89 180.00 1.14119 1.44
1 8 6 2 o 945.049 850.390 0.00 1.14380 0.01
2 11 2 2 o 35.408 34.032 0.00 1.14306 0.00
4 6 6 1 o 21227.492 18926.232 0.00 1.14007 0.65
6 6 4 2 o 483.863 446.356 180.00 1.14259 0.01
3 7 6 2 o 16.514 14.526 180.00 1.14209 0.00
2 2 8 2 o 196.020 183.027 180.00 1.14147 0.00
2 9 5 1 o 6786.363 6312.780 0.00 1.13856 0.22
7 5 3 2 o 18322.645 17122.080 0.00 1.14114 0.29
5 9 2 2 o 42971.98 40321.89 180.00 1.14119 0.68
4 6 6 2 o 20462.496 18926.232 0.00 1.14007 0.31
3 5 7 1 o 29431.205 29981.158 0.00 1.13615 0.88
7 6 2 1 o 30206.879 31115.455 180.00 1.13610 0.87
2 9 5 2 o 5686.806 6312.780 0.00 1.13856 0.09
0 11 3 1 o 51.263 53.456 0.00 1.13447 0.00
4 10 2 1 o 17103.713 17516.742 0.00 1.13432 0.52
3 5 7 2 o 29708.576 29981.158 0.00 1.13615 0.44
7 6 2 2 o 30842.941 31115.455 180.00 1.13610 0.44
2 10 4 1 o 1304.917 1358.104 180.00 1.13284 0.03
8 4 0 1 o 2534.535 2434.862 180.00 1.13174 0.04
0 11 3 2 o 56.781 53.456 0.00 1.13447 0.00
4 10 2 2 o 18391.703 17516.742 0.00 1.13432 0.29
8 4 0 2 o 4610.000 2434.862 180.00 1.13174 0.04
8 3 2 1 o 940.065 416.422 180.00 1.12840 0.04
2 6 7 1 o 48.605 36.766 0.00 1.13057 0.00
2 10 4 2 o 2289.699 1358.104 180.00 1.13284 0.04
2 6 7 2 o 46.201 36.766 0.00 1.13057 0.00
6 0 6 1 o 585.926 244.132 180.00 1.12973 0.01
3 11 1 1 o 11650.788 8525.576 180.00 1.12763 0.41
6 0 6 2 o 310.299 244.132 180.00 1.12973 0.00
1 11 3 1 o 30085.375 26615.898 180.00 1.12667 0.99
6 1 6 1 o 14880.260 13110.600 180.00 1.12571 0.45
8 3 2 2 o 497.273 416.422 180.00 1.12840 0.01
3 11 1 2 o 9103.111 8525.576 180.00 1.12763 0.15
6 8 2 1 o 20213.557 20779.691 180.00 1.12413 0.64
0 4 8 1 o 30301.441 31542.336 180.00 1.12398 0.46
8 4 1 1 o 1892.567 1973.033 180.00 1.12387 0.05
1 11 3 2 o 25563.045 26615.898 180.00 1.12667 0.40
6 1 6 2 o 12432.657 13110.600 180.00 1.12571 0.18
7 4 4 1 o 80.403 81.141 180.00 1.12208 0.00
8 1 3 1 o 19213.461 19784.709 180.00 1.12129 0.51
6 8 2 2 o 20206.707 20779.691 180.00 1.12413 0.32
0 4 8 2 o 30405.811 31542.336 180.00 1.12398 0.23
2 3 8 1 o 3175.463 3280.541 180.00 1.12119 0.08
8 4 1 2 o 1901.941 1973.033 180.00 1.12387 0.03
2 8 6 1 o 10979.820 10798.921 180.00 1.12031 0.37
7 4 4 2 o 87.482 81.141 180.00 1.12208 0.00
3 0 8 1 o 61603.71 58974.11 180.00 1.11870 0.84
8 1 3 2 o 20128.822 19784.709 180.00 1.12129 0.27
2 3 8 2 o 3288.174 3280.541 180.00 1.12119 0.04
4 4 7 1 o 0.433 0.464 180.00 1.11816 0.00
2 8 6 2 o 10832.956 10798.921 180.00 1.12031 0.18
1 4 8 1 o 37375.06 37088.19 0.00 1.11639 1.02
4 9 4 1 o 6469.920 6356.434 0.00 1.11644 0.21
3 0 8 2 o 54386.13 58974.11 180.00 1.11870 0.36
6 5 5 1 o 1630.128 1767.404 0.00 1.11593 0.04
4 4 7 2 o 0.344 0.464 180.00 1.11816 0.00
5 8 4 1 o 2716.711 2800.341 0.00 1.11513 0.08
3 1 8 1 o 4324.665 4333.378 0.00 1.11480 0.12
5 5 6 1 o 28123.770 28379.730 180.00 1.11464 0.79
4 8 5 1 o 2316.239 2418.900 0.00 1.11408 0.07
6 2 6 1 o 5256.285 5508.824 180.00 1.11391 0.15
1 4 8 2 o 35485.96 37088.19 0.00 1.11639 0.48
4 9 4 2 o 6057.239 6356.434 0.00 1.11644 0.10
6 5 5 2 o 1739.459 1767.404 0.00 1.11593 0.02
0 12 0 1 o 1451.603 1455.364 0.00 1.11302 0.01
5 8 4 2 o 3037.503 2800.341 0.00 1.11513 0.05
3 1 8 2 o 4719.822 4333.378 0.00 1.11480 0.07
7 1 5 1 o 28837.143 26855.871 0.00 1.11190 0.85
5 5 6 2 o 30316.014 28379.730 180.00 1.11464 0.43
4 8 5 2 o 2455.009 2418.900 0.00 1.11408 0.04
6 2 6 2 o 5767.355 5508.824 180.00 1.11391 0.08
0 12 0 2 o 1726.060 1455.364 0.00 1.11302 0.01
8 2 3 1 o 3900.965 2758.573 180.00 1.10962 0.11
0 7 7 1 o 72.920 53.610 180.00 1.10971 0.00
7 1 5 2 o 36707.27 26855.871 0.00 1.11190 0.56
5 1 7 1 o 8125.397 5928.676 180.00 1.10912 0.25
7 7 1 1 o 10459.006 8164.166 180.00 1.10788 0.30
8 2 3 2 o 3345.156 2758.573 180.00 1.10962 0.05
0 7 7 2 o 63.097 53.610 180.00 1.10971 0.00
5 1 7 2 o 7470.339 5928.676 180.00 1.10912 0.11
7 7 1 2 o 11783.475 8164.166 180.00 1.10788 0.17
5 7 5 1 o 2496.144 1772.871 180.00 1.10513 0.07
3 11 2 1 o 4114.044 3115.436 0.00 1.10476 0.14
2 11 3 1 o 12370.772 11872.466 0.00 1.10419 0.39
3 2 8 1 o 5271.803 5551.778 180.00 1.10333 0.14
5 9 3 1 o 5345.756 5927.348 180.00 1.10250 0.19
5 7 5 2 o 1633.610 1772.871 180.00 1.10513 0.02
1 7 7 1 o 55298.24 61057.17 180.00 1.10240 1.54
3 11 2 2 o 2692.728 3115.436 0.00 1.10476 0.04
2 11 3 2 o 10322.095 11872.466 0.00 1.10419 0.16
8 4 2 1 o 4885.284 5538.787 0.00 1.10123 0.13
3 2 8 2 o 5115.470 5551.778 180.00 1.10333 0.07
3 9 5 1 o 12239.442 13394.657 0.00 1.10069 0.38
7 2 5 1 o 736.073 809.700 180.00 1.10051 0.02
5 9 3 2 o 5479.379 5927.348 180.00 1.10250 0.10
1 7 7 2 o 56894.94 61057.17 180.00 1.10240 0.79
8 4 2 2 o 5764.125 5538.787 0.00 1.10123 0.08
1 12 1 1 o 16083.186 15604.118 180.00 1.09831 0.56
7 6 3 1 o 2419.983 2514.993 180.00 1.09791 0.07
3 9 5 2 o 13124.668 13394.657 0.00 1.10069 0.20
7 2 5 2 o 752.373 809.700 180.00 1.10051 0.01
5 2 7 1 o 45600.68 48450.14 0.00 1.09782 1.25
8 5 0 1 o 20033.678 23746.078 180.00 1.09686 0.28
4 10 3 1 o 195.914 222.471 0.00 1.09630 0.01
1 12 1 2 o 14752.017 15604.118 180.00 1.09831 0.25
3 10 4 1 o 17830.236 18711.949 180.00 1.09552 0.53
7 6 3 2 o 2398.902 2514.993 180.00 1.09791 0.04
5 2 7 2 o 46203.12 48450.14 0.00 1.09782 0.63
6 3 6 1 o 5849.037 6196.146 180.00 1.09503 0.18
2 4 8 1 o 6628.723 7049.025 180.00 1.09452 0.22
8 5 0 2 o 22575.443 23746.078 180.00 1.09686 0.16
4 10 3 2 o 209.658 222.471 0.00 1.09630 0.00
3 6 7 1 o 13522.113 14286.326 180.00 1.09347 0.41
3 10 4 2 o 17477.889 18711.949 180.00 1.09552 0.26
6 3 6 2 o 6192.986 6196.146 180.00 1.09503 0.10
2 4 8 2 o 8338.418 7049.025 180.00 1.09452 0.14
6 7 4 1 o 2089.979 1742.846 180.00 1.09183 0.08
8 3 3 1 o 222.554 210.161 180.00 1.09096 0.01
3 6 7 2 o 14824.994 14286.326 180.00 1.09347 0.23
5 10 1 1 o 4838.360 4430.118 180.00 1.09013 0.16
8 5 1 1 o 19055.068 17996.400 180.00 1.08969 0.53
4 7 6 1 o 293.892 275.357 0.00 1.08964 0.01
6 9 0 1 o 36918.18 38492.02 0.00 1.08929 0.55
6 7 4 2 o 1587.214 1742.846 180.00 1.09183 0.03
8 3 3 2 o 192.494 210.161 180.00 1.09096 0.00
7 5 4 1 o 297.192 322.419 180.00 1.08805 0.01
1 10 5 1 o 4867.182 4792.645 180.00 1.08751 0.18
5 10 1 2 o 4503.145 4430.118 180.00 1.09013 0.07
6 8 3 1 o 5593.558 5552.822 180.00 1.08710 0.16
8 5 1 2 o 18009.479 17996.400 180.00 1.08969 0.24
4 7 6 2 o 273.692 275.357 0.00 1.08964 0.01
6 9 0 2 o 36547.75 38492.02 0.00 1.08929 0.27
7 7 2 1 o 56.761 63.260 180.00 1.08617 0.00
7 5 4 2 o 327.311 322.419 180.00 1.08805 0.00
3 3 8 1 o 1048.483 1083.348 0.00 1.08497 0.03
1 10 5 2 o 4508.878 4792.645 180.00 1.08751 0.08
4 5 7 1 o 1062.937 1133.294 180.00 1.08448 0.03
6 8 3 2 o 5203.725 5552.822 180.00 1.08710 0.07
2 12 0 1 o 22558.402 24294.975 180.00 1.08439 0.39
3 8 6 1 o 31513.135 34804.484 180.00 1.08418 0.87
4 11 0 1 o 2434.875 2863.906 0.00 1.08398 0.04
0 12 2 1 o 14097.806 16507.953 0.00 1.08396 0.24
7 7 2 2 o 51.619 63.260 180.00 1.08617 0.00
1 5 8 1 o 12362.675 13554.890 0.00 1.08287 0.33
7 3 5 1 o -3.867 1.022 180.00 1.08230 0.00
3 3 8 2 o 952.040 1083.348 0.00 1.08497 0.01
6 9 1 1 o 12576.422 14331.119 0.00 1.08227 0.35
4 5 7 2 o 948.998 1133.294 180.00 1.08448 0.01
2 12 0 2 o 20069.127 24294.975 180.00 1.08439 0.17
3 8 6 2 o 28993.396 34804.484 180.00 1.08418 0.39
2 7 7 1 o 866.627 1039.519 0.00 1.08133 0.02
4 11 0 2 o 2303.993 2863.906 0.00 1.08398 0.02
0 12 2 2 o 13455.221 16507.953 0.00 1.08396 0.11
1 5 8 2 o 13187.099 13554.890 0.00 1.08287 0.18
5 3 7 1 o 22023.047 21919.359 180.00 1.07974 0.55
7 3 5 2 o 0.678 1.022 180.00 1.08230 0.00
6 9 1 2 o 14155.346 14331.119 0.00 1.08227 0.20
2 7 7 2 o 1082.304 1039.519 0.00 1.08133 0.02
1 9 6 1 o 15074.696 14382.482 180.00 1.07854 0.43
2 12 1 1 o 26426.900 22897.648 0.00 1.07746 0.85
5 3 7 2 o 23826.346 21919.359 180.00 1.07974 0.30
1 12 2 1 o 434.238 389.646 0.00 1.07715 0.01
4 11 1 1 o 1500.549 1373.693 0.00 1.07706 0.05
1 9 6 2 o 13967.448 14382.482 180.00 1.07854 0.20
6 6 5 1 o 18098.828 18432.533 0.00 1.07540 0.49
1 11 4 1 o 1348.793 1379.248 180.00 1.07548 0.04
2 12 1 2 o 22654.797 22897.648 0.00 1.07746 0.35
8 0 4 1 o 4555.609 4981.541 180.00 1.07427 0.06
1 12 2 2 o 370.915 389.646 0.00 1.07715 0.01
4 11 1 2 o 1288.935 1373.693 0.00 1.07706 0.02
5 6 6 1 o 15238.622 16763.627 0.00 1.07425 0.40
6 6 5 2 o 16023.057 18432.533 0.00 1.07540 0.21
1 11 4 2 o 1189.348 1379.248 180.00 1.07548 0.02
8 0 4 2 o 4159.612 4981.541 180.00 1.07427 0.02
5 6 6 2 o 13930.835 16763.627 0.00 1.07425 0.18
8 1 4 1 o 2226.144 2928.358 180.00 1.07081 0.04
6 4 6 1 o 4648.980 5278.259 180.00 1.07014 0.10
3 11 3 1 o 4886.900 5139.149 180.00 1.06955 0.14
5 10 2 1 o 10569.473 11538.684 0.00 1.06942 0.30
4 0 8 1 o 8543.300 9802.638 180.00 1.06927 0.09
8 5 2 1 o 1.367 2.915 180.00 1.06901 0.00
8 1 4 2 o 2157.307 2928.358 180.00 1.07081 0.02
6 4 6 2 o 4589.015 5278.259 180.00 1.07014 0.05
2 10 5 1 o 5350.077 5937.750 0.00 1.06726 0.15
3 11 3 2 o 4794.226 5139.149 180.00 1.06955 0.07
5 10 2 2 o 10758.802 11538.684 0.00 1.06942 0.15
4 0 8 2 o 9249.899 9802.638 180.00 1.06927 0.05
8 5 2 2 o 2.701 2.915 180.00 1.06901 0.00
8 4 3 1 o 383.956 395.014 0.00 1.06634 0.01
4 1 8 1 o 41.251 40.975 180.00 1.06586 0.00
2 10 5 2 o 6064.982 5937.750 0.00 1.06726 0.09
8 4 3 2 o 484.591 395.014 0.00 1.06634 0.01
4 1 8 2 o 41.126 40.975 180.00 1.06586 0.00
2 5 8 1 o 16172.070 15975.417 0.00 1.06287 0.41
6 9 2 1 o 674.603 530.529 0.00 1.06200 0.02
3 4 8 1 o 69.506 71.564 0.00 1.06075 0.00
8 2 4 1 o 11652.304 12506.439 0.00 1.06063 0.29
2 5 8 2 o 13541.772 15975.417 0.00 1.06287 0.16
9 1 1 1 o 307.759 359.084 0.00 1.05929 0.01
6 9 2 2 o 477.258 530.529 0.00 1.06200 0.01
2 9 6 1 o 12065.744 11730.720 0.00 1.05878 0.34
8 6 0 1 o 38370.29 39757.76 0.00 1.05830 0.50
7 4 5 1 o 100.715 106.082 0.00 1.05825 0.00
3 4 8 2 o 66.864 71.564 0.00 1.06075 0.00
8 2 4 2 o 11322.075 12506.439 0.00 1.06063 0.14
0 1 9 1 o 11677.067 13559.413 0.00 1.05768 0.14
2 12 2 1 o 3452.168 3934.736 180.00 1.05746 0.08
4 11 2 1 o 434.382 515.057 180.00 1.05708 0.02
9 1 1 2 o 329.211 359.084 0.00 1.05929 0.01
2 9 6 2 o 10918.266 11730.720 0.00 1.05878 0.15
5 4 7 1 o 5540.029 6084.335 180.00 1.05585 0.14
4 2 8 1 o 2106.430 2336.203 0.00 1.05582 0.05
2 11 4 1 o 5110.790 5575.824 180.00 1.05588 0.14
8 6 0 2 o 35357.06 39757.76 0.00 1.05830 0.22
7 4 5 2 o 91.844 106.082 0.00 1.05825 0.00
0 1 9 2 o 10939.247 13559.413 0.00 1.05768 0.06
7 8 1 1 o 720.651 898.275 0.00 1.05479 0.02
2 12 2 2 o 3321.008 3934.736 180.00 1.05746 0.04
4 11 2 2 o 386.588 515.057 180.00 1.05708 0.01
5 9 4 1 o 3898.980 4635.645 180.00 1.05440 0.10
4 9 5 1 o 11818.394 11730.478 180.00 1.05351 0.33
5 4 7 2 o 5982.672 6084.335 180.00 1.05585 0.08
4 2 8 2 o 2289.703 2336.203 0.00 1.05582 0.03
2 11 4 2 o 5498.547 5575.824 180.00 1.05588 0.08
7 7 3 1 o 17780.066 18662.447 180.00 1.05265 0.50
5 8 5 1 o 3377.798 3622.696 0.00 1.05241 0.10
7 8 1 2 o 845.728 898.275 0.00 1.05479 0.01
0 6 8 1 o 7980.898 8218.834 0.00 1.05195 0.10
8 6 1 1 o 4997.235 5102.867 180.00 1.05186 0.13
5 9 4 2 o 4566.250 4635.645 180.00 1.05440 0.06
1 1 9 1 o 11389.619 11557.319 180.00 1.05135 0.29
4 9 5 2 o 11048.686 11730.478 180.00 1.05351 0.15
7 6 4 1 o 12342.584 12730.894 180.00 1.05039 0.32
7 7 3 2 o 18309.441 18662.447 180.00 1.05265 0.26
1 8 7 1 o 18577.932 18935.291 180.00 1.05006 0.53
5 8 5 2 o 3538.288 3622.696 0.00 1.05241 0.05
9 2 1 1 o 15627.988 15848.902 0.00 1.04944 0.40
0 6 8 2 o 8151.738 8218.834 0.00 1.05195 0.05
8 6 1 2 o 5086.231 5102.867 180.00 1.05186 0.07
4 10 4 1 o 4862.938 4843.744 180.00 1.04898 0.13
1 1 9 2 o 11415.354 11557.319 180.00 1.05135 0.14
3 7 7 1 o 7379.726 7518.231 180.00 1.04873 0.21
7 6 4 2 o 11365.699 12730.894 180.00 1.05039 0.14
1 8 7 2 o 17497.971 18935.291 180.00 1.05006 0.24
4 6 7 1 o 0.982 0.992 0.00 1.04717 0.00
9 2 1 2 o 14786.447 15848.902 0.00 1.04944 0.19
4 10 4 2 o 4828.422 4843.744 180.00 1.04898 0.06
3 7 7 2 o 7738.764 7518.231 180.00 1.04873 0.11
1 6 8 1 o 1808.688 1713.105 0.00 1.04572 0.05
3 12 1 1 o 1844.534 1729.135 0.00 1.04521 0.05
4 6 7 2 o 1.021 0.992 0.00 1.04717 0.00
8 3 4 1 o 52.903 52.855 180.00 1.04429 0.00
1 12 3 1 o 13859.504 11883.621 180.00 1.04444 0.41
9 0 2 1 o 2623.857 2912.598 0.00 1.04344 0.03
1 6 8 2 o 1430.956 1713.105 0.00 1.04572 0.02
3 12 1 2 o 1571.013 1729.135 0.00 1.04521 0.02
8 3 4 2 o 52.843 52.855 180.00 1.04429 0.00
1 2 9 1 o 2973.507 3114.085 180.00 1.04171 0.10
1 12 3 2 o 10942.892 11883.621 180.00 1.04444 0.15
9 0 2 2 o 3401.480 2912.598 0.00 1.04344 0.02
6 8 4 1 o 6.664 6.370 180.00 1.04091 0.00
6 5 6 1 o 12889.563 11850.716 0.00 1.04051 0.36
7 0 6 1 o 4866.749 4633.732 0.00 1.04038 0.06
9 1 2 1 o 21687.516 21123.768 0.00 1.04027 0.54
4 3 8 1 o 251.264 236.360 0.00 1.03970 0.01
1 2 9 2 o 3504.523 3114.085 180.00 1.04171 0.06
4 8 6 1 o 7630.739 7114.200 0.00 1.03900 0.19
6 8 4 2 o 6.409 6.370 180.00 1.04091 0.00
6 5 6 2 o 12690.134 11850.716 0.00 1.04051 0.17
7 0 6 2 o 4951.394 4633.732 0.00 1.04038 0.03
9 1 2 2 o 22432.918 21123.768 0.00 1.04027 0.28
5 10 3 1 o 1235.788 1238.185 180.00 1.03739 0.03
7 1 6 1 o 707.028 744.132 180.00 1.03724 0.02
4 3 8 2 o 200.842 236.360 0.00 1.03970 0.01
8 5 3 1 o 4156.045 4716.144 180.00 1.03701 0.10
4 8 6 2 o 6218.023 7114.200 0.00 1.03900 0.07
6 1 7 1 o 760.676 861.405 0.00 1.03601 0.02
7 8 2 1 o 18599.385 20925.467 180.00 1.03600 0.48
3 10 5 1 o 339.762 427.561 180.00 1.03588 0.02
5 10 3 2 o 1466.727 1238.185 180.00 1.03739 0.02
7 1 6 2 o 900.851 744.132 180.00 1.03724 0.01
8 5 3 2 o 5433.618 4716.144 180.00 1.03701 0.07
9 3 1 1 o 2780.208 2529.285 180.00 1.03361 0.08
6 1 7 2 o 919.141 861.405 0.00 1.03601 0.01
7 8 2 2 o 22172.777 20925.467 180.00 1.03600 0.30
8 6 2 1 o 14059.695 13942.245 0.00 1.03322 0.37
3 10 5 2 o 451.928 427.561 180.00 1.03588 0.01
2 1 9 1 o 38.122 38.993 0.00 1.03302 0.00
6 7 5 1 o 17648.141 18801.705 0.00 1.03276 0.45
0 3 9 1 o 24072.881 25716.916 180.00 1.03211 0.29
3 5 8 1 o 4461.059 4870.493 180.00 1.03187 0.11
2 8 7 1 o 330.553 365.032 180.00 1.03179 0.01
5 7 6 1 o 4.439 5.519 180.00 1.03174 0.00
9 3 1 2 o 2455.601 2529.285 180.00 1.03361 0.04
9 2 2 1 o 1076.498 1091.683 0.00 1.03093 0.03
8 6 2 2 o 13806.499 13942.245 0.00 1.03322 0.18
6 9 3 1 o 4489.916 4543.014 0.00 1.03061 0.12
2 1 9 2 o 38.514 38.993 0.00 1.03302 0.00
6 7 5 2 o 18180.096 18801.705 0.00 1.03276 0.23
7 5 5 1 o 550.413 565.903 0.00 1.02956 0.01
0 3 9 2 o 24269.744 25716.916 180.00 1.03211 0.15
3 5 8 2 o 4477.614 4870.493 180.00 1.03187 0.06
2 8 7 2 o 331.757 365.032 180.00 1.03179 0.00
5 7 6 2 o 4.500 5.519 180.00 1.03174 0.00
9 2 2 2 o 1297.267 1091.683 0.00 1.03093 0.02
3 9 6 1 o 8070.212 6814.911 0.00 1.02812 0.23
7 2 6 1 o 17456.738 15047.749 180.00 1.02798 0.46
6 9 3 2 o 5331.217 4543.014 0.00 1.03061 0.07
2 6 8 1 o 29.591 25.355 180.00 1.02768 0.00
5 5 7 1 o 5786.625 5427.793 180.00 1.02736 0.13
7 5 5 2 o 592.428 565.903 0.00 1.02956 0.00
6 2 7 1 o 477.577 434.817 0.00 1.02679 0.01
3 12 2 1 o 3870.870 3534.912 180.00 1.02692 0.12
2 12 3 1 o 7237.345 6788.037 180.00 1.02646 0.21
6 10 0 1 o 17.434 17.170 180.00 1.02636 0.00
1 3 9 1 o 8884.657 8508.993 180.00 1.02622 0.23
4 11 3 1 o 24231.867 23438.104 180.00 1.02611 0.70
3 9 6 2 o 7106.182 6814.911 0.00 1.02812 0.10
7 2 6 2 o 15784.568 15047.749 180.00 1.02798 0.20
3 11 4 1 o 334.154 319.214 0.00 1.02547 0.01
2 6 8 2 o 28.338 25.355 180.00 1.02768 0.00
5 5 7 2 o 5849.512 5427.793 180.00 1.02736 0.07
0 11 5 1 o 11913.889 11058.108 0.00 1.02465 0.18
6 2 7 2 o 452.185 434.817 0.00 1.02679 0.01
3 12 2 2 o 3692.902 3534.912 180.00 1.02692 0.05
2 2 9 1 o 32259.814 32018.443 180.00 1.02387 0.80
2 12 3 2 o 6885.673 6788.037 180.00 1.02646 0.10
6 10 0 2 o 17.187 17.170 180.00 1.02636 0.00
1 3 9 2 o 8396.390 8508.993 180.00 1.02622 0.11
4 11 3 2 o 22922.305 23438.104 180.00 1.02611 0.32
0 10 6 1 o 12902.704 12937.450 0.00 1.02309 0.17
3 11 4 2 o 319.490 319.214 0.00 1.02547 0.00
8 4 4 1 o 35575.23 37488.22 0.00 1.02264 0.88
0 11 5 2 o 9282.052 11058.108 0.00 1.02465 0.06
2 2 9 2 o 30300.363 32018.443 180.00 1.02387 0.37
0 13 1 1 o 2.400 2.504 0.00 1.02151 0.00
5 11 1 1 o 139.792 144.396 0.00 1.02105 0.00
0 10 6 2 o 13821.634 12937.450 0.00 1.02309 0.09
6 10 1 1 o 2941.929 2678.320 0.00 1.02049 0.08
8 4 4 2 o 42027.23 37488.22 0.00 1.02264 0.54
0 13 1 2 o 2.487 2.504 0.00 1.02151 0.00
1 11 5 1 o 1335.736 1369.460 180.00 1.01889 0.04
5 11 1 2 o 139.534 144.396 0.00 1.02105 0.00
4 4 8 1 o 7463.899 7511.678 0.00 1.01833 0.16
6 10 1 2 o 2797.498 2678.320 0.00 1.02049 0.04
8 7 0 1 o 1713.942 1630.155 180.00 1.01759 0.03
1 10 6 1 o 31510.879 31176.072 0.00 1.01736 0.88
1 11 5 2 o 1469.131 1369.460 180.00 1.01889 0.02
9 3 2 1 o 4527.252 4081.003 0.00 1.01591 0.11
4 4 8 2 o 8243.525 7511.678 0.00 1.01833 0.09
1 13 1 1 o 908.565 822.324 0.00 1.01580 0.03
8 7 0 2 o 1877.199 1630.155 180.00 1.01759 0.02
8 1 5 1 o 25202.129 23345.621 180.00 1.01492 0.64
1 10 6 2 o 33209.066 31176.072 0.00 1.01736 0.47
5 0 8 1 o 22480.771 22428.330 0.00 1.01440 0.28
9 3 2 2 o 5139.244 4081.003 0.00 1.01591 0.06
1 13 1 2 o 1022.435 822.324 0.00 1.01580 0.02
7 3 6 1 o 514.096 419.163 180.00 1.01308 0.01
9 4 1 1 o 2948.850 2607.384 180.00 1.01260 0.08
8 1 5 2 o 26272.904 23345.621 180.00 1.01492 0.34
6 3 7 1 o 1025.650 901.473 0.00 1.01194 0.03
5 0 8 2 o 25691.607 22428.330 0.00 1.01440 0.17
8 7 1 1 o 529.561 466.025 0.00 1.01186 0.01
5 1 8 1 o 9188.003 7976.980 0.00 1.01149 0.23
9 1 3 1 o 5765.412 4860.300 180.00 1.01071 0.17
7 3 6 2 o 493.733 419.163 180.00 1.01308 0.01
7 7 4 1 o 9.625 7.904 0.00 1.01055 0.00
9 4 1 2 o 3078.058 2607.384 180.00 1.01260 0.04
4 12 0 1 o 11409.631 9783.450 0.00 1.01016 0.16
6 3 7 2 o 1176.279 901.473 0.00 1.01194 0.02
8 7 1 2 o 605.030 466.025 0.00 1.01186 0.01
2 3 9 1 o 1321.430 1061.859 180.00 1.00915 0.03
5 1 8 2 o 9307.083 7976.980 0.00 1.01149 0.12
0 12 4 1 o 3681.291 3514.514 0.00 1.00877 0.04
9 1 3 2 o 5182.526 4860.300 180.00 1.01071 0.08
7 7 4 2 o 9.379 7.904 0.00 1.01055 0.00
4 7 7 1 o 2029.889 1461.590 180.00 1.00768 0.06
4 12 0 2 o 13451.580 9783.450 0.00 1.01016 0.10
6 6 6 1 o 72.811 51.376 180.00 1.00742 0.00
7 8 3 1 o 1720.079 1126.236 0.00 1.00679 0.05
2 3 9 2 o 1544.469 1061.859 180.00 1.00915 0.02
1 7 8 1 o 14.389 8.920 0.00 1.00639 0.00
8 2 5 1 o 15327.790 11952.891 180.00 1.00624 0.41
0 12 4 2 o 4304.126 3514.514 0.00 1.00877 0.03
1 4 9 1 o 4.028 1.498 180.00 1.00565 0.00
4 7 7 2 o 2070.554 1461.590 180.00 1.00768 0.03
6 6 6 2 o 66.755 51.376 180.00 1.00742 0.00
2 13 0 1 o 25858.000 18869.225 0.00 1.00476 0.42
3 1 9 1 o 11612.562 9053.344 0.00 1.00449 0.32
4 12 1 1 o 2927.440 2239.766 0.00 1.00456 0.09
7 8 3 2 o 1339.259 1126.236 0.00 1.00679 0.02
8 6 3 1 o 1461.599 1267.726 0.00 1.00425 0.04
0 9 7 1 o 1025.646 870.123 180.00 1.00431 0.01
5 11 2 1 o 7506.325 6962.408 0.00 1.00397 0.22
1 7 8 2 o 10.002 8.920 0.00 1.00639 0.00
8 2 5 2 o 12477.883 11952.891 180.00 1.00624 0.16
6 10 2 1 o 5648.183 5576.299 180.00 1.00344 0.16
3 8 7 1 o 4828.166 4807.929 0.00 1.00336 0.12
1 4 9 2 o 1.382 1.498 180.00 1.00565 0.00
1 12 4 1 o 2687.562 2702.933 0.00 1.00327 0.08
5 2 8 1 o 6204.512 6426.304 0.00 1.00290 0.15
7 9 1 1 o 6792.669 7074.850 0.00 1.00296 0.21
9 2 3 1 o 23788.359 24877.900 0.00 1.00214 0.58
2 13 0 2 o 18333.350 18869.225 0.00 1.00476 0.14
2 11 5 1 o 5629.901 5854.117 0.00 1.00218 0.15
3 1 9 2 o 8478.476 9053.344 0.00 1.00449 0.11
4 12 1 2 o 2121.623 2239.766 0.00 1.00456 0.03
8 6 3 2 o 1171.014 1267.726 0.00 1.00425 0.01
0 9 7 2 o 806.058 870.123 180.00 1.00431 0.01
5 11 2 2 o 6444.473 6962.408 0.00 1.00397 0.09
6 10 2 2 o 5191.325 5576.299 180.00 1.00344 0.07
5 9 5 1 o 2271.414 2405.466 180.00 1.00092 0.05
3 8 7 2 o 4479.737 4807.929 0.00 1.00336 0.06
2 13 1 1 o 9998.529 10989.464 0.00 0.99924 0.29
1 12 4 2 o 2503.852 2702.933 0.00 1.00327 0.04
2 10 6 1 o 1481.244 1620.204 180.00 1.00072 0.05
5 2 8 2 o 6048.648 6426.304 0.00 1.00290 0.07
7 9 1 2 o 6527.751 7074.850 0.00 1.00296 0.10
1 13 2 1 o 8055.486 8879.828 180.00 0.99899 0.23
1 9 7 1 o 3947.502 4377.961 180.00 0.99889 0.11
5 9 5 2 o 2279.337 2405.466 180.00 1.00092 0.02
3 12 3 1 o 9725.936 10470.956 0.00 0.99845 0.30
2 10 6 2 o 1546.257 1620.204 180.00 1.00072 0.02
9 2 3 2 o 23912.826 24877.900 0.00 1.00214 0.29
2 11 5 2 o 5655.153 5854.117 0.00 1.00218 0.08
3 6 8 1 o 25848.064 27273.619 180.00 0.99957 0.66
7 6 5 1 o 505.853 472.110 0.00 0.99748 0.02
3 6 8 2 o 27516.686 27273.619 180.00 0.99957 0.36
5 10 4 1 o 8334.699 8415.011 0.00 0.99702 0.23
8 5 4 1 o 5572.675 5877.076 0.00 0.99669 0.12
2 13 1 2 o 10462.034 10989.464 0.00 0.99924 0.15
1 13 2 2 o 8303.457 8879.828 180.00 0.99899 0.12
1 9 7 2 o 4076.468 4377.961 180.00 0.99889 0.06
4 10 5 1 o 246.587 258.353 0.00 0.99627 0.01
3 2 9 1 o 609.235 626.479 180.00 0.99607 0.02
9 4 2 1 o 441.049 437.920 0.00 0.99594 0.01
3 12 3 2 o 10430.025 10470.956 0.00 0.99845 0.16
5 6 7 1 o 23610.770 21966.902 180.00 0.99547 0.65
8 7 2 1 o 1177.411 1099.880 0.00 0.99524 0.04
7 6 5 2 o 494.901 472.110 0.00 0.99748 0.01
5 10 4 2 o 9376.088 8415.011 0.00 0.99702 0.13
8 5 4 2 o 6761.868 5877.076 0.00 0.99669 0.08
4 10 5 2 o 304.168 258.353 0.00 0.99627 0.00
3 2 9 2 o 808.084 626.479 180.00 0.99607 0.02
9 4 2 2 o 509.957 437.920 0.00 0.99594 0.01
7 4 6 1 o 46276.41 42060.02 180.00 0.99328 1.18
5 6 7 2 o 22474.498 21966.902 180.00 0.99547 0.30
8 7 2 2 o 1069.990 1099.880 0.00 0.99524 0.02
4 5 8 1 o 754.550 773.004 0.00 0.99269 0.02
8 3 5 1 o 4403.990 4741.232 0.00 0.99226 0.11
6 4 7 1 o 71.041 77.633 180.00 0.99221 0.00
6 9 4 1 o 17593.115 16961.402 180.00 0.99100 0.46
7 4 6 2 o 42516.79 42060.02 180.00 0.99328 0.53
4 5 8 2 o 763.642 773.004 0.00 0.99269 0.01
2 7 8 1 o 163.668 167.928 180.00 0.99028 0.01
8 3 5 2 o 5093.360 4741.232 0.00 0.99226 0.06
6 4 7 2 o 83.867 77.633 180.00 0.99221 0.00
2 4 9 1 o 7610.792 7141.763 0.00 0.98957 0.20
6 8 5 1 o 15854.910 15458.533 180.00 0.98935 0.42
4 9 6 1 o 179.703 176.602 0.00 0.98936 0.00
5 3 8 1 o 1848.299 1952.808 0.00 0.98905 0.04
6 9 4 2 o 15113.273 16961.402 180.00 0.99100 0.19
5 8 6 1 o 10184.880 11616.314 0.00 0.98845 0.25
9 3 3 1 o 1206.664 1359.588 180.00 0.98833 0.02
4 12 2 1 o 10872.821 12948.597 0.00 0.98828 0.33
2 7 8 2 o 135.041 167.928 180.00 0.99028 0.00
9 5 1 1 o 2150.773 2436.529 180.00 0.98738 0.07
2 12 4 1 o 7265.309 8121.854 180.00 0.98731 0.23
2 4 9 2 o 6400.956 7141.763 0.00 0.98957 0.08
4 11 4 1 o -2.270 2.367 0.00 0.98700 0.00
6 8 5 2 o 13617.554 15458.533 180.00 0.98935 0.17
4 9 6 2 o 163.669 176.602 0.00 0.98936 0.00
7 9 2 1 o 1320.384 1515.931 0.00 0.98676 0.03
5 3 8 2 o 1705.247 1952.808 0.00 0.98905 0.02
0 5 9 1 o 574.738 618.148 180.00 0.98607 0.01
5 8 6 2 o 10794.741 11616.314 0.00 0.98845 0.14
9 3 3 2 o 1287.266 1359.588 180.00 0.98833 0.01
4 12 2 2 o 12020.583 12948.597 0.00 0.98828 0.18
9 5 1 2 o 3026.039 2436.529 180.00 0.98738 0.05
2 12 4 2 o 10160.949 8121.854 180.00 0.98731 0.17
4 11 4 2 o 13.774 2.367 0.00 0.98700 0.00
7 9 2 2 o 1779.106 1515.931 0.00 0.98676 0.02
0 5 9 2 o 479.114 618.148 180.00 0.98607 0.00
2 13 2 1 o 894.457 1145.763 0.00 0.98322 0.03
2 9 7 1 o 649.540 769.016 0.00 0.98313 0.02
3 3 9 1 o 8394.834 7686.682 0.00 0.98250 0.20
1 5 9 1 o 7487.656 7808.967 180.00 0.98094 0.19
2 13 2 2 o 999.315 1145.763 0.00 0.98322 0.02
2 9 7 2 o 645.967 769.016 0.00 0.98313 0.01
3 3 9 2 o 5856.886 7686.682 0.00 0.98250 0.06
1 5 9 2 o 11038.776 7808.967 180.00 0.98094 0.15
0 13 3 1 o 17110.979 18168.033 180.00 0.97773 0.25
5 11 3 1 o 169.678 214.593 0.00 0.97733 0.01
6 10 3 1 o 461.654 567.477 180.00 0.97684 0.01
8 8 0 1 o 32367.127 31379.633 0.00 0.97599 0.43
3 11 5 1 o 11131.615 10740.030 0.00 0.97607 0.31
9 0 4 1 o 4889.841 4784.675 0.00 0.97586 0.06
0 13 3 2 o 20269.133 18168.033 180.00 0.97773 0.16
5 11 3 2 o 281.240 214.593 0.00 0.97733 0.00
3 10 6 1 o 1412.066 1163.698 0.00 0.97472 0.04
6 10 3 2 o 642.771 567.477 180.00 0.97684 0.01
8 4 5 1 o 2060.835 1825.222 0.00 0.97363 0.05
8 8 0 2 o 35226.03 31379.633 0.00 0.97599 0.24
3 11 5 2 o 12197.216 10740.030 0.00 0.97607 0.17
9 0 4 2 o 5235.332 4784.675 0.00 0.97586 0.03
9 1 4 1 o 2411.390 2291.811 0.00 0.97327 0.06
3 13 1 1 o 3271.898 3096.892 0.00 0.97335 0.08
1 13 3 1 o 901.461 802.451 0.00 0.97273 0.03
3 10 6 2 o 1312.328 1163.698 0.00 0.97472 0.02
6 7 6 1 o 809.566 709.486 0.00 0.97211 0.03
9 5 2 1 o 28360.770 27122.896 180.00 0.97192 0.72
8 4 5 2 o 2013.574 1825.222 0.00 0.97363 0.03
0 8 8 1 o 12848.622 11560.994 0.00 0.97100 0.19
9 1 4 2 o 2516.015 2291.811 0.00 0.97327 0.03
8 8 1 1 o 4321.632 3928.887 0.00 0.97093 0.12
3 13 1 2 o 3362.325 3096.892 0.00 0.97335 0.04
5 4 8 1 o 1850.607 1667.975 0.00 0.97060 0.05
1 13 3 2 o 911.434 802.451 0.00 0.97273 0.02
9 4 3 1 o 4312.285 3948.180 180.00 0.96991 0.11
7 8 4 1 o 8912.278 8409.749 180.00 0.96977 0.23
6 7 6 2 o 760.170 709.486 0.00 0.97211 0.01
9 5 2 2 o 27177.611 27122.896 180.00 0.97192 0.34
7 5 6 1 o 983.294 997.780 0.00 0.96945 0.02
8 7 3 1 o 17487.111 18254.305 180.00 0.96926 0.44
0 8 8 2 o 11078.273 11560.994 0.00 0.97100 0.08
8 8 1 2 o 3774.590 3928.887 0.00 0.97093 0.05
6 5 7 1 o 404.402 420.848 0.00 0.96845 0.01
4 1 9 1 o 9095.214 9622.055 180.00 0.96824 0.22
5 4 8 2 o 1578.367 1667.975 0.00 0.97060 0.02
6 11 0 1 o 2181.933 2283.103 180.00 0.96809 0.02
9 4 3 2 o 3851.914 3948.180 180.00 0.96991 0.05
8 6 4 1 o 339.610 349.045 180.00 0.96750 0.01
7 8 4 2 o 8133.659 8409.749 180.00 0.96977 0.10
4 8 7 1 o 4.505 4.640 180.00 0.96724 0.00
7 5 6 2 o 971.010 997.780 0.00 0.96945 0.01
8 7 3 2 o 17550.102 18254.305 180.00 0.96926 0.22
6 5 7 2 o 391.655 420.848 0.00 0.96845 0.00
1 8 8 1 o 1487.052 1618.635 0.00 0.96609 0.04
2 5 9 1 o 50.992 54.066 180.00 0.96600 0.00
4 1 9 2 o 8909.297 9622.055 180.00 0.96824 0.11
7 1 7 1 o 24612.256 26601.299 0.00 0.96581 0.56
9 2 4 1 o 2770.354 3092.204 0.00 0.96561 0.07
6 11 0 2 o 2114.715 2283.103 180.00 0.96809 0.01
8 6 4 2 o 342.308 349.045 180.00 0.96750 0.00
3 7 8 1 o 33.108 33.631 0.00 0.96506 0.00
4 8 7 2 o 4.462 4.640 180.00 0.96724 0.00
3 4 9 1 o 80.901 97.541 180.00 0.96441 0.00
4 6 8 1 o 4751.265 4543.678 180.00 0.96384 0.13
1 8 8 2 o 1720.943 1618.635 0.00 0.96609 0.02
2 5 9 2 o 57.098 54.066 180.00 0.96600 0.00
7 1 7 2 o 28403.039 26601.299 0.00 0.96581 0.34
9 2 4 2 o 3230.073 3092.204 0.00 0.96561 0.04
7 7 5 1 o 17326.121 16772.428 0.00 0.96317 0.47
6 11 1 1 o 18297.793 17815.850 0.00 0.96315 0.51
4 12 3 1 o 551.068 581.268 180.00 0.96284 0.02
3 7 8 2 o 29.496 33.631 0.00 0.96506 0.00
10 0 0 1 o 589.886 693.124 0.00 0.96236 0.00
3 12 4 1 o 3165.426 3824.402 180.00 0.96231 0.08
3 4 9 2 o 72.291 97.541 180.00 0.96441 0.00
4 6 8 2 o 3429.766 4543.678 180.00 0.96384 0.04
7 9 3 1 o 2280.951 2784.774 0.00 0.96143 0.04
5 7 7 1 o 512.880 677.042 180.00 0.96137 0.01
7 7 5 2 o 15352.606 16772.428 0.00 0.96317 0.20
4 2 9 1 o 2425.138 2700.674 180.00 0.96070 0.06
6 11 1 2 o 16329.685 17815.850 0.00 0.96315 0.22
1 11 6 1 o 2658.766 3086.460 0.00 0.96052 0.07
4 12 3 2 o 501.069 581.268 180.00 0.96284 0.01
10 0 0 2 o 699.447 693.124 0.00 0.96236 0.00
10 1 0 1 o 5031.211 4833.254 180.00 0.95987 0.06
3 12 4 2 o 3924.914 3824.402 180.00 0.96231 0.06
8 0 6 1 o 1830.429 1692.801 180.00 0.95965 0.02
7 9 3 2 o 3147.302 2784.774 0.00 0.96143 0.04
9 6 1 1 o 8132.234 7019.372 180.00 0.95898 0.22
5 7 7 2 o 802.395 677.042 180.00 0.96137 0.01
5 12 1 1 o 7798.745 7217.916 0.00 0.95865 0.22
3 13 2 1 o 4030.443 3890.006 0.00 0.95853 0.12
3 9 7 1 o 10235.502 10259.438 0.00 0.95844 0.26
7 2 7 1 o 534.947 558.252 180.00 0.95832 0.01
4 2 9 2 o 2573.600 2700.674 180.00 0.96070 0.03
1 11 6 2 o 2770.143 3086.460 0.00 0.96052 0.04
2 13 3 1 o 3534.238 3924.306 0.00 0.95815 0.10
6 0 8 1 o 2049.622 2102.585 180.00 0.95757 0.02
10 1 0 2 o 4738.804 4833.254 180.00 0.95987 0.03
8 0 6 2 o 1657.457 1692.801 180.00 0.95965 0.01
8 1 6 1 o 5409.867 5596.521 180.00 0.95719 0.15
1 12 5 1 o 249.019 254.349 0.00 0.95687 0.00
9 6 1 2 o 7063.540 7019.372 180.00 0.95898 0.09
8 8 2 1 o 8269.131 8032.271 0.00 0.95621 0.22
5 12 1 2 o 7457.952 7217.916 0.00 0.95865 0.10
3 13 2 2 o 3989.546 3890.006 0.00 0.95853 0.06
3 9 7 2 o 10428.041 10259.438 0.00 0.95844 0.13
7 2 7 2 o 561.897 558.252 180.00 0.95832 0.01
2 13 3 2 o 3956.218 3924.306 0.00 0.95815 0.06
6 0 8 2 o 2261.416 2102.585 180.00 0.95757 0.01
6 1 8 1 o 11762.798 10955.296 0.00 0.95512 0.32
10 1 1 1 o 21877.816 20867.416 0.00 0.95505 0.55
0 0 10 1 o 6774.644 6784.986 0.00 0.95491 0.03
8 1 6 2 o 5438.958 5596.521 180.00 0.95719 0.08
1 12 5 2 o 251.306 254.349 0.00 0.95687 0.00
8 8 2 2 o 8651.858 8032.271 0.00 0.95621 0.11
0 14 0 1 o 57549.44 53236.31 0.00 0.95402 0.43
9 3 4 1 o 944.875 793.665 0.00 0.95323 0.02
7 10 1 1 o 17.409 15.866 0.00 0.95319 0.00
1 6 9 1 o 1785.609 1409.314 0.00 0.95307 0.06
6 1 8 2 o 13069.485 10955.296 0.00 0.95512 0.18
10 1 1 2 o 24457.541 20867.416 0.00 0.95505 0.32
10 2 0 1 o 16914.451 14751.856 180.00 0.95252 0.22
0 0 10 2 o 7631.556 6784.986 0.00 0.95491 0.02
2 8 8 1 o 1060.044 857.940 0.00 0.95181 0.04
0 14 0 2 o 62436.48 53236.31 0.00 0.95402 0.24
5 10 5 1 o 3.501 0.199 180.00 0.95144 0.00
8 5 5 1 o 682.828 580.375 180.00 0.95115 0.02
9 3 4 2 o 913.502 793.665 0.00 0.95323 0.01
7 10 1 2 o 17.059 15.866 0.00 0.95319 0.00
1 6 9 2 o 1710.057 1409.314 0.00 0.95307 0.03
1 0 10 1 o 23102.375 20481.783 0.00 0.95024 0.30
10 2 0 2 o 16132.181 14751.856 180.00 0.95252 0.11
8 2 6 1 o 2423.448 2653.294 0.00 0.94990 0.06
1 10 7 1 o 188.300 198.571 180.00 0.94970 0.00
2 8 8 2 o 607.953 857.940 0.00 0.95181 0.01
5 10 5 2 o -0.929 0.199 180.00 0.95144 0.00
8 5 5 2 o 589.372 580.375 180.00 0.95115 0.01
6 11 2 1 o 1708.177 1674.834 180.00 0.94879 0.06
4 3 9 1 o 21849.244 22602.412 0.00 0.94851 0.55
5 5 8 1 o 9505.310 10179.902 180.00 0.94832 0.23
1 0 10 2 o 18666.107 20481.783 0.00 0.95024 0.11
6 2 8 1 o 73.945 83.030 0.00 0.94788 0.00
10 2 1 1 o 6523.643 7138.702 180.00 0.94781 0.16
1 1 10 1 o 3028.611 3328.125 0.00 0.94785 0.08
9 5 3 1 o 250.191 258.956 180.00 0.94769 0.00
8 2 6 2 o 2462.746 2653.294 0.00 0.94990 0.03
1 10 7 2 o 195.654 198.571 180.00 0.94970 0.00
2 11 6 1 o 3284.975 3269.582 180.00 0.94648 0.10
6 11 2 2 o 1664.467 1674.834 180.00 0.94879 0.03
7 3 7 1 o 1802.296 1913.282 180.00 0.94622 0.04
4 3 9 2 o 20753.990 22602.412 0.00 0.94851 0.26
6 9 5 1 o 1087.557 1178.118 0.00 0.94620 0.03
5 5 8 2 o 9203.653 10179.902 180.00 0.94832 0.11
6 2 8 2 o 79.684 83.030 0.00 0.94788 0.00
10 2 1 2 o 6909.545 7138.702 180.00 0.94781 0.08
1 1 10 2 o 3219.285 3328.125 0.00 0.94785 0.04
9 5 3 2 o 254.109 258.956 180.00 0.94769 0.00
5 9 6 1 o 15285.106 15880.739 0.00 0.94542 0.41
0 2 10 1 o 2883.312 3051.105 180.00 0.94530 0.04
9 6 2 1 o 1086.799 1161.114 0.00 0.94479 0.03
4 13 0 1 o 863.378 924.823 0.00 0.94486 0.01
1 14 1 1 o 1267.246 1372.159 0.00 0.94471 0.05
5 12 2 1 o 1480.933 1526.919 0.00 0.94448 0.04
2 11 6 2 o 3253.004 3269.582 180.00 0.94648 0.05
7 3 7 2 o 1955.579 1913.282 180.00 0.94622 0.02
6 9 5 2 o 1215.423 1178.118 0.00 0.94620 0.02
10 0 2 1 o 2293.420 1996.968 180.00 0.94338 0.03
5 11 4 1 o 920.295 790.023 0.00 0.94335 0.03
5 9 6 2 o 18424.209 15880.739 0.00 0.94542 0.26
0 2 10 2 o 3455.570 3051.105 180.00 0.94530 0.02
2 12 5 1 o 26439.416 23313.553 180.00 0.94299 0.79
6 10 4 1 o 15592.958 14046.660 180.00 0.94291 0.43
4 11 5 1 o 36189.02 34743.832 180.00 0.94272 1.03
3 5 9 1 o 4340.826 4416.325 0.00 0.94255 0.10
7 6 6 1 o 252.097 259.936 0.00 0.94252 0.01
9 6 2 2 o 1112.637 1161.114 0.00 0.94479 0.01
4 13 0 2 o 904.717 924.823 0.00 0.94486 0.01
1 14 1 2 o 1255.758 1372.159 0.00 0.94471 0.03
5 12 2 2 o 1413.797 1526.919 0.00 0.94448 0.02
6 6 7 1 o 214.145 197.480 180.00 0.94160 0.01
4 10 6 1 o 3415.363 3067.931 180.00 0.94150 0.10
10 0 2 2 o 2260.768 1996.968 180.00 0.94338 0.01
10 1 2 1 o 1971.603 1675.486 180.00 0.94104 0.06
5 11 4 2 o 902.991 790.023 0.00 0.94335 0.01
1 2 10 1 o 5137.403 4560.282 0.00 0.94077 0.13
10 3 0 1 o 444.518 421.291 180.00 0.94063 0.00
2 12 5 2 o 25861.736 23313.553 180.00 0.94299 0.38
6 10 4 2 o 15342.157 14046.660 180.00 0.94291 0.21
4 11 5 2 o 36218.75 34743.832 180.00 0.94272 0.52
3 5 9 2 o 4404.547 4416.325 0.00 0.94255 0.05
7 6 6 2 o 257.335 259.936 0.00 0.94252 0.00
4 13 1 1 o 23842.027 23702.242 180.00 0.94027 0.70
2 6 9 1 o 15194.411 15189.413 0.00 0.93935 0.39
6 6 7 2 o 195.479 197.480 180.00 0.94160 0.00
7 10 2 1 o 11804.723 11966.105 0.00 0.93926 0.32
4 10 6 2 o 2972.176 3067.931 180.00 0.94150 0.04
1 13 4 1 o 1178.097 1204.479 180.00 0.93921 0.03
10 1 2 2 o 1582.451 1675.486 180.00 0.94104 0.02
1 2 10 2 o 4650.046 4560.282 0.00 0.94077 0.06
10 3 0 2 o 432.685 421.291 180.00 0.94063 0.00
8 3 6 1 o 3383.075 3069.833 180.00 0.93811 0.11
4 13 1 2 o 25623.211 23702.242 180.00 0.94027 0.38
2 6 9 2 o 16354.370 15189.413 0.00 0.93935 0.22
7 10 2 2 o 12696.639 11966.105 0.00 0.93926 0.18
1 13 4 2 o 1268.199 1204.479 180.00 0.93921 0.02
9 4 4 1 o 1763.779 1733.698 0.00 0.93668 0.04
2 0 10 1 o 196.723 195.511 0.00 0.93664 0.00
6 3 8 1 o 4760.236 4684.164 0.00 0.93616 0.14
10 3 1 1 o 31.251 31.192 180.00 0.93610 0.00
8 7 4 1 o 1067.053 1066.763 180.00 0.93609 0.04
2 10 7 1 o 22.240 22.116 180.00 0.93612 0.00
8 3 6 2 o 2915.035 3069.833 180.00 0.93811 0.05
2 14 0 1 o 6040.082 6327.524 180.00 0.93580 0.10
6 8 6 1 o 527.536 553.870 180.00 0.93565 0.02
0 14 2 1 o 15635.208 16405.195 0.00 0.93553 0.25
3 13 3 1 o 18077.172 19965.424 0.00 0.93526 0.55
8 9 0 1 o 10763.657 10532.358 0.00 0.93449 0.15
9 4 4 2 o 1786.663 1733.698 0.00 0.93668 0.02
2 0 10 2 o 197.979 195.511 0.00 0.93664 0.00
2 1 10 1 o 13018.324 12588.170 180.00 0.93435 0.34
10 2 2 1 o 5809.605 5655.478 180.00 0.93411 0.14
6 3 8 2 o 4768.804 4684.164 0.00 0.93616 0.07
10 3 1 2 o 31.743 31.192 180.00 0.93610 0.00
8 7 4 2 o 1086.692 1066.763 180.00 0.93609 0.02
2 10 7 2 o 22.398 22.116 180.00 0.93612 0.00
2 14 0 2 o 6403.264 6327.524 180.00 0.93580 0.05
6 8 6 2 o 561.001 553.870 180.00 0.93565 0.01
8 8 3 1 o 919.342 905.577 180.00 0.93311 0.02
0 14 2 2 o 16627.898 16405.195 0.00 0.93553 0.14
3 13 3 2 o 20457.639 19965.424 0.00 0.93526 0.32
4 7 8 1 o 538.590 518.570 180.00 0.93278 0.02
4 4 9 1 o 336.422 346.784 0.00 0.93220 0.01
8 9 0 2 o 10187.428 10532.358 0.00 0.93449 0.07
2 1 10 2 o 12356.294 12588.170 180.00 0.93435 0.16
10 2 2 2 o 5584.903 5655.478 180.00 0.93411 0.07
2 14 1 1 o 34.013 34.111 180.00 0.93134 0.00
1 14 2 1 o 17528.918 17847.844 0.00 0.93114 0.54
8 8 3 2 o 851.686 905.577 180.00 0.93311 0.01
9 1 5 1 o 1249.415 1305.445 180.00 0.93073 0.02
4 7 8 2 o 530.986 518.570 180.00 0.93278 0.01
4 12 4 1 o 244.413 232.339 0.00 0.93030 0.00
7 4 7 1 o 297.568 273.610 0.00 0.93002 0.01
8 9 1 1 o 11366.391 10393.553 180.00 0.93005 0.31
4 4 9 2 o 362.536 346.784 0.00 0.93220 0.00
1 3 10 1 o 1186.130 1260.500 0.00 0.92931 0.03
3 8 8 1 o 16864.914 17741.512 180.00 0.92935 0.44
7 9 4 1 o 127.023 137.957 0.00 0.92903 0.00
2 14 1 2 o 31.541 34.111 180.00 0.93134 0.00
1 14 2 2 o 15888.666 17847.844 0.00 0.93114 0.24
9 1 5 2 o 1132.810 1305.445 180.00 0.93073 0.01
9 7 1 1 o 58.507 87.250 0.00 0.92837 0.00
4 12 4 2 o 222.316 232.339 0.00 0.93030 0.00
7 4 7 2 o 278.451 273.610 0.00 0.93002 0.00
8 9 1 2 o 10509.436 10393.553 180.00 0.93005 0.14
7 8 5 1 o 37.393 36.486 180.00 0.92767 0.00
2 2 10 1 o 106.873 103.472 0.00 0.92757 0.00
0 7 9 1 o 24367.227 24413.051 0.00 0.92729 0.32
1 3 10 2 o 1167.664 1260.500 0.00 0.92931 0.02
3 8 8 2 o 16699.242 17741.512 180.00 0.92935 0.22
5 1 9 1 o 2607.578 2800.613 180.00 0.92694 0.05
4 13 2 1 o 146.134 162.428 0.00 0.92688 0.01
4 9 7 1 o 298.907 324.829 180.00 0.92680 0.01
7 9 4 2 o 128.185 137.957 0.00 0.92903 0.00
6 11 3 1 o 1806.201 1663.329 0.00 0.92620 0.05
9 7 1 2 o 98.154 87.250 0.00 0.92837 0.00
5 8 7 1 o 11581.299 10939.750 0.00 0.92606 0.30
2 13 4 1 o 12835.623 12026.100 180.00 0.92608 0.39
1 9 8 1 o 6467.867 6768.547 180.00 0.92580 0.17
8 6 5 1 o 4457.356 4902.980 0.00 0.92568 0.11
7 8 5 2 o 32.989 36.486 180.00 0.92767 0.00
2 2 10 2 o 95.293 103.472 0.00 0.92757 0.00
2 13 4 2 o 12367.153 12026.100 180.00 0.92608 0.19
0 7 9 2 o 23423.758 24413.051 0.00 0.92729 0.15
1 9 8 2 o 7132.322 6768.547 180.00 0.92580 0.10
10 4 0 1 o 27429.686 29160.248 180.00 0.92472 0.34
8 6 5 2 o 5217.563 4902.980 0.00 0.92568 0.07
5 1 9 2 o 2647.413 2800.613 180.00 0.92694 0.03
4 13 2 2 o 149.692 162.428 0.00 0.92688 0.00
4 9 7 2 o 304.714 324.829 180.00 0.92680 0.00
5 6 8 1 o 12372.981 11350.174 0.00 0.92308 0.33
1 7 9 1 o 7142.421 6532.725 180.00 0.92301 0.19
3 11 6 1 o 943.076 989.049 180.00 0.92439 0.03
10 3 2 1 o 1582.974 1378.480 180.00 0.92289 0.05
9 2 5 1 o 1567.340 1551.269 180.00 0.92403 0.04
6 11 3 2 o 1694.517 1663.329 0.00 0.92620 0.02
9 6 3 1 o 11393.608 10258.733 180.00 0.92249 0.30
10 4 0 2 o 31952.600 29160.248 180.00 0.92472 0.21
5 8 7 2 o 11246.656 10939.750 0.00 0.92606 0.15
8 4 6 1 o 10960.924 10504.149 0.00 0.92232 0.29
5 12 3 1 o 17931.885 18435.172 0.00 0.92219 0.53
3 11 6 2 o 924.827 989.049 180.00 0.92439 0.01
9 2 5 2 o 1310.036 1551.269 180.00 0.92403 0.02
3 12 5 1 o 1294.416 1127.090 180.00 0.92113 0.04
5 6 8 2 o 14463.973 11350.174 0.00 0.92308 0.20
1 7 9 2 o 8283.895 6532.725 180.00 0.92301 0.11
10 3 2 2 o 1853.305 1378.480 180.00 0.92289 0.03
6 4 8 1 o 315.079 278.006 0.00 0.92047 0.01
10 4 1 1 o 1786.352 1491.489 0.00 0.92041 0.05
5 2 9 1 o 95.549 68.437 180.00 0.92032 0.01
9 6 3 2 o 11726.971 10258.733 180.00 0.92249 0.16
8 4 6 2 o 11836.862 10504.149 0.00 0.92232 0.16
5 12 3 2 o 20810.512 18435.172 0.00 0.92219 0.32
10 1 3 1 o 1046.680 1160.144 0.00 0.91899 0.03
3 12 5 2 o 921.947 1127.090 180.00 0.92113 0.01
6 4 8 2 o 261.712 278.006 0.00 0.92047 0.00
10 4 1 2 o 1292.837 1491.489 0.00 0.92041 0.02
2 14 2 1 o 2026.130 2112.729 180.00 0.91833 0.05
0 4 10 1 o 7828.188 9086.244 180.00 0.91810 0.08
5 2 9 2 o 35.456 68.437 180.00 0.92032 0.00
3 6 9 1 o 170.274 386.585 0.00 0.91775 0.01
7 10 3 1 o 480.322 605.870 0.00 0.91733 0.02
8 9 2 1 o 51.457 51.520 0.00 0.91709 0.00
10 1 3 2 o 1161.088 1160.144 0.00 0.91899 0.01
9 5 4 1 o 3463.595 3518.891 180.00 0.91661 0.09
2 3 10 1 o 3831.129 3926.295 180.00 0.91658 0.10
2 14 2 2 o 1493.779 2112.729 180.00 0.91833 0.01
0 4 10 2 o 5067.345 9086.244 180.00 0.91810 0.02
9 7 2 1 o 5.357 13.023 0.00 0.91549 0.00
3 6 9 2 o -9.467 386.585 0.00 0.91775 0.00
3 0 10 1 o 2.935 10.727 180.00 0.91522 0.00
7 10 3 2 o 247.624 605.870 0.00 0.91733 0.00
8 9 2 2 o 40.997 51.520 0.00 0.91709 0.00
3 10 7 1 o 2072.878 3911.804 0.00 0.91473 0.06
9 5 4 2 o 2630.520 3518.891 180.00 0.91661 0.03
6 12 0 1 o 3341.768 4711.772 180.00 0.91442 0.05
2 3 10 2 o 2947.158 3926.295 180.00 0.91658 0.04
1 4 10 1 o 458.901 516.990 0.00 0.91395 0.01
7 7 6 1 o 31.304 23.570 180.00 0.91342 0.00
9 7 2 2 o 15.836 13.023 0.00 0.91549 0.00
9 3 5 1 o 7916.988 6458.849 180.00 0.91316 0.24
2 9 8 1 o 9837.901 8118.438 180.00 0.91321 0.28
3 1 10 1 o 1366.330 1185.033 180.00 0.91308 0.04
3 0 10 2 o 11.863 10.727 180.00 0.91522 0.00
10 2 3 1 o 2244.705 2571.487 0.00 0.91253 0.06
6 7 7 1 o 328.160 373.089 0.00 0.91258 0.01
3 10 7 2 o 3280.806 3911.804 0.00 0.91473 0.05
4 5 9 1 o 1063.504 1240.198 0.00 0.91241 0.03
6 12 0 2 o 4156.925 4711.772 180.00 0.91442 0.03
0 12 6 1 o 5597.275 6256.663 0.00 0.91210 0.09
1 4 10 2 o 569.272 516.990 0.00 0.91395 0.01
7 7 6 2 o 32.226 23.570 180.00 0.91342 0.00
9 3 5 2 o 8580.404 6458.849 180.00 0.91316 0.13
2 9 8 2 o 10403.028 8118.438 180.00 0.91321 0.15
3 1 10 2 o 1531.043 1185.033 180.00 0.91308 0.02
2 7 9 1 o 409.305 309.329 0.00 0.91053 0.01
7 5 7 1 o 6778.241 4959.946 0.00 0.91037 0.21
10 2 3 2 o 3325.301 2571.487 0.00 0.91253 0.05
6 7 7 2 o 494.065 373.089 0.00 0.91258 0.01
6 12 1 1 o 14151.004 11050.831 180.00 0.91026 0.45
4 5 9 2 o 1554.817 1240.198 0.00 0.91241 0.02
3 14 1 1 o 979.702 690.950 0.00 0.91027 0.04
0 12 6 2 o 7615.712 6256.663 0.00 0.91210 0.07
1 14 3 1 o 572.742 454.131 180.00 0.90976 0.03
5 3 9 1 o 10718.570 9801.859 180.00 0.90958 0.30
2 7 9 2 o 301.095 309.329 0.00 0.91053 0.00
7 5 7 2 o 4714.235 4959.946 0.00 0.91037 0.07
6 12 1 2 o 10270.384 11050.831 180.00 0.91026 0.15
1 12 6 1 o 5835.540 6241.738 0.00 0.90803 0.17
10 4 2 1 o 8435.165 9631.729 180.00 0.90785 0.22
3 14 1 2 o 623.707 690.950 0.00 0.91027 0.01
1 14 3 2 o 325.594 454.131 180.00 0.90976 0.01
5 3 9 2 o 8063.144 9801.859 180.00 0.90958 0.11
0 11 7 1 o 925.096 1022.502 180.00 0.90697 0.01
3 2 10 1 o 7532.557 8332.005 180.00 0.90674 0.19
7 11 1 1 o 6990.968 7085.804 0.00 0.90597 0.19
1 12 6 2 o 6171.366 6241.738 0.00 0.90803 0.09
4 13 3 1 o 620.637 628.186 180.00 0.90579 0.02
10 4 2 2 o 9640.010 9631.729 180.00 0.90785 0.13
10 5 0 1 o 7251.316 7063.713 0.00 0.90539 0.09
3 13 4 1 o 332.275 321.681 0.00 0.90535 0.01
0 13 5 1 o 18620.928 17875.674 180.00 0.90479 0.28
0 11 7 2 o 1048.135 1022.502 180.00 0.90697 0.01
3 2 10 2 o 7910.122 8332.005 180.00 0.90674 0.10
5 11 5 1 o 6346.049 6788.041 180.00 0.90447 0.19
6 10 5 1 o 2801.745 3182.353 180.00 0.90408 0.08
7 11 1 2 o 6434.424 7085.804 0.00 0.90597 0.09
4 13 3 2 o 578.417 628.186 180.00 0.90579 0.01
8 8 4 1 o 50.339 52.909 180.00 0.90340 0.00
5 10 6 1 o 479.310 509.135 0.00 0.90339 0.01
10 5 0 2 o 6622.224 7063.713 0.00 0.90539 0.04
8 5 6 1 o 4156.689 4509.429 0.00 0.90314 0.12
3 13 4 2 o 300.502 321.681 0.00 0.90535 0.00
1 11 7 1 o 203.501 218.782 0.00 0.90297 0.01
0 13 5 2 o 18546.199 17875.674 180.00 0.90479 0.14
5 13 1 1 o 4116.185 3778.359 180.00 0.90230 0.15
5 11 5 2 o 7312.884 6788.041 180.00 0.90447 0.11
10 3 3 1 o 13147.592 12699.542 0.00 0.90207 0.35
2 4 10 1 o 919.108 1000.626 0.00 0.90183 0.04
6 10 5 2 o 3019.318 3182.353 180.00 0.90408 0.04
6 5 8 1 o 9163.770 10421.228 180.00 0.90140 0.25
10 5 1 1 o 2419.417 2715.939 0.00 0.90135 0.06
7 0 8 1 o 1077.737 1222.488 0.00 0.90132 0.01
8 8 4 2 o 48.205 52.909 180.00 0.90340 0.00
5 10 6 2 o 454.120 509.135 0.00 0.90339 0.01
8 5 6 2 o 3857.253 4509.429 0.00 0.90314 0.06
1 13 5 1 o 5776.785 6748.328 180.00 0.90082 0.17
1 11 7 2 o 185.889 218.782 0.00 0.90297 0.00
4 8 8 1 o 710.320 751.332 180.00 0.90043 0.01
8 1 7 1 o 251.233 244.541 180.00 0.90020 0.01
5 13 1 2 o 4106.706 3778.359 180.00 0.90230 0.07
10 3 3 2 o 14099.662 12699.542 0.00 0.90207 0.19
2 4 10 2 o 1122.102 1000.626 0.00 0.90183 0.02
7 1 8 1 o 382.177 347.041 180.00 0.89928 0.01
6 5 8 2 o 11585.556 10421.228 180.00 0.90140 0.17
10 5 1 2 o 2993.568 2715.939 0.00 0.90135 0.04
7 0 8 2 o 1356.880 1222.488 0.00 0.90132 0.01
6 9 6 1 o 7349.446 6801.232 180.00 0.89890 0.22
9 4 5 1 o 424.795 383.246 0.00 0.89858 0.01
1 13 5 2 o 7453.720 6748.328 180.00 0.90082 0.12
4 8 8 2 o 828.987 751.332 180.00 0.90043 0.01
8 7 5 1 o 28474.287 25977.834 180.00 0.89806 0.81
8 1 7 2 o 259.473 244.541 180.00 0.90020 0.00
6 12 2 1 o 3014.494 2743.565 180.00 0.89810 0.08
3 14 2 1 o 9930.010 8902.831 0.00 0.89811 0.32
2 14 3 1 o 10.894 10.876 0.00 0.89781 0.00
7 1 8 2 o 351.921 347.041 180.00 0.89928 0.00
6 11 4 1 o 7783.253 7635.784 0.00 0.89713 0.26
6 9 6 2 o 7157.361 6801.232 180.00 0.89890 0.11
8 9 3 1 o 2677.609 2531.037 180.00 0.89665 0.08
3 3 10 1 o 191.959 178.995 180.00 0.89647 0.00
9 8 1 1 o 4652.752 4304.516 0.00 0.89646 0.13
9 4 5 2 o 418.465 383.246 0.00 0.89858 0.01
2 12 6 1 o 27.903 27.863 180.00 0.89614 0.00
8 7 5 2 o 27905.611 25977.834 180.00 0.89806 0.40
4 11 6 1 o 1081.739 978.718 180.00 0.89591 0.04
6 12 2 2 o 2937.376 2743.565 180.00 0.89810 0.04
3 14 2 2 o 9618.816 8902.831 0.00 0.89811 0.15
5 7 8 1 o 30.507 28.450 0.00 0.89569 0.00
2 14 3 2 o 11.529 10.876 0.00 0.89781 0.00
1 5 10 1 o 4992.877 4565.985 180.00 0.89528 0.14
5 4 9 1 o 60.961 56.803 180.00 0.89517 0.00
9 7 3 1 o 1677.190 1570.592 180.00 0.89515 0.05
6 11 4 2 o 7396.610 7635.784 0.00 0.89713 0.12
8 9 3 2 o 2490.241 2531.037 180.00 0.89665 0.04
3 3 10 2 o 184.015 178.995 180.00 0.89647 0.00
9 8 1 2 o 4449.227 4304.516 0.00 0.89646 0.06
8 2 7 1 o 136.686 129.631 0.00 0.89413 0.00
7 11 2 1 o 451.614 427.263 180.00 0.89398 0.01
2 12 6 2 o 27.886 27.863 180.00 0.89614 0.00
8 10 0 1 o 1322.535 1236.090 180.00 0.89385 0.02
9 6 4 1 o 2992.389 2745.977 0.00 0.89375 0.08
4 11 6 2 o 1100.208 978.718 180.00 0.89591 0.02
5 7 8 2 o 31.882 28.450 0.00 0.89569 0.00
5 12 4 1 o 3157.861 2864.851 0.00 0.89349 0.10
3 9 8 1 o 2772.455 2620.902 0.00 0.89332 0.08
7 2 8 1 o 9078.076 8856.007 180.00 0.89322 0.24
1 5 10 2 o 4477.979 4565.985 180.00 0.89528 0.06
5 4 9 2 o 54.250 56.803 180.00 0.89517 0.00
9 7 3 2 o 1493.566 1570.592 180.00 0.89515 0.02
4 12 5 1 o 2016.566 2109.992 180.00 0.89295 0.06
10 0 4 1 o 22074.758 24181.223 180.00 0.89256 0.29
8 2 7 2 o 117.377 129.631 0.00 0.89413 0.00
7 9 5 1 o 5307.499 5845.382 0.00 0.89182 0.17
7 11 2 2 o 390.906 427.263 180.00 0.89398 0.01
8 10 0 2 o 1133.880 1236.090 180.00 0.89385 0.01
1 8 9 1 o 0.303 1.172 0.00 0.89163 0.00
9 6 4 2 o 2514.789 2745.977 0.00 0.89375 0.03
5 12 4 2 o 2700.000 2864.851 0.00 0.89349 0.04
2 11 7 1 o 375.023 397.092 0.00 0.89128 0.01
3 9 8 2 o 2552.422 2620.902 0.00 0.89332 0.04
7 2 8 2 o 8755.073 8856.007 180.00 0.89322 0.12
3 7 9 1 o 4636.433 4537.776 0.00 0.89081 0.14
4 12 5 2 o 2175.752 2109.992 180.00 0.89295 0.03
10 1 4 1 o 9127.771 8746.544 0.00 0.89057 0.27
10 0 4 2 o 24496.131 24181.223 180.00 0.89256 0.17
5 13 2 1 o 9827.923 9558.057 0.00 0.89046 0.31
5 9 7 1 o 11411.430 11208.390 180.00 0.89039 0.36
0 10 8 1 o 4712.648 4919.366 180.00 0.89001 0.06
