#------------------------------------------------------------------------------
#$Date: 2016-03-21 01:21:50 +0200 (Mon, 21 Mar 2016) $
#$Revision: 178377 $
#$URL: svn://www.crystallography.net/cod/cif/4/00/12/4001200.cif $
#------------------------------------------------------------------------------
#
# This file is available in the Crystallography Open Database (COD),
# http://www.crystallography.net/
#
# All data on this site have been placed in the public domain by the
# contributors.
#
data_4001200
loop_
_publ_author_name
'Zhou, Yongkai'
'Adams, Stefan'
'Rao, R. Prasada'
'Edwards, Doreen D.'
'Neiman, Arkady'
'Pestereva, N.'
_publ_section_title
;
 Charge Transport by Polyatomic Anion Diffusion in Sc2(WO4)3
;
_journal_issue                   20
_journal_name_full               'Chemistry of Materials'
_journal_page_first              6335
_journal_paper_doi               10.1021/cm800466y
_journal_volume                  20
_journal_year                    2008
_chemical_formula_moiety         ' Sc2(WO4)3 '
_chemical_formula_sum            'O12 Sc2 W3'
_chemical_formula_weight         833.45
_chemical_melting_point          1913
_chemical_name_common            ' Scandium Tungstate '
_chemical_name_systematic        ' Scandium Tungstate '
_space_group_IT_number           60
_symmetry_cell_setting           orthorhombic
_symmetry_space_group_name_Hall  '-P 2a 2n'
_symmetry_space_group_name_H-M   'P n c a'
_audit_creation_date             2008-01-25T12:03
_audit_creation_method           'from EXP file using GSAS2CIF'
_audit_update_record
' 2008-01-25T12:03  Initial CIF as created by GSAS2CIF'
_cell_angle_alpha                90.0
_cell_angle_beta                 90.0
_cell_angle_gamma                90.0
_cell_formula_units_Z            4
_cell_length_a                   9.63194(5)
_cell_length_b                   13.35293(7)
_cell_length_c                   9.55447(5)
_cell_measurement_temperature    900
_cell_volume                     1228.845(11)
_computing_structure_refinement  GSAS
_diffrn_radiation_polarisn_ratio 0.68
_diffrn_radiation_probe          x-ray
_exptl_absorpt_correction_T_max  1.00000
_exptl_absorpt_correction_T_min  1.00000
_exptl_absorpt_process_details
;   GSAS Absorption/surface roughness correction: function number 0
 No correction is applied.
;
_pd_block_id
2008-01-25T12:03|T11K|Zhou_Yongkai|Philips_Xpert
_pd_calc_method                  'Rietveld Refinement'
_pd_instr_location               ' ?'
_pd_meas_2theta_range_inc        0.017
_pd_meas_2theta_range_max        119.9874
_pd_meas_2theta_range_min        10.0144
_pd_meas_number_of_points        6470
_pd_proc_2theta_range_inc        0.017
_pd_proc_2theta_range_max        119.9874
_pd_proc_2theta_range_min        10.0144
_pd_proc_info_datetime           2008-01-25T12:30:04
_pd_proc_info_excluded_regions   ' ?'
_pd_proc_ls_background_function
;   GSAS Background function number 1 with 12 terms.
 Shifted Chebyshev function of 1st kind
      1:    374.923     2:   -30.2971     3:    3.70565     4:    49.4791    
      5:   -5.20035     6:    9.98100     7:   -10.8934     8:    5.26891    
      9:    9.74324    10:   -24.1019    11:    21.9492    12:   -6.34808    
;
_pd_proc_ls_peak_cutoff          0.00250
_pd_proc_ls_pref_orient_corr
;   March-Dollase
 AXIS  1 Ratio=   0.95661  h= 0.000  k= 1.000  l= 0.000
 Prefered orientation correction range: Min=   0.93562, Max=   1.14235
;
_pd_proc_ls_profile_function
;
 CW Profile function number 3 with  19 terms
 Pseudovoigt profile coefficients as parameterized in
 P. Thompson, D.E. Cox & J.B. Hastings (1987). J. Appl. Cryst.,20,79-83.
 Asymmetry correction of L.W. Finger, D.E. Cox & A. P. Jephcoat (1994).
 J. Appl. Cryst.,27,892-900.
 Peak tails are ignored  where the intensity is below 0.0025 times the peak
   Aniso. broadening axis   0.0   0.0   1.0
;
_pd_proc_ls_prof_R_factor        0.0500
_pd_proc_ls_prof_wR_expected     0.0362
_pd_proc_ls_prof_wR_factor       0.0654
_pd_proc_number_of_points        6470
_pd_spec_mounting                ' ?'
_refine_ls_goodness_of_fit_all   1.85
_refine_ls_matrix_type           full
_refine_ls_number_parameters     51
_refine_ls_number_restraints     0
_refine_ls_R_Fsqd_factor         0.06851
_refine_ls_shift/su_max          0.03
_refine_ls_shift/su_mean         0.01
_reflns_d_resolution_high        0.890
_reflns_d_resolution_low         6.676
_reflns_limit_h_max              10
_reflns_limit_h_min              0
_reflns_limit_k_max              15
_reflns_limit_k_min              0
_reflns_limit_l_max              10
_reflns_limit_l_min              0
_reflns_number_total             1828
_cod_data_source_file            cm800466y_si_019.cif
_cod_data_source_block           T900K
_cod_depositor_comments
;
The following automatic conversions were performed:

'_chemical_melting_point' value ' 1913K ' was changed to '1913' - the
value should be numeric and without a unit
designator.

'_geom_bond_publ_flag' value 'N' changed to 'n'
according to /home/saulius/struct/CIF-dictionaries/cif_core.dic
dictionary named 'cif_core.dic' version 2.4.1 from 2010-06-29 (26
times).

'_geom_angle_publ_flag' value 'N' changed to 'n' according
to /home/saulius/struct/CIF-dictionaries/cif_core.dic dictionary
named 'cif_core.dic' version 2.4.1 from 2010-06-29 (33 times).

Automatic conversion script
Id: cif_fix_values 1715 2011-07-08 13:25:40Z adriana 
;
_cod_original_cell_volume        1228.844(13)
_cod_database_code               4001200
#BEGIN Tags that were not found in dictionaries:
_gsas_exptl_extinct_corr_t_min   1.00000
_gsas_exptl_extinct_corr_t_max   1.00000
#END Tags that were not found in dictionaries
loop_
_symmetry_equiv_pos_site_id
_symmetry_equiv_pos_as_xyz
1 +x,+y,+z
2 -x+1/2,+y+1/2,+z+1/2
3 +x,-y+1/2,+z+1/2
4 -x+1/2,-y,+z
-1 -x,-y,-z
-2 +x+1/2,-y+1/2,-z+1/2
-3 -x,+y+1/2,-z+1/2
-4 +x+1/2,+y,-z
loop_
_atom_site_type_symbol
_atom_site_label
_atom_site_fract_x
_atom_site_fract_y
_atom_site_fract_z
_atom_site_occupancy
_atom_site_thermal_displace_type
_atom_site_U_iso_or_equiv
_atom_site_symmetry_multiplicity
Sc Sc1 0.4703(4) 0.38180(25) 0.2469(5) 1.0 Uiso 0.0262(12) 8
W W1 0.25 0.0 0.47133(15) 1.0 Uiso 0.02815(31) 4
W W2 0.11298(11) 0.35645(8) 0.39118(12) 1.0 Uiso 0.02815(31) 8
O O1 0.0918(13) 0.1270(9) 0.0682(13) 1.0 Uiso 0.0622(19) 8
O O2 0.1520(13) 0.0756(9) 0.3722(14) 1.0 Uiso 0.0622(19) 8
O O3 0.0047(13) 0.2646(10) 0.3155(12) 1.0 Uiso 0.0622(19) 8
O O4 0.3351(13) 0.4052(8) 0.0732(13) 1.0 Uiso 0.0622(19) 8
O O5 0.0592(12) 0.4749(10) 0.3215(13) 1.0 Uiso 0.0622(19) 8
O O6 0.2919(14) 0.3479(9) 0.3419(13) 1.0 Uiso 0.0622(19) 8
loop_
_atom_type_symbol
_atom_type_number_in_cell
_atom_type_scat_dispersion_real
_atom_type_scat_dispersion_imag
_atom_type_scat_Cromer_Mann_a1
_atom_type_scat_Cromer_Mann_a2
_atom_type_scat_Cromer_Mann_a3
_atom_type_scat_Cromer_Mann_a4
_atom_type_scat_Cromer_Mann_b1
_atom_type_scat_Cromer_Mann_b2
_atom_type_scat_Cromer_Mann_b3
_atom_type_scat_Cromer_Mann_b4
_atom_type_scat_Cromer_Mann_c
_atom_type_scat_source
Sc 8.0 0.000 0.000 9.18900 9.02130 7.36790 0.57290 1.64090 136.108 1.46800
51.3531 1.33290 International_Tables_Vol_C
W 12.0 0.000 0.000 29.0818 1.72029 15.4300 9.22590 14.4327 0.32170 5.11982
57.0560 9.88750 International_Tables_Vol_C
O 48.0 0.000 0.000 3.04850 13.2771 2.28680 5.70110 1.54630 0.32390 0.86700
32.9089 0.25080 International_Tables_Vol_C
loop_
_diffrn_radiation_wavelength
_diffrn_radiation_wavelength_wt
_diffrn_radiation_type
_diffrn_radiation_wavelength_id
1.540500 1.000 K\a~1~ 1
1.544300 0.000 K\a~2~ 2
loop_
_geom_angle_atom_site_label_1
_geom_angle_atom_site_label_2
_geom_angle_atom_site_label_3
_geom_angle
_geom_angle_site_symmetry_1
_geom_angle_site_symmetry_3
_geom_angle_publ_flag
O1 Sc1 O2 90.4(5) -2_666 -2_666 n
O1 Sc1 O3 95.7(5) -2_666 -2_666 n
O1 Sc1 O4 173.0(5) -2_666 1_555 n
O1 Sc1 O5 80.8(5) -2_666 4_565 n
O1 Sc1 O6 94.8(5) -2_666 1_555 n
O2 Sc1 O3 88.2(5) -2_666 -2_666 n
O2 Sc1 O4 92.6(5) -2_666 1_555 n
O2 Sc1 O5 92.8(5) -2_666 4_565 n
O2 Sc1 O6 174.5(6) -2_666 1_555 n
O3 Sc1 O4 90.7(5) -2_666 1_555 n
O3 Sc1 O5 176.3(5) -2_666 4_565 n
O3 Sc1 O6 93.1(5) -2_666 1_555 n
O4 Sc1 O5 92.8(5) 1_555 4_565 n
O4 Sc1 O6 82.0(5) 1_555 1_555 n
O5 Sc1 O6 86.2(5) 4_565 1_555 n
O2 W1 O2 111.2(9) 1_555 4_555 n
O2 W1 O4 118.3(6) 1_555 2_545 n
O2 W1 O4 98.0(6) 1_555 3_555 n
O2 W1 O4 98.0(6) 4_555 2_545 n
O2 W1 O4 118.3(6) 4_555 3_555 n
O4 W1 O4 114.3(8) 2_545 3_555 n
O1 W2 O3 115.0(6) 3_555 1_555 n
O1 W2 O5 102.6(5) 3_555 1_555 n
O1 W2 O6 112.4(6) 3_555 1_555 n
O3 W2 O5 106.9(6) 1_555 1_555 n
O3 W2 O6 114.6(6) 1_555 1_555 n
O5 W2 O6 103.7(5) 1_555 1_555 n
Sc1 O1 W2 153.1(7) -2_466 3_554 n
Sc1 O2 W1 155.7(7) -2_555 1_555 n
Sc1 O3 W2 150.3(7) -2_466 1_555 n
Sc1 O4 W1 143.6(7) 1_555 2_554 n
Sc1 O5 W2 170.8(7) 4_565 1_555 n
Sc1 O6 W2 159.1(8) 1_555 1_555 n
loop_
_geom_bond_atom_site_label_1
_geom_bond_atom_site_label_2
_geom_bond_distance
_geom_bond_site_symmetry_2
_geom_bond_publ_flag
Sc1 O1 2.123(13) -2_555 n
Sc1 O2 2.163(13) -2_555 n
Sc1 O3 2.070(13) -2_555 n
Sc1 O4 2.132(12) 1_555 n
Sc1 O5 2.062(12) 4_565 n
Sc1 O6 1.996(13) 1_555 n
W1 O2 1.675(13) 1_555 n
W1 O2 1.675(13) 4_555 n
W1 O4 1.795(11) 2_545 n
W1 O4 1.795(11) 3_555 n
W2 O1 1.718(12) 3_555 n
W2 O3 1.765(12) 1_555 n
W2 O5 1.792(12) 1_555 n
W2 O6 1.790(13) 1_555 n
O1 Sc1 2.123(13) -2_455 n
O1 W2 1.718(12) 3_554 n
O2 Sc1 2.163(13) -2_455 n
O2 W1 1.675(13) 1_555 n
O3 Sc1 2.070(13) -2_455 n
O3 W2 1.765(12) 1_555 n
O4 Sc1 2.132(12) 1_555 n
O4 W1 1.795(11) 2_554 n
O5 Sc1 2.062(12) 4_565 n
O5 W2 1.792(12) 1_555 n
O6 Sc1 1.996(13) 1_555 n
O6 W2 1.790(13) 1_555 n
loop_
_pd_meas_counts_total
_pd_proc_ls_weight
_pd_proc_intensity_bkg_calc
_pd_calc_intensity_total
335.0 0.0 677.38654 .
336.0 0.0 673.53168 .
331.0 0.0 669.70624 .
316.0 0.0 665.90979 .
325.0 0.0 662.14185 .
326.0 0.0 658.40332 .
343.0 0.0 654.69305 .
338.0 0.0 651.01111 .
376.0 0.0 647.35797 .
336.0 0.0 643.73236 .
340.0 0.0 640.13525 .
362.0 0.0 636.56592 .
345.0 0.0 633.02417 .
349.0 0.0 629.51025 .
342.0 0.0 626.02380 .
335.0 0.0 622.56470 .
331.0 0.0 619.13263 .
325.0 0.0 615.72736 .
333.0 0.0 612.34961 .
330.0 0.0 608.99854 .
323.0 0.0 605.67395 .
340.0 0.0 602.37585 .
345.0 0.0 599.10388 .
346.0 0.0 595.85858 .
336.0 0.0 592.63947 .
348.0 0.0 589.44598 .
351.0 0.0 586.27844 .
344.0 0.0 583.13654 .
336.0 0.0 580.02014 .
337.0 0.0 576.92963 .
353.0 0.0 573.86389 .
355.0 0.0 570.82349 .
336.0 0.0 567.80792 .
325.0 0.0 564.81775 .
330.0 0.0 561.85229 .
341.0 0.0 558.91132 .
328.0 0.0 555.99481 .
331.0 0.0 553.10248 .
356.0 0.0 550.23486 .
360.0 0.0 547.39136 .
345.0 0.0 544.57166 .
355.0 0.0 541.77594 .
337.0 0.0 539.00372 .
338.0 0.0 536.25549 .
325.0 0.0 533.53082 .
311.0 0.0 530.82928 .
332.0 0.0 528.15106 .
344.0 0.0 525.49579 .
338.0 0.0 522.86383 .
307.0 0.0 520.25476 .
336.0 0.0 517.66852 .
324.0 0.0 515.10455 .
335.0 0.0 512.56323 .
378.0 0.0 510.04440 .
314.0 0.0 507.54791 .
317.0 0.0 505.07367 .
346.0 0.0 502.62125 .
332.0 0.0 500.19067 .
330.0 0.0 497.78220 .
304.0 0.0 495.39536 .
358.0 0.0 493.03009 .
339.0 0.0 490.68604 .
358.0 0.0 488.36331 .
335.0 0.0 486.06201 .
343.0 0.0 483.78192 .
331.0 0.0 481.52277 .
350.0 0.0 479.28424 .
353.0 0.0 477.06653 .
357.0 0.0 474.86954 .
360.0 0.0 472.69321 .
356.0 0.0 470.53726 .
348.0 0.0 468.40143 .
343.0 0.0 466.28589 .
344.0 0.0 464.19031 .
339.0 0.0 462.11505 .
328.0 0.0 460.05945 .
328.0 0.0 458.02338 .
324.0 0.0 456.00720 .
361.0 0.0 454.01038 .
340.0 0.0 452.03317 .
343.0 0.0 450.07532 .
385.0 0.0 448.13644 .
374.0 0.0 446.21664 .
355.0 0.0 444.31583 .
348.0 0.0 442.43411 .
365.0 0.0 440.57108 .
362.0 0.0 438.72662 .
348.0 0.0 436.90079 .
347.0 0.0 435.09335 .
345.0 0.0 433.30435 .
349.0 0.0 431.53366 .
337.0 0.0 429.78085 .
327.0 0.0 428.04614 .
318.0 0.0 426.32944 .
342.0 0.0 424.63062 .
368.0 0.0 422.94955 .
354.0 0.0 421.28583 .
337.0 0.0 419.63980 .
327.0 0.0 418.01117 .
337.0 0.0 416.39993 .
334.0 0.0 414.80603 .
321.0 0.0 413.22894 .
316.0 0.0 411.66901 .
347.0 0.0 410.12610 .
343.0 0.0 408.59982 .
333.0 0.0 407.09042 .
356.0 0.0 405.59744 .
323.0 0.0 404.12115 .
335.0 0.0 402.66132 .
317.0 0.0 401.21768 .
330.0 0.0 399.79044 .
326.0 0.0 398.37915 .
341.0 0.0 396.98389 .
378.0 0.0 395.60483 .
357.0 0.0 394.24139 .
330.0 0.0 392.89380 .
328.0 0.0 391.56180 .
325.0 0.003077 390.24527 390.24118
318.0 0.003145 388.94446 388.94037
352.0 0.002841 387.65891 387.65485
388.0 0.002577 386.38864 386.38464
322.0 0.003106 385.13367 385.12967
350.0 0.002857 383.89362 383.88962
351.0 0.002849 382.66870 382.66479
350.0 0.002857 381.45871 381.45468
321.0 0.003115 380.26355 380.25964
333.0 0.003003 379.08304 379.07916
355.0 0.002817 377.91711 377.91324
353.0 0.002833 376.76590 376.76208
347.0 0.002882 375.62909 375.62531
362.0 0.002762 374.50671 374.50296
327.0 0.003058 373.39856 373.39484
322.0 0.003106 372.30460 372.30084
335.0 0.002985 371.22485 371.22110
358.0 0.002793 370.15906 370.15540
358.0 0.002793 369.10724 369.10358
346.0 0.002890 368.06918 368.06558
343.0 0.002915 367.04495 367.04123
344.0 0.002907 366.03439 366.03082
349.0 0.002865 365.03748 365.03391
339.0 0.002950 364.05408 364.05054
333.0 0.003003 363.08398 363.08047
345.0 0.002899 362.12720 362.12366
353.0 0.002833 361.18384 361.18036
339.0 0.002950 360.25360 360.25009
360.0 0.002778 359.33640 359.33298
361.0 0.002770 358.43219 358.42874
327.0 0.003058 357.54089 357.53745
324.0 0.003086 356.66248 356.65915
325.0 0.003077 355.79681 355.79349
323.0 0.003096 354.94382 354.94049
328.0 0.003049 354.10342 354.10010
330.0 0.003030 353.27542 353.27213
331.0 0.003021 352.45996 352.45667
334.0 0.002994 351.65689 351.65359
335.0 0.002985 350.86603 350.86273
327.0 0.003058 350.08734 350.08414
345.0 0.002899 349.32071 349.31747
349.0 0.002865 348.56622 348.56299
360.0 0.002778 347.82367 347.82037
366.0 0.002732 347.09290 347.08972
360.0 0.002778 346.37402 346.37079
337.0 0.002967 345.66675 345.66357
330.0 0.003030 344.97119 344.96805
400.0 0.002500 344.28723 348.29465
352.0 0.002841 343.61465 347.96698
364.0 0.002747 342.95355 349.70819
353.0 0.002833 342.30374 349.69485
389.0 0.002571 341.66519 349.80444
346.0 0.002890 341.03784 350.07187
385.0 0.002597 340.42163 350.55157
365.0 0.002740 339.81631 351.33929
392.0 0.002551 339.22205 352.68954
390.0 0.002564 338.63867 355.66962
437.0 0.002288 338.06613 363.13901
416.0 0.002404 337.50427 377.49783
418.0 0.002392 336.95303 398.42560
424.0 0.002358 336.41232 424.85471
480.0 0.002083 335.88229 455.41724
504.0 0.001984 335.36264 489.19360
468.0 0.002137 334.85339 526.15955
498.0 0.002008 334.35431 566.68463
537.0 0.001862 333.86560 611.30188
630.0 0.001587 333.38696 660.65857
656.0 0.001524 332.91840 715.52112
754.0 0.001326 332.45990 776.89423
822.0 0.001217 332.01132 846.23499
896.0 0.001116 331.57260 925.42963
963.0 0.001038 331.14368 1016.85315
1058.0 0.000945 330.72452 1124.11755
1203.0 0.000831 330.31503 1252.29895
1440.0 0.000694 329.91513 1409.24683
1698.0 0.000589 329.52478 1607.85181
2169.0 0.000461 329.14377 1871.47668
2791.0 0.000358 328.77228 2251.99902
3525.0 0.0002837 328.41010 2876.51660
4265.0 0.0002345 328.05716 3767.37842
4186.0 0.0002389 327.71335 3944.00269
3151.0 0.0003174 327.37869 2886.03906
2001.0 0.000500 327.05316 1941.84277
1117.0 0.000895 326.73660 1020.05176
659.0 0.001517 326.42889 576.73358
486.0 0.002058 326.13013 457.17322
441.0 0.002268 325.84015 415.19937
413.0 0.002421 325.55884 391.66779
382.0 0.002618 325.28622 376.45514
364.0 0.002747 325.02228 365.94431
376.0 0.002660 324.76678 358.32260
393.0 0.002545 324.51981 352.58472
383.0 0.002611 324.28122 348.13336
365.0 0.002740 324.05099 344.59378
362.0 0.002762 323.82910 341.72095
371.0 0.002695 323.61526 339.34851
379.0 0.002639 323.40976 337.36011
357.0 0.002801 323.21234 335.67188
342.0 0.002924 323.02295 334.22250
380.0 0.002632 322.84146 332.96594
371.0 0.002695 322.66794 331.86731
345.0 0.002899 322.50232 330.89966
342.0 0.002924 322.34442 325.19321
386.0 0.002591 322.19427 322.19116
382.0 0.002618 322.05176 322.04874
358.0 0.002793 321.91693 321.91382
388.0 0.002577 321.78967 321.78653
341.0 0.002933 321.66980 321.66669
335.0 0.002985 321.55750 321.55432
361.0 0.002770 321.45245 321.44934
334.0 0.002994 321.35477 321.35165
361.0 0.002770 321.26440 321.26129
372.0 0.002688 321.18121 321.17801
376.0 0.002660 321.10516 321.10196
379.0 0.002639 321.03616 321.03299
376.0 0.002660 320.97424 320.97104
341.0 0.002933 320.91928 320.91611
360.0 0.002778 320.87122 320.86801
357.0 0.002801 320.83002 320.82690
381.0 0.002625 320.79575 320.79245
377.0 0.002653 320.76810 320.76480
358.0 0.002793 320.74713 320.74390
323.0 0.003096 320.73288 320.72961
347.0 0.002882 320.72513 320.72195
358.0 0.002793 320.72403 320.72076
353.0 0.002833 320.72934 320.72607
341.0 0.002933 320.74109 320.73776
356.0 0.002809 320.75912 320.75586
363.0 0.002755 320.78354 320.78027
363.0 0.002755 320.81424 326.44955
351.0 0.002849 320.85117 326.95114
384.0 0.002604 320.89423 330.29922
409.0 0.002445 320.94336 331.18433
419.0 0.002387 320.99857 332.20538
410.0 0.002439 321.05978 333.39539
369.0 0.002710 321.12701 334.80069
393.0 0.002545 321.20004 336.48996
392.0 0.002551 321.27893 338.57196
407.0 0.002457 321.36365 341.24597
443.0 0.002257 321.45404 345.10739
469.0 0.002132 321.55023 352.54431
485.0 0.002062 321.65204 368.77695
481.0 0.002079 321.75940 396.72757
475.0 0.002105 321.87225 435.26788
544.0 0.001838 321.99066 483.25208
616.0 0.001623 322.11453 538.86053
627.0 0.001595 322.24380 600.82477
664.0 0.001506 322.37839 669.39642
708.0 0.001412 322.51825 745.53613
759.0 0.001318 322.66339 830.58704
887.0 0.001127 322.81375 926.23669
997.0 0.001003 322.96921 1034.66968
1057.0 0.000946 323.12985 1159.02026
1200.0 0.000833 323.29550 1303.81677
1423.0 0.000703 323.46616 1475.08667
1601.0 0.000625 323.64178 1681.83093
1920.0 0.000521 323.82239 1939.06116
2276.0 0.000439 324.00781 2271.55859
2840.0 0.000352 324.19797 2729.51733
3752.0 0.0002665 324.39304 3437.05688
4798.0 0.0002084 324.59283 4589.91748
5349.0 0.0001870 324.79727 5572.14844
4212.0 0.0002374 325.00638 4600.71875
2959.0 0.0003380 325.22006 3255.59204
1985.0 0.000504 325.43826 2095.75708
1013.0 0.000987 325.66101 1010.22211
643.0 0.001555 325.88824 599.40771
510.0 0.001961 326.11987 488.95984
451.0 0.002217 326.35587 441.68756
423.0 0.002364 326.59622 413.50153
393.0 0.002545 326.84082 394.99088
360.0 0.002778 327.08969 382.13492
439.0 0.002278 327.34271 372.83026
389.0 0.002571 327.59995 365.88077
376.0 0.002660 327.86130 360.56079
360.0 0.002778 328.12671 356.40820
368.0 0.002717 328.39609 353.11627
345.0 0.002899 328.66953 350.47345
357.0 0.002801 328.94699 348.33075
364.0 0.002747 329.22824 346.58011
390.0 0.002564 329.51346 345.14169
368.0 0.002717 329.80237 343.95554
358.0 0.002793 330.09512 342.97537
337.0 0.002967 330.39160 334.81357
389.0 0.002571 330.69177 334.72888
349.0 0.002865 330.99570 330.99158
360.0 0.002778 331.30316 331.29901
350.0 0.002857 331.61420 331.61002
345.0 0.002899 331.92883 331.92459
352.0 0.002841 332.24689 332.24271
342.0 0.002924 332.56848 332.56424
339.0 0.002950 332.89346 332.88928
345.0 0.002899 333.22186 333.21753
346.0 0.002890 333.55350 333.54926
362.0 0.002762 333.88858 333.88431
341.0 0.002933 334.22690 334.22253
344.0 0.002907 334.56842 334.56409
347.0 0.002882 334.91312 334.90872
339.0 0.002950 335.26099 335.25665
352.0 0.002841 335.61206 335.60760
383.0 0.002611 335.96606 335.96164
386.0 0.002591 336.32318 336.31879
374.0 0.002674 336.68338 336.67886
344.0 0.002907 337.04636 337.04193
331.0 0.003021 337.41251 337.40802
367.0 0.002725 337.78137 337.77692
365.0 0.002740 338.15323 338.14868
369.0 0.002710 338.52783 338.52325
372.0 0.002688 338.90521 338.90067
369.0 0.002710 339.28537 339.28079
365.0 0.002740 339.66827 339.66370
340.0 0.002941 340.05386 340.04922
318.0 0.003145 340.44208 340.43744
316.0 0.003165 340.83292 340.82825
375.0 0.002667 341.22629 341.22162
343.0 0.002915 341.62231 341.61761
338.0 0.002959 342.02078 342.01608
346.0 0.002890 342.42172 342.41702
323.0 0.003096 342.82507 342.82034
360.0 0.002778 343.23099 343.22617
378.0 0.002646 343.63913 343.63440
354.0 0.002825 344.04971 344.04489
363.0 0.002755 344.46259 344.45773
343.0 0.002915 344.87766 344.87283
357.0 0.002801 345.29504 345.29016
332.0 0.003012 345.71466 345.70984
352.0 0.002841 346.13638 346.13153
377.0 0.002653 346.56033 346.55542
333.0 0.003003 346.98636 346.98141
316.0 0.003165 347.41452 347.40958
343.0 0.002915 347.84467 347.83972
343.0 0.002915 348.27692 348.27191
328.0 0.003049 348.71112 348.70605
360.0 0.002778 349.14725 349.14221
320.0 0.003125 349.58533 349.58026
354.0 0.002825 350.02530 350.02026
330.0 0.003030 350.46716 350.46213
372.0 0.002688 350.91092 350.90579
366.0 0.002732 351.35641 351.35126
353.0 0.002833 351.80365 351.79855
362.0 0.002762 352.25272 352.24756
357.0 0.002801 352.70349 352.69833
360.0 0.002778 353.15591 353.15073
343.0 0.002915 353.61005 353.60483
355.0 0.002817 354.06583 354.06049
323.0 0.003096 354.52316 354.51791
325.0 0.003077 354.98203 354.97672
362.0 0.002762 355.44250 355.43726
336.0 0.002976 355.90448 355.89914
330.0 0.003030 356.36798 356.36264
343.0 0.002915 356.83289 356.82758
377.0 0.002653 357.29929 357.29388
354.0 0.002825 357.76703 357.76166
349.0 0.002865 358.23618 358.23077
355.0 0.002817 358.70663 358.70126
359.0 0.002786 359.17853 359.17313
349.0 0.002865 359.65173 359.64624
347.0 0.002882 360.12604 360.12054
344.0 0.002907 360.60165 360.59610
350.0 0.002857 361.07852 361.07303
340.0 0.002941 361.55658 361.55106
340.0 0.002941 362.03580 362.03033
351.0 0.002849 362.51614 362.51050
349.0 0.002865 362.99759 362.99200
345.0 0.002899 363.48013 363.47449
327.0 0.003058 363.96371 363.95807
347.0 0.002882 364.44839 364.44275
341.0 0.002933 364.93408 364.92834
319.0 0.003135 365.42056 365.41492
333.0 0.003003 365.90823 365.90256
362.0 0.002762 366.39679 366.39102
362.0 0.002762 366.88626 366.88046
344.0 0.002907 367.37650 367.37076
343.0 0.002915 367.86771 367.86188
358.0 0.002793 368.35971 368.35385
388.0 0.002577 368.85251 368.84668
371.0 0.002695 369.34616 369.34033
364.0 0.002747 369.84048 369.83469
333.0 0.003003 370.33563 370.32974
325.0 0.003077 370.83157 370.82559
321.0 0.003115 371.32809 371.32217
304.0 0.003289 371.82529 371.81934
314.0 0.003185 372.32306 372.31705
357.0 0.002801 372.82156 372.81558
347.0 0.002882 373.32062 373.31467
343.0 0.002915 373.82037 373.81427
395.0 0.002532 374.32053 374.31451
358.0 0.002793 374.82135 374.81525
359.0 0.002786 375.32251 375.31647
355.0 0.002817 375.82437 375.81827
330.0 0.003030 376.32660 376.32050
361.0 0.002770 376.82925 376.82315
348.0 0.002874 377.33234 377.32620
349.0 0.002865 377.83582 377.82971
360.0 0.002778 378.33969 378.33356
344.0 0.002907 378.84402 378.83783
366.0 0.002732 379.34860 379.34235
361.0 0.002770 379.85352 379.84729
331.0 0.003021 380.35867 380.35242
337.0 0.002967 380.86426 380.85794
356.0 0.002809 381.37000 381.36371
362.0 0.002762 381.87595 381.86966
339.0 0.002950 382.38217 382.37582
338.0 0.002959 382.88861 382.88223
364.0 0.002747 383.39517 383.38879
352.0 0.002841 383.90189 383.89551
340.0 0.002941 384.40881 384.40237
326.0 0.003067 384.91586 384.90936
323.0 0.003096 385.42282 385.41641
333.0 0.003003 385.93005 385.92365
342.0 0.002924 386.43732 386.43085
336.0 0.002976 386.94461 386.93805
341.0 0.002933 387.45187 387.44537
355.0 0.002817 387.95917 387.95270
356.0 0.002809 388.46649 388.46002
344.0 0.002907 388.97379 388.96722
354.0 0.002825 389.48099 389.47440
362.0 0.002762 389.98813 389.98154
367.0 0.002725 390.49515 390.48856
356.0 0.002809 391.00214 390.99545
349.0 0.002865 391.50897 391.50238
359.0 0.002786 392.01566 392.00900
356.0 0.002809 392.52216 392.51553
385.0 0.002597 393.02850 393.02185
388.0 0.002577 393.53470 393.52802
363.0 0.002755 394.04068 394.03394
351.0 0.002849 394.54642 394.53970
349.0 0.002865 395.05188 395.04517
371.0 0.002695 395.55707 395.55035
361.0 0.002770 396.06204 396.05530
386.0 0.002591 396.56671 396.55994
400.0 0.002500 397.07104 397.06421
359.0 0.002786 397.57501 397.56824
355.0 0.002817 398.07877 398.07193
371.0 0.002695 398.58206 398.57520
386.0 0.002591 399.08496 399.07813
363.0 0.002755 399.58752 399.58063
364.0 0.002747 400.08963 400.08276
362.0 0.002762 400.59134 400.58444
356.0 0.002809 401.09265 401.08572
369.0 0.002710 401.59351 401.58661
370.0 0.002703 402.09387 402.08688
351.0 0.002849 402.59372 402.58682
351.0 0.002849 403.09311 403.08612
371.0 0.002695 403.59204 403.58502
379.0 0.002639 404.09030 404.08331
342.0 0.002924 404.58813 404.58112
377.0 0.002653 405.08533 405.07825
373.0 0.002681 405.58200 405.57498
362.0 0.002762 406.07806 406.07101
368.0 0.002717 406.57361 406.57715
396.0 0.002525 407.06845 407.07278
393.0 0.002545 407.56265 407.56784
348.0 0.002874 408.05630 408.06775
375.0 0.002667 408.54922 408.56219
374.0 0.002674 409.04150 409.05612
388.0 0.002577 409.53308 409.54965
364.0 0.002747 410.02390 410.04266
363.0 0.002755 410.51410 410.53528
349.0 0.002865 411.00360 412.28275
384.0 0.002604 411.49234 412.86627
376.0 0.002660 411.98032 413.46014
358.0 0.002793 412.46747 414.70358
363.0 0.002755 412.95389 415.37198
348.0 0.002874 413.43954 416.70667
380.0 0.002632 413.92441 417.47617
371.0 0.002695 414.40845 418.29117
378.0 0.002646 414.89160 419.49930
399.0 0.002506 415.37393 420.49835
410.0 0.002439 415.85550 421.60657
387.0 0.002584 416.33618 422.84137
390.0 0.002564 416.81595 424.23392
414.0 0.002415 417.29480 425.82629
429.0 0.002331 417.77274 427.69073
411.0 0.002433 418.24991 429.99133
419.0 0.002387 418.72610 433.30823
432.0 0.002315 419.20132 439.31293
436.0 0.002294 419.67563 449.75424
460.0 0.002174 420.14893 464.64871
447.0 0.002237 420.62128 483.87192
455.0 0.002198 421.09277 508.38977
503.0 0.001988 421.56314 539.31775
527.0 0.001898 422.03247 577.32111
570.0 0.001754 422.50089 620.84613
634.0 0.001577 422.96829 667.76971
656.0 0.001524 423.43469 724.86584
756.0 0.001323 423.89996 795.14178
886.0 0.001129 424.36414 880.79144
1013.0 0.000987 424.82733 992.36700
1228.0 0.000814 425.28949 1146.82495
1490.0 0.000671 425.75049 1384.32922
1866.0 0.000536 426.21048 1729.97498
2072.0 0.000483 426.66931 1894.41492
1651.0 0.000606 427.12701 1579.90149
1458.0 0.000686 427.58371 1445.96509
1449.0 0.000690 428.03915 1433.20654
1317.0 0.000759 428.49347 1281.41968
1039.0 0.000962 428.94659 1029.64880
825.0 0.001212 429.39865 826.26044
755.0 0.001325 429.84952 755.06689
596.0 0.001678 430.29919 619.16724
498.0 0.002008 430.74771 511.37155
474.0 0.002110 431.19504 474.88425
412.0 0.002427 431.64096 462.55994
368.0 0.002717 432.08594 455.94919
394.0 0.002538 432.52960 451.68228
419.0 0.002387 432.97208 448.78464
399.0 0.002506 433.41321 446.73041
360.0 0.002778 433.85306 445.25760
405.0 0.002469 434.29175 444.18600
419.0 0.002387 434.72919 443.40594
402.0 0.002488 435.16531 442.84409
410.0 0.002439 435.60022 442.44907
433.0 0.002309 436.03366 440.07797
418.0 0.002392 436.46603 440.09024
409.0 0.002445 436.89700 440.16437
434.0 0.002304 437.32669 439.26453
407.0 0.002457 437.75494 439.51215
427.0 0.002342 438.18198 438.80161
405.0 0.002469 438.60764 450.77707
399.0 0.002506 439.03192 451.98285
433.0 0.002309 439.45493 452.81058
452.0 0.002212 439.87659 460.09698
417.0 0.002398 440.29675 462.10126
422.0 0.002370 440.71573 464.30469
431.0 0.002320 441.13312 466.74368
447.0 0.002237 441.54922 469.46445
449.0 0.002227 441.96396 472.52591
410.0 0.002439 442.37732 476.00409
437.0 0.002288 442.78922 480.00021
498.0 0.002008 443.19965 484.65027
508.0 0.001969 443.60876 490.14511
512.0 0.001953 444.01642 496.76334
533.0 0.001876 444.42258 504.93417
586.0 0.001706 444.82745 515.38452
634.0 0.001577 445.23074 529.76025
666.0 0.001502 445.63254 554.04211
715.0 0.001399 446.03302 605.45007
824.0 0.001214 446.43198 701.62775
942.0 0.001062 446.82947 840.82098
1038.0 0.000963 447.22556 1019.78937
1155.0 0.000866 447.62006 1244.05591
1434.0 0.000697 448.01309 1513.81079
1676.0 0.000597 448.40460 1829.52844
1933.0 0.000517 448.79468 2199.59912
2433.0 0.000411 449.18323 2639.63721
3049.0 0.0003280 449.57028 3174.61279
3809.0 0.0002625 449.95572 3844.37598
4735.0 0.0002112 450.33972 4717.94727
5984.0 0.0001671 450.72223 5942.10840
8070.0 0.0001239 451.10327 7871.45410
11185.0 0.0000894 451.48267 10777.68262
12404.0 0.0000806 451.86050 12164.07129
8790.0 0.0001138 452.23682 8764.73828
6603.0 0.0001514 452.61157 6577.60840
5607.0 0.0001783 452.98483 5658.28809
3043.0 0.0003286 453.35645 3095.07202
1370.0 0.000730 453.72659 1443.54883
864.0 0.001157 454.09509 949.21655
654.0 0.001529 454.46210 785.38428
642.0 0.001558 454.82748 698.12506
617.0 0.001621 455.19128 642.88116
599.0 0.001669 455.55344 605.34235
547.0 0.001828 455.91403 578.55701
535.0 0.001869 456.27310 558.72601
536.0 0.001866 456.63052 543.61633
477.0 0.002096 456.98636 531.83691
515.0 0.001942 457.34048 522.47858
505.0 0.001980 457.69312 514.92725
495.0 0.002020 458.04413 508.75345
505.0 0.001980 458.39349 503.65012
480.0 0.002083 458.74130 499.39215
414.0 0.002415 459.08731 495.81039
459.0 0.002179 459.43192 472.62003
479.0 0.002088 459.77472 471.71204
449.0 0.002227 460.11594 470.97351
434.0 0.002304 460.45554 460.44714
466.0 0.002146 460.79343 460.78506
492.0 0.002033 461.12973 461.12140
508.0 0.001969 461.46442 461.45599
447.0 0.002237 461.79739 461.78900
459.0 0.002179 462.12875 462.12030
441.0 0.002268 462.45840 462.44995
458.0 0.002183 462.78638 462.77795
460.0 0.002174 463.11270 463.10434
458.0 0.002183 463.43741 463.42908
442.0 0.002262 463.76041 463.75195
460.0 0.002174 464.08179 478.97919
474.0 0.002110 464.40140 480.34781
467.0 0.002141 464.71936 481.83191
492.0 0.002033 465.03564 483.44983
514.0 0.001946 465.35031 493.14203
486.0 0.002058 465.66321 495.67709
465.0 0.002151 465.97440 498.49661
498.0 0.002008 466.28394 501.65424
502.0 0.001992 466.59189 505.21689
514.0 0.001946 466.89795 509.26987
501.0 0.001996 467.20242 513.92474
519.0 0.001927 467.50513 519.32867
540.0 0.001852 467.80618 525.68146
587.0 0.001704 468.10565 533.26538
606.0 0.001650 468.40326 542.48248
623.0 0.001605 468.69928 553.96680
655.0 0.001527 468.99338 568.76447
770.0 0.001299 469.28595 589.18921
856.0 0.001168 469.57678 623.44977
928.0 0.001078 469.86584 695.50989
1102.0 0.000907 470.15326 830.65558
1197.0 0.000835 470.43881 1030.47009
1344.0 0.000744 470.72275 1288.50952
1486.0 0.000673 471.00504 1613.98291
1728.0 0.000579 471.28549 2012.87964
2195.0 0.000456 471.56427 2487.79468
2814.0 0.000355 471.84125 3053.29590
3295.0 0.0003035 472.11661 3738.83252
4114.0 0.0002431 472.39026 4592.66650
5254.0 0.0001903 472.66211 5698.08594
6789.0 0.0001473 472.93225 7226.80908
9308.0 0.0001074 473.20056 9587.93652
13254.0 0.0000754 473.46725 13243.46582
15776.0 0.0000634 473.73224 15678.94238
11515.0 0.0000868 473.99545 11754.36719
7856.0 0.0001273 474.25690 8337.74121
7427.0 0.0001346 474.51663 7704.90967
4922.0 0.0002032 474.77457 4954.90479
2039.0 0.000490 475.03094 2210.32983
1019.0 0.000981 475.28543 1245.14111
853.0 0.001172 475.53818 959.85913
756.0 0.001323 475.78918 824.63837
647.0 0.001546 476.03851 741.77289
644.0 0.001553 476.28604 686.42139
627.0 0.001595 476.53189 647.40570
630.0 0.001587 476.77597 618.74438
564.0 0.001773 477.01828 597.02972
565.0 0.001770 477.25894 580.15228
579.0 0.001727 477.49783 566.76184
558.0 0.001792 477.73492 555.96295
585.0 0.001709 477.97031 547.12158
599.0 0.001669 478.20389 539.79755
589.0 0.001698 478.43579 533.66296
612.0 0.001634 478.66605 528.47668
569.0 0.001757 478.89432 524.05951
579.0 0.001727 479.12103 495.46323
585.0 0.001709 479.34595 494.18481
580.0 0.001724 479.56909 508.22388
595.0 0.001681 479.79071 495.99075
594.0 0.001684 480.01031 497.42261
578.0 0.001730 480.22830 506.42935
579.0 0.001727 480.44446 508.70102
596.0 0.001678 480.65894 525.85150
631.0 0.001585 480.87177 529.70984
663.0 0.001508 481.08276 534.04181
671.0 0.001490 481.29202 538.94141
687.0 0.001456 481.49954 552.20435
705.0 0.001418 481.70529 559.17163
713.0 0.001403 481.90939 567.23242
741.0 0.001350 482.11166 576.65472
785.0 0.001274 482.31229 587.82428
813.0 0.001230 482.51108 601.27856
874.0 0.001144 482.70822 617.84863
906.0 0.001104 482.90359 638.91370
1009.0 0.000991 483.09720 667.53394
1117.0 0.000895 483.28912 714.34491
1259.0 0.000794 483.47931 839.71320
1444.0 0.000693 483.66776 1005.49854
1646.0 0.000608 483.85449 1240.02039
1904.0 0.000525 484.03949 1556.46082
2145.0 0.000466 484.22278 1941.87036
2615.0 0.000382 484.40427 2434.36426
3026.0 0.0003305 484.58411 3071.93188
3849.0 0.0002598 484.76227 3894.96069
4667.0 0.0002143 484.93854 4937.02979
5873.0 0.0001703 485.11325 6274.31885
7653.0 0.0001307 485.28616 8064.24072
10920.0 0.0000916 485.45740 10660.19043
15098.0 0.0000662 485.62692 14596.61914
18818.0 0.0000531 485.79468 18232.18359
16747.0 0.0000597 485.96075 16169.49512
13725.0 0.0000729 486.12509 13393.16895
14929.0 0.0000670 486.28772 14491.38379
15810.0 0.0000633 486.44870 15302.96680
16417.0 0.0000609 486.60788 16015.02637
16391.0 0.0000610 486.76538 16421.68359
11912.0 0.0000839 486.92123 11880.04199
9561.0 0.0001046 487.07532 9464.28906
9324.0 0.0001073 487.22775 9674.77246
7553.0 0.0001324 487.37845 7773.56055
5526.0 0.0001810 487.52747 6036.79150
5389.0 0.0001856 487.67474 6227.35938
6431.0 0.0001555 487.82047 7340.24756
7921.0 0.0001262 487.96432 8958.31738
10064.0 0.0000994 488.10657 11155.44141
13543.0 0.0000738 488.24713 14258.49023
19030.0 0.0000525 488.38596 19106.04883
26098.0 0.0000383 488.52316 26592.31641
28922.0 0.00003458 488.65869 31399.92188
22759.0 0.0000439 488.79245 23103.20703
16151.0 0.0000619 488.92465 16057.50684
14230.0 0.0000703 489.05508 15440.59961
10520.0 0.0000951 489.18384 10996.67480
5007.0 0.0001997 489.31100 4816.91455
2277.0 0.000439 489.43640 2326.63892
1543.0 0.000648 489.56021 1609.12988
1258.0 0.000795 489.68231 1293.82764
1112.0 0.000899 489.80273 1080.04321
1060.0 0.000943 489.92154 955.97620
982.0 0.001018 490.03864 873.94312
909.0 0.001100 490.15414 798.18463
833.0 0.001200 490.26797 751.22052
773.0 0.001294 490.38013 717.35730
744.0 0.001344 490.49066 688.88251
724.0 0.001381 490.59955 666.11938
711.0 0.001406 490.70676 647.69049
683.0 0.001464 490.81238 635.74500
683.0 0.001464 490.91626 623.62262
682.0 0.001466 491.01862 613.72827
661.0 0.001513 491.11926 607.21771
640.0 0.001563 491.21832 549.20343
679.0 0.001473 491.31577 548.56488
686.0 0.001458 491.41156 548.82465
629.0 0.001590 491.50574 523.74725
654.0 0.001529 491.59830 528.21967
702.0 0.001425 491.68921 533.82172
697.0 0.001435 491.77850 541.11182
703.0 0.001422 491.86627 551.51563
729.0 0.001372 491.95236 570.00928
830.0 0.001205 492.03683 607.76611
866.0 0.001155 492.11972 671.97015
928.0 0.001078 492.20099 759.73193
985.0 0.001015 492.28067 871.50128
1151.0 0.000869 492.35886 1014.08936
1294.0 0.000773 492.43530 1192.38513
1463.0 0.000684 492.51022 1413.27209
1601.0 0.000625 492.58353 1694.64722
2001.0 0.000500 492.65530 2066.30078
2555.0 0.000391 492.72546 2574.11304
3487.0 0.0002868 492.79404 3323.35742
4940.0 0.0002024 492.86111 4497.46191
5725.0 0.0001747 492.92657 5655.47363
5058.0 0.0001977 492.99048 4957.89746
3774.0 0.0002650 493.05273 3681.19849
3664.0 0.0002729 493.11353 3679.81860
3546.0 0.0002820 493.17273 3637.75391
2917.0 0.0003428 493.23038 2970.44995
2873.0 0.0003481 493.28650 3000.43872
3264.0 0.0003064 493.34103 3575.90869
3285.0 0.0003044 493.39404 3347.64282
2328.0 0.000430 493.44553 2306.29468
1869.0 0.000535 493.49548 2006.00427
1806.0 0.000554 493.54388 1930.22754
1280.0 0.000781 493.59076 1306.35938
836.0 0.001196 493.63608 829.10413
678.0 0.001475 493.67993 671.22864
637.0 0.001570 493.72220 617.53375
627.0 0.001595 493.76294 588.59723
592.0 0.001689 493.80228 569.72198
595.0 0.001681 493.84003 556.47284
576.0 0.001736 493.87631 546.69745
591.0 0.001692 493.91104 539.22266
592.0 0.001689 493.94431 533.34265
588.0 0.001701 493.97614 520.19263
574.0 0.001742 494.00635 517.00928
534.0 0.001873 494.03510 514.39752
511.0 0.001957 494.06241 507.90216
522.0 0.001916 494.08823 506.43402
538.0 0.001859 494.11252 505.19687
572.0 0.001748 494.13547 504.14493
561.0 0.001783 494.15689 497.85117
536.0 0.001866 494.17679 497.51544
536.0 0.001866 494.19522 497.22745
534.0 0.001873 494.21228 496.97827
549.0 0.001821 494.22784 494.21964
542.0 0.001845 494.24191 494.23383
532.0 0.001880 494.25461 503.58130
523.0 0.001912 494.26587 504.24472
498.0 0.002008 494.27557 504.97839
558.0 0.001792 494.28397 505.79309
537.0 0.001862 494.29089 511.50266
519.0 0.001927 494.29630 512.86383
538.0 0.001859 494.30042 514.39398
555.0 0.001802 494.30307 516.12402
558.0 0.001792 494.30426 518.09052
548.0 0.001825 494.30417 520.34259
525.0 0.001905 494.30249 522.93976
564.0 0.001773 494.29944 525.96167
527.0 0.001898 494.29510 529.51288
556.0 0.001799 494.28934 533.73059
592.0 0.001689 494.28210 538.81110
551.0 0.001815 494.27359 545.02856
702.0 0.001425 494.26367 552.80023
643.0 0.001555 494.25226 562.78790
686.0 0.001458 494.23959 576.16840
822.0 0.001217 494.22546 596.01794
891.0 0.001122 494.21002 632.93359
924.0 0.001082 494.19321 710.36993
1052.0 0.000951 494.17499 843.04742
1141.0 0.000876 494.15558 1024.22766
1390.0 0.000719 494.13461 1254.95569
1639.0 0.000610 494.11246 1551.26428
1932.0 0.000518 494.08887 1926.80005
2360.0 0.000424 494.06390 2396.46045
2885.0 0.0003466 494.03775 2994.58789
3767.0 0.0002655 494.01019 3791.38159
5312.0 0.0001883 493.98129 4944.97607
7421.0 0.0001348 493.95108 6790.03662
9440.0 0.0001059 493.91953 9075.66602
8974.0 0.0001114 493.88666 8729.12695
5994.0 0.0001668 493.85254 5635.44385
4910.0 0.0002037 493.81708 4682.39648
4822.0 0.0002074 493.78036 4770.75830
3354.0 0.0002982 493.74234 3188.94043
1660.0 0.000602 493.70294 1559.30554
975.0 0.001026 493.66220 973.08478
818.0 0.001222 493.62045 795.05890
736.0 0.001359 493.57718 710.53320
663.0 0.001508 493.53271 678.00452
657.0 0.001522 493.48703 644.79175
650.0 0.001538 493.44003 621.85846
610.0 0.001639 493.39175 614.70880
617.0 0.001621 493.34229 603.51331
623.0 0.001605 493.29150 595.67889
601.0 0.001664 493.23944 590.30548
595.0 0.001681 493.18625 586.94885
576.0 0.001736 493.13174 585.30194
582.0 0.001718 493.07605 585.21735
611.0 0.001637 493.01907 586.55981
613.0 0.001631 492.96088 589.36963
628.0 0.001592 492.90149 577.12488
650.0 0.001538 492.84082 584.64606
679.0 0.001473 492.77902 594.09802
726.0 0.001377 492.71600 606.01855
789.0 0.001267 492.65176 613.27155
817.0 0.001224 492.58636 633.69232
831.0 0.001203 492.51968 660.87482
942.0 0.001062 492.45190 700.22400
1097.0 0.000912 492.38287 770.51917
1273.0 0.000786 492.31268 918.15997
1470.0 0.000680 492.24136 1177.64709
1746.0 0.000573 492.16879 1552.00928
2201.0 0.000454 492.09512 2033.68774
2615.0 0.000382 492.02020 2650.70874
3257.0 0.0003070 491.94421 3438.91528
3919.0 0.0002552 491.86694 4438.94434
5329.0 0.0001877 491.78873 5728.13330
7119.0 0.0001405 491.70926 7469.28662
10129.0 0.0000987 491.62863 10042.15527
14996.0 0.0000667 491.54694 14110.32227
19577.0 0.0000511 491.46402 18326.31055
16465.0 0.0000607 491.38010 15803.51465
9638.0 0.0001038 491.29501 9939.82813
8886.0 0.0001125 491.20868 8869.86914
9587.0 0.0001043 491.12137 9014.31543
5672.0 0.0001763 491.03296 5599.48975
2302.0 0.000434 490.94348 2523.96631
1298.0 0.000770 490.85281 1446.73621
1010.0 0.000990 490.76102 1110.36829
833.0 0.001200 490.66824 947.80011
779.0 0.001284 490.57431 836.24152
725.0 0.001379 490.47934 757.98358
692.0 0.001445 490.38333 706.09662
654.0 0.001529 490.28613 669.32941
624.0 0.001603 490.18796 641.61761
577.0 0.001733 490.08868 620.02216
579.0 0.001727 489.98840 602.81799
554.0 0.001805 489.88699 588.85291
548.0 0.001825 489.78467 577.33997
572.0 0.001748 489.68121 567.72937
551.0 0.001815 489.57675 559.60809
497.0 0.002012 489.47122 552.67981
511.0 0.001957 489.36472 513.25812
504.0 0.001984 489.25708 510.82828
519.0 0.001927 489.14853 508.72284
524.0 0.001908 489.03891 506.88229
509.0 0.001965 488.92844 489.12524
493.0 0.002028 488.81677 488.88608
503.0 0.001988 488.70413 488.76605
526.0 0.001901 488.59064 488.64612
503.0 0.001988 488.47598 488.52591
496.0 0.002016 488.36047 488.35309
490.0 0.002041 488.24390 488.23660
466.0 0.002146 488.12634 488.11905
460.0 0.002174 488.00790 488.00064
462.0 0.002165 487.88843 487.88113
472.0 0.002119 487.76801 487.76071
477.0 0.002096 487.64676 487.63934
482.0 0.002075 487.52432 487.51700
497.0 0.002012 487.40106 487.39383
518.0 0.001931 487.27686 487.26959
500.0 0.002000 487.15173 487.14453
483.0 0.002070 487.02567 487.01840
465.0 0.002151 486.89862 486.89139
476.0 0.002101 486.77069 486.76346
491.0 0.002037 486.64191 486.63464
477.0 0.002096 486.51215 486.50494
493.0 0.002028 486.38147 486.37427
463.0 0.002160 486.24988 486.24274
489.0 0.002045 486.11746 486.11023
477.0 0.002096 485.98401 485.97690
485.0 0.002062 485.84982 485.84271
462.0 0.002165 485.71466 485.70758
468.0 0.002137 485.57870 485.57150
509.0 0.001965 485.44174 485.43472
500.0 0.002000 485.30399 485.29691
437.0 0.002288 485.16547 485.15829
465.0 0.002151 485.02591 485.01889
501.0 0.001996 484.88553 484.87848
511.0 0.001957 484.74442 484.73740
467.0 0.002141 484.60239 484.59531
500.0 0.002000 484.45956 484.45248
456.0 0.002193 484.31580 484.30881
458.0 0.002183 484.17126 484.16425
479.0 0.002088 484.02591 484.01883
454.0 0.002203 483.87967 490.65317
468.0 0.002137 483.73267 490.97522
456.0 0.002193 483.58490 491.34732
492.0 0.002033 483.43622 491.77734
489.0 0.002045 483.28680 495.67761
507.0 0.001972 483.13657 496.48926
479.0 0.002088 482.98553 497.41824
496.0 0.002016 482.83383 498.48557
505.0 0.001980 482.68115 499.71707
464.0 0.002155 482.52774 501.14362
482.0 0.002075 482.37366 502.80627
486.0 0.002058 482.21878 504.75555
482.0 0.002075 482.06308 507.05899
540.0 0.001852 481.90659 509.80554
531.0 0.001883 481.74945 513.11243
547.0 0.001828 481.59149 517.14777
577.0 0.001733 481.43283 522.14703
560.0 0.001786 481.27341 528.46783
573.0 0.001745 481.11316 536.67511
607.0 0.001647 480.95230 547.74866
653.0 0.001531 480.79059 564.05579
720.0 0.001389 480.62833 593.66211
817.0 0.001224 480.46527 655.73553
909.0 0.001100 480.30145 762.88617
1020.0 0.000980 480.13699 919.23999
1163.0 0.000860 479.97180 1124.04846
1395.0 0.000717 479.80588 1381.58838
1773.0 0.000564 479.63937 1718.73755
2217.0 0.000451 479.47205 2165.12988
2819.0 0.000355 479.30417 2769.00146
3844.0 0.0002601 479.13550 3644.29395
5501.0 0.0001818 478.96616 5022.85400
7104.0 0.0001408 478.79626 6591.59717
6381.0 0.0001567 478.62558 6059.42676
4265.0 0.0002345 478.45428 3863.35864
3464.0 0.0002887 478.28238 3246.52344
3739.0 0.0002675 478.10971 3531.04492
2951.0 0.0003389 477.93646 2815.13696
1629.0 0.000614 477.76260 1498.51636
904.0 0.001106 477.58804 915.54535
709.0 0.001410 477.41284 742.74274
634.0 0.001577 477.23712 672.37872
628.0 0.001592 477.06067 633.11755
643.0 0.001555 476.88361 609.61963
597.0 0.001675 476.70602 596.11102
590.0 0.001695 476.52774 590.37738
634.0 0.001577 476.34894 593.80243
686.0 0.001458 476.16940 614.59680
719.0 0.001391 475.98929 663.39539
785.0 0.001274 475.80875 743.44495
907.0 0.001103 475.62750 850.90558
912.0 0.001096 475.44571 990.03571
1175.0 0.000851 475.26331 1176.42078
1341.0 0.000746 475.08035 1425.14905
1718.0 0.000582 474.89685 1747.03857
2368.0 0.000422 474.71268 2228.10425
3396.0 0.0002945 474.52805 2986.37573
4361.0 0.0002293 474.34290 3943.75757
4131.0 0.0002421 474.15710 3899.26880
2742.0 0.000365 473.97083 2587.69849
2140.0 0.000467 473.78403 2064.78833
2291.0 0.000436 473.59671 2231.51270
2017.0 0.000496 473.40884 2006.01929
1217.0 0.000822 473.22031 1204.34009
706.0 0.001416 473.03140 772.81970
609.0 0.001642 472.84192 641.55920
548.0 0.001825 472.65201 592.80072
505.0 0.001980 472.46152 566.35150
514.0 0.001946 472.27057 550.21283
518.0 0.001931 472.07907 540.20941
522.0 0.001916 471.88712 534.51526
512.0 0.001953 471.69464 532.99347
524.0 0.001908 471.50171 537.95386
566.0 0.001767 471.30820 552.64948
597.0 0.001675 471.11438 578.04254
584.0 0.001712 470.91998 612.59357
624.0 0.001603 470.72519 658.35858
681.0 0.001468 470.52994 720.24408
727.0 0.001376 470.33417 803.90839
829.0 0.001206 470.13794 918.17694
1073.0 0.000932 469.94128 1080.88477
1441.0 0.000694 469.74423 1351.25952
1671.0 0.000598 469.54669 1655.93298
1574.0 0.000635 469.34863 1564.44739
1264.0 0.000791 469.15027 1222.59937
1147.0 0.000872 468.95142 1190.96704
1273.0 0.000786 468.75220 1345.46802
1286.0 0.000778 468.55255 1360.91553
1253.0 0.000798 468.35242 1284.52087
1339.0 0.000747 468.15195 1411.35596
1652.0 0.000605 467.95108 1756.81665
2135.0 0.000468 467.74976 2216.47070
2085.0 0.000480 467.54807 2180.09277
1485.0 0.000673 467.34601 1520.39478
1168.0 0.000856 467.14359 1254.81897
1299.0 0.000770 466.94070 1339.07214
1143.0 0.000875 466.73752 1261.38232
826.0 0.001211 466.53397 863.32434
607.0 0.001647 466.32990 629.05981
521.0 0.001919 466.12564 555.08148
478.0 0.002092 465.92099 527.54425
452.0 0.002212 465.71597 512.19275
483.0 0.002070 465.51056 502.18842
440.0 0.002273 465.30472 495.18079
409.0 0.002445 465.09866 487.75763
440.0 0.002273 464.89227 483.98944
418.0 0.002392 464.68555 481.02975
430.0 0.002326 464.47845 478.64371
419.0 0.002387 464.27097 475.55096
433.0 0.002309 464.06332 473.99570
436.0 0.002294 463.85519 472.67175
397.0 0.002519 463.64691 471.52881
393.0 0.002545 463.43826 470.52872
457.0 0.002188 463.22922 465.95563
450.0 0.002222 463.02002 465.47137
437.0 0.002288 462.81039 465.02637
457.0 0.002188 462.60059 464.61368
433.0 0.002309 462.39050 462.38458
448.0 0.002232 462.17993 462.17407
442.0 0.002262 461.96933 461.96344
435.0 0.002299 461.75833 461.75247
404.0 0.002475 461.54712 461.54123
410.0 0.002439 461.33560 461.32971
424.0 0.002358 461.12381 461.11795
410.0 0.002439 460.91180 460.90598
435.0 0.002299 460.69946 460.69366
421.0 0.002375 460.48697 460.48114
406.0 0.002463 460.27420 460.26843
436.0 0.002294 460.06119 460.05533
442.0 0.002262 459.84787 459.84213
432.0 0.002315 459.63437 459.62863
428.0 0.002336 459.42065 459.41489
416.0 0.002404 459.20676 459.20102
411.0 0.002433 458.99258 458.98682
424.0 0.002358 458.77829 458.77249
422.0 0.002370 458.56360 458.55789
423.0 0.002364 458.34882 458.34311
441.0 0.002268 458.13391 458.12814
441.0 0.002268 457.91861 457.91290
433.0 0.002309 457.70322 457.69754
440.0 0.002273 457.48767 457.48193
442.0 0.002262 457.27191 457.26620
460.0 0.002174 457.05597 457.05029
440.0 0.002273 456.83981 456.83411
402.0 0.002488 456.62350 456.61783
409.0 0.002445 456.40698 456.40137
426.0 0.002347 456.19034 456.18475
425.0 0.002353 455.97357 455.96793
424.0 0.002358 455.75650 455.75092
442.0 0.002262 455.53940 461.15762
451.0 0.002217 455.32214 461.32004
438.0 0.002283 455.10477 461.52234
439.0 0.002278 454.88715 465.18887
440.0 0.002273 454.66937 465.72153
444.0 0.002252 454.45163 469.27676
480.0 0.002083 454.23358 470.19797
479.0 0.002088 454.01550 471.25714
443.0 0.002257 453.79724 476.48749
473.0 0.002114 453.57886 478.17862
470.0 0.002128 453.36047 480.12671
481.0 0.002079 453.14185 482.38300
470.0 0.002128 452.92319 486.09659
491.0 0.002037 452.70444 489.24997
483.0 0.002070 452.48541 492.97031
499.0 0.002004 452.26654 497.39597
542.0 0.001845 452.04733 502.72177
568.0 0.001761 451.82822 509.21191
539.0 0.001855 451.60901 517.25433
576.0 0.001736 451.38953 527.43359
634.0 0.001577 451.17014 540.67938
676.0 0.001479 450.95062 558.76331
729.0 0.001372 450.73108 586.55719
792.0 0.001263 450.51147 638.50635
899.0 0.001112 450.29175 736.24390
1058.0 0.000945 450.07196 889.51709
1142.0 0.000876 449.85214 1105.23096
1382.0 0.000724 449.63232 1409.16675
1814.0 0.000551 449.41238 1826.57214
2309.0 0.000433 449.19238 2390.36084
3050.0 0.0003279 448.97241 3191.98901
4406.0 0.0002270 448.75235 4412.61133
5895.0 0.0001696 448.53226 6112.32471
6501.0 0.0001538 448.31219 7082.56299
5957.0 0.0001679 448.09201 6055.80908
5991.0 0.0001669 447.87189 5835.02002
6182.0 0.0001618 447.65167 6229.73584
5414.0 0.0001847 447.43152 5592.62744
4568.0 0.0002189 447.21136 4486.25244
4378.0 0.0002284 446.99112 4105.53125
4403.0 0.0002271 446.77094 4196.07471
3290.0 0.0003040 446.55069 3012.85352
1956.0 0.000511 446.33060 1832.50769
1649.0 0.000606 446.11032 1541.20935
1699.0 0.000589 445.89011 1586.09448
1417.0 0.000706 445.66995 1347.48315
935.0 0.001070 445.44977 903.69055
651.0 0.001536 445.22961 690.01282
579.0 0.001727 445.00952 614.65466
546.0 0.001832 444.78934 578.58710
527.0 0.001898 444.56931 555.64398
509.0 0.001965 444.34924 539.61780
496.0 0.002016 444.12927 527.92859
472.0 0.002119 443.90930 519.18738
451.0 0.002217 443.68933 501.46793
472.0 0.002119 443.46954 497.46652
485.0 0.002062 443.24969 494.69986
463.0 0.002160 443.02997 486.35822
500.0 0.002000 442.81033 486.23355
495.0 0.002020 442.59067 481.86563
489.0 0.002045 442.37106 485.77805
520.0 0.001923 442.15152 489.42535
537.0 0.001862 441.93213 487.68198
550.0 0.001818 441.71280 495.91846
551.0 0.001815 441.49344 508.85400
622.0 0.001608 441.27432 530.16364
702.0 0.001425 441.05511 572.38916
771.0 0.001297 440.83615 653.58203
799.0 0.001252 440.61722 778.03076
900.0 0.001111 440.39832 939.54846
1166.0 0.000858 440.17960 1151.74084
1435.0 0.000697 439.96094 1444.39819
1878.0 0.000532 439.74237 1856.72705
2557.0 0.000391 439.52402 2475.77490
3560.0 0.0002809 439.30560 3429.82202
4474.0 0.0002235 439.08749 4314.59619
3657.0 0.0002734 438.86938 3609.79102
2186.0 0.000457 438.65143 2300.84985
1967.0 0.000508 438.43356 2014.48987
2300.0 0.000435 438.21579 2295.09790
2161.0 0.000463 437.99820 2174.66626
1298.0 0.000770 437.78079 1336.04822
782.0 0.001279 437.56345 828.28888
634.0 0.001577 437.34628 677.46918
619.0 0.001616 437.12915 646.02930
631.0 0.001585 436.91232 658.28766
644.0 0.001553 436.69556 696.39197
724.0 0.001381 436.47897 759.75018
772.0 0.001295 436.26257 856.17987
918.0 0.001089 436.04626 998.46936
1216.0 0.000822 435.83014 1219.13794
1557.0 0.000642 435.61417 1561.47510
1817.0 0.000550 435.39838 1874.05164
1580.0 0.000633 435.18277 1610.49683
1125.0 0.000889 434.96725 1144.06641
1004.0 0.000996 434.75204 1045.40405
1093.0 0.000915 434.53690 1151.27820
1130.0 0.000885 434.32205 1115.57849
893.0 0.001120 434.10730 826.95123
728.0 0.001374 433.89267 659.66406
704.0 0.001420 433.67847 645.11182
753.0 0.001328 433.46426 706.48566
876.0 0.001142 433.25027 830.48486
1034.0 0.000967 433.03656 999.53857
1177.0 0.000850 432.82297 1233.79517
1537.0 0.000651 432.60965 1559.18628
2115.0 0.000473 432.39645 2019.86682
2958.0 0.0003381 432.18356 2730.63525
4176.0 0.0002395 431.97086 3793.92700
4690.0 0.0002132 431.75830 4558.02979
3546.0 0.0002820 431.54605 3488.66113
2273.0 0.000440 431.33398 2247.95337
2128.0 0.000470 431.12213 2085.57593
2441.0 0.000410 430.91055 2404.90991
2218.0 0.000451 430.69907 2194.03955
1371.0 0.000729 430.48804 1296.74194
764.0 0.001309 430.27710 793.10974
613.0 0.001631 430.06650 634.89148
583.0 0.001715 429.85602 579.29523
592.0 0.001689 429.64575 552.75348
582.0 0.001718 429.43594 539.08673
522.0 0.001916 429.22623 517.59607
469.0 0.002132 429.01682 494.85638
466.0 0.002146 428.80768 483.97141
472.0 0.002119 428.59869 480.24496
473.0 0.002114 428.39001 475.05676
427.0 0.002342 428.18161 463.53601
417.0 0.002398 427.97351 454.96545
443.0 0.002257 427.76563 450.38821
429.0 0.002331 427.55801 447.37439
430.0 0.002326 427.35080 444.98993
414.0 0.002415 427.14368 434.42017
414.0 0.002415 426.93698 433.41138
430.0 0.002326 426.73050 432.53784
411.0 0.002433 426.52423 431.76779
397.0 0.002519 426.31836 426.62692
390.0 0.002564 426.11270 426.37799
393.0 0.002545 425.90750 426.13806
379.0 0.002639 425.70239 425.90475
391.0 0.002558 425.49768 425.67670
376.0 0.002660 425.29324 425.45270
382.0 0.002618 425.08917 425.23206
399.0 0.002506 424.88528 424.93906
378.0 0.002646 424.68176 424.72964
398.0 0.002513 424.47852 424.52124
395.0 0.002532 424.27563 424.31403
413.0 0.002421 424.07297 424.06854
382.0 0.002618 423.87082 423.86627
372.0 0.002688 423.66885 423.66440
365.0 0.002740 423.46713 423.46271
376.0 0.002660 423.26590 423.26144
370.0 0.002703 423.06485 423.06042
339.0 0.002950 422.86426 422.85983
357.0 0.002801 422.66397 422.65948
384.0 0.002604 422.46396 422.45947
406.0 0.002463 422.26428 422.25986
377.0 0.002653 422.06491 422.06055
368.0 0.002717 421.86597 421.86160
401.0 0.002494 421.66739 421.66293
371.0 0.002695 421.46906 421.46466
355.0 0.002817 421.27109 421.26678
347.0 0.002882 421.07349 421.06912
364.0 0.002747 420.87631 420.87195
382.0 0.002618 420.67944 420.67505
394.0 0.002538 420.48288 420.47849
383.0 0.002611 420.28671 420.28235
350.0 0.002857 420.09085 420.08652
379.0 0.002639 419.89548 419.89111
420.0 0.002381 419.70032 419.69604
396.0 0.002525 419.50555 419.50125
381.0 0.002625 419.31125 419.30701
373.0 0.002681 419.11725 419.11292
400.0 0.002500 418.92368 418.91940
414.0 0.002415 418.73053 418.72620
384.0 0.002604 418.53757 418.53326
374.0 0.002674 418.34512 418.34085
366.0 0.002732 418.15305 418.14871
362.0 0.002762 417.96140 417.95706
383.0 0.002611 417.77002 417.76575
380.0 0.002632 417.57901 417.57474
377.0 0.002653 417.38855 417.38425
366.0 0.002732 417.19833 417.19406
375.0 0.002667 417.00864 417.00436
391.0 0.002558 416.81927 416.81503
390.0 0.002564 416.63031 416.62604
410.0 0.002439 416.44174 416.43747
386.0 0.002591 416.25351 416.24933
414.0 0.002415 416.06586 416.06158
375.0 0.002667 415.87851 415.87424
416.0 0.002404 415.69153 415.68723
417.0 0.002398 415.50497 415.50076
409.0 0.002445 415.31882 415.31461
404.0 0.002475 415.13318 415.12900
382.0 0.002618 414.94791 414.94370
369.0 0.002710 414.76294 414.75876
392.0 0.002551 414.57858 414.57434
390.0 0.002564 414.39453 414.39032
373.0 0.002681 414.21091 414.20673
386.0 0.002591 414.02768 414.02356
378.0 0.002646 413.84491 413.84076
403.0 0.002481 413.66263 413.65845
416.0 0.002404 413.48068 413.47656
410.0 0.002439 413.29929 413.29514
396.0 0.002525 413.11823 413.11411
390.0 0.002564 412.93753 412.93350
382.0 0.002618 412.75748 412.75333
388.0 0.002577 412.57776 414.61725
398.0 0.002513 412.39850 414.57376
397.0 0.002519 412.21967 414.54477
395.0 0.002532 412.04120 414.53232
437.0 0.002288 411.86328 414.53873
401.0 0.002494 411.68579 415.59686
392.0 0.002551 411.50873 415.71912
375.0 0.002667 411.33218 415.87799
369.0 0.002710 411.15601 416.07962
403.0 0.002481 410.98032 416.33142
392.0 0.002551 410.80505 416.64285
394.0 0.002538 410.63031 425.28632
405.0 0.002469 410.45609 426.31305
411.0 0.002433 410.28210 427.50372
422.0 0.002370 410.10873 428.89044
436.0 0.002294 409.93585 430.51682
437.0 0.002288 409.76343 436.59384
439.0 0.002278 409.59140 439.16742
447.0 0.002237 409.41989 442.24490
431.0 0.002320 409.24872 449.61371
443.0 0.002257 409.07825 454.47162
460.0 0.002174 408.90814 460.58344
471.0 0.002123 408.73846 468.56528
471.0 0.002123 408.56937 479.85040
505.0 0.001980 408.40067 501.79678
546.0 0.001832 408.23236 538.17206
624.0 0.001603 408.06479 597.19037
669.0 0.001495 407.89752 685.46753
774.0 0.001292 407.73074 799.63702
937.0 0.001067 407.56454 954.45410
1219.0 0.000820 407.39874 1180.67749
1599.0 0.000625 407.23346 1529.82947
2158.0 0.000463 407.06873 2033.30591
2497.0 0.000400 406.90436 2333.91431
1961.0 0.000510 406.74060 1833.75012
1494.0 0.000669 406.57724 1417.37036
1619.0 0.000618 406.41443 1530.67310
1997.0 0.000501 406.25214 1952.50964
2322.0 0.000431 406.09027 2333.05542
2352.0 0.000425 405.92892 2469.10229
2715.0 0.000368 405.76810 2892.86475
3531.0 0.0002832 405.60785 3849.86011
5329.0 0.0001877 405.44797 5478.50879
6968.0 0.0001435 405.28864 7312.63428
6308.0 0.0001585 405.12988 6787.38623
3800.0 0.0002632 404.97159 4317.97900
3143.0 0.0003182 404.81381 3482.60864
3770.0 0.0002653 404.65652 4044.48389
4684.0 0.0002135 404.49976 4937.24512
4617.0 0.0002166 404.34344 4659.60889
4135.0 0.0002418 404.18774 4001.29077
4146.0 0.0002412 404.03250 4071.22754
3389.0 0.0002951 403.87781 3355.49683
2227.0 0.000449 403.72348 2310.20313
2083.0 0.000480 403.56998 2108.41479
2537.0 0.000394 403.41672 2502.38501
2939.0 0.0003403 403.26419 2915.72949
2369.0 0.000422 403.11203 2348.39771
1398.0 0.000715 402.96036 1397.26306
966.0 0.001035 402.80939 1007.88208
917.0 0.001091 402.65881 966.05292
910.0 0.001099 402.50885 1003.77441
868.0 0.001152 402.35931 877.90039
628.0 0.001592 402.21039 658.24359
536.0 0.001866 402.06198 549.59039
459.0 0.002179 401.91400 492.72800
450.0 0.002222 401.76669 473.20535
458.0 0.002183 401.61987 460.52563
479.0 0.002088 401.47357 451.46417
470.0 0.002128 401.32779 444.67297
427.0 0.002342 401.18256 431.59637
422.0 0.002370 401.03790 428.11758
439.0 0.002278 400.89371 425.42661
426.0 0.002347 400.75009 416.58011
414.0 0.002415 400.60703 415.71490
421.0 0.002375 400.46454 415.47256
438.0 0.002283 400.32254 416.33301
429.0 0.002331 400.18106 421.87979
401.0 0.002494 400.04016 422.90735
431.0 0.002320 399.89981 433.96747
432.0 0.002315 399.75998 448.68274
432.0 0.002315 399.62076 468.92899
457.0 0.002188 399.48206 500.31964
484.0 0.002066 399.34378 548.07605
568.0 0.001761 399.20621 613.23615
568.0 0.001761 399.06915 633.93701
491.0 0.002037 398.93268 552.31134
455.0 0.002198 398.79672 496.00797
447.0 0.002237 398.66119 494.39005
477.0 0.002096 398.52646 516.55310
493.0 0.002028 398.39209 517.29834
462.0 0.002165 398.25833 469.11469
404.0 0.002475 398.12512 434.49188
416.0 0.002404 397.99246 423.54297
392.0 0.002551 397.86041 420.84998
419.0 0.002387 397.72891 420.68427
402.0 0.002488 397.59793 421.93784
410.0 0.002439 397.46756 424.45407
447.0 0.002237 397.33765 428.42950
464.0 0.002155 397.20837 435.95798
489.0 0.002045 397.07965 445.65451
493.0 0.002028 396.95157 463.95557
544.0 0.001838 396.82394 504.09558
590.0 0.001695 396.69687 569.34778
721.0 0.001387 396.57034 671.65033
777.0 0.001287 396.44449 802.82507
936.0 0.001068 396.31918 990.85754
1281.0 0.000781 396.19443 1271.18799
1930.0 0.000518 396.07019 1709.86230
2414.0 0.000414 395.94659 2255.74341
2287.0 0.000437 395.82355 2263.69995
1441.0 0.000694 395.70105 1519.91064
1059.0 0.000944 395.57913 1130.90588
1213.0 0.000824 395.45770 1164.01343
1423.0 0.000703 395.33701 1356.50439
1324.0 0.000755 395.21674 1311.87488
890.0 0.001124 395.09714 883.93085
592.0 0.001689 394.97809 613.71979
483.0 0.002070 394.85956 523.30005
465.0 0.002151 394.74164 492.87952
495.0 0.002020 394.62433 479.65167
492.0 0.002033 394.50757 475.29776
524.0 0.001908 394.39145 479.25269
556.0 0.001799 394.27570 495.46698
578.0 0.001730 394.16064 528.84131
614.0 0.001629 394.04617 583.61267
669.0 0.001495 393.93231 667.35681
830.0 0.001205 393.81900 791.80988
1043.0 0.000959 393.70627 979.37610
1369.0 0.000730 393.59418 1274.78552
1795.0 0.000557 393.48254 1703.26807
2032.0 0.000492 393.37158 2063.08740
1935.0 0.000517 393.26120 1929.00464
1932.0 0.000518 393.15134 1879.46704
2360.0 0.000424 393.04208 2252.05420
2527.0 0.000396 392.93338 2492.22241
2087.0 0.000479 392.82532 2016.35596
1533.0 0.000652 392.71777 1437.15662
1247.0 0.000802 392.61084 1178.90063
1307.0 0.000765 392.50452 1232.64600
1311.0 0.000763 392.39877 1254.84644
1043.0 0.000959 392.29364 942.70581
753.0 0.001328 392.18903 685.59192
634.0 0.001577 392.08496 618.54419
655.0 0.001527 391.98157 641.03271
681.0 0.001468 391.87866 704.71417
780.0 0.001282 391.77652 812.08923
943.0 0.001060 391.67480 976.41449
1283.0 0.000779 391.57370 1247.50269
1691.0 0.000591 391.47324 1627.71619
1719.0 0.000582 391.37332 1779.34155
1289.0 0.000776 391.27396 1410.81250
1103.0 0.000907 391.17526 1211.39551
1326.0 0.000754 391.07706 1347.04785
1804.0 0.000554 390.97952 1708.70544
2290.0 0.000437 390.88257 2109.66016
2118.0 0.000472 390.78610 2087.32007
1396.0 0.000716 390.69037 1483.35864
936.0 0.001068 390.59518 1006.14874
863.0 0.001159 390.50049 907.28638
968.0 0.001033 390.40649 998.36945
1095.0 0.000913 390.31305 1083.84973
912.0 0.001096 390.22015 885.39337
605.0 0.001653 390.12790 622.18658
454.0 0.002203 390.03622 508.89911
436.0 0.002294 389.94513 468.76651
462.0 0.002165 389.85464 451.61404
440.0 0.002273 389.76471 441.01349
426.0 0.002347 389.67538 435.03058
453.0 0.002208 389.58664 431.46973
452.0 0.002212 389.49847 428.74414
441.0 0.002268 389.41086 428.77048
455.0 0.002198 389.32397 430.57565
467.0 0.002141 389.23758 434.63019
473.0 0.002114 389.15179 442.43024
455.0 0.002198 389.06653 458.95175
507.0 0.001972 388.98193 494.54196
535.0 0.001869 388.89792 554.79675
604.0 0.001656 388.81448 648.28943
740.0 0.001351 388.73169 773.54388
930.0 0.001075 388.64935 950.19208
1250.0 0.000800 388.56769 1230.85120
1692.0 0.000591 388.48672 1650.86658
1977.0 0.000506 388.40619 1969.32092
1550.0 0.000645 388.32626 1576.42871
976.0 0.001025 388.24698 1054.61218
862.0 0.001160 388.16827 924.67493
991.0 0.001009 388.09012 1031.06018
1147.0 0.000872 388.01254 1174.42859
979.0 0.001021 387.93564 1017.60645
652.0 0.001534 387.85928 680.74695
483.0 0.002070 387.78357 515.32867
431.0 0.002320 387.70844 460.92282
416.0 0.002404 387.63376 438.35831
405.0 0.002469 387.55978 425.48083
394.0 0.002538 387.48633 417.12308
398.0 0.002513 387.41354 411.32736
403.0 0.002481 387.34131 407.10779
398.0 0.002513 387.26962 403.91922
407.0 0.002457 387.19864 401.43900
396.0 0.002525 387.12817 399.46198
397.0 0.002519 387.05823 399.28204
412.0 0.002427 386.98895 398.04837
402.0 0.002488 386.92023 397.03806
388.0 0.002577 386.85217 396.20694
400.0 0.002500 386.78464 395.52188
402.0 0.002488 386.71768 395.65466
418.0 0.002392 386.65131 395.24356
420.0 0.002381 386.58554 394.93021
403.0 0.002481 386.52032 394.70697
399.0 0.002506 386.45578 394.56940
403.0 0.002481 386.39175 401.38519
391.0 0.002558 386.32834 401.88516
404.0 0.002475 386.26550 402.52664
380.0 0.002632 386.20325 401.41605
388.0 0.002577 386.14154 402.50977
421.0 0.002375 386.08047 407.14120
388.0 0.002577 386.02002 408.90021
415.0 0.002410 385.96008 410.98114
396.0 0.002525 385.90076 412.49905
405.0 0.002469 385.84201 415.55603
432.0 0.002315 385.78387 419.28662
420.0 0.002381 385.72626 423.94354
450.0 0.002222 385.66925 429.93875
468.0 0.002137 385.61282 438.06241
470.0 0.002128 385.55701 450.88538
487.0 0.002053 385.50183 473.62332
548.0 0.001825 385.44711 514.75769
625.0 0.001600 385.39297 576.39886
702.0 0.001425 385.33954 667.58405
785.0 0.001274 385.28656 792.43860
996.0 0.001004 385.23416 974.47125
1358.0 0.000736 385.18246 1261.90820
1677.0 0.000596 385.13126 1581.73132
1783.0 0.000561 385.08063 1525.63452
1362.0 0.000734 385.03061 1148.93372
1159.0 0.000863 384.98114 1078.10266
1295.0 0.000772 384.93228 1310.38293
1750.0 0.000571 384.88397 1746.80249
2174.0 0.000460 384.83621 2201.37451
2598.0 0.000385 384.78912 2620.19849
3626.0 0.0002758 384.74252 3412.41968
4979.0 0.0002008 384.69641 4778.36865
5526.0 0.0001810 384.65109 5726.15723
4166.0 0.0002400 384.60623 4267.23486
2470.0 0.000405 384.56192 2563.95337
2098.0 0.000477 384.51816 2153.41772
2434.0 0.000411 384.47510 2508.51978
2957.0 0.0003382 384.43253 3038.47754
2649.0 0.000378 384.39056 2660.48120
1610.0 0.000621 384.34912 1509.24280
909.0 0.001100 384.30835 899.34637
672.0 0.001488 384.26801 705.52795
621.0 0.001610 384.22827 645.74750
632.0 0.001582 384.18921 632.68634
685.0 0.001460 384.15060 652.20752
738.0 0.001355 384.11261 708.95691
780.0 0.001282 384.07516 772.79340
740.0 0.001351 384.03827 728.82275
643.0 0.001555 384.00198 622.72388
590.0 0.001695 383.96622 599.29797
620.0 0.001613 383.93109 643.35388
659.0 0.001517 383.89645 727.62543
747.0 0.001339 383.86243 809.20953
863.0 0.001159 383.82898 866.31659
1009.0 0.000991 383.79605 1012.26031
1103.0 0.000907 383.76373 1188.69543
1039.0 0.000962 383.73187 1112.21924
910.0 0.001099 383.70068 940.21857
874.0 0.001144 383.66998 969.43134
1103.0 0.000907 383.63989 1170.50720
1511.0 0.000662 383.61035 1504.67273
1806.0 0.000554 383.58130 1717.13782
1378.0 0.000726 383.55289 1351.97888
884.0 0.001131 383.52502 893.54767
669.0 0.001495 383.49768 751.35480
765.0 0.001307 383.47101 789.56543
927.0 0.001079 383.44473 889.00500
862.0 0.001160 383.41910 865.47449
629.0 0.001590 383.39392 643.04333
500.0 0.002000 383.36948 499.36325
442.0 0.002262 383.34546 447.62811
454.0 0.002203 383.32190 427.74069
404.0 0.002475 383.29898 416.92148
393.0 0.002545 383.27670 409.94629
396.0 0.002525 383.25491 405.09320
390.0 0.002564 383.23361 401.54260
389.0 0.002571 383.21295 398.84299
378.0 0.002646 383.19281 396.35193
388.0 0.002577 383.17316 394.68088
402.0 0.002488 383.15411 393.31735
395.0 0.002532 383.13565 392.18741
376.0 0.002660 383.11761 391.23798
369.0 0.002710 383.10022 390.43082
396.0 0.002525 383.08331 389.55701
380.0 0.002632 383.06689 389.17651
380.0 0.002632 383.05118 388.67651
402.0 0.002488 383.03589 387.37576
420.0 0.002381 383.02118 387.04605
393.0 0.002545 383.00702 386.75809
370.0 0.002703 382.99329 386.50583
362.0 0.002762 382.98019 386.39166
400.0 0.002500 382.96762 385.76245
382.0 0.002618 382.95560 384.36761
362.0 0.002762 382.94409 384.33209
388.0 0.002577 382.93307 384.30984
379.0 0.002639 382.92270 384.30127
365.0 0.002740 382.91278 384.30667
371.0 0.002695 382.90332 383.67996
378.0 0.002646 382.89450 383.75757
379.0 0.002639 382.88614 383.85123
384.0 0.002604 382.87836 383.96500
389.0 0.002571 382.87109 384.10464
398.0 0.002513 382.86438 384.27762
395.0 0.002532 382.85815 385.06467
385.0 0.002597 382.85242 385.38162
376.0 0.002660 382.84732 385.78900
389.0 0.002571 382.84262 386.32855
388.0 0.002577 382.83850 387.07590
390.0 0.002564 382.83490 388.47336
398.0 0.002513 382.83185 390.50574
412.0 0.002427 382.82928 394.61307
424.0 0.002358 382.82724 401.81393
436.0 0.002294 382.82568 414.58936
461.0 0.002169 382.82465 430.28851
458.0 0.002183 382.82422 453.94702
525.0 0.001905 382.82422 490.53458
583.0 0.001715 382.82474 536.54004
579.0 0.001727 382.82581 542.37152
487.0 0.002053 382.82739 482.23419
474.0 0.002110 382.82941 444.81885
472.0 0.002119 382.83200 442.31918
449.0 0.002227 382.83511 457.94043
508.0 0.001969 382.83868 474.37927
503.0 0.001988 382.84280 458.20789
459.0 0.002179 382.84741 425.19650
408.0 0.002451 382.85254 410.40753
404.0 0.002475 382.85818 407.71191
416.0 0.002404 382.86423 409.77814
434.0 0.002304 382.87088 416.63663
453.0 0.002208 382.87805 431.43619
443.0 0.002257 382.88562 455.64822
481.0 0.002079 382.89380 492.77200
566.0 0.001767 382.90234 545.62164
645.0 0.001550 382.91144 625.22638
713.0 0.001403 382.92114 743.80078
916.0 0.001092 382.93115 837.39386
821.0 0.001218 382.94183 742.50110
658.0 0.001520 382.95285 611.38171
585.0 0.001709 382.96448 600.60217
648.0 0.001543 382.97656 675.60980
767.0 0.001304 382.98911 808.76282
929.0 0.001076 383.00214 936.72455
1062.0 0.000942 383.01569 1030.89172
1242.0 0.000805 383.02969 1237.95166
1436.0 0.000696 383.04422 1468.21948
1270.0 0.000787 383.05927 1277.69702
869.0 0.001151 383.07468 882.79700
719.0 0.001391 383.09064 742.11139
759.0 0.001318 383.10709 783.82275
914.0 0.001094 383.12402 915.11597
999.0 0.001001 383.14139 996.78888
915.0 0.001093 383.15921 846.73297
802.0 0.001247 383.17761 710.40625
758.0 0.001319 383.19644 692.02026
696.0 0.001437 383.21573 637.06427
552.0 0.001812 383.23550 536.82263
496.0 0.002016 383.25577 489.41516
511.0 0.001957 383.27652 488.57535
533.0 0.001876 383.29767 509.48117
545.0 0.001835 383.31934 524.67072
499.0 0.002004 383.34137 487.12799
442.0 0.002262 383.36401 440.70505
427.0 0.002342 383.38708 419.32504
406.0 0.002463 383.41058 411.85742
412.0 0.002427 383.43457 408.57019
418.0 0.002392 383.45892 406.25705
430.0 0.002326 383.48386 405.46405
452.0 0.002212 383.50928 405.29022
416.0 0.002404 383.53503 405.61310
399.0 0.002506 383.56134 406.38553
430.0 0.002326 383.58807 407.60818
437.0 0.002288 383.61523 409.03290
457.0 0.002188 383.64288 411.97415
413.0 0.002421 383.67096 415.01920
491.0 0.002037 383.69946 418.97180
482.0 0.002075 383.72845 422.73938
506.0 0.001976 383.75790 429.70267
489.0 0.002045 383.78778 439.18332
534.0 0.001873 383.81815 452.96793
604.0 0.001656 383.84891 473.84940
675.0 0.001481 383.88010 511.64017
676.0 0.001479 383.91174 591.42468
821.0 0.001218 383.94385 731.02942
990.0 0.001010 383.97638 949.82501
1342.0 0.000745 384.00937 1264.13464
1851.0 0.000540 384.04272 1751.52417
2717.0 0.000368 384.07666 2467.77466
3675.0 0.0002721 384.11090 3190.79272
2984.0 0.0003351 384.14560 2823.91846
1718.0 0.000582 384.18082 1734.38904
1248.0 0.000801 384.21637 1271.36768
1309.0 0.000764 384.25241 1329.48657
1670.0 0.000599 384.28888 1619.66614
1954.0 0.000512 384.32568 1860.63147
1577.0 0.000634 384.36298 1478.56702
980.0 0.001020 384.40076 898.26837
630.0 0.001587 384.43884 634.20496
550.0 0.001818 384.47745 551.33722
532.0 0.001880 384.51645 521.94604
503.0 0.001988 384.55579 519.11951
546.0 0.001832 384.59567 535.31439
587.0 0.001704 384.63586 574.64264
651.0 0.001536 384.67654 635.92572
817.0 0.001224 384.71759 737.33325
951.0 0.001052 384.75906 873.22583
976.0 0.001025 384.80096 911.71228
798.0 0.001253 384.84323 735.55212
647.0 0.001546 384.88599 609.12439
598.0 0.001672 384.92914 590.71216
631.0 0.001585 384.97266 629.66705
741.0 0.001350 385.01654 691.53680
794.0 0.001259 385.06091 693.54901
688.0 0.001453 385.10568 600.15118
593.0 0.001686 385.15085 545.58527
592.0 0.001689 385.19635 541.76270
654.0 0.001529 385.24234 564.48419
761.0 0.001314 385.28867 614.24756
864.0 0.001157 385.33539 721.96429
1009.0 0.000991 385.38251 933.68909
1305.0 0.000766 385.43005 1273.56946
1803.0 0.000555 385.47794 1819.23499
2599.0 0.000385 385.52628 2589.95288
3808.0 0.0002626 385.57501 3787.25146
5620.0 0.0001779 385.62405 5296.38379
5684.0 0.0001759 385.67355 5511.43555
3637.0 0.0002750 385.72339 3494.36816
2125.0 0.000471 385.77362 2190.88892
1855.0 0.000539 385.82428 2014.91003
2353.0 0.000425 385.87527 2426.96094
3138.0 0.0003187 385.92670 3048.23389
3024.0 0.0003307 385.97842 2933.47876
1944.0 0.000514 386.03058 1795.84180
1176.0 0.000850 386.08313 1076.24597
886.0 0.001129 386.13599 859.27130
849.0 0.001178 386.18927 849.62622
970.0 0.001031 386.24295 926.14801
1188.0 0.000842 386.29694 1101.11426
1519.0 0.000658 386.35129 1379.42896
1832.0 0.000546 386.40607 1609.23413
1613.0 0.000620 386.46115 1422.50903
1193.0 0.000838 386.51660 1193.59729
1233.0 0.000811 386.57242 1209.80078
1527.0 0.000655 386.62866 1432.25940
2111.0 0.000474 386.68518 1787.85510
2181.0 0.000459 386.74222 1860.26025
1559.0 0.000641 386.79941 1351.08276
973.0 0.001028 386.85715 964.65710
958.0 0.001044 386.91504 858.99109
982.0 0.001018 386.97342 898.85571
1135.0 0.000881 387.03210 1003.68457
1211.0 0.000826 387.09113 1001.32001
987.0 0.001013 387.15057 858.27057
871.0 0.001148 387.21030 831.23920
1005.0 0.000995 387.27042 957.10303
1324.0 0.000755 387.33090 1204.86194
1715.0 0.000583 387.39163 1650.28918
2316.0 0.000432 387.45276 2285.71338
2751.0 0.000364 387.51431 2779.84668
2796.0 0.000358 387.57605 2861.29004
3092.0 0.0003234 387.63818 3319.57178
3782.0 0.0002644 387.70068 3964.07178
3447.0 0.0002901 387.76349 3523.30688
2444.0 0.000409 387.82663 2522.33105
1945.0 0.000514 387.89011 2060.63550
1732.0 0.000577 387.95395 1832.85840
1759.0 0.000569 388.01813 1922.73279
1990.0 0.000503 388.08255 2133.01196
1737.0 0.000576 388.14740 1784.10742
1120.0 0.000893 388.21249 1112.09717
788.0 0.001269 388.27795 753.70892
653.0 0.001531 388.34369 628.56891
635.0 0.001575 388.40985 587.58929
632.0 0.001582 388.47623 590.74310
652.0 0.001534 388.54297 631.40955
761.0 0.001314 388.61002 711.22076
921.0 0.001086 388.67737 843.24908
1197.0 0.000835 388.74509 1057.35059
1565.0 0.000639 388.81308 1365.97937
1739.0 0.000575 388.88138 1600.48828
1428.0 0.000700 388.94992 1324.55249
962.0 0.001040 389.01886 927.11725
781.0 0.001280 389.08807 812.81470
879.0 0.001138 389.15768 887.14807
1095.0 0.000913 389.22745 1070.41943
1263.0 0.000792 389.29758 1262.20654
1289.0 0.000776 389.36804 1257.67432
1265.0 0.000791 389.43875 1205.99207
1198.0 0.000835 389.50977 1156.94897
929.0 0.001076 389.58115 895.11945
747.0 0.001339 389.65277 702.61621
686.0 0.001458 389.72467 661.42767
723.0 0.001383 389.79688 700.55066
814.0 0.001229 389.86938 789.62482
930.0 0.001075 389.94223 847.60559
843.0 0.001186 390.01526 790.91595
847.0 0.001181 390.08859 784.46429
937.0 0.001067 390.16229 913.54150
1168.0 0.000856 390.23618 1151.99121
1594.0 0.000627 390.31042 1561.77661
2264.0 0.000442 390.38492 2128.34863
2556.0 0.000391 390.45972 2429.41138
2048.0 0.000488 390.53482 2041.10645
2096.0 0.000477 390.61011 1892.99133
2614.0 0.000383 390.68570 2258.50244
3085.0 0.0003241 390.76157 2705.15723
2793.0 0.000358 390.83774 2475.40991
2129.0 0.000470 390.91406 1952.55347
1450.0 0.000690 390.99078 1444.73804
1292.0 0.000774 391.06775 1186.53857
1380.0 0.000725 391.14493 1238.11377
1523.0 0.000657 391.22241 1360.46301
1342.0 0.000745 391.30011 1147.66943
900.0 0.001111 391.37820 772.06512
587.0 0.001704 391.45645 583.35101
538.0 0.001859 391.53494 514.14008
501.0 0.001996 391.61377 482.63843
470.0 0.002128 391.69272 464.96835
452.0 0.002212 391.77209 452.87128
419.0 0.002387 391.85156 446.06232
428.0 0.002336 391.93140 442.03918
430.0 0.002326 392.01144 440.77393
471.0 0.002123 392.09171 443.17776
464.0 0.002155 392.17224 452.66589
459.0 0.002179 392.25302 474.61688
471.0 0.002123 392.33405 513.06500
534.0 0.001873 392.41528 575.46979
602.0 0.001661 392.49683 670.34192
782.0 0.001279 392.57852 810.83905
936.0 0.001068 392.66052 941.24036
861.0 0.001161 392.74274 853.99957
659.0 0.001517 392.82520 644.24408
558.0 0.001792 392.90778 559.14362
587.0 0.001704 392.99072 562.65155
623.0 0.001605 393.07388 614.78772
638.0 0.001567 393.15729 675.56110
604.0 0.001656 393.24091 646.27008
549.0 0.001821 393.32465 530.29352
474.0 0.002110 393.40872 464.55524
460.0 0.002174 393.49298 446.76395
489.0 0.002045 393.57742 451.97324
460.0 0.002174 393.66217 470.23618
483.0 0.002070 393.74701 505.73892
524.0 0.001908 393.83221 559.85706
634.0 0.001577 393.91754 646.11194
760.0 0.001316 394.00314 723.28082
657.0 0.001522 394.08893 670.41467
509.0 0.001965 394.17487 544.37390
471.0 0.002123 394.26111 491.01950
475.0 0.002105 394.34750 492.11572
505.0 0.001980 394.43417 522.05322
559.0 0.001789 394.52094 559.45410
568.0 0.001761 394.60788 548.57263
488.0 0.002049 394.69510 477.94925
446.0 0.002242 394.78259 432.93121
383.0 0.002611 394.87021 416.15552
377.0 0.002653 394.95804 409.62421
430.0 0.002326 395.04599 406.15509
389.0 0.002571 395.13419 403.97333
400.0 0.002500 395.22260 401.68878
422.0 0.002370 395.31122 400.69046
399.0 0.002506 395.39999 399.96472
370.0 0.002703 395.48892 399.42392
388.0 0.002577 395.57800 399.01376
353.0 0.002833 395.66739 398.69952
375.0 0.002667 395.75690 398.45731
358.0 0.002793 395.84662 397.88983
354.0 0.002825 395.93646 397.77060
360.0 0.002778 396.02655 397.68390
400.0 0.002500 396.11676 397.62341
437.0 0.002288 396.20718 397.66473
399.0 0.002506 396.29776 397.64899
373.0 0.002681 396.38852 397.80219
369.0 0.002710 396.47943 397.82538
376.0 0.002660 396.57050 397.86127
388.0 0.002577 396.66180 397.90891
380.0 0.002632 396.75314 397.53848
389.0 0.002571 396.84482 397.63873
399.0 0.002506 396.93652 397.74731
378.0 0.002646 397.02850 397.94440
390.0 0.002564 397.12054 398.07773
395.0 0.002532 397.21280 398.22400
374.0 0.002674 397.30521 398.14938
382.0 0.002618 397.39777 398.34735
398.0 0.002513 397.49048 398.57419
394.0 0.002538 397.58334 398.85138
391.0 0.002558 397.67633 399.23700
396.0 0.002525 397.76956 399.83884
390.0 0.002564 397.86282 400.70728
405.0 0.002469 397.95630 402.03024
413.0 0.002421 398.04996 403.86670
426.0 0.002347 398.14365 406.55832
411.0 0.002433 398.23749 408.99402
385.0 0.002597 398.33157 408.29260
397.0 0.002519 398.42575 405.79678
408.0 0.002451 398.52005 405.46890
407.0 0.002457 398.61444 407.13428
398.0 0.002513 398.70908 410.78296
415.0 0.002410 398.80380 417.03842
413.0 0.002421 398.89868 426.02411
454.0 0.002203 398.99362 439.66968
504.0 0.001984 399.08878 461.63852
507.0 0.001972 399.18393 494.12592
571.0 0.001751 399.27927 521.61621
544.0 0.001838 399.37485 531.81458
529.0 0.001890 399.47046 531.64856
507.0 0.001972 399.56619 490.03220
486.0 0.002058 399.66202 460.58417
457.0 0.002188 399.75800 459.81921
468.0 0.002137 399.85413 470.09805
451.0 0.002217 399.95026 475.57657
470.0 0.002128 400.04657 475.57437
465.0 0.002151 400.14307 461.01028
457.0 0.002188 400.23959 437.11252
455.0 0.002198 400.33627 425.90213
426.0 0.002347 400.43304 422.76605
433.0 0.002309 400.52982 422.54880
396.0 0.002525 400.62686 423.67371
432.0 0.002315 400.72391 425.97565
387.0 0.002584 400.82108 430.05862
447.0 0.002237 400.91840 437.66379
465.0 0.002151 401.01575 450.79868
476.0 0.002101 401.11322 470.85529
510.0 0.001961 401.21082 502.23962
542.0 0.001845 401.30850 549.26263
614.0 0.001629 401.40628 602.48962
611.0 0.001637 401.50418 609.12201
550.0 0.001818 401.60208 551.26245
529.0 0.001890 401.70020 522.07104
544.0 0.001838 401.79828 533.86810
599.0 0.001669 401.89648 571.46588
679.0 0.001473 401.99478 637.41351
780.0 0.001282 402.09317 730.82074
926.0 0.001080 402.19162 856.35950
1109.0 0.000902 402.29019 1072.93628
1462.0 0.000684 402.38882 1488.42114
2139.0 0.000468 402.48749 2111.97949
3039.0 0.0003291 402.58627 3006.31055
3568.0 0.0002803 402.68515 3553.48926
2773.0 0.000361 402.78406 2659.98901
1598.0 0.000626 402.88309 1578.77637
1215.0 0.000823 402.98221 1213.49072
1242.0 0.000805 403.08130 1289.17200
1519.0 0.000658 403.18054 1596.57141
1937.0 0.000516 403.27979 1974.11316
1890.0 0.000529 403.37918 1875.02014
1275.0 0.000784 403.47855 1207.02637
800.0 0.001250 403.57803 777.93225
609.0 0.001642 403.67755 618.05127
533.0 0.001876 403.77713 560.57666
547.0 0.001828 403.87677 537.84735
557.0 0.001795 403.97647 541.12085
615.0 0.001626 404.07623 567.91290
689.0 0.001451 404.17606 622.95685
769.0 0.001300 404.27594 720.28955
1009.0 0.000991 404.37585 870.71582
1272.0 0.000786 404.47577 1035.88452
1234.0 0.000810 404.57581 1010.66846
885.0 0.001130 404.67587 765.32837
677.0 0.001477 404.77597 623.05585
624.0 0.001603 404.87616 602.50128
665.0 0.001504 404.97635 640.85181
830.0 0.001205 405.07651 717.85889
941.0 0.001063 405.17679 772.09686
799.0 0.001252 405.27710 688.87390
609.0 0.001642 405.37747 573.48169
557.0 0.001795 405.47784 525.24060
555.0 0.001802 405.57825 517.11444
587.0 0.001704 405.67868 521.40918
592.0 0.001689 405.77914 545.18860
616.0 0.001623 405.87964 594.65802
774.0 0.001292 405.98022 700.87787
981.0 0.001019 406.08075 903.04309
1288.0 0.000776 406.18134 1229.83984
1635.0 0.000612 406.28198 1758.12756
2479.0 0.000403 406.38260 2543.81396
3438.0 0.0002909 406.48318 3367.94995
3285.0 0.0003044 406.58383 3178.31079
1920.0 0.000521 406.68454 1987.43323
1270.0 0.000787 406.78528 1358.44556
1194.0 0.000838 406.88596 1324.80481
1426.0 0.000701 406.98679 1577.03162
1862.0 0.000537 407.08740 1946.65100
2003.0 0.000499 407.18820 2109.67065
1632.0 0.000613 407.28897 1622.58411
992.0 0.001008 407.38977 1010.10760
700.0 0.001429 407.49054 738.58252
586.0 0.001706 407.59134 661.73962
603.0 0.001658 407.69211 639.05176
557.0 0.001795 407.79291 588.78882
519.0 0.001927 407.89368 529.54614
485.0 0.002062 407.99448 505.48282
487.0 0.002053 408.09528 504.83994
526.0 0.001901 408.19611 521.27942
555.0 0.001802 408.29694 552.87683
601.0 0.001664 408.39771 597.60974
622.0 0.001608 408.49847 608.34912
519.0 0.001927 408.59921 543.44440
451.0 0.002217 408.70004 491.79492
445.0 0.002247 408.80075 477.07364
470.0 0.002128 408.90152 482.78180
486.0 0.002058 409.00223 500.39487
502.0 0.001992 409.10294 520.49255
503.0 0.001988 409.20361 513.00079
447.0 0.002237 409.30432 477.54440
423.0 0.002364 409.40497 457.91010
435.0 0.002299 409.50558 455.04053
440.0 0.002273 409.60620 456.55045
462.0 0.002165 409.70688 470.82010
487.0 0.002053 409.80737 493.38782
515.0 0.001942 409.90796 525.46887
553.0 0.001808 410.00848 544.32196
516.0 0.001938 410.10892 516.38196
473.0 0.002114 410.20944 487.07666
481.0 0.002079 410.30988 480.56937
518.0 0.001931 410.41028 493.72604
537.0 0.001862 410.51068 519.55115
577.0 0.001733 410.61099 560.59790
663.0 0.001508 410.71124 617.18616
748.0 0.001337 410.81158 707.05896
852.0 0.001174 410.91177 876.10840
1168.0 0.000856 411.01196 1177.73840
1716.0 0.000583 411.11203 1633.56665
2327.0 0.000430 411.21216 2172.12598
2456.0 0.000407 411.31226 2233.48926
1606.0 0.000623 411.41232 1541.57178
991.0 0.001009 411.51224 1018.85034
850.0 0.001176 411.61212 886.03418
913.0 0.001095 411.71204 970.46521
1228.0 0.000814 411.81183 1183.03796
1473.0 0.000679 411.91162 1414.76465
1490.0 0.000671 412.01132 1339.91113
1077.0 0.000929 412.11093 995.21704
838.0 0.001193 412.21060 826.27478
871.0 0.001148 412.31012 847.91772
991.0 0.001009 412.40967 943.73798
929.0 0.001076 412.50909 920.07593
727.0 0.001376 412.60840 719.75012
550.0 0.001818 412.70776 592.38470
560.0 0.001786 412.80701 560.89124
551.0 0.001815 412.90619 580.96613
615.0 0.001626 413.00531 631.68933
656.0 0.001524 413.10437 684.17267
646.0 0.001548 413.20328 649.46246
570.0 0.001754 413.30225 547.46869
493.0 0.002028 413.40115 489.15030
445.0 0.002247 413.49985 467.72659
462.0 0.002165 413.59851 459.90024
466.0 0.002146 413.69720 456.77585
459.0 0.002179 413.79578 456.37326
439.0 0.002278 413.89429 458.09052
465.0 0.002151 413.99265 462.04019
476.0 0.002101 414.09097 469.01324
495.0 0.002020 414.18918 482.23120
527.0 0.001898 414.28735 504.56274
589.0 0.001698 414.38544 550.87738
697.0 0.001435 414.48343 624.00031
833.0 0.001200 414.58136 753.18372
1028.0 0.000973 414.67917 944.91864
1281.0 0.000781 414.77689 1185.41077
1371.0 0.000729 414.87457 1254.12146
1308.0 0.000765 414.97211 1209.55298
1454.0 0.000688 415.06952 1355.81323
1770.0 0.000565 415.16693 1662.11743
1811.0 0.000552 415.26416 1719.33362
1511.0 0.000662 415.36139 1506.71716
1291.0 0.000775 415.45847 1332.56335
1086.0 0.000921 415.55542 1090.95544
943.0 0.001060 415.65234 936.69397
976.0 0.001025 415.74911 955.77942
1059.0 0.000944 415.84579 1060.81897
982.0 0.001018 415.94238 1011.23322
834.0 0.001199 416.03888 846.77313
707.0 0.001414 416.13522 700.24103
582.0 0.001718 416.23154 578.99878
471.0 0.002123 416.32776 520.80664
496.0 0.002016 416.42380 500.59821
546.0 0.001832 416.51971 494.89392
518.0 0.001931 416.61560 488.87616
491.0 0.002037 416.71130 485.38950
531.0 0.001883 416.80698 498.26797
532.0 0.001880 416.90244 535.12616
573.0 0.001745 416.99777 596.35516
700.0 0.001429 417.09314 708.66711
880.0 0.001136 417.18829 856.13049
1029.0 0.000972 417.28336 981.45728
857.0 0.001167 417.37820 872.53870
649.0 0.001541 417.47296 658.87854
531.0 0.001883 417.56769 562.72040
513.0 0.001949 417.66226 554.92291
548.0 0.001825 417.75662 593.55981
613.0 0.001631 417.85092 657.74750
686.0 0.001458 417.94510 713.00769
663.0 0.001508 418.03922 646.50824
523.0 0.001912 418.13309 534.91663
458.0 0.002183 418.22693 479.74365
437.0 0.002288 418.32059 460.50977
416.0 0.002404 418.41412 451.80667
417.0 0.002398 418.50754 447.63455
449.0 0.002227 418.60086 446.89175
420.0 0.002381 418.69403 445.95914
444.0 0.002252 418.78690 445.11295
458.0 0.002183 418.87979 445.71133
427.0 0.002342 418.97247 446.58417
457.0 0.002188 419.06506 448.32028
440.0 0.002273 419.15753 450.63831
452.0 0.002212 419.24985 453.61536
447.0 0.002237 419.34192 457.38232
457.0 0.002188 419.43405 462.11029
485.0 0.002062 419.52585 468.15799
475.0 0.002105 419.61758 475.94568
510.0 0.001961 419.70917 486.17551
544.0 0.001838 419.80057 499.99854
545.0 0.001835 419.89185 519.44580
582.0 0.001718 419.98294 548.80280
679.0 0.001473 420.07397 599.59814
786.0 0.001272 420.16479 698.61798
976.0 0.001025 420.25543 885.09393
1267.0 0.000789 420.34595 1183.30298
1776.0 0.000563 420.43637 1721.22021
2569.0 0.000389 420.52655 2452.55176
3092.0 0.0003234 420.61655 3071.27637
2995.0 0.0003339 420.70642 2948.73682
2936.0 0.0003406 420.79617 2772.33472
2933.0 0.0003409 420.88580 2793.38379
2363.0 0.000423 420.97519 2213.56641
1787.0 0.000560 421.06442 1725.10913
1700.0 0.000588 421.15344 1737.26379
1811.0 0.000552 421.24237 1915.31958
1717.0 0.000582 421.33118 1793.01489
1702.0 0.000588 421.41974 1639.66602
1621.0 0.000617 421.50812 1591.51172
1296.0 0.000772 421.59631 1230.39246
868.0 0.001152 421.68445 839.26379
622.0 0.001608 421.77231 653.07178
554.0 0.001805 421.86008 579.31488
529.0 0.001890 421.94760 544.09119
507.0 0.001972 422.03500 523.44806
491.0 0.002037 422.12225 513.45715
486.0 0.002058 422.20926 505.45853
479.0 0.002088 422.29617 500.84393
493.0 0.002028 422.38281 498.87848
460.0 0.002174 422.46921 499.23682
509.0 0.001965 422.55563 501.89331
461.0 0.002169 422.64175 507.09924
519.0 0.001927 422.72769 515.44604
551.0 0.001815 422.81345 529.60883
547.0 0.001828 422.89911 548.55872
602.0 0.001661 422.98447 578.04950
653.0 0.001531 423.06970 627.76379
791.0 0.001264 423.15482 726.51190
969.0 0.001032 423.23959 932.14319
1221.0 0.000819 423.32422 1284.74780
1731.0 0.000578 423.40872 1884.47815
2530.0 0.000395 423.49301 2792.68823
3496.0 0.0002860 423.57712 3763.79590
3421.0 0.0002923 423.66101 3616.94922
2151.0 0.000465 423.74472 2242.64551
1305.0 0.000766 423.82819 1392.84973
1054.0 0.000949 423.91153 1194.24182
1225.0 0.000816 423.99469 1331.60278
1513.0 0.000661 424.07755 1704.59839
1951.0 0.000513 424.16025 2163.34448
2021.0 0.000495 424.24283 2184.03296
1491.0 0.000671 424.32510 1509.59961
1039.0 0.000962 424.40729 1018.97827
866.0 0.001155 424.48917 884.95007
900.0 0.001111 424.57092 967.55786
1105.0 0.000905 424.65237 1192.74170
1490.0 0.000671 424.73370 1632.66614
2132.0 0.000469 424.81488 2197.02051
2462.0 0.000406 424.89575 2510.06152
1878.0 0.000532 424.97644 1897.83887
1135.0 0.000881 425.05692 1190.24817
847.0 0.001181 425.13718 921.53784
832.0 0.001202 425.21729 918.93915
945.0 0.001058 425.29712 1082.92004
1232.0 0.000812 425.37677 1347.50110
1477.0 0.000677 425.45630 1569.43530
1353.0 0.000739 425.53543 1367.03662
1017.0 0.000983 425.61450 1010.03040
795.0 0.001258 425.69324 801.46960
645.0 0.001550 425.77182 660.10260
580.0 0.001724 425.85022 586.66022
574.0 0.001742 425.92838 562.03326
575.0 0.001739 426.00632 564.33459
589.0 0.001698 426.08395 584.82025
635.0 0.001575 426.16150 638.22839
706.0 0.001416 426.23877 715.36334
814.0 0.001229 426.31577 806.56934
964.0 0.001037 426.39264 996.57983
1299.0 0.000770 426.46924 1268.90979
1497.0 0.000668 426.54562 1461.41382
1184.0 0.000845 426.62177 1199.35413
845.0 0.001183 426.69769 826.25360
674.0 0.001484 426.77341 667.63898
626.0 0.001597 426.84891 652.24902
689.0 0.001451 426.92416 717.45367
826.0 0.001211 426.99911 837.01996
905.0 0.001105 427.07388 952.29645
884.0 0.001131 427.14847 872.15680
692.0 0.001445 427.22284 659.41205
524.0 0.001908 427.29691 539.41797
449.0 0.002227 427.37082 492.73892
434.0 0.002304 427.44449 473.46118
435.0 0.002299 427.51788 463.40344
442.0 0.002262 427.59100 457.58923
419.0 0.002387 427.66397 454.69876
434.0 0.002304 427.73657 454.71048
425.0 0.002353 427.80908 455.44699
501.0 0.001996 427.88126 459.64389
504.0 0.001984 427.95331 461.92328
484.0 0.002066 428.02496 460.93954
484.0 0.002066 428.09647 465.34213
473.0 0.002114 428.16772 477.75610
492.0 0.002033 428.23877 491.95288
509.0 0.001965 428.30951 488.95154
487.0 0.002053 428.38004 471.73822
461.0 0.002169 428.45032 460.85266
425.0 0.002353 428.52039 456.24741
444.0 0.002252 428.59021 456.09558
461.0 0.002169 428.65970 461.39124
481.0 0.002079 428.72910 467.74445
450.0 0.002222 428.79813 471.39560
438.0 0.002283 428.86688 466.50620
485.0 0.002062 428.93552 466.36108
451.0 0.002217 429.00372 479.36411
458.0 0.002183 429.07181 503.04764
508.0 0.001969 429.13959 543.34460
512.0 0.001953 429.20715 591.49231
550.0 0.001818 429.27448 608.83582
539.0 0.001855 429.34155 574.21301
543.0 0.001842 429.40826 565.48328
623.0 0.001605 429.47488 602.80493
702.0 0.001425 429.54111 655.52631
683.0 0.001464 429.60712 659.84613
620.0 0.001613 429.67291 626.08728
583.0 0.001715 429.73840 627.70538
587.0 0.001704 429.80371 645.13574
674.0 0.001484 429.86871 703.45886
799.0 0.001252 429.93344 811.35693
875.0 0.001143 429.99789 897.75250
840.0 0.001190 430.06210 818.25098
736.0 0.001359 430.12613 678.89600
671.0 0.001490 430.18976 628.09863
713.0 0.001403 430.25323 671.45685
772.0 0.001295 430.31638 800.56232
913.0 0.001095 430.37927 1027.81482
1326.0 0.000754 430.44193 1366.03699
1661.0 0.000602 430.50427 1660.19934
1538.0 0.000650 430.56641 1558.10681
1090.0 0.000917 430.62827 1092.28528
781.0 0.001280 430.68982 809.21912
758.0 0.001319 430.75113 756.07007
821.0 0.001218 430.81219 843.28894
1020.0 0.000980 430.87296 1052.82336
1350.0 0.000741 430.93344 1382.64417
1595.0 0.000627 430.99365 1693.16443
1657.0 0.000604 431.05362 1666.56738
1246.0 0.000803 431.11331 1283.26208
947.0 0.001056 431.17267 994.35681
968.0 0.001033 431.23190 977.32312
1143.0 0.000875 431.29074 1099.35852
1273.0 0.000786 431.34933 1157.30127
1092.0 0.000916 431.40768 1055.76660
954.0 0.001048 431.46567 1001.04987
901.0 0.001110 431.52353 907.05835
781.0 0.001280 431.58096 750.87079
653.0 0.001531 431.63821 691.47333
719.0 0.001391 431.69516 716.47150
787.0 0.001271 431.75186 748.12769
746.0 0.001340 431.80817 677.34729
561.0 0.001783 431.86426 574.85010
498.0 0.002008 431.92014 523.63885
499.0 0.002004 431.97565 508.03345
505.0 0.001980 432.03098 507.66345
490.0 0.002041 432.08594 520.53491
575.0 0.001739 432.14059 554.47815
615.0 0.001626 432.19501 618.59308
725.0 0.001379 432.24918 736.03918
926.0 0.001080 432.30310 897.57837
1115.0 0.000897 432.35663 1035.32251
1150.0 0.000870 432.40985 1023.73492
1169.0 0.000855 432.46292 980.14807
1058.0 0.000945 432.51566 856.88568
802.0 0.001247 432.56802 698.69983
674.0 0.001484 432.62024 643.94312
673.0 0.001486 432.67203 675.75769
734.0 0.001362 432.72366 740.96899
807.0 0.001239 432.77496 764.86334
841.0 0.001189 432.82599 736.47632
829.0 0.001206 432.87662 698.63019
723.0 0.001383 432.92712 607.79401
605.0 0.001653 432.97717 538.52069
531.0 0.001883 433.02710 515.34338
489.0 0.002045 433.07666 522.04211
525.0 0.001905 433.12585 553.96594
579.0 0.001727 433.17480 616.17041
693.0 0.001443 433.22348 721.20758
780.0 0.001282 433.27191 834.38110
758.0 0.001319 433.32001 834.86938
644.0 0.001553 433.36777 695.70520
591.0 0.001692 433.41528 615.97589
606.0 0.001650 433.46249 634.85046
736.0 0.001359 433.50940 732.00256
854.0 0.001171 433.55606 920.69727
1152.0 0.000868 433.60233 1177.47803
1246.0 0.000803 433.64838 1340.84839
1024.0 0.000977 433.69409 1104.84314
705.0 0.001418 433.73950 777.64050
556.0 0.001799 433.78473 628.19470
546.0 0.001832 433.82950 597.86285
578.0 0.001730 433.87405 627.39850
721.0 0.001387 433.91827 704.85223
759.0 0.001318 433.96225 795.26868
742.0 0.001348 434.00589 791.58136
623.0 0.001605 434.04922 654.29889
535.0 0.001869 434.09222 552.41919
502.0 0.001992 434.13501 512.31506
499.0 0.002004 434.17737 502.06387
468.0 0.002137 434.21960 508.37198
497.0 0.002012 434.26141 529.86572
602.0 0.001661 434.30289 571.20996
658.0 0.001520 434.34418 631.60162
684.0 0.001462 434.38507 680.83820
616.0 0.001623 434.42572 653.30103
615.0 0.001626 434.46603 615.94751
622.0 0.001608 434.50607 653.58990
758.0 0.001319 434.54575 759.79895
983.0 0.001017 434.58527 958.85986
1213.0 0.000824 434.62427 1178.85791
1236.0 0.000809 434.66309 1195.64392
974.0 0.001027 434.70157 931.06738
712.0 0.001404 434.73981 713.98547
613.0 0.001631 434.77771 634.88104
654.0 0.001529 434.81528 652.82397
751.0 0.001332 434.85248 739.74622
924.0 0.001082 434.88937 914.94391
1096.0 0.000912 434.92615 1102.92358
1250.0 0.000800 434.96246 1234.85144
1236.0 0.000809 434.99847 1236.76111
1062.0 0.000942 435.03418 1038.75183
766.0 0.001305 435.06958 756.80487
595.0 0.001681 435.10474 616.44592
553.0 0.001808 435.13956 582.00110
567.0 0.001764 435.17407 600.44666
635.0 0.001575 435.20819 657.87579
711.0 0.001406 435.24207 750.89355
750.0 0.001333 435.27557 783.43127
671.0 0.001490 435.30884 674.59784
549.0 0.001821 435.34183 558.69891
483.0 0.002070 435.37433 504.47470
474.0 0.002110 435.40671 483.39560
480.0 0.002083 435.43866 473.75656
443.0 0.002257 435.47040 468.05350
429.0 0.002331 435.50174 464.94101
441.0 0.002268 435.53275 463.23148
432.0 0.002315 435.56348 466.02579
438.0 0.002283 435.59390 466.37430
470.0 0.002128 435.62402 467.50433
453.0 0.002208 435.65384 469.44693
446.0 0.002242 435.68332 471.11224
466.0 0.002146 435.71252 476.23431
445.0 0.002247 435.74136 481.97537
491.0 0.002037 435.76990 489.92239
525.0 0.001905 435.79813 502.97424
512.0 0.001953 435.82605 519.88104
551.0 0.001815 435.85361 547.40448
622.0 0.001608 435.88092 600.93524
696.0 0.001437 435.90787 712.68469
859.0 0.001164 435.93445 926.37427
1193.0 0.000838 435.96078 1250.91431
1678.0 0.000596 435.98676 1781.70349
2130.0 0.000469 436.01245 2149.35742
1879.0 0.000532 436.03784 1829.40405
1142.0 0.000876 436.06287 1179.32117
904.0 0.001106 436.08762 850.66394
725.0 0.001379 436.11200 779.55951
797.0 0.001255 436.13614 843.16016
890.0 0.001124 436.15991 999.03156
1141.0 0.000876 436.18341 1258.90027
1349.0 0.000741 436.20651 1385.12036
1214.0 0.000824 436.22931 1152.19580
894.0 0.001119 436.25186 868.56036
823.0 0.001215 436.27402 767.19672
837.0 0.001195 436.29590 816.80450
1012.0 0.000988 436.31741 1006.70490
1291.0 0.000775 436.33868 1346.83911
1874.0 0.000534 436.35956 1917.25183
2586.0 0.000387 436.38007 2561.05835
2612.0 0.000383 436.40039 2581.63696
1944.0 0.000514 436.42026 1811.25647
1326.0 0.000754 436.43988 1315.73169
1178.0 0.000849 436.45917 1268.14075
1500.0 0.000667 436.47815 1531.26929
1752.0 0.000571 436.49683 1823.40320
1953.0 0.000512 436.51517 1961.20032
2017.0 0.000496 436.53317 2046.26355
1933.0 0.000517 436.55087 1967.04565
1779.0 0.000562 436.56818 1754.90564
1771.0 0.000565 436.58521 1759.74890
1668.0 0.000600 436.60202 1678.06079
1306.0 0.000766 436.61838 1396.38782
1129.0 0.000886 436.63443 1188.83289
1045.0 0.000957 436.65018 998.96881
940.0 0.001064 436.66559 907.85291
990.0 0.001010 436.68076 982.28223
1180.0 0.000847 436.69553 1211.01514
1509.0 0.000663 436.70996 1528.64246
1776.0 0.000563 436.72415 1705.93994
1606.0 0.000623 436.73795 1512.53418
1202.0 0.000832 436.75134 1115.13770
982.0 0.001018 436.76456 918.10352
1005.0 0.000995 436.77740 965.41083
1300.0 0.000769 436.78992 1210.96301
1762.0 0.000568 436.80212 1653.19592
2417.0 0.000414 436.81400 2272.42041
2630.0 0.000380 436.82556 2496.42725
2035.0 0.000491 436.83673 1881.46313
1264.0 0.000791 436.84763 1195.32776
906.0 0.001104 436.85825 883.11047
780.0 0.001282 436.86847 832.78064
816.0 0.001225 436.87833 922.36896
1089.0 0.000918 436.88791 1130.21924
1367.0 0.000732 436.89728 1380.49011
1410.0 0.000709 436.90619 1374.41626
1084.0 0.000923 436.91489 1035.27795
749.0 0.001335 436.92316 765.14911
574.0 0.001742 436.93112 632.97943
568.0 0.001761 436.93875 572.74561
517.0 0.001934 436.94604 549.96588
480.0 0.002083 436.95316 547.52185
471.0 0.002123 436.95984 544.96259
465.0 0.002151 436.96609 525.19647
482.0 0.002075 436.97214 508.74368
497.0 0.002012 436.97787 500.19705
463.0 0.002160 436.98322 488.56976
488.0 0.002049 436.98828 479.50351
435.0 0.002299 436.99298 473.04297
439.0 0.002278 436.99741 469.29453
486.0 0.002058 437.00150 466.61234
465.0 0.002151 437.00522 466.39856
493.0 0.002028 437.00870 467.11914
467.0 0.002141 437.01178 468.50284
432.0 0.002315 437.01459 470.71597
446.0 0.002242 437.01703 475.51089
451.0 0.002217 437.01910 480.73911
466.0 0.002146 437.02094 486.51825
500.0 0.002000 437.02246 498.93991
506.0 0.001976 437.02353 519.00787
574.0 0.001742 437.02438 550.98657
665.0 0.001504 437.02490 599.24939
711.0 0.001406 437.02512 681.24878
816.0 0.001225 437.02499 839.97791
1128.0 0.000887 437.02448 1100.48792
1563.0 0.000640 437.02368 1465.77991
1698.0 0.000589 437.02255 1599.03699
1361.0 0.000735 437.02106 1239.85742
951.0 0.001052 437.01932 868.02393
715.0 0.001399 437.01721 712.64801
697.0 0.001435 437.01480 688.06299
782.0 0.001279 437.01215 743.97235
905.0 0.001105 437.00897 867.82123
1122.0 0.000891 437.00558 1062.07556
1246.0 0.000803 437.00192 1170.31079
1146.0 0.000873 436.99786 1084.47803
1111.0 0.000900 436.99344 1082.98657
1313.0 0.000762 436.98880 1311.36047
1782.0 0.000561 436.98373 1787.07361
2107.0 0.000475 436.97842 2177.20190
1901.0 0.000526 436.97278 1909.53833
1364.0 0.000733 436.96680 1262.78247
957.0 0.001045 436.96045 917.54102
874.0 0.001144 436.95389 842.23608
998.0 0.001002 436.94690 919.83588
1150.0 0.000870 436.93961 1066.87329
1283.0 0.000779 436.93201 1282.57593
1493.0 0.000670 436.92404 1495.67114
1518.0 0.000659 436.91586 1451.40430
1294.0 0.000773 436.90732 1245.93640
1209.0 0.000827 436.89835 1143.85034
1096.0 0.000912 436.88913 1052.42908
1084.0 0.000923 436.87958 1048.15210
1229.0 0.000814 436.86975 1127.37708
1219.0 0.000820 436.85959 1069.49426
865.0 0.001156 436.84900 859.35944
701.0 0.001427 436.83823 738.55432
744.0 0.001344 436.82712 737.75958
768.0 0.001302 436.81555 769.29742
819.0 0.001221 436.80377 766.84937
796.0 0.001256 436.79169 794.82910
936.0 0.001068 436.77921 897.05377
1000.0 0.001000 436.76651 988.76001
1034.0 0.000967 436.75339 971.27216
827.0 0.001209 436.73993 838.18866
634.0 0.001577 436.72629 667.64648
537.0 0.001862 436.71216 577.33862
530.0 0.001887 436.69781 548.17816
528.0 0.001894 436.68317 552.31201
587.0 0.001704 436.66815 576.87836
622.0 0.001608 436.65286 630.83539
704.0 0.001420 436.63721 694.10175
732.0 0.001366 436.62128 718.55719
686.0 0.001458 436.60498 736.84650
820.0 0.001220 436.58829 849.59338
1019.0 0.000981 436.57138 1081.40698
1294.0 0.000773 436.55414 1347.27869
1297.0 0.000771 436.53662 1320.77063
955.0 0.001047 436.51868 960.70465
659.0 0.001517 436.50049 705.24939
595.0 0.001681 436.48196 608.25665
570.0 0.001754 436.46310 600.86395
632.0 0.001582 436.44403 650.84973
749.0 0.001335 436.42450 752.32373
867.0 0.001153 436.40472 888.98895
857.0 0.001167 436.38458 912.11151
763.0 0.001311 436.36423 745.84155
583.0 0.001715 436.34341 596.27618
484.0 0.002066 436.32233 522.94043
461.0 0.002169 436.30096 491.73508
445.0 0.002247 436.27933 476.86258
454.0 0.002203 436.25729 468.60571
464.0 0.002155 436.23492 463.35660
449.0 0.002227 436.21228 460.82169
429.0 0.002331 436.18933 459.28012
430.0 0.002326 436.16608 458.24619
435.0 0.002299 436.14249 455.56091
436.0 0.002294 436.11865 456.89508
438.0 0.002283 436.09439 456.10147
442.0 0.002262 436.06979 456.35751
461.0 0.002169 436.04498 457.41214
465.0 0.002151 436.01987 459.34720
451.0 0.002217 435.99432 462.27792
447.0 0.002237 435.96860 468.01334
463.0 0.002160 435.94244 478.82465
503.0 0.001988 435.91605 500.62680
524.0 0.001908 435.88931 534.19293
593.0 0.001686 435.86227 586.19598
642.0 0.001558 435.83499 644.10406
682.0 0.001466 435.80731 692.69843
777.0 0.001287 435.77927 776.17963
856.0 0.001168 435.75110 833.83350
736.0 0.001359 435.72247 752.15875
588.0 0.001701 435.69357 623.88220
549.0 0.001821 435.66431 563.99438
583.0 0.001715 435.63477 558.94025
577.0 0.001733 435.60492 576.59271
604.0 0.001656 435.57477 597.04230
607.0 0.001647 435.54431 632.77222
612.0 0.001634 435.51361 675.20618
622.0 0.001608 435.48251 661.70721
624.0 0.001603 435.45111 602.86438
564.0 0.001773 435.41943 574.20209
612.0 0.001634 435.38742 583.94501
658.0 0.001520 435.35516 630.36603
782.0 0.001279 435.32254 740.02905
985.0 0.001015 435.28961 977.55499
1324.0 0.000755 435.25638 1394.35010
2059.0 0.000486 435.22284 2037.22998
2638.0 0.000379 435.18900 2583.13818
2196.0 0.000455 435.15482 2285.37720
1396.0 0.000716 435.12039 1452.61292
935.0 0.001070 435.08560 961.40778
762.0 0.001312 435.05063 792.67224
770.0 0.001299 435.01520 797.58868
874.0 0.001144 434.97958 928.71423
1110.0 0.000901 434.94357 1179.32056
1401.0 0.000714 434.90732 1493.49854
1464.0 0.000683 434.87073 1513.45227
1115.0 0.000897 434.83386 1111.82019
768.0 0.001302 434.79666 785.93091
633.0 0.001580 434.75919 645.37299
601.0 0.001664 434.72144 605.57855
565.0 0.001770 434.68332 618.82904
609.0 0.001642 434.64493 670.83209
670.0 0.001493 434.60623 754.82385
699.0 0.001431 434.56720 791.95239
701.0 0.001427 434.52795 723.22180
694.0 0.001441 434.48828 672.02698
687.0 0.001456 434.44846 695.53754
723.0 0.001383 434.40826 733.95514
689.0 0.001451 434.36777 699.57098
617.0 0.001621 434.32700 637.79230
604.0 0.001656 434.28592 630.20807
600.0 0.001667 434.24454 646.57312
595.0 0.001681 434.20288 624.49109
583.0 0.001715 434.16086 585.66718
582.0 0.001718 434.11859 582.46918
623.0 0.001605 434.07605 604.73639
624.0 0.001603 434.03317 603.76947
589.0 0.001698 433.99002 561.44092
533.0 0.001876 433.94656 535.96063
516.0 0.001938 433.90283 533.28137
566.0 0.001767 433.85880 546.02051
603.0 0.001658 433.81445 572.65027
683.0 0.001464 433.76974 622.40723
814.0 0.001229 433.72491 722.81665
1035.0 0.000966 433.67969 939.62451
1441.0 0.000694 433.63416 1355.41455
2187.0 0.000457 433.58835 2014.30359
2962.0 0.0003376 433.54230 2772.75488
2932.0 0.0003411 433.49597 2786.57349
1915.0 0.000522 433.44931 1869.26221
1127.0 0.000887 433.40228 1158.70374
859.0 0.001164 433.35504 867.93060
825.0 0.001212 433.30750 811.37341
916.0 0.001092 433.25964 903.53101
1087.0 0.000920 433.21152 1132.24451
1547.0 0.000646 433.16318 1495.25854
1678.0 0.000596 433.11447 1716.21106
1460.0 0.000685 433.06552 1410.35083
939.0 0.001065 433.01617 944.08160
719.0 0.001391 432.96667 691.39423
577.0 0.001733 432.91681 586.82129
560.0 0.001786 432.86664 540.27716
500.0 0.002000 432.81628 514.18854
459.0 0.002179 432.76563 497.86838
493.0 0.002028 432.71466 486.95670
491.0 0.002037 432.66336 479.50470
463.0 0.002160 432.61182 474.29187
491.0 0.002037 432.56000 471.33511
480.0 0.002083 432.50797 470.18289
467.0 0.002141 432.45554 474.54678
489.0 0.002045 432.40283 479.74109
490.0 0.002041 432.34988 495.81894
549.0 0.001821 432.29666 527.21326
619.0 0.001616 432.24319 584.51044
768.0 0.001302 432.18936 671.07654
808.0 0.001238 432.13528 738.72968
734.0 0.001362 432.08096 689.56812
616.0 0.001623 432.02631 582.64392
526.0 0.001901 431.97144 516.18591
472.0 0.002119 431.91623 496.35919
477.0 0.002096 431.86078 496.82349
509.0 0.001965 431.80508 513.86316
540.0 0.001852 431.74899 547.08051
615.0 0.001626 431.69275 592.21057
674.0 0.001484 431.63620 605.83130
592.0 0.001689 431.57932 562.56616
512.0 0.001953 431.52222 518.68683
496.0 0.002016 431.46484 505.91113
513.0 0.001949 431.40720 513.69244
545.0 0.001835 431.34927 535.03845
571.0 0.001751 431.29102 564.03998
567.0 0.001764 431.23257 575.46271
542.0 0.001845 431.17383 560.50000
546.0 0.001832 431.11484 555.51617
582.0 0.001718 431.05554 572.09198
635.0 0.001575 430.99600 609.82458
750.0 0.001333 430.93619 682.43347
931.0 0.001074 430.87607 829.66675
1244.0 0.000804 430.81570 1129.75977
1696.0 0.000590 430.75516 1653.47485
2416.0 0.000414 430.69418 2431.71167
3056.0 0.0003272 430.63303 3053.14551
2949.0 0.0003391 430.57162 2981.32275
2315.0 0.000432 430.50995 2406.86230
1543.0 0.000648 430.44800 1620.58337
1102.0 0.000907 430.38571 1122.21033
907.0 0.001103 430.32327 965.80994
984.0 0.001016 430.26053 1038.82361
1219.0 0.000820 430.19751 1289.16943
1576.0 0.000635 430.13428 1660.17798
1900.0 0.000526 430.07071 1852.88965
1663.0 0.000601 430.00693 1698.82910
1304.0 0.000767 429.94287 1358.59937
1061.0 0.000943 429.87857 1012.13477
845.0 0.001183 429.81403 876.87671
909.0 0.001100 429.74921 940.33295
1048.0 0.000954 429.68405 1146.61951
1348.0 0.000742 429.61871 1409.10913
1372.0 0.000729 429.55313 1409.87952
919.0 0.001088 429.48724 1061.46875
700.0 0.001429 429.42108 781.95203
623.0 0.001605 429.35468 664.96124
610.0 0.001639 429.28809 647.46838
696.0 0.001437 429.22116 704.72095
831.0 0.001203 429.15405 846.02820
1082.0 0.000924 429.08670 1068.63916
1238.0 0.000808 429.01901 1248.32947
1090.0 0.000917 428.95111 1119.71704
855.0 0.001170 428.88290 819.41772
634.0 0.001577 428.81458 637.28424
565.0 0.001770 428.74594 562.76434
502.0 0.001992 428.67700 539.21558
505.0 0.001980 428.60779 540.10095
547.0 0.001828 428.53842 567.03467
625.0 0.001600 428.46878 607.85455
653.0 0.001531 428.39886 623.74573
595.0 0.001681 428.32874 575.39374
556.0 0.001799 428.25830 524.72058
510.0 0.001961 428.18771 504.19962
490.0 0.002041 428.11679 506.68570
509.0 0.001965 428.04562 530.08881
567.0 0.001764 427.97424 596.49109
678.0 0.001475 427.90268 710.03455
804.0 0.001244 427.83078 873.39355
873.0 0.001145 427.75867 966.39160
775.0 0.001290 427.68631 835.33844
600.0 0.001667 427.61371 650.44440
507.0 0.001972 427.54086 554.88092
477.0 0.002096 427.46777 521.73749
490.0 0.002041 427.39444 526.66095
538.0 0.001859 427.32092 563.22565
580.0 0.001724 427.24710 625.90369
658.0 0.001520 427.17303 700.04419
673.0 0.001486 427.09882 734.66815
660.0 0.001515 427.02429 667.79437
637.0 0.001570 426.94958 636.77802
665.0 0.001504 426.87457 656.50806
722.0 0.001385 426.79932 688.32623
706.0 0.001416 426.72394 628.91650
569.0 0.001757 426.64822 549.36932
497.0 0.002012 426.57227 509.66998
503.0 0.001988 426.49619 497.99319
497.0 0.002012 426.41980 501.62018
486.0 0.002058 426.34314 519.17438
542.0 0.001845 426.26636 551.15411
586.0 0.001706 426.18924 590.42700
671.0 0.001490 426.11188 624.41028
664.0 0.001506 426.03436 618.64819
643.0 0.001555 425.95657 635.24268
738.0 0.001355 425.87863 728.82507
951.0 0.001052 425.80045 956.29266
1220.0 0.000820 425.72189 1342.69080
1806.0 0.000554 425.64319 1839.39954
2188.0 0.000457 425.56436 2154.15015
2111.0 0.000474 425.48523 1933.91711
1446.0 0.000692 425.40585 1375.28625
984.0 0.001016 425.32626 946.85718
792.0 0.001263 425.24646 766.99475
756.0 0.001323 425.16647 735.46912
802.0 0.001247 425.08624 811.40735
949.0 0.001054 425.00577 983.79639
1170.0 0.000855 424.92511 1217.44165
1330.0 0.000752 424.84421 1331.34937
1254.0 0.000797 424.76303 1190.81592
1028.0 0.000973 424.68173 917.16833
806.0 0.001241 424.60010 749.05920
753.0 0.001328 424.51831 705.43713
814.0 0.001229 424.43634 717.42035
764.0 0.001309 424.35413 692.94366
675.0 0.001481 424.27182 619.59406
600.0 0.001667 424.18909 578.53455
576.0 0.001736 424.10623 560.36456
535.0 0.001869 424.02313 529.55518
507.0 0.001972 423.93988 510.84601
522.0 0.001916 423.85641 516.63983
548.0 0.001825 423.77267 536.19800
561.0 0.001783 423.68872 560.42267
578.0 0.001730 423.60458 555.37897
560.0 0.001786 423.52026 526.56366
525.0 0.001905 423.43576 513.57416
521.0 0.001919 423.35095 510.06100
515.0 0.001942 423.26602 500.94431
502.0 0.001992 423.18073 500.16003
526.0 0.001901 423.09540 516.92212
593.0 0.001686 423.00986 560.58673
683.0 0.001464 422.92407 662.44244
851.0 0.001175 422.83804 811.85590
1050.0 0.000952 422.75186 970.16443
1042.0 0.000960 422.66541 982.88135
841.0 0.001189 422.57883 776.82397
628.0 0.001592 422.49203 629.52911
566.0 0.001767 422.40500 574.69696
587.0 0.001704 422.31775 574.71967
630.0 0.001587 422.23035 621.63544
756.0 0.001323 422.14276 745.73834
980.0 0.001020 422.05496 983.75342
1288.0 0.000776 421.96698 1310.85071
1613.0 0.000620 421.87872 1578.82300
1644.0 0.000608 421.79034 1511.10901
1222.0 0.000818 421.70175 1081.74060
802.0 0.001247 421.61295 778.94263
647.0 0.001546 421.52396 664.34723
613.0 0.001631 421.43475 659.21283
727.0 0.001376 421.34540 717.69666
820.0 0.001220 421.25586 829.74207
960.0 0.001042 421.16608 924.73389
1041.0 0.000961 421.07608 987.97015
1036.0 0.000965 420.98599 974.31683
856.0 0.001168 420.89560 796.53400
690.0 0.001449 420.80508 670.16754
621.0 0.001610 420.71439 615.69733
588.0 0.001701 420.62344 580.35217
562.0 0.001779 420.53244 569.07306
541.0 0.001848 420.44116 575.70380
557.0 0.001795 420.34967 561.57709
516.0 0.001938 420.25803 530.67529
522.0 0.001916 420.16620 522.05743
560.0 0.001786 420.07413 536.23578
593.0 0.001686 419.98199 574.80054
651.0 0.001536 419.88962 650.20032
777.0 0.001287 419.79700 786.36731
954.0 0.001048 419.70428 977.48590
1138.0 0.000879 419.61133 1165.93579
1200.0 0.000833 419.51825 1102.13159
852.0 0.001174 419.42496 825.47949
649.0 0.001541 419.33151 645.29370
563.0 0.001776 419.23792 573.74512
531.0 0.001883 419.14401 560.55182
586.0 0.001706 419.05002 584.74207
670.0 0.001493 418.95587 661.51044
775.0 0.001290 418.86148 788.83197
914.0 0.001094 418.76700 958.52289
1076.0 0.000929 418.67230 1088.83057
1128.0 0.000887 418.57739 1144.28821
1199.0 0.000834 418.48239 1224.22278
1098.0 0.000911 418.38721 1087.73010
808.0 0.001238 418.29175 802.83582
616.0 0.001623 418.19617 631.72662
533.0 0.001876 418.10052 563.73322
530.0 0.001887 418.00461 547.22992
545.0 0.001835 417.90860 565.82043
580.0 0.001724 417.81232 627.62311
692.0 0.001445 417.71588 723.49207
789.0 0.001267 417.61938 823.91577
772.0 0.001295 417.52264 819.37146
721.0 0.001387 417.42575 725.84485
742.0 0.001348 417.32867 725.33917
806.0 0.001241 417.23141 856.06897
1013.0 0.000987 417.13406 1053.51038
1223.0 0.000818 417.03650 1228.19519
1116.0 0.000896 416.93884 1111.36511
829.0 0.001206 416.84103 859.35309
688.0 0.001453 416.74298 728.43457
655.0 0.001527 416.64474 663.07043
575.0 0.001739 416.54642 602.26318
566.0 0.001767 416.44791 589.14447
601.0 0.001664 416.34924 639.72656
678.0 0.001475 416.25037 731.85413
810.0 0.001235 416.15143 822.66193
780.0 0.001282 416.05234 793.40930
655.0 0.001527 415.95313 661.84973
544.0 0.001838 415.85364 582.91357
505.0 0.001980 415.75409 544.70654
479.0 0.002088 415.65430 505.57608
429.0 0.002331 415.55441 477.36035
432.0 0.002315 415.45435 467.71185
502.0 0.001992 415.35419 469.39621
480.0 0.002083 415.25381 478.61801
481.0 0.002079 415.15338 491.27942
496.0 0.002016 415.05270 509.01355
538.0 0.001859 414.95190 533.01855
601.0 0.001664 414.85104 538.51031
511.0 0.001957 414.74991 499.23251
462.0 0.002165 414.64871 464.96765
429.0 0.002331 414.54733 450.65588
452.0 0.002212 414.44583 448.00980
477.0 0.002096 414.34415 451.08932
433.0 0.002309 414.24234 457.14017
441.0 0.002268 414.14047 465.99857
472.0 0.002119 414.03842 476.25052
472.0 0.002119 413.93616 484.71933
453.0 0.002208 413.83383 470.04486
451.0 0.002217 413.73129 452.49304
384.0 0.002604 413.62866 444.43948
429.0 0.002331 413.52591 443.63437
438.0 0.002283 413.42303 446.98395
426.0 0.002347 413.31992 454.29233
419.0 0.002387 413.21677 467.49561
452.0 0.002212 413.11346 488.82748
498.0 0.002008 413.01013 530.11755
580.0 0.001724 412.90649 610.60504
718.0 0.001393 412.80276 755.11218
890.0 0.001124 412.69894 937.21918
982.0 0.001018 412.59497 1055.61487
902.0 0.001109 412.49084 955.59155
707.0 0.001414 412.38663 724.80353
564.0 0.001773 412.28223 585.66498
514.0 0.001946 412.17773 534.36377
538.0 0.001859 412.07318 530.57587
577.0 0.001733 411.96844 561.71277
616.0 0.001623 411.86362 629.33801
678.0 0.001475 411.75854 723.84247
739.0 0.001353 411.65341 790.85352
719.0 0.001391 411.54819 778.77185
638.0 0.001567 411.44287 656.65112
561.0 0.001783 411.33740 559.51031
545.0 0.001835 411.23175 523.26532
555.0 0.001802 411.12598 534.07941
584.0 0.001712 411.02011 594.18494
702.0 0.001425 410.91425 696.76984
767.0 0.001304 410.80814 803.87677
743.0 0.001346 410.70190 808.04144
630.0 0.001587 410.59561 669.53778
545.0 0.001835 410.48917 560.86255
516.0 0.001938 410.38263 506.35397
473.0 0.002114 410.27597 485.89172
481.0 0.002079 410.16916 485.23285
513.0 0.001949 410.06229 504.57852
541.0 0.001848 409.95532 546.88837
594.0 0.001684 409.84818 599.71118
624.0 0.001603 409.74094 633.68402
577.0 0.001733 409.63361 587.01868
530.0 0.001887 409.52606 530.04034
516.0 0.001938 409.41864 506.69168
515.0 0.001942 409.31097 511.28140
563.0 0.001776 409.20325 543.34479
575.0 0.001739 409.09525 615.36377
696.0 0.001437 408.98727 739.16968
921.0 0.001086 408.87924 900.90967
1070.0 0.000935 408.77103 1032.24268
1028.0 0.000973 408.66272 1082.20618
1074.0 0.000931 408.55435 1073.57300
1114.0 0.000898 408.44577 1044.63477
856.0 0.001168 408.33716 862.78619
699.0 0.001431 408.22852 717.91071
722.0 0.001385 408.11963 687.45697
788.0 0.001269 408.01077 758.38635
1015.0 0.000985 407.90173 927.01898
1264.0 0.000791 407.79266 1176.20544
1609.0 0.000622 407.68350 1441.00867
1873.0 0.000534 407.57416 1632.32751
1768.0 0.000566 407.46472 1574.45276
1522.0 0.000657 407.35522 1403.91394
1195.0 0.000837 407.24567 1144.90149
906.0 0.001104 407.13599 858.41510
702.0 0.001425 407.02618 703.34155
644.0 0.001553 406.91632 662.27271
708.0 0.001412 406.80643 697.37201
796.0 0.001256 406.69632 781.73090
945.0 0.001058 406.58615 886.69086
1041.0 0.000961 406.47592 919.21985
997.0 0.001003 406.36566 866.30109
890.0 0.001124 406.25522 828.18365
786.0 0.001272 406.14471 754.28888
708.0 0.001412 406.03418 737.19794
724.0 0.001381 405.92352 803.62225
769.0 0.001300 405.81274 887.41553
742.0 0.001348 405.70190 845.66199
655.0 0.001527 405.59100 712.11945
580.0 0.001724 405.47998 609.98602
559.0 0.001789 405.36890 573.54907
577.0 0.001733 405.25775 597.59625
623.0 0.001605 405.14645 680.54181
719.0 0.001391 405.03519 806.21173
822.0 0.001217 404.92383 924.18201
840.0 0.001190 404.81226 916.37567
793.0 0.001261 404.70065 842.98138
658.0 0.001520 404.58908 720.26105
584.0 0.001712 404.47729 626.87701
573.0 0.001745 404.36554 592.03174
568.0 0.001761 404.25366 618.35858
656.0 0.001524 404.14169 717.52789
827.0 0.001209 404.02969 899.85431
1048.0 0.000954 403.91757 1106.89368
1115.0 0.000897 403.80539 1189.73181
1095.0 0.000913 403.69324 1069.04993
1024.0 0.000977 403.58090 1042.52051
1180.0 0.000847 403.46851 1219.26855
1474.0 0.000678 403.35605 1496.57703
1673.0 0.000598 403.24356 1602.50232
1283.0 0.000779 403.13104 1265.64246
842.0 0.001188 403.01831 948.74957
755.0 0.001325 402.90558 832.84937
746.0 0.001340 402.79282 822.74866
744.0 0.001344 402.67996 782.88318
729.0 0.001372 402.56708 732.04340
727.0 0.001376 402.45407 765.97815
862.0 0.001160 402.34106 886.20996
1065.0 0.000939 402.22797 1013.00439
963.0 0.001038 402.11481 966.21399
826.0 0.001211 402.00156 764.67767
688.0 0.001453 401.88824 638.52374
641.0 0.001560 401.77487 619.16406
661.0 0.001513 401.66144 676.53955
732.0 0.001366 401.54810 756.07281
770.0 0.001299 401.43457 770.68164
664.0 0.001506 401.32098 653.01501
536.0 0.001866 401.20737 549.16071
442.0 0.002262 401.09363 498.76822
461.0 0.002169 400.97995 480.75198
455.0 0.002198 400.86606 479.64941
502.0 0.001992 400.75223 494.16275
522.0 0.001916 400.63837 532.31665
585.0 0.001709 400.52441 598.24707
700.0 0.001429 400.41040 684.56213
780.0 0.001282 400.29636 762.41376
827.0 0.001209 400.18225 831.34473
863.0 0.001159 400.06802 893.07178
818.0 0.001222 399.95389 801.79852
654.0 0.001529 399.83969 629.66132
516.0 0.001938 399.72546 527.03296
451.0 0.002217 399.61102 482.97751
455.0 0.002198 399.49658 468.17212
473.0 0.002114 399.38217 470.48788
496.0 0.002016 399.26776 492.83185
537.0 0.001862 399.15323 543.38947
588.0 0.001701 399.03864 606.17126
621.0 0.001610 398.92398 637.80994
568.0 0.001761 398.80939 573.78625
506.0 0.001976 398.69473 500.93271
449.0 0.002227 398.57996 465.08752
456.0 0.002193 398.46521 452.89645
462.0 0.002165 398.35043 454.92767
442.0 0.002262 398.23553 471.92291
505.0 0.001980 398.12073 516.71686
582.0 0.001718 398.00577 600.82288
661.0 0.001513 397.89084 701.61694
697.0 0.001435 397.77582 748.31616
640.0 0.001563 397.66086 647.90503
498.0 0.002008 397.54581 535.23621
444.0 0.002252 397.43076 476.96399
437.0 0.002288 397.31558 453.80640
478.0 0.002092 397.20044 447.82938
445.0 0.002247 397.08527 454.22928
479.0 0.002088 396.97006 478.27005
473.0 0.002114 396.85486 522.35352
579.0 0.001727 396.73956 569.73914
587.0 0.001704 396.62421 574.53015
525.0 0.001905 396.50894 515.38104
454.0 0.002203 396.39355 465.53448
460.0 0.002174 396.27817 441.53482
384.0 0.002604 396.16278 432.36200
465.0 0.002151 396.04736 429.51465
420.0 0.002381 395.93195 429.80258
456.0 0.002193 395.81650 432.50259
405.0 0.002469 395.70096 438.28360
475.0 0.002105 395.58545 447.35938
448.0 0.002232 395.46994 462.32404
530.0 0.001887 395.35437 491.64291
578.0 0.001730 395.23880 554.07343
680.0 0.001471 395.12323 685.16138
893.0 0.001120 395.00751 897.09937
1019.0 0.000981 394.89194 1106.95898
1103.0 0.000907 394.77625 1109.45251
870.0 0.001149 394.66068 875.92523
675.0 0.001481 394.54492 730.73364
710.0 0.001408 394.42917 715.91479
731.0 0.001368 394.31351 746.18494
705.0 0.001418 394.19785 709.32874
613.0 0.001631 394.08206 638.16595
606.0 0.001650 393.96628 639.38782
670.0 0.001493 393.85052 713.87592
704.0 0.001420 393.73477 794.86414
718.0 0.001393 393.61902 760.10352
628.0 0.001592 393.50320 636.28564
553.0 0.001808 393.38739 569.85242
554.0 0.001805 393.27161 563.38379
570.0 0.001754 393.15567 571.70526
534.0 0.001873 393.03998 537.32849
471.0 0.002123 392.92416 485.89597
453.0 0.002208 392.80823 454.59235
450.0 0.002222 392.69241 440.98923
461.0 0.002169 392.57654 436.72186
460.0 0.002174 392.46072 438.35291
446.0 0.002242 392.34485 449.52676
478.0 0.002092 392.22903 474.20282
543.0 0.001842 392.11316 524.39124
611.0 0.001637 391.99722 591.04498
631.0 0.001585 391.88144 634.66498
605.0 0.001653 391.76559 587.11224
534.0 0.001873 391.64972 513.26929
478.0 0.002092 391.53387 472.95490
450.0 0.002222 391.41800 460.05463
452.0 0.002212 391.30215 461.26114
453.0 0.002208 391.18634 477.30658
510.0 0.001961 391.07043 507.24268
542.0 0.001845 390.95456 557.52289
634.0 0.001577 390.83878 636.43616
781.0 0.001280 390.72296 764.42987
880.0 0.001136 390.60709 937.67261
1083.0 0.000923 390.49127 1125.60461
1157.0 0.000864 390.37549 1169.58630
889.0 0.001125 390.25967 920.11279
620.0 0.001613 390.14389 688.46643
526.0 0.001901 390.02814 574.38928
503.0 0.001988 389.91241 535.78320
559.0 0.001789 389.79657 532.02765
556.0 0.001799 389.68082 548.73260
577.0 0.001733 389.56512 595.27246
703.0 0.001422 389.44937 689.09406
775.0 0.001290 389.33371 801.51434
852.0 0.001174 389.21802 839.16321
797.0 0.001255 389.10236 740.35547
658.0 0.001520 388.98672 677.82623
720.0 0.001389 388.87106 732.79071
905.0 0.001105 388.75540 928.96423
1185.0 0.000844 388.63974 1204.29041
1255.0 0.000797 388.52417 1369.84021
1147.0 0.000872 388.40857 1153.20276
822.0 0.001217 388.29309 856.76758
671.0 0.001490 388.17758 704.35358
613.0 0.001631 388.06207 645.44025
604.0 0.001656 387.94653 600.90741
558.0 0.001792 387.83109 579.41858
611.0 0.001637 387.71570 616.39478
694.0 0.001441 387.60022 720.14948
792.0 0.001263 387.48483 873.70001
878.0 0.001139 387.36942 985.04425
912.0 0.001096 387.25412 906.99890
802.0 0.001247 387.13873 761.74872
700.0 0.001429 387.02350 688.11334
738.0 0.001355 386.90820 699.37817
796.0 0.001256 386.79294 790.80707
960.0 0.001042 386.67767 1021.80536
1252.0 0.000799 386.56250 1380.79883
1455.0 0.000687 386.44736 1665.67859
1332.0 0.000751 386.33224 1507.72107
1115.0 0.000897 386.21713 1144.91626
982.0 0.001018 386.10214 945.81097
882.0 0.001134 385.98706 843.05969
764.0 0.001309 385.87207 733.38470
705.0 0.001418 385.75705 674.24396
706.0 0.001416 385.64215 701.16467
788.0 0.001269 385.52722 832.27295
949.0 0.001054 385.41241 1041.10107
1095.0 0.000913 385.29755 1202.25854
1082.0 0.000924 385.18274 1112.23560
929.0 0.001076 385.06805 901.04852
835.0 0.001198 384.95331 800.35986
812.0 0.001232 384.83871 798.19482
897.0 0.001115 384.72400 843.85919
989.0 0.001011 384.60934 943.28595
1140.0 0.000877 384.49481 1079.42383
1299.0 0.000770 384.38025 1260.50891
1674.0 0.000597 384.26578 1672.57190
2350.0 0.000426 384.15134 2333.09546
2997.0 0.0003337 384.03699 2905.06494
2877.0 0.0003476 383.92255 2761.43140
1979.0 0.000505 383.80829 1877.39246
1215.0 0.000823 383.69403 1223.59253
911.0 0.001098 383.57977 938.07495
843.0 0.001186 383.46561 864.64551
845.0 0.001183 383.35141 881.21259
965.0 0.001036 383.23743 937.10858
1097.0 0.000912 383.12341 1095.27063
1405.0 0.000712 383.00934 1372.55530
1697.0 0.000589 382.89542 1652.81702
1713.0 0.000584 382.78149 1652.56482
1347.0 0.000742 382.66769 1219.75171
875.0 0.001143 382.55386 840.78619
666.0 0.001502 382.44012 644.53149
567.0 0.001764 382.32639 557.59546
515.0 0.001942 382.21277 519.28107
505.0 0.001980 382.09918 502.33295
539.0 0.001855 381.98560 492.59070
549.0 0.001821 381.87210 476.42151
483.0 0.002070 381.75870 457.48386
424.0 0.002358 381.64532 446.26065
452.0 0.002212 381.53195 438.88242
461.0 0.002169 381.41873 435.56140
459.0 0.002179 381.30551 433.17386
444.0 0.002252 381.19229 433.45755
475.0 0.002105 381.07919 436.40665
467.0 0.002141 380.96619 445.23428
482.0 0.002075 380.85321 465.26538
539.0 0.001855 380.74026 509.55603
625.0 0.001600 380.62741 595.51904
732.0 0.001366 380.51459 698.03271
744.0 0.001344 380.40182 751.42065
649.0 0.001541 380.28912 663.65204
572.0 0.001748 380.17651 554.54254
542.0 0.001845 380.06396 498.92926
528.0 0.001894 379.95142 486.39218
536.0 0.001866 379.83905 506.08194
616.0 0.001623 379.72656 558.19843
742.0 0.001348 379.61429 639.25610
821.0 0.001218 379.50208 718.57849
837.0 0.001195 379.38983 755.98718
815.0 0.001227 379.27771 753.17377
762.0 0.001312 379.16568 733.25946
799.0 0.001252 379.05371 752.04523
858.0 0.001166 378.94177 820.82239
841.0 0.001189 378.82996 839.76160
745.0 0.001342 378.71817 755.32391
655.0 0.001527 378.60648 683.59973
646.0 0.001548 378.49478 652.43097
684.0 0.001462 378.38324 663.99060
735.0 0.001361 378.27170 704.75354
831.0 0.001203 378.16028 804.60284
1067.0 0.000937 378.04898 1049.70313
1367.0 0.000732 377.93771 1415.50488
1564.0 0.000639 377.82645 1657.68237
1329.0 0.000752 377.71533 1430.05371
966.0 0.001035 377.60425 1022.78326
735.0 0.001361 377.49326 752.57220
613.0 0.001631 377.38229 614.35834
550.0 0.001818 377.27148 552.06219
568.0 0.001761 377.16071 536.12555
576.0 0.001736 377.05005 563.89856
687.0 0.001456 376.93945 653.81665
845.0 0.001183 376.82889 809.43048
905.0 0.001105 376.71838 946.26270
914.0 0.001094 376.60800 893.08722
680.0 0.001471 376.49768 694.62634
554.0 0.001805 376.38748 551.69012
471.0 0.002123 376.27731 482.45416
468.0 0.002137 376.16733 454.00259
435.0 0.002299 376.05734 442.04678
469.0 0.002132 375.94733 433.54715
439.0 0.002278 375.83762 421.28503
448.0 0.002232 375.72781 411.76074
452.0 0.002212 375.61810 408.03546
418.0 0.002392 375.50858 407.19095
426.0 0.002347 375.39908 408.63599
455.0 0.002198 375.28970 414.45093
448.0 0.002232 375.18039 424.05875
494.0 0.002024 375.07114 429.86194
464.0 0.002155 374.96204 421.90677
422.0 0.002370 374.85297 412.63904
462.0 0.002165 374.74396 404.31485
436.0 0.002294 374.63513 399.26508
439.0 0.002278 374.52625 399.70001
428.0 0.002336 374.41754 402.18100
423.0 0.002364 374.30893 409.61139
425.0 0.002353 374.20041 414.26379
440.0 0.002273 374.09201 412.31149
476.0 0.002101 373.98361 410.07364
488.0 0.002049 373.87534 405.11026
460.0 0.002174 373.76718 397.55029
437.0 0.002288 373.65906 394.15771
416.0 0.002404 373.55106 392.89905
402.0 0.002488 373.44318 394.02518
410.0 0.002439 373.33533 396.07895
431.0 0.002320 373.22763 401.36026
443.0 0.002257 373.12006 406.47150
444.0 0.002252 373.01251 408.54013
436.0 0.002294 372.90506 409.43835
443.0 0.002257 372.79773 413.96136
439.0 0.002278 372.69046 423.58044
463.0 0.002160 372.58340 441.96811
503.0 0.001988 372.47635 479.76196
546.0 0.001832 372.36938 562.50378
654.0 0.001529 372.26251 717.92407
817.0 0.001224 372.15573 887.19513
899.0 0.001112 372.04913 843.66083
778.0 0.001285 371.94254 675.98993
660.0 0.001515 371.83612 572.62769
573.0 0.001745 371.72968 547.13910
568.0 0.001761 371.62350 591.02045
697.0 0.001435 371.51730 729.41071
918.0 0.001089 371.41129 991.10486
1137.0 0.000880 371.30524 1224.55872
1218.0 0.000821 371.19940 1122.27869
1004.0 0.000996 371.09369 941.63342
814.0 0.001229 370.98804 823.87219
689.0 0.001451 370.88251 680.52527
585.0 0.001709 370.77698 575.27289
553.0 0.001808 370.67166 528.53857
572.0 0.001748 370.56644 528.27039
618.0 0.001618 370.46133 580.17950
667.0 0.001499 370.35629 712.47089
810.0 0.001235 370.25137 919.40649
953.0 0.001049 370.14661 994.21802
923.0 0.001083 370.04187 813.44098
743.0 0.001346 369.93726 638.35712
655.0 0.001527 369.83279 559.97205
603.0 0.001658 369.72833 563.88977
614.0 0.001629 369.62411 625.33057
675.0 0.001481 369.51996 689.67902
703.0 0.001422 369.41589 664.39362
698.0 0.001433 369.31189 636.43872
727.0 0.001376 369.20810 669.91425
729.0 0.001372 369.10431 689.99060
735.0 0.001361 369.00079 630.27216
628.0 0.001592 368.89725 552.55969
573.0 0.001745 368.79382 509.97714
518.0 0.001931 368.69055 505.73962
537.0 0.001862 368.58731 536.21539
610.0 0.001639 368.48431 595.35400
677.0 0.001477 368.38138 648.94336
690.0 0.001449 368.27847 703.62634
773.0 0.001294 368.17581 856.64044
1014.0 0.000986 368.07312 1134.80322
1288.0 0.000776 367.97070 1346.91541
1322.0 0.000756 367.86835 1206.48962
1076.0 0.000929 367.76605 987.50317
1011.0 0.000989 367.66397 941.36078
1042.0 0.000960 367.56189 957.60016
964.0 0.001037 367.45996 831.29126
821.0 0.001218 367.35822 688.96710
702.0 0.001425 367.25650 625.18329
648.0 0.001543 367.15494 640.66437
678.0 0.001475 367.05350 731.31317
825.0 0.001212 366.95215 882.27118
938.0 0.001066 366.85092 977.70581
995.0 0.001005 366.74988 947.30530
1044.0 0.000958 366.64883 1018.84955
1165.0 0.000858 366.54810 1323.54785
1482.0 0.000675 366.44736 1723.45776
1684.0 0.000594 366.34668 1708.18152
1395.0 0.000717 366.24628 1270.56787
985.0 0.001015 366.14578 933.76544
809.0 0.001236 366.04562 790.80920
804.0 0.001244 365.94550 786.90216
946.0 0.001057 365.84549 914.68646
1192.0 0.000839 365.74570 1250.78735
1697.0 0.000589 365.64581 1869.55627
2361.0 0.000424 365.54623 2476.50586
2628.0 0.000381 365.44678 2482.92114
2421.0 0.000413 365.34738 2306.14355
2142.0 0.000467 365.24808 1941.39453
1683.0 0.000594 365.14902 1364.59766
1157.0 0.000864 365.04999 963.80151
855.0 0.001170 364.95111 770.43506
741.0 0.001350 364.85239 712.13989
754.0 0.001326 364.75363 755.13757
884.0 0.001131 364.65518 924.53387
1125.0 0.000889 364.55676 1223.69800
1361.0 0.000735 364.45856 1417.97913
1509.0 0.000663 364.36047 1302.75940
1309.0 0.000764 364.26248 1161.77368
1194.0 0.000838 364.16458 990.69128
1000.0 0.001000 364.06683 813.63470
853.0 0.001172 363.96921 741.09131
756.0 0.001323 363.87180 707.19513
630.0 0.001587 363.77432 616.20422
595.0 0.001681 363.67719 529.31580
530.0 0.001887 363.58008 478.64890
493.0 0.002028 363.48309 457.34521
480.0 0.002083 363.38632 450.40387
508.0 0.001969 363.28955 458.86246
506.0 0.001976 363.19302 465.43695
548.0 0.001825 363.09653 459.24380
505.0 0.001980 363.00027 464.46649
502.0 0.001992 362.90414 488.22638
530.0 0.001887 362.80807 493.56842
481.0 0.002079 362.71216 458.19461
469.0 0.002132 362.61633 421.40756
478.0 0.002092 362.52075 402.38226
430.0 0.002326 362.42526 394.42157
442.0 0.002262 362.32993 388.78351
431.0 0.002320 362.23468 385.09558
446.0 0.002242 362.13959 383.95526
411.0 0.002433 362.04456 383.53683
407.0 0.002457 361.94977 383.70526
410.0 0.002439 361.85504 384.42084
425.0 0.002353 361.76047 385.70883
415.0 0.002410 361.66608 387.65668
401.0 0.002494 361.57178 388.86542
416.0 0.002404 361.47766 392.64740
445.0 0.002247 361.38364 398.17273
436.0 0.002294 361.28967 405.73941
426.0 0.002347 361.19601 416.43991
468.0 0.002137 361.10242 434.38095
500.0 0.002000 361.00900 466.32623
541.0 0.001848 360.91562 529.35303
647.0 0.001546 360.82242 652.53595
826.0 0.001211 360.72934 845.58002
990.0 0.001010 360.63647 1021.71344
1145.0 0.000873 360.54370 1173.12439
1295.0 0.000772 360.45108 1256.64758
1215.0 0.000823 360.35858 1053.33557
959.0 0.001043 360.26617 775.84875
709.0 0.001410 360.17398 602.97412
565.0 0.001770 360.08200 525.65143
526.0 0.001901 359.98999 503.84335
518.0 0.001931 359.89828 521.80151
586.0 0.001706 359.80658 588.55774
675.0 0.001481 359.71509 708.90186
822.0 0.001217 359.62381 826.28558
915.0 0.001093 359.53253 892.78925
932.0 0.001073 359.44147 883.77997
883.0 0.001133 359.35043 741.74353
666.0 0.001502 359.25970 586.46606
547.0 0.001828 359.16907 492.53073
525.0 0.001905 359.07855 447.38602
466.0 0.002146 358.98819 427.59250
460.0 0.002174 358.89795 421.41644
465.0 0.002151 358.80789 428.09140
493.0 0.002028 358.71799 452.54343
519.0 0.001927 358.62820 492.25647
561.0 0.001783 358.53854 511.30615
546.0 0.001832 358.44910 480.48077
518.0 0.001931 358.35974 435.70450
414.0 0.002415 358.27057 407.58389
399.0 0.002506 358.18152 394.03741
419.0 0.002387 358.09256 388.10794
408.0 0.002451 358.00381 385.65634
418.0 0.002392 357.91522 385.01700
423.0 0.002364 357.82672 385.94989
401.0 0.002494 357.73846 392.07874
444.0 0.002252 357.65024 402.43884
469.0 0.002132 357.56223 415.71915
455.0 0.002198 357.47433 413.35776
429.0 0.002331 357.38663 402.27170
421.0 0.002375 357.29901 396.57700
429.0 0.002331 357.21158 397.63367
413.0 0.002421 357.12424 404.31137
426.0 0.002347 357.03714 417.26050
455.0 0.002198 356.95016 441.55804
490.0 0.002041 356.86331 492.72543
599.0 0.001669 356.77664 605.70721
720.0 0.001389 356.69006 809.78198
862.0 0.001160 356.60367 1022.95770
907.0 0.001103 356.51749 958.70178
769.0 0.001300 356.43134 723.80542
570.0 0.001754 356.34546 557.55713
475.0 0.002105 356.25961 476.28302
446.0 0.002242 356.17392 442.58337
441.0 0.002268 356.08850 430.81833
422.0 0.002370 356.00314 432.79816
447.0 0.002237 355.91797 453.89865
498.0 0.002008 355.83289 509.04169
589.0 0.001698 355.74805 619.26746
735.0 0.001361 355.66330 754.71899
790.0 0.001266 355.57874 757.10791
695.0 0.001439 355.49423 621.84338
569.0 0.001757 355.40994 503.99542
459.0 0.002179 355.32590 440.00830
412.0 0.002427 355.24191 410.22675
420.0 0.002381 355.15814 395.90164
427.0 0.002342 355.07440 388.24374
421.0 0.002375 354.99091 384.92395
403.0 0.002481 354.90756 384.76257
388.0 0.002577 354.82437 389.76376
389.0 0.002571 354.74127 401.12830
435.0 0.002299 354.65836 411.78012
452.0 0.002212 354.57565 404.91333
419.0 0.002387 354.49304 390.11847
418.0 0.002392 354.41064 380.40048
392.0 0.002551 354.32834 375.94241
390.0 0.002564 354.24619 374.47397
385.0 0.002597 354.16418 374.55151
391.0 0.002558 354.08240 375.69580
405.0 0.002469 354.00067 376.29926
380.0 0.002632 353.91919 380.14304
407.0 0.002457 353.83786 386.52466
438.0 0.002283 353.75662 397.50253
365.0 0.002740 353.67566 415.64059
452.0 0.002212 353.59470 440.81253
511.0 0.001957 353.51395 469.78055
498.0 0.002008 353.43344 528.53625
593.0 0.001686 353.35294 659.23248
748.0 0.001337 353.27280 859.30280
937.0 0.001067 353.19269 946.45282
848.0 0.001179 353.11264 778.90125
638.0 0.001567 353.03284 594.54266
503.0 0.001988 352.95322 489.57617
476.0 0.002101 352.87372 444.11823
424.0 0.002358 352.79437 428.25006
437.0 0.002288 352.71521 426.99960
454.0 0.002203 352.63626 432.30777
455.0 0.002198 352.55734 450.51013
478.0 0.002092 352.47864 501.73035
570.0 0.001754 352.40012 593.76849
623.0 0.001605 352.32178 663.34998
631.0 0.001585 352.24353 604.62848
584.0 0.001712 352.16541 508.47495
496.0 0.002016 352.08755 444.35510
431.0 0.002320 352.00980 409.77698
413.0 0.002421 351.93222 392.49969
396.0 0.002525 351.85471 383.70459
389.0 0.002571 351.77747 379.11075
378.0 0.002646 351.70035 376.81564
396.0 0.002525 351.62341 376.32547
392.0 0.002551 351.54663 377.76205
401.0 0.002494 351.46994 382.20093
421.0 0.002375 351.39349 392.75104
439.0 0.002278 351.31717 415.58344
470.0 0.002128 351.24100 456.30841
514.0 0.001946 351.16495 505.81284
571.0 0.001751 351.08911 511.45920
575.0 0.001739 351.01340 462.28949
490.0 0.002041 350.93793 419.67130
437.0 0.002288 350.86255 397.05051
443.0 0.002257 350.78735 390.94354
445.0 0.002247 350.71231 394.36526
428.0 0.002336 350.63733 402.65591
418.0 0.002392 350.56265 408.52628
437.0 0.002288 350.48810 418.63889
490.0 0.002041 350.41364 448.69815
551.0 0.001815 350.33945 500.25616
571.0 0.001751 350.26535 530.62274
539.0 0.001855 350.19138 493.61804
514.0 0.001946 350.11765 446.69324
483.0 0.002070 350.04401 422.85037
440.0 0.002273 349.97052 420.53085
469.0 0.002132 349.89728 437.46860
506.0 0.001976 349.82410 482.36215
543.0 0.001842 349.75119 574.83813
679.0 0.001473 349.67841 712.36322
754.0 0.001326 349.60571 792.94208
717.0 0.001395 349.53320 702.04248
597.0 0.001675 349.46091 583.94922
533.0 0.001876 349.38876 501.84634
441.0 0.002268 349.31671 453.75537
443.0 0.002257 349.24487 433.97647
439.0 0.002278 349.17316 435.27896
483.0 0.002070 349.10168 456.64771
520.0 0.001923 349.03021 496.67691
541.0 0.001848 348.95911 539.73187
543.0 0.001842 348.88806 592.56000
601.0 0.001664 348.81714 655.60974
609.0 0.001642 348.74646 641.69415
602.0 0.001661 348.67593 577.84375
561.0 0.001783 348.60547 514.39252
503.0 0.001988 348.53522 461.50641
454.0 0.002203 348.46515 433.29034
439.0 0.002278 348.39523 423.54190
464.0 0.002155 348.32550 427.89447
460.0 0.002174 348.25592 443.69595
465.0 0.002151 348.18649 463.37250
487.0 0.002053 348.11722 481.69125
567.0 0.001764 348.04813 522.08270
614.0 0.001629 347.97919 607.67120
718.0 0.001393 347.91043 745.00940
848.0 0.001179 347.84174 875.12274
885.0 0.001130 347.77335 905.45270
810.0 0.001235 347.70505 785.47888
649.0 0.001541 347.63693 624.49988
519.0 0.001927 347.56882 523.36426
481.0 0.002079 347.50107 476.48972
477.0 0.002096 347.43335 460.34488
484.0 0.002066 347.36591 462.03336
489.0 0.002045 347.29861 479.33411
511.0 0.001957 347.23148 518.29865
577.0 0.001733 347.16440 590.37744
683.0 0.001464 347.09750 695.85535
782.0 0.001279 347.03091 813.69257
897.0 0.001115 346.96439 948.04651
1086.0 0.000921 346.89795 1141.64392
1310.0 0.000763 346.83176 1391.98401
1388.0 0.000720 346.76572 1390.11682
1275.0 0.000784 346.69983 1181.91272
1145.0 0.000873 346.63412 1101.07092
1098.0 0.000911 346.56854 1173.27917
1109.0 0.000902 346.50317 1116.24426
920.0 0.001087 346.43796 878.95374
683.0 0.001464 346.37283 692.16949
592.0 0.001689 346.30795 606.00140
609.0 0.001642 346.24326 602.76819
658.0 0.001520 346.17859 676.08936
750.0 0.001333 346.11420 819.27197
923.0 0.001083 346.04996 928.93561
902.0 0.001109 345.98584 873.67682
843.0 0.001186 345.92188 799.45221
844.0 0.001185 345.85809 824.64874
889.0 0.001125 345.79449 903.65228
941.0 0.001063 345.73102 929.60950
1044.0 0.000958 345.66772 997.74414
1073.0 0.000932 345.60461 1121.46753
1111.0 0.000900 345.54156 1068.50146
880.0 0.001136 345.47879 840.28888
718.0 0.001393 345.41617 669.56635
605.0 0.001653 345.35370 605.88159
598.0 0.001672 345.29132 628.39410
682.0 0.001466 345.22916 687.82452
721.0 0.001387 345.16714 681.28442
659.0 0.001517 345.10532 623.58160
648.0 0.001543 345.04361 605.24011
652.0 0.001534 344.98212 631.80695
662.0 0.001511 344.92075 697.17389
708.0 0.001412 344.85950 746.71362
691.0 0.001447 344.79843 675.08087
624.0 0.001603 344.73752 563.46448
525.0 0.001905 344.67682 497.97018
522.0 0.001916 344.61630 482.51251
498.0 0.002008 344.55582 503.12241
501.0 0.001996 344.49561 524.96167
504.0 0.001984 344.43552 503.50717
468.0 0.002137 344.37558 471.60797
455.0 0.002198 344.31580 453.75854
466.0 0.002146 344.25623 439.70557
458.0 0.002183 344.19678 437.68567
480.0 0.002083 344.13751 459.67719
513.0 0.001949 344.07834 521.26764
565.0 0.001770 344.01941 633.65509
649.0 0.001541 343.96054 748.10059
670.0 0.001493 343.90192 713.05756
571.0 0.001751 343.84338 583.48669
488.0 0.002049 343.78510 488.34183
455.0 0.002198 343.72696 443.14551
477.0 0.002096 343.66891 430.20120
504.0 0.001984 343.61105 430.26901
496.0 0.002016 343.55334 425.42041
493.0 0.002028 343.49582 423.10718
475.0 0.002105 343.43842 436.26868
454.0 0.002203 343.38123 472.42773
494.0 0.002024 343.32419 532.96521
553.0 0.001808 343.26727 577.80646
565.0 0.001770 343.21051 540.60297
496.0 0.002016 343.15399 481.35345
477.0 0.002096 343.09753 456.40265
513.0 0.001949 343.04123 472.95477
539.0 0.001855 342.98511 524.13342
613.0 0.001631 342.92917 567.18567
559.0 0.001789 342.87338 532.57245
502.0 0.001992 342.81778 467.96890
462.0 0.002165 342.76227 424.49405
403.0 0.002481 342.70700 403.21219
417.0 0.002398 342.65182 395.08463
418.0 0.002392 342.59677 394.71262
425.0 0.002353 342.54196 399.57443
398.0 0.002513 342.48727 411.62347
444.0 0.002252 342.43274 432.21817
471.0 0.002123 342.37839 461.62772
539.0 0.001855 342.32416 513.59644
577.0 0.001733 342.27002 579.98322
629.0 0.001590 342.21619 622.91901
571.0 0.001751 342.16241 598.43469
499.0 0.002004 342.10886 519.64374
434.0 0.002304 342.05539 459.50925
424.0 0.002358 342.00208 431.15073
451.0 0.002217 341.94894 426.63248
410.0 0.002439 341.89603 442.19153
448.0 0.002232 341.84320 483.55231
554.0 0.001805 341.79050 556.39893
606.0 0.001650 341.73801 639.48956
688.0 0.001453 341.68564 661.79199
641.0 0.001560 341.63351 655.48083
692.0 0.001445 341.58139 703.34192
747.0 0.001339 341.52954 778.10712
831.0 0.001203 341.47784 788.42432
712.0 0.001404 341.42621 677.73712
583.0 0.001715 341.37485 563.26965
463.0 0.002160 341.32355 503.52960
488.0 0.002049 341.27237 494.46664
528.0 0.001894 341.22150 533.91168
620.0 0.001613 341.17068 635.17548
764.0 0.001309 341.12000 796.24268
865.0 0.001156 341.06952 926.73431
890.0 0.001124 341.01920 881.55231
749.0 0.001335 340.96906 745.73370
673.0 0.001486 340.91898 670.04370
629.0 0.001590 340.86908 620.26324
566.0 0.001767 340.81937 541.51410
496.0 0.002016 340.76978 475.36713
431.0 0.002320 340.72031 439.20563
427.0 0.002342 340.67114 426.85434
425.0 0.002353 340.62198 434.78284
449.0 0.002227 340.57306 468.07159
503.0 0.001988 340.52423 531.90399
548.0 0.001825 340.47556 596.57715
561.0 0.001783 340.42703 579.89716
530.0 0.001887 340.37869 510.97964
446.0 0.002242 340.33041 456.66653
389.0 0.002571 340.28241 429.94534
417.0 0.002398 340.23450 427.09885
448.0 0.002232 340.18677 440.24832
424.0 0.002358 340.13916 453.26743
444.0 0.002252 340.09174 457.53674
485.0 0.002062 340.04440 480.83264
514.0 0.001946 339.99725 547.04669
623.0 0.001605 339.95023 652.27466
744.0 0.001344 339.90341 737.72186
716.0 0.001397 339.85669 697.93201
578.0 0.001730 339.81015 576.93243
480.0 0.002083 339.76370 483.31943
403.0 0.002481 339.71741 433.52289
421.0 0.002375 339.67136 414.75067
396.0 0.002525 339.62543 412.59692
416.0 0.002404 339.57959 414.22223
394.0 0.002538 339.53387 412.66296
434.0 0.002304 339.48840 422.76495
436.0 0.002294 339.44302 454.60663
514.0 0.001946 339.39786 507.22452
524.0 0.001908 339.35272 553.21521
532.0 0.001880 339.30786 542.25616
478.0 0.002092 339.26306 494.29626
441.0 0.002268 339.21844 452.26343
397.0 0.002519 339.17401 414.63968
406.0 0.002463 339.12961 389.23599
354.0 0.002825 339.08542 375.18497
341.0 0.002933 339.04138 368.34375
373.0 0.002681 338.99759 364.99170
367.0 0.002725 338.95377 363.91376
374.0 0.002674 338.91013 363.02313
352.0 0.002841 338.86673 363.25262
337.0 0.002967 338.82333 365.80707
339.0 0.002950 338.78021 372.14072
328.0 0.003049 338.73718 381.54572
370.0 0.002703 338.69431 389.86539
382.0 0.002618 338.65158 393.72012
374.0 0.002674 338.60901 404.06363
406.0 0.002463 338.56662 426.93188
451.0 0.002217 338.52423 455.60529
456.0 0.002193 338.48206 481.34399
487.0 0.002053 338.44012 522.78540
522.0 0.001916 338.39822 568.14984
496.0 0.002016 338.35648 565.90112
479.0 0.002088 338.31488 544.30420
501.0 0.001996 338.27347 548.82397
492.0 0.002033 338.23212 539.07343
443.0 0.002257 338.19101 494.78006
417.0 0.002398 338.14999 460.49634
416.0 0.002404 338.10913 443.75845
414.0 0.002415 338.06839 439.78796
404.0 0.002475 338.02777 447.95886
417.0 0.002398 337.98730 460.90637
446.0 0.002242 337.94708 481.59509
454.0 0.002203 337.90689 511.29639
461.0 0.002169 337.86685 532.98737
516.0 0.001938 337.82693 565.02777
615.0 0.001626 337.78720 650.27588
698.0 0.001433 337.74756 774.33539
773.0 0.001294 337.70816 860.47931
778.0 0.001285 337.66885 850.19312
699.0 0.001431 337.62961 716.42065
552.0 0.001812 337.59058 572.68030
447.0 0.002237 337.55167 485.06226
402.0 0.002488 337.51288 442.97391
390.0 0.002564 337.47421 425.14685
387.0 0.002584 337.43573 420.63507
399.0 0.002506 337.39734 427.59613
403.0 0.002481 337.35919 444.74216
427.0 0.002342 337.32104 477.35513
493.0 0.002028 337.28308 534.46649
584.0 0.001712 337.24536 595.97351
578.0 0.001730 337.20764 625.20142
551.0 0.001815 337.17007 602.31024
560.0 0.001786 337.13272 585.27484
547.0 0.001828 337.09546 622.45398
605.0 0.001653 337.05835 665.53204
572.0 0.001748 337.02130 617.89856
513.0 0.001949 336.98447 535.52081
486.0 0.002058 336.94772 489.77734
464.0 0.002155 336.91110 486.28094
471.0 0.002123 336.87463 506.65918
546.0 0.001832 336.83835 513.08472
442.0 0.002262 336.80212 501.44727
425.0 0.002353 336.76605 511.16278
473.0 0.002114 336.73019 537.87250
466.0 0.002146 336.69434 537.16962
458.0 0.002183 336.65866 527.42627
413.0 0.002421 336.62320 532.06982
481.0 0.002079 336.58777 508.96115
438.0 0.002283 336.55255 461.03558
425.0 0.002353 336.51736 429.25159
410.0 0.002439 336.48236 422.09708
411.0 0.002433 336.44754 433.22971
438.0 0.002283 336.41278 441.84784
433.0 0.002309 336.37817 432.69666
375.0 0.002667 336.34369 427.99026
403.0 0.002481 336.30933 435.06125
398.0 0.002513 336.27512 431.52335
385.0 0.002597 336.24103 410.59113
390.0 0.002564 336.20706 393.56058
371.0 0.002695 336.17322 388.88788
389.0 0.002571 336.13956 397.83896
428.0 0.002336 336.10596 426.23489
474.0 0.002110 336.07254 482.87833
512.0 0.001953 336.03925 560.67963
547.0 0.001828 336.00601 590.92041
504.0 0.001984 335.97293 528.27032
421.0 0.002375 335.94003 454.40869
369.0 0.002710 335.90720 408.69162
362.0 0.002762 335.87451 386.88007
346.0 0.002890 335.84198 378.18439
340.0 0.002941 335.80960 375.51364
376.0 0.002660 335.77725 376.07452
385.0 0.002597 335.74506 382.91995
403.0 0.002481 335.71298 401.65073
414.0 0.002415 335.68103 441.55426
481.0 0.002079 335.64929 509.90790
543.0 0.001842 335.61758 578.86456
501.0 0.001996 335.58606 570.43274
445.0 0.002247 335.55457 502.00195
392.0 0.002551 335.52335 446.24091
389.0 0.002571 335.49210 411.00098
362.0 0.002762 335.46106 386.77841
352.0 0.002841 335.43002 372.67511
319.0 0.003135 335.39929 364.65466
358.0 0.002793 335.36856 360.95212
344.0 0.002907 335.33801 361.04373
362.0 0.002762 335.30759 366.72958
370.0 0.002703 335.27722 380.36459
383.0 0.002611 335.24698 402.73413
373.0 0.002681 335.21692 419.41049
368.0 0.002717 335.18692 408.99203
356.0 0.002809 335.15710 388.48846
341.0 0.002933 335.12738 373.25668
321.0 0.003115 335.09775 361.42172
337.0 0.002967 335.06827 353.11505
353.0 0.002833 335.03891 348.34863
318.0 0.003145 335.00961 345.62305
350.0 0.002857 334.98047 344.03897
299.0 0.003344 334.95151 343.36755
316.0 0.003165 334.92252 343.45837
312.0 0.003205 334.89374 344.47086
325.0 0.003077 334.86508 346.24472
310.0 0.003226 334.83655 347.08139
314.0 0.003185 334.80811 345.44476
319.0 0.003135 334.77972 342.95523
352.0 0.002841 334.75153 341.68188
373.0 0.002681 334.72348 341.15866
323.0 0.003096 334.69553 341.09906
304.0 0.003289 334.66763 341.32458
330.0 0.003030 334.63992 341.77670
325.0 0.003077 334.61224 342.48560
338.0 0.002959 334.58478 343.50409
336.0 0.002976 334.55737 344.95743
318.0 0.003145 334.53003 347.18927
324.0 0.003086 334.50287 350.92825
349.0 0.002865 334.47586 357.42215
355.0 0.002817 334.44885 367.83542
354.0 0.002825 334.42203 380.27667
382.0 0.002618 334.39532 387.84796
415.0 0.002410 334.36865 395.07632
422.0 0.002370 334.34222 416.75781
465.0 0.002151 334.31580 460.69748
528.0 0.001894 334.28949 515.45758
572.0 0.001748 334.26334 550.30975
583.0 0.001715 334.23727 565.07678
571.0 0.001751 334.21130 530.43463
498.0 0.002008 334.18542 463.61008
413.0 0.002421 334.15970 414.17377
398.0 0.002513 334.13406 389.04913
392.0 0.002551 334.10855 380.07578
360.0 0.002778 334.08313 377.76346
359.0 0.002786 334.05786 375.99966
386.0 0.002591 334.03262 378.53912
377.0 0.002653 334.00751 391.03577
414.0 0.002415 333.98254 414.55994
447.0 0.002237 333.95764 437.46405
458.0 0.002183 333.93292 449.56134
447.0 0.002237 333.90820 448.78961
428.0 0.002336 333.88370 420.91324
402.0 0.002488 333.85925 388.24564
358.0 0.002793 333.83481 366.77151
343.0 0.002915 333.81058 355.24857
364.0 0.002747 333.78647 349.34793
370.0 0.002703 333.76242 346.09811
346.0 0.002890 333.73846 344.11697
346.0 0.002890 333.71460 342.79050
328.0 0.003049 333.69086 341.85709
340.0 0.002941 333.66727 341.33765
346.0 0.002890 333.64371 341.34314
300.0 0.003333 333.62033 341.80966
333.0 0.003003 333.59698 343.30508
354.0 0.002825 333.57370 346.88504
350.0 0.002857 333.55060 353.05222
343.0 0.002915 333.52765 360.36707
336.0 0.002976 333.50464 361.52921
356.0 0.002809 333.48184 354.82733
339.0 0.002950 333.45911 347.99936
356.0 0.002809 333.43655 344.11850
336.0 0.002976 333.41397 342.14615
335.0 0.002985 333.39154 341.44992
361.0 0.002770 333.36920 341.43262
327.0 0.003058 333.34698 341.94937
353.0 0.002833 333.32480 342.96249
378.0 0.002646 333.30280 344.87439
317.0 0.003155 333.28085 348.17203
340.0 0.002941 333.25897 353.53140
371.0 0.002695 333.23721 359.55591
351.0 0.002849 333.21555 364.27673
383.0 0.002611 333.19400 371.24310
361.0 0.002770 333.17249 388.84854
393.0 0.002545 333.15115 421.46979
446.0 0.002242 333.12991 457.38837
466.0 0.002146 333.10873 457.62201
428.0 0.002336 333.08765 421.57877
370.0 0.002703 333.06665 388.51935
382.0 0.002618 333.04572 369.42416
376.0 0.002660 333.02487 361.05927
341.0 0.002933 333.00418 359.52032
356.0 0.002809 332.98355 362.66077
369.0 0.002710 332.96301 369.68320
364.0 0.002747 332.94257 376.39740
378.0 0.002646 332.92218 380.49377
366.0 0.002732 332.90192 390.08426
394.0 0.002538 332.88181 411.53937
454.0 0.002203 332.86160 436.41113
443.0 0.002257 332.84167 440.19128
424.0 0.002358 332.82178 424.95111
429.0 0.002331 332.80194 410.29742
432.0 0.002315 332.78220 408.39661
427.0 0.002342 332.76254 424.54980
429.0 0.002331 332.74307 453.03445
412.0 0.002427 332.72360 478.05746
429.0 0.002331 332.70422 482.17642
456.0 0.002193 332.68491 482.65317
486.0 0.002058 332.66565 490.99677
451.0 0.002217 332.64658 482.20270
425.0 0.002353 332.62747 460.16684
443.0 0.002257 332.60852 454.42264
458.0 0.002183 332.58975 468.25851
469.0 0.002132 332.57086 499.34448
502.0 0.001992 332.55225 526.82172
482.0 0.002075 332.53357 508.98920
447.0 0.002237 332.51508 471.22696
418.0 0.002392 332.49661 449.04504
390.0 0.002564 332.47821 439.00699
398.0 0.002513 332.45996 428.55026
414.0 0.002415 332.44180 424.06937
403.0 0.002481 332.42361 426.67117
371.0 0.002695 332.40558 420.96960
403.0 0.002481 332.38763 410.68195
364.0 0.002747 332.36981 410.49719
425.0 0.002353 332.35199 424.74414
451.0 0.002217 332.33423 456.85651
449.0 0.002227 332.31662 499.60159
495.0 0.002020 332.29907 528.89600
500.0 0.002000 332.28159 532.55170
478.0 0.002092 332.26413 510.34174
401.0 0.002494 332.24683 474.42401
410.0 0.002439 332.22958 437.71796
376.0 0.002660 332.21240 418.38770
394.0 0.002538 332.19528 421.75812
444.0 0.002252 332.17834 450.80704
486.0 0.002058 332.16138 506.15695
552.0 0.001812 332.14447 562.00543
514.0 0.001946 332.12772 554.80261
475.0 0.002105 332.11096 504.37872
454.0 0.002203 332.09436 473.13666
421.0 0.002375 332.07779 469.10721
435.0 0.002299 332.06131 466.48047
450.0 0.002222 332.04489 451.72986
411.0 0.002433 332.02859 431.84381
407.0 0.002457 332.01227 414.35138
433.0 0.002309 331.99612 408.83231
417.0 0.002398 331.97995 420.10580
425.0 0.002353 331.96387 454.78290
500.0 0.002000 331.94788 524.01819
584.0 0.001712 331.93201 626.47906
657.0 0.001522 331.91614 717.89227
665.0 0.001504 331.90036 724.55127
563.0 0.001776 331.88470 626.44031
473.0 0.002114 331.86902 522.51935
405.0 0.002469 331.85349 453.76248
383.0 0.002611 331.83798 414.29752
383.0 0.002611 331.82254 393.84363
383.0 0.002611 331.80719 384.27002
384.0 0.002604 331.79193 381.46420
404.0 0.002475 331.77676 385.03537
400.0 0.002500 331.76154 397.45984
392.0 0.002551 331.74649 424.13107
440.0 0.002273 331.73148 468.10800
495.0 0.002020 331.71652 517.52026
502.0 0.001992 331.70166 536.89990
497.0 0.002012 331.68680 504.98224
461.0 0.002169 331.67209 467.06464
438.0 0.002283 331.65735 447.77856
410.0 0.002439 331.64273 454.70319
451.0 0.002217 331.62817 495.79193
514.0 0.001946 331.61371 565.28424
529.0 0.001890 331.59921 610.71191
548.0 0.001825 331.58487 575.38409
487.0 0.002053 331.57056 511.32404
432.0 0.002315 331.55634 462.34872
411.0 0.002433 331.54211 439.34143
450.0 0.002222 331.52798 433.30865
449.0 0.002227 331.51398 425.95087
402.0 0.002488 331.49988 412.25107
451.0 0.002217 331.48593 402.23807
399.0 0.002506 331.47208 398.63525
406.0 0.002463 331.45825 403.53641
362.0 0.002762 331.44455 423.24103
413.0 0.002421 331.43076 458.09662
431.0 0.002320 331.41718 487.16690
460.0 0.002174 331.40350 478.46115
426.0 0.002347 331.39001 451.27914
442.0 0.002262 331.37656 432.20605
453.0 0.002208 331.36310 432.25668
490.0 0.002041 331.34982 457.93350
521.0 0.001919 331.33649 514.25311
672.0 0.001488 331.32321 605.28192
760.0 0.001316 331.31009 707.57776
824.0 0.001214 331.29688 716.09607
642.0 0.001558 331.28375 611.40210
512.0 0.001953 331.27081 507.16400
430.0 0.002326 331.25778 442.98721
429.0 0.002331 331.24487 411.07022
410.0 0.002439 331.23199 397.93787
366.0 0.002732 331.21918 394.75912
368.0 0.002717 331.20642 399.23160
418.0 0.002392 331.19376 413.88678
443.0 0.002257 331.18112 447.65390
531.0 0.001883 331.16846 516.44550
655.0 0.001527 331.15594 634.00055
766.0 0.001305 331.14337 772.23297
844.0 0.001185 331.13098 802.42755
734.0 0.001362 331.11856 682.65393
556.0 0.001799 331.10617 549.69415
451.0 0.002217 331.09387 462.87424
376.0 0.002660 331.08160 416.70001
360.0 0.002778 331.06943 394.03186
365.0 0.002740 331.05725 382.47577
377.0 0.002653 331.04517 377.48523
394.0 0.002538 331.03308 377.44067
416.0 0.002404 331.02106 383.90439
415.0 0.002410 331.00912 401.11572
411.0 0.002433 330.99719 432.96814
443.0 0.002257 330.98532 475.58914
465.0 0.002151 330.97345 495.03290
441.0 0.002268 330.96164 466.06427
422.0 0.002370 330.94992 427.07431
400.0 0.002500 330.93829 402.33167
386.0 0.002591 330.92664 393.57593
376.0 0.002660 330.91501 399.41553
426.0 0.002347 330.90344 422.79465
451.0 0.002217 330.89191 470.44193
563.0 0.001776 330.88046 542.14240
606.0 0.001650 330.86902 595.93457
535.0 0.001869 330.85764 565.25275
492.0 0.002033 330.84628 494.76941
444.0 0.002252 330.83496 444.45895
411.0 0.002433 330.82364 421.28079
415.0 0.002410 330.81250 417.90927
415.0 0.002410 330.80127 432.15097
462.0 0.002165 330.79013 467.01154
511.0 0.001957 330.77902 515.91809
567.0 0.001764 330.76788 536.60266
527.0 0.001898 330.75687 506.35199
453.0 0.002208 330.74597 476.80106
456.0 0.002193 330.73495 476.30685
478.0 0.002092 330.72403 493.54922
451.0 0.002217 330.71317 487.10318
438.0 0.002283 330.70233 451.17432
406.0 0.002463 330.69150 420.66577
409.0 0.002445 330.68073 405.00284
392.0 0.002551 330.67004 402.23550
426.0 0.002347 330.65927 412.11432
472.0 0.002119 330.64871 439.10413
532.0 0.001880 330.63803 487.27936
525.0 0.001905 330.62750 550.42511
612.0 0.001634 330.61691 598.71674
600.0 0.001667 330.60635 600.20746
579.0 0.001727 330.59589 545.98523
532.0 0.001880 330.58545 492.25476
496.0 0.002016 330.57501 470.71716
499.0 0.002004 330.56464 483.01935
532.0 0.001880 330.55426 519.76190
582.0 0.001718 330.54398 566.44757
625.0 0.001600 330.53363 620.89282
635.0 0.001575 330.52341 643.74524
603.0 0.001658 330.51318 615.84979
579.0 0.001727 330.50293 597.31152
599.0 0.001669 330.49277 592.07092
573.0 0.001745 330.48267 574.62183
558.0 0.001792 330.47256 554.65784
558.0 0.001792 330.46243 523.16296
523.0 0.001912 330.45239 490.38226
524.0 0.001908 330.44235 479.91797
558.0 0.001792 330.43237 503.44095
584.0 0.001712 330.42242 570.54761
712.0 0.001404 330.41245 688.21857
889.0 0.001125 330.40250 843.59326
967.0 0.001034 330.39264 935.21857
866.0 0.001155 330.38278 848.02905
713.0 0.001403 330.37292 702.86511
617.0 0.001621 330.36316 603.55536
542.0 0.001845 330.35333 542.25159
507.0 0.001972 330.34357 495.15549
478.0 0.002092 330.33383 464.13071
463.0 0.002160 330.32416 450.17856
444.0 0.002252 330.31442 452.57318
491.0 0.002037 330.30478 473.99017
549.0 0.001821 330.29514 525.91010
653.0 0.001531 330.28546 625.32196
788.0 0.001269 330.27588 777.88989
933.0 0.001072 330.26630 919.61981
956.0 0.001046 330.25677 915.37555
831.0 0.001203 330.24719 825.00104
801.0 0.001248 330.23770 804.79633
891.0 0.001122 330.22815 899.17419
1018.0 0.000982 330.21869 1039.96033
967.0 0.001034 330.20929 1025.95483
785.0 0.001274 330.19986 839.42041
628.0 0.001592 330.19040 660.39441
515.0 0.001942 330.18106 550.45325
516.0 0.001938 330.17166 499.67892
500.0 0.002000 330.16235 489.94113
525.0 0.001905 330.15298 510.40189
594.0 0.001684 330.14365 548.83795
564.0 0.001773 330.13434 568.17072
556.0 0.001799 330.12506 549.04822
555.0 0.001802 330.11581 539.61560
551.0 0.001815 330.10657 573.14996
650.0 0.001538 330.09726 648.08563
698.0 0.001433 330.08807 708.14539
662.0 0.001511 330.07880 666.55957
590.0 0.001695 330.06964 571.36700
484.0 0.002066 330.06046 497.56076
450.0 0.002222 330.05133 456.79349
493.0 0.002028 330.04221 439.86856
468.0 0.002137 330.03302 437.41776
441.0 0.002268 330.02390 445.08441
448.0 0.002232 330.01477 463.76404
507.0 0.001972 330.00568 499.56732
567.0 0.001764 329.99661 563.73962
715.0 0.001399 329.98749 674.20355
894.0 0.001119 329.97845 844.21173
1098.0 0.000911 329.96939 1076.45996
1354.0 0.000739 329.96036 1390.78589
1590.0 0.000629 329.95139 1641.38013
1410.0 0.000709 329.94235 1507.39038
996.0 0.001004 329.93332 1137.93823
733.0 0.001364 329.92432 834.11926
574.0 0.001742 329.91531 656.12830
519.0 0.001927 329.90634 571.47888
529.0 0.001890 329.89731 543.23956
562.0 0.001779 329.88843 548.93756
587.0 0.001704 329.87946 572.98804
617.0 0.001621 329.87048 595.77869
643.0 0.001555 329.86157 630.97058
702.0 0.001425 329.85260 703.56586
821.0 0.001218 329.84363 822.17126
1003.0 0.000997 329.83475 991.41626
1097.0 0.000912 329.82587 1095.77563
1001.0 0.000999 329.81699 996.48016
795.0 0.001258 329.80801 825.35010
679.0 0.001473 329.79910 713.82050
673.0 0.001486 329.79028 669.86023
709.0 0.001410 329.78137 688.53174
782.0 0.001279 329.77243 787.68805
966.0 0.001035 329.76361 951.77893
1091.0 0.000917 329.75470 1058.94336
953.0 0.001049 329.74582 978.94824
755.0 0.001325 329.73697 794.52515
612.0 0.001634 329.72812 634.19263
536.0 0.001866 329.71921 538.53705
467.0 0.002141 329.71036 493.21756
458.0 0.002183 329.70151 475.72754
455.0 0.002198 329.69269 469.64764
515.0 0.001942 329.68381 471.81717
498.0 0.002008 329.67493 486.04910
514.0 0.001946 329.66611 512.05438
593.0 0.001686 329.65720 565.44092
646.0 0.001548 329.64841 673.20203
826.0 0.001211 329.63950 836.62231
958.0 0.001044 329.63062 979.27948
968.0 0.001033 329.62177 975.21332
831.0 0.001203 329.61285 815.54852
618.0 0.001618 329.60400 643.23694
486.0 0.002058 329.59512 528.95361
475.0 0.002105 329.58621 465.25723
466.0 0.002146 329.57736 438.40283
420.0 0.002381 329.56857 433.53094
443.0 0.002257 329.55969 444.21799
488.0 0.002049 329.55075 463.65341
508.0 0.001969 329.54190 471.60645
481.0 0.002079 329.53299 462.08014
478.0 0.002092 329.52411 461.97070
490.0 0.002041 329.51517 487.66489
534.0 0.001873 329.50626 527.95233
570.0 0.001754 329.49738 538.70111
506.0 0.001976 329.48840 496.64014
452.0 0.002212 329.47958 446.14963
412.0 0.002427 329.47061 410.82468
428.0 0.002336 329.46167 393.25513
415.0 0.002410 329.45276 387.36163
403.0 0.002481 329.44376 389.76556
422.0 0.002370 329.43475 398.95425
457.0 0.002188 329.42590 411.90659
463.0 0.002160 329.41681 418.38745
442.0 0.002262 329.40790 416.36264
437.0 0.002288 329.39890 419.45758
466.0 0.002146 329.38989 437.48026
500.0 0.002000 329.38095 473.20566
555.0 0.001802 329.37189 522.32977
591.0 0.001692 329.36285 558.28662
603.0 0.001658 329.35379 581.58093
630.0 0.001587 329.34473 629.66943
715.0 0.001399 329.33569 707.06372
888.0 0.001126 329.32663 801.73303
909.0 0.001100 329.31754 848.39154
773.0 0.001294 329.30847 769.45996
695.0 0.001439 329.29935 656.15710
621.0 0.001610 329.29019 587.98584
564.0 0.001773 329.28116 572.04767
567.0 0.001764 329.27197 606.28149
696.0 0.001437 329.26285 688.88947
842.0 0.001188 329.25363 775.33911
759.0 0.001318 329.24445 773.39063
675.0 0.001481 329.23529 693.03247
571.0 0.001751 329.22604 617.30139
587.0 0.001704 329.21683 586.94147
567.0 0.001764 329.20758 597.82306
612.0 0.001634 329.19836 633.97565
685.0 0.001460 329.18909 659.66241
642.0 0.001558 329.17975 633.42847
607.0 0.001647 329.17050 603.10492
588.0 0.001701 329.16110 623.51709
731.0 0.001368 329.15186 715.38983
926.0 0.001080 329.14249 875.48755
1074.0 0.000931 329.13312 1025.12305
969.0 0.001032 329.12384 1010.45294
766.0 0.001305 329.11438 848.26263
597.0 0.001675 329.10498 669.25507
522.0 0.001916 329.09558 543.15735
435.0 0.002299 329.08606 470.84851
429.0 0.002331 329.07660 432.90604
403.0 0.002481 329.06714 413.52542
407.0 0.002457 329.05759 404.46799
421.0 0.002375 329.04807 403.04144
429.0 0.002331 329.03854 410.84360
444.0 0.002252 329.02893 433.30005
495.0 0.002020 329.01938 478.47647
549.0 0.001821 329.00980 547.93726
580.0 0.001724 329.00015 610.78162
531.0 0.001883 328.99054 598.07452
524.0 0.001908 328.98083 524.43829
453.0 0.002208 328.97116 456.67728
415.0 0.002410 328.96146 414.43582
401.0 0.002494 328.95169 394.41547
403.0 0.002481 328.94199 389.33914
428.0 0.002336 328.93219 393.48102
431.0 0.002320 328.92239 402.57224
419.0 0.002387 328.91260 403.52078
411.0 0.002433 328.90271 390.91312
412.0 0.002427 328.89282 375.73877
388.0 0.002577 328.88300 365.70117
378.0 0.002646 328.87308 361.48978
392.0 0.002551 328.86316 362.84433
403.0 0.002481 328.85312 370.56674
418.0 0.002392 328.84317 383.23718
419.0 0.002387 328.83316 393.47461
415.0 0.002410 328.82312 390.91812
380.0 0.002632 328.81305 382.16351
371.0 0.002695 328.80301 374.92795
397.0 0.002519 328.79285 372.00345
413.0 0.002421 328.78268 374.63858
401.0 0.002494 328.77255 377.27798
396.0 0.002525 328.76239 375.23413
388.0 0.002577 328.75223 372.66876
406.0 0.002463 328.74197 374.88489
428.0 0.002336 328.73169 381.79944
427.0 0.002342 328.72141 399.51044
454.0 0.002203 328.71109 425.78702
416.0 0.002404 328.70071 442.97672
400.0 0.002500 328.69031 433.61182
433.0 0.002309 328.67993 410.16748
424.0 0.002358 328.66946 387.98804
381.0 0.002625 328.65900 373.04669
380.0 0.002632 328.64850 364.39902
386.0 0.002591 328.63800 360.81348
379.0 0.002639 328.62744 361.24344
374.0 0.002674 328.61688 365.30673
401.0 0.002494 328.60626 373.50909
433.0 0.002309 328.59558 386.85913
445.0 0.002247 328.58490 405.99884
460.0 0.002174 328.57422 439.10193
533.0 0.001876 328.56354 493.03650
610.0 0.001639 328.55273 556.12823
616.0 0.001623 328.54193 581.48578
565.0 0.001770 328.53113 553.80194
521.0 0.001919 328.52029 513.59497
478.0 0.002092 328.50937 471.06516
468.0 0.002137 328.49841 435.47205
424.0 0.002358 328.48755 418.40253
400.0 0.002500 328.47653 421.14218
459.0 0.002179 328.46545 441.29880
479.0 0.002088 328.45447 463.27560
485.0 0.002062 328.44342 465.75610
475.0 0.002105 328.43225 450.94232
448.0 0.002232 328.42108 439.11395
424.0 0.002358 328.40985 445.26123
468.0 0.002137 328.39871 472.93481
535.0 0.001869 328.38742 511.45691
542.0 0.001845 328.37613 543.55334
581.0 0.001721 328.36484 571.10370
529.0 0.001890 328.35349 574.53528
523.0 0.001912 328.34204 543.28796
520.0 0.001923 328.33069 512.51294
517.0 0.001934 328.31918 504.42987
567.0 0.001764 328.30780 529.77649
598.0 0.001672 328.29623 580.27966
637.0 0.001570 328.28458 621.21307
621.0 0.001610 328.27304 600.63110
526.0 0.001901 328.26141 530.09760
465.0 0.002151 328.24976 466.53128
425.0 0.002353 328.23798 428.38324
394.0 0.002538 328.22626 413.13071
428.0 0.002336 328.21448 415.00726
457.0 0.002188 328.20267 428.67993
440.0 0.002273 328.19080 442.85666
429.0 0.002331 328.17892 442.02286
417.0 0.002398 328.16702 433.73163
443.0 0.002257 328.15500 429.44888
446.0 0.002242 328.14294 434.08273
443.0 0.002257 328.13098 448.86203
478.0 0.002092 328.11890 469.49780
485.0 0.002062 328.10678 478.67740
473.0 0.002114 328.09457 461.03329
440.0 0.002273 328.08237 435.73935
429.0 0.002331 328.07016 421.52194
427.0 0.002342 328.05789 421.12018
446.0 0.002242 328.04553 435.07306
492.0 0.002033 328.03320 467.25772
553.0 0.001808 328.02075 526.82648
627.0 0.001595 328.00833 620.69794
747.0 0.001339 327.99588 744.52753
934.0 0.001071 327.98337 883.48444
975.0 0.001026 327.97083 957.42450
902.0 0.001109 327.95819 894.39679
824.0 0.001214 327.94562 783.77228
697.0 0.001435 327.93289 703.59601
640.0 0.001563 327.92017 648.26160
595.0 0.001681 327.90741 588.21729
504.0 0.001984 327.89462 540.21100
488.0 0.002049 327.88171 523.70142
582.0 0.001718 327.86887 548.43713
603.0 0.001658 327.85596 622.11884
764.0 0.001309 327.84293 742.27277
810.0 0.001235 327.83002 856.08447
874.0 0.001144 327.81683 871.22485
784.0 0.001276 327.80374 824.78833
712.0 0.001404 327.79065 789.44086
714.0 0.001401 327.77744 735.30273
643.0 0.001555 327.76422 653.20203
600.0 0.001667 327.75095 583.89514
540.0 0.001852 327.73761 541.42352
505.0 0.001980 327.72427 509.01541
500.0 0.002000 327.71091 479.72372
455.0 0.002198 327.69742 464.64575
521.0 0.001919 327.68399 467.37271
500.0 0.002000 327.67041 483.06979
535.0 0.001869 327.65686 513.01917
560.0 0.001786 327.64331 557.06738
593.0 0.001686 327.62958 579.23206
610.0 0.001639 327.61584 548.20801
502.0 0.001992 327.60211 497.41293
474.0 0.002110 327.58826 450.72427
425.0 0.002353 327.57446 413.95358
411.0 0.002433 327.56055 390.38272
409.0 0.002445 327.54666 375.90146
414.0 0.002415 327.53262 367.34595
402.0 0.002488 327.51859 363.21844
391.0 0.002558 327.50458 362.67184
385.0 0.002597 327.49045 364.86288
380.0 0.002632 327.47629 367.16559
380.0 0.002632 327.46204 365.58948
385.0 0.002597 327.44778 361.73264
389.0 0.002571 327.43353 360.56903
380.0 0.002632 327.41919 362.50708
394.0 0.002538 327.40472 369.42068
409.0 0.002445 327.39035 375.28348
398.0 0.002513 327.37582 374.23529
389.0 0.002571 327.36130 367.77414
400.0 0.002500 327.34671 361.41412
395.0 0.002532 327.33212 357.66595
381.0 0.002625 327.31744 356.37054
394.0 0.002538 327.30270 356.29916
395.0 0.002532 327.28790 358.53394
363.0 0.002755 327.27313 365.14368
374.0 0.002674 327.25824 378.75793
411.0 0.002433 327.24335 400.82608
455.0 0.002198 327.22839 429.91321
465.0 0.002151 327.21335 446.84613
439.0 0.002278 327.19824 433.58276
407.0 0.002457 327.18323 409.39188
399.0 0.002506 327.16806 391.98096
380.0 0.002632 327.15283 382.96228
384.0 0.002604 327.13760 380.60803
405.0 0.002469 327.12228 385.38132
384.0 0.002604 327.10696 399.41690
451.0 0.002217 327.09152 425.28903
449.0 0.002227 327.07608 462.49594
489.0 0.002045 327.06064 500.16202
520.0 0.001923 327.04507 520.97961
495.0 0.002020 327.02948 521.95947
529.0 0.001890 327.01385 526.72186
561.0 0.001783 326.99820 563.63507
668.0 0.001497 326.98236 639.04095
848.0 0.001179 326.96655 742.79333
909.0 0.001100 326.95078 828.15839
855.0 0.001170 326.93488 801.57843
652.0 0.001534 326.91895 686.89758
518.0 0.001931 326.90295 572.07031
479.0 0.002088 326.88687 494.63345
448.0 0.002232 326.87082 456.39160
451.0 0.002217 326.85474 447.87610
456.0 0.002193 326.83844 459.17761
487.0 0.002053 326.82230 475.74417
475.0 0.002105 326.80600 480.16141
439.0 0.002278 326.78967 468.16867
470.0 0.002128 326.77325 455.10532
474.0 0.002110 326.75674 459.22620
495.0 0.002020 326.74033 489.80884
571.0 0.001751 326.72375 543.99512
617.0 0.001621 326.70715 590.78497
627.0 0.001595 326.69052 582.91443
579.0 0.001727 326.67380 538.92584
538.0 0.001859 326.65710 502.25375
537.0 0.001862 326.64026 484.63574
530.0 0.001887 326.62341 468.88599
463.0 0.002160 326.60645 444.11453
453.0 0.002208 326.58960 424.60004
437.0 0.002288 326.57257 418.87888
441.0 0.002268 326.55554 424.94141
475.0 0.002105 326.53845 443.24786
498.0 0.002008 326.52127 470.51517
512.0 0.001953 326.50400 486.13507
465.0 0.002151 326.48679 465.83661
427.0 0.002342 326.46939 429.59833
419.0 0.002387 326.45209 401.74557
384.0 0.002604 326.43466 387.45956
391.0 0.002558 326.41727 385.20346
415.0 0.002410 326.39978 392.00931
417.0 0.002398 326.38208 402.27377
428.0 0.002336 326.36444 405.94910
427.0 0.002342 326.34677 401.74548
411.0 0.002433 326.32907 401.96912
455.0 0.002198 326.31131 416.83600
496.0 0.002016 326.29343 450.90363
568.0 0.001761 326.27563 501.89655
615.0 0.001626 326.25766 547.58844
599.0 0.001669 326.23959 545.97931
500.0 0.002000 326.22165 503.83582
457.0 0.002188 326.20349 458.11774
429.0 0.002331 326.18533 423.33524
389.0 0.002571 326.16718 397.31726
415.0 0.002410 326.14899 380.34000
392.0 0.002551 326.13068 372.01816
383.0 0.002611 326.11227 368.20169
381.0 0.002625 326.09387 367.53561
385.0 0.002597 326.07544 369.53940
378.0 0.002646 326.05688 373.92825
407.0 0.002457 326.03833 381.95151
382.0 0.002618 326.01968 396.80591
453.0 0.002208 326.00101 418.33807
419.0 0.002387 325.98227 437.96875
481.0 0.002079 325.96344 438.86115
462.0 0.002165 325.94464 428.96140
434.0 0.002304 325.92575 426.18027
455.0 0.002198 325.90683 437.45892
467.0 0.002141 325.88791 465.92975
537.0 0.001862 325.86880 517.14960
651.0 0.001536 325.84970 584.54382
701.0 0.001427 325.83063 646.81348
754.0 0.001326 325.81137 696.10986
754.0 0.001326 325.79205 701.17279
614.0 0.001629 325.77280 641.53058
571.0 0.001751 325.75348 577.79034
571.0 0.001751 325.73401 548.28064
584.0 0.001712 325.71454 540.41785
532.0 0.001880 325.69510 516.60138
460.0 0.002174 325.67545 474.13712
441.0 0.002268 325.65588 437.86600
436.0 0.002294 325.63617 417.14304
409.0 0.002445 325.61642 412.06128
428.0 0.002336 325.59662 422.15826
474.0 0.002110 325.57681 448.14349
507.0 0.001972 325.55695 487.70313
534.0 0.001873 325.53693 530.78180
570.0 0.001754 325.51700 568.38818
554.0 0.001805 325.49692 579.69995
539.0 0.001855 325.47684 546.13617
493.0 0.002028 325.45667 503.50665
499.0 0.002004 325.43646 481.33572
499.0 0.002004 325.41623 479.28262
470.0 0.002128 325.39587 481.40802
480.0 0.002083 325.37552 485.00992
509.0 0.001965 325.35513 510.54440
578.0 0.001730 325.33466 573.69745
719.0 0.001391 325.31412 670.64429
802.0 0.001247 325.29355 750.25226
714.0 0.001401 325.27283 727.68182
580.0 0.001724 325.25223 627.78607
530.0 0.001887 325.23141 533.92743
469.0 0.002132 325.21069 473.70313
432.0 0.002315 325.18982 438.68494
413.0 0.002421 325.16891 415.61157
406.0 0.002463 325.14801 401.48096
420.0 0.002381 325.12695 396.22260
422.0 0.002370 325.10590 400.84763
414.0 0.002415 325.08484 417.88403
435.0 0.002299 325.06360 451.44766
536.0 0.001866 325.04245 501.99289
542.0 0.001845 325.02118 555.71606
558.0 0.001792 324.99985 589.19867
612.0 0.001634 324.97849 604.72424
563.0 0.001776 324.95706 583.58582
470.0 0.002128 324.93555 522.62524
448.0 0.002232 324.91406 460.36862
417.0 0.002398 324.89246 418.02179
405.0 0.002469 324.87079 394.58151
367.0 0.002725 324.84915 384.07190
361.0 0.002770 324.82742 378.52066
343.0 0.002915 324.80566 373.45145
361.0 0.002770 324.78375 369.15085
362.0 0.002762 324.76190 369.38626
357.0 0.002801 324.73993 375.51385
415.0 0.002410 324.71802 388.10373
417.0 0.002398 324.69592 400.81894
425.0 0.002353 324.67383 399.89139
418.0 0.002392 324.65167 384.44153
361.0 0.002770 324.62949 367.35403
357.0 0.002801 324.60724 355.88168
371.0 0.002695 324.58490 349.50812
352.0 0.002841 324.56253 346.71075
366.0 0.002732 324.54010 345.88391
365.0 0.002740 324.51761 346.58038
347.0 0.002882 324.49518 347.85995
370.0 0.002703 324.47256 347.94336
388.0 0.002577 324.45001 347.04483
371.0 0.002695 324.42728 345.72275
367.0 0.002725 324.40454 344.91840
361.0 0.002770 324.38181 344.46695
361.0 0.002770 324.35901 344.24222
369.0 0.002710 324.33609 344.94043
338.0 0.002959 324.31320 346.95435
356.0 0.002809 324.29019 350.74878
379.0 0.002639 324.26718 357.48868
397.0 0.002519 324.24408 368.96295
401.0 0.002494 324.22104 386.27078
418.0 0.002392 324.19778 408.52283
468.0 0.002137 324.17456 427.22092
478.0 0.002092 324.15134 434.91599
467.0 0.002141 324.12793 446.14276
514.0 0.001946 324.10458 478.93057
617.0 0.001621 324.08118 538.63660
671.0 0.001490 324.05765 605.78333
635.0 0.001575 324.03412 622.16718
541.0 0.001848 324.01059 566.42969
447.0 0.002237 323.98694 495.18570
445.0 0.002247 323.96329 443.69269
402.0 0.002488 323.93958 415.61694
398.0 0.002513 323.91577 406.14804
413.0 0.002421 323.89188 412.04471
415.0 0.002410 323.86801 434.61377
483.0 0.002070 323.84409 478.43658
512.0 0.001953 323.82013 544.52759
604.0 0.001656 323.79614 615.23560
642.0 0.001558 323.77209 647.00116
565.0 0.001770 323.74799 615.61853
511.0 0.001957 323.72375 569.45874
499.0 0.002004 323.69958 547.94849
553.0 0.001808 323.67523 540.50800
522.0 0.001916 323.65100 513.38812
440.0 0.002273 323.62659 469.92795
444.0 0.002252 323.60217 434.15842
394.0 0.002538 323.57773 414.43546
430.0 0.002326 323.55319 410.86945
433.0 0.002309 323.52863 423.18097
485.0 0.002062 323.50409 452.02454
552.0 0.001812 323.47934 494.45544
587.0 0.001704 323.45468 532.27649
529.0 0.001890 323.42996 549.95905
583.0 0.001715 323.40515 553.73047
514.0 0.001946 323.38028 532.67468
459.0 0.002179 323.35538 487.54437
405.0 0.002469 323.33044 447.03113
386.0 0.002591 323.30545 425.06842
393.0 0.002545 323.28043 422.03424
430.0 0.002326 323.25543 433.57199
468.0 0.002137 323.23019 448.42221
416.0 0.002404 323.20508 449.15515
391.0 0.002558 323.17984 438.83054
424.0 0.002358 323.15457 437.06888
461.0 0.002169 323.12921 456.01675
531.0 0.001883 323.10388 499.09332
607.0 0.001647 323.07849 556.25751
609.0 0.001642 323.05304 587.73090
578.0 0.001730 323.02753 558.33917
475.0 0.002105 323.00201 499.87888
394.0 0.002538 322.97641 448.94699
399.0 0.002506 322.95081 415.79453
396.0 0.002525 322.92508 399.21887
393.0 0.002545 322.89938 395.26532
409.0 0.002445 322.87360 401.00690
415.0 0.002410 322.84781 414.26965
426.0 0.002347 322.82190 430.68332
434.0 0.002304 322.79602 446.67090
478.0 0.002092 322.77005 472.52155
545.0 0.001835 322.74414 522.63129
607.0 0.001647 322.71808 598.06378
661.0 0.001513 322.69199 667.45905
664.0 0.001506 322.66592 682.69598
616.0 0.001623 322.63971 643.17761
545.0 0.001835 322.61356 572.43036
471.0 0.002123 322.58725 507.29846
443.0 0.002257 322.56094 469.67987
440.0 0.002273 322.53467 462.36404
507.0 0.001972 322.50827 482.96652
578.0 0.001730 322.48187 524.94043
610.0 0.001639 322.45532 569.83710
599.0 0.001669 322.42886 586.67181
563.0 0.001776 322.40234 562.53986
509.0 0.001965 322.37570 529.87604
512.0 0.001953 322.34903 513.34937
498.0 0.002008 322.32239 513.07623
542.0 0.001845 322.29568 523.53876
547.0 0.001828 322.26889 527.31024
495.0 0.002020 322.24210 507.20938
464.0 0.002155 322.21521 475.18835
469.0 0.002132 322.18835 447.60144
440.0 0.002273 322.16144 435.25052
454.0 0.002203 322.13443 444.83170
494.0 0.002024 322.10742 478.79956
637.0 0.001570 322.08047 534.67200
593.0 0.001686 322.05331 590.03522
606.0 0.001650 322.02615 602.23621
581.0 0.001721 321.99905 565.31464
500.0 0.002000 321.97183 508.22546
453.0 0.002208 321.94464 458.83594
433.0 0.002309 321.91727 426.09186
370.0 0.002703 321.88995 403.06528
367.0 0.002725 321.86264 386.35760
411.0 0.002433 321.83521 374.43631
381.0 0.002625 321.80783 367.19604
360.0 0.002778 321.78024 364.79285
390.0 0.002564 321.75278 367.36002
401.0 0.002494 321.72525 375.46884
428.0 0.002336 321.69766 389.33081
451.0 0.002217 321.66995 408.14148
454.0 0.002203 321.64227 432.35855
451.0 0.002217 321.61459 453.88821
485.0 0.002062 321.58688 452.57175
449.0 0.002227 321.55908 427.49551
400.0 0.002500 321.53128 398.10962
400.0 0.002500 321.50339 376.57260
377.0 0.002653 321.47549 365.08524
378.0 0.002646 321.44757 361.57422
384.0 0.002604 321.41956 364.85046
400.0 0.002500 321.39163 373.33353
396.0 0.002525 321.36353 382.40225
390.0 0.002564 321.33551 382.92947
370.0 0.002703 321.30743 374.07849
387.0 0.002584 321.27927 364.29468
370.0 0.002703 321.25107 358.69415
359.0 0.002786 321.22284 355.08481
364.0 0.002747 321.19455 353.91858
372.0 0.002688 321.16632 355.31891
392.0 0.002551 321.13800 356.61853
401.0 0.002494 321.10974 354.61267
368.0 0.002717 321.08127 350.29306
364.0 0.002747 321.05283 346.90790
367.0 0.002725 321.02441 345.78516
349.0 0.002865 320.99594 347.18039
356.0 0.002809 320.96750 351.86328
359.0 0.002786 320.93881 359.52393
385.0 0.002597 320.91025 368.26294
384.0 0.002604 320.88165 373.06671
386.0 0.002591 320.85300 371.43237
390.0 0.002564 320.82428 368.37271
393.0 0.002545 320.79562 369.40369
396.0 0.002525 320.76691 376.53214
400.0 0.002500 320.73813 388.89252
412.0 0.002427 320.70935 404.57474
428.0 0.002336 320.68048 423.86496
452.0 0.002212 320.65164 449.57819
452.0 0.002212 320.62268 471.69150
489.0 0.002045 320.59381 471.94531
456.0 0.002193 320.56482 457.00015
446.0 0.002242 320.53586 448.63800
425.0 0.002353 320.50684 462.12125
494.0 0.002024 320.47769 506.65851
579.0 0.001727 320.44870 587.61475
728.0 0.001374 320.41962 695.81769
755.0 0.001325 320.39050 775.75659
710.0 0.001408 320.36130 751.36786
560.0 0.001786 320.33209 656.05347
525.0 0.001905 320.30289 569.04059
456.0 0.002193 320.27365 513.80591
436.0 0.002294 320.24448 481.29605
421.0 0.002375 320.21509 463.53421
455.0 0.002198 320.18576 461.21671
479.0 0.002088 320.15646 470.35175
470.0 0.002128 320.12708 479.95398
484.0 0.002066 320.09766 487.49707
484.0 0.002066 320.06818 494.94080
458.0 0.002183 320.03876 494.25681
462.0 0.002165 320.00925 491.27066
488.0 0.002049 319.97974 505.17868
519.0 0.001927 319.95023 541.31897
585.0 0.001709 319.92065 579.84357
532.0 0.001880 319.89105 578.78650
498.0 0.002008 319.86148 536.90222
460.0 0.002174 319.83182 494.36322
451.0 0.002217 319.80215 471.30582
442.0 0.002262 319.77249 469.87473
485.0 0.002062 319.74277 491.65350
556.0 0.001799 319.71304 542.49982
669.0 0.001495 319.68326 622.72711
737.0 0.001357 319.65356 706.18225
737.0 0.001357 319.62375 737.49353
673.0 0.001486 319.59384 712.70465
628.0 0.001592 319.56412 669.60565
605.0 0.001653 319.53415 614.27466
553.0 0.001808 319.50433 561.10205
478.0 0.002092 319.47440 518.35150
444.0 0.002252 319.44446 477.22293
413.0 0.002421 319.41461 441.16605
415.0 0.002410 319.38455 416.62802
401.0 0.002494 319.35455 403.66913
402.0 0.002488 319.32458 400.79355
393.0 0.002545 319.29453 407.75653
389.0 0.002571 319.26450 427.23929
450.0 0.002222 319.23444 464.27625
541.0 0.001848 319.20438 523.78162
608.0 0.001645 319.17416 601.59082
653.0 0.001531 319.14410 667.77435
668.0 0.001497 319.11395 686.53802
651.0 0.001536 319.08383 658.68030
563.0 0.001776 319.05362 608.97644
496.0 0.002016 319.02341 561.19232
492.0 0.002033 318.99319 519.60144
427.0 0.002342 318.96295 479.35684
423.0 0.002364 318.93271 446.03101
405.0 0.002469 318.90247 427.70291
421.0 0.002375 318.87219 426.09271
417.0 0.002398 318.84192 438.21436
453.0 0.002208 318.81158 452.74484
423.0 0.002364 318.78125 452.29581
425.0 0.002353 318.75095 435.03174
401.0 0.002494 318.72058 419.22528
414.0 0.002415 318.69022 415.90210
438.0 0.002283 318.65982 424.43338
434.0 0.002304 318.62943 436.74850
424.0 0.002358 318.59900 439.35617
396.0 0.002525 318.56851 429.32220
400.0 0.002500 318.53815 417.88263
427.0 0.002342 318.50763 408.33176
410.0 0.002439 318.47720 395.93585
374.0 0.002674 318.44675 383.70352
348.0 0.002874 318.41623 376.91101
368.0 0.002717 318.38571 377.28674
392.0 0.002551 318.35522 384.76801
405.0 0.002469 318.32468 397.29150
427.0 0.002342 318.29413 408.94189
391.0 0.002558 318.26352 414.78525
447.0 0.002237 318.23300 423.14075
464.0 0.002155 318.20239 443.06979
487.0 0.002053 318.17188 472.22110
476.0 0.002101 318.14133 491.91934
472.0 0.002119 318.11069 487.69473
465.0 0.002151 318.08005 473.70950
492.0 0.002033 318.04953 470.98779
537.0 0.001862 318.01883 482.30283
516.0 0.001938 317.98825 488.91180
450.0 0.002222 317.95755 468.48007
425.0 0.002353 317.92691 432.77505
394.0 0.002538 317.89630 401.90335
372.0 0.002688 317.86557 381.78082
401.0 0.002494 317.83490 371.00903
380.0 0.002632 317.80426 366.97806
370.0 0.002703 317.77353 368.46381
405.0 0.002469 317.74289 376.54083
418.0 0.002392 317.71222 393.32150
431.0 0.002320 317.68152 420.01663
468.0 0.002137 317.65085 452.44366
490.0 0.002041 317.62006 476.75745
493.0 0.002028 317.58942 479.67252
460.0 0.002174 317.55865 463.36380
432.0 0.002315 317.52789 446.18146
435.0 0.002299 317.49719 436.34360
423.0 0.002364 317.46649 425.33902
406.0 0.002463 317.43582 406.08801
413.0 0.002421 317.40503 386.36868
358.0 0.002793 317.37427 372.39877
353.0 0.002833 317.34348 364.71326
379.0 0.002639 317.31281 362.07260
356.0 0.002809 317.28204 363.20306
353.0 0.002833 317.25131 367.84818
387.0 0.002584 317.22061 375.43076
422.0 0.002370 317.18982 386.94299
426.0 0.002347 317.15903 406.20551
412.0 0.002427 317.12833 437.12225
484.0 0.002066 317.09756 481.07932
560.0 0.001786 317.06683 535.51172
659.0 0.001517 317.03607 595.82642
652.0 0.001534 317.00531 640.05933
618.0 0.001618 316.97464 640.77911
546.0 0.001832 316.94385 609.22278
554.0 0.001805 316.91318 570.00830
503.0 0.001988 316.88242 541.17004
452.0 0.002212 316.85168 522.88159
467.0 0.002141 316.82095 510.72394
476.0 0.002101 316.79022 499.68469
410.0 0.002439 316.75946 480.89197
401.0 0.002494 316.72879 463.56091
398.0 0.002513 316.69809 459.01968
472.0 0.002119 316.66739 466.24951
462.0 0.002165 316.63666 471.86893
407.0 0.002457 316.60599 466.29297
440.0 0.002273 316.57523 461.56985
449.0 0.002227 316.54456 470.32355
509.0 0.001965 316.51392 491.62888
500.0 0.002000 316.48322 507.51709
461.0 0.002169 316.45258 503.28149
434.0 0.002304 316.42188 485.93195
448.0 0.002232 316.39120 468.65335
430.0 0.002326 316.36057 460.62521
465.0 0.002151 316.32999 463.27884
498.0 0.002008 316.29935 476.62595
540.0 0.001852 316.26868 497.16666
571.0 0.001751 316.23807 512.47778
543.0 0.001842 316.20749 507.71985
489.0 0.002045 316.17685 482.92545
449.0 0.002227 316.14633 456.25687
422.0 0.002370 316.11572 432.64008
379.0 0.002639 316.08517 409.95108
379.0 0.002639 316.05460 392.63986
384.0 0.002604 316.02405 384.51584
392.0 0.002551 315.99350 385.99664
413.0 0.002421 315.96301 396.80087
443.0 0.002257 315.93246 414.52997
435.0 0.002299 315.90210 430.96494
423.0 0.002364 315.87155 432.26041
424.0 0.002358 315.84109 419.72711
419.0 0.002387 315.81061 408.98380
446.0 0.002242 315.78018 409.50504
465.0 0.002151 315.74976 423.58838
485.0 0.002062 315.71936 447.59036
542.0 0.001845 315.68896 472.48883
598.0 0.001672 315.65854 495.65240
637.0 0.001570 315.62830 514.91254
594.0 0.001684 315.59787 510.92389
500.0 0.002000 315.56750 480.06363
446.0 0.002242 315.53720 444.99915
411.0 0.002433 315.50699 421.50922
413.0 0.002421 315.47662 415.03244
439.0 0.002278 315.44632 426.51682
459.0 0.002179 315.41608 453.65164
490.0 0.002041 315.38593 485.81503
520.0 0.001923 315.35565 499.90826
474.0 0.002110 315.32544 482.11649
424.0 0.002358 315.29532 453.50223
415.0 0.002410 315.26514 434.36279
423.0 0.002364 315.23502 430.18265
409.0 0.002445 315.20486 440.64871
488.0 0.002049 315.17480 463.90799
555.0 0.001802 315.14478 492.95004
491.0 0.002037 315.11469 507.91272
498.0 0.002008 315.08459 490.77313
414.0 0.002415 315.05460 452.77985
400.0 0.002500 315.02460 415.93311
408.0 0.002451 314.99469 389.97183
384.0 0.002604 314.96472 376.14954
386.0 0.002591 314.93478 372.93878
376.0 0.002660 314.90488 377.91562
393.0 0.002545 314.87503 387.69153
374.0 0.002674 314.84525 393.71179
399.0 0.002506 314.81537 388.37640
397.0 0.002519 314.78552 377.57187
366.0 0.002732 314.75574 369.58698
332.0 0.003012 314.72604 366.82327
361.0 0.002770 314.69632 368.97964
359.0 0.002786 314.66656 374.87500
329.0 0.003040 314.63693 382.36313
368.0 0.002717 314.60727 384.84259
370.0 0.002703 314.57761 378.49567
346.0 0.002890 314.54807 369.10416
349.0 0.002865 314.51855 360.62183
357.0 0.002801 314.48898 354.12033
344.0 0.002907 314.45944 351.28107
351.0 0.002849 314.42993 352.88229
362.0 0.002762 314.40060 357.97125
361.0 0.002770 314.37112 363.05307
366.0 0.002732 314.34174 363.52145
353.0 0.002833 314.31235 360.97961
339.0 0.002950 314.28308 361.57910
351.0 0.002849 314.25378 368.75525
388.0 0.002577 314.22449 383.57037
434.0 0.002304 314.19522 403.96054
458.0 0.002183 314.16599 425.38876
487.0 0.002053 314.13681 440.60416
464.0 0.002155 314.10770 435.47739
399.0 0.002506 314.07858 411.80399
386.0 0.002591 314.04947 386.39429
364.0 0.002747 314.02045 367.00790
334.0 0.002994 313.99152 354.29190
344.0 0.002907 313.96252 347.19800
361.0 0.002770 313.93353 344.69937
344.0 0.002907 313.90466 345.56509
344.0 0.002907 313.87579 348.03491
338.0 0.002959 313.84695 349.77313
332.0 0.003012 313.81815 350.86841
352.0 0.002841 313.78934 355.28287
364.0 0.002747 313.76068 365.14386
368.0 0.002717 313.73193 380.06235
408.0 0.002451 313.70328 394.55585
399.0 0.002506 313.67465 401.86615
406.0 0.002463 313.64609 402.02463
380.0 0.002632 313.61758 393.84415
378.0 0.002646 313.58908 376.87473
347.0 0.002882 313.56061 359.13419
357.0 0.002801 313.53226 345.45645
349.0 0.002865 313.50385 336.56631
336.0 0.002976 313.47552 331.22034
311.0 0.003215 313.44714 328.14240
309.0 0.003236 313.41891 326.43536
335.0 0.002985 313.39072 325.62634
330.0 0.003030 313.36252 325.58112
322.0 0.003106 313.33435 326.35483
305.0 0.003279 313.30627 328.36053
359.0 0.002786 313.27817 331.75955
332.0 0.003012 313.25021 336.33972
327.0 0.003058 313.22232 340.48700
335.0 0.002985 313.19427 341.38525
341.0 0.002933 313.16641 339.06979
311.0 0.003215 313.13858 336.73419
306.0 0.003268 313.11078 336.61102
355.0 0.002817 313.08304 340.19238
349.0 0.002865 313.05539 348.60452
340.0 0.002941 313.02771 362.52814
388.0 0.002577 313.00006 380.75125
418.0 0.002392 312.97253 395.88983
398.0 0.002513 312.94498 395.44406
350.0 0.002857 312.91754 380.12885
340.0 0.002941 312.89005 362.50275
332.0 0.003012 312.86270 349.50378
326.0 0.003067 312.83542 341.87418
318.0 0.003145 312.80811 338.57718
334.0 0.002994 312.78085 338.35300
327.0 0.003058 312.75372 340.45700
314.0 0.003185 312.72650 345.45554
334.0 0.002994 312.69949 354.75464
374.0 0.002674 312.67245 369.17545
401.0 0.002494 312.64545 385.90500
403.0 0.002481 312.61859 396.56729
396.0 0.002525 312.59167 393.71243
364.0 0.002747 312.56485 384.39587
350.0 0.002857 312.53802 378.61713
385.0 0.002597 312.51132 377.97391
396.0 0.002525 312.48462 376.74075
350.0 0.002857 312.45798 369.81003
338.0 0.002959 312.43143 360.77744
349.0 0.002865 312.40494 354.05200
363.0 0.002755 312.37845 350.84348
370.0 0.002703 312.35202 351.06345
353.0 0.002833 312.32571 355.60876
370.0 0.002703 312.29938 366.05371
390.0 0.002564 312.27310 385.25201
433.0 0.002309 312.24701 416.67908
494.0 0.002024 312.22083 461.63632
552.0 0.001812 312.19467 511.02866
545.0 0.001835 312.16867 536.56805
473.0 0.002114 312.14270 517.69513
423.0 0.002364 312.11682 476.13376
406.0 0.002463 312.09094 439.37769
403.0 0.002481 312.06516 414.47855
369.0 0.002710 312.03946 395.72485
359.0 0.002786 312.01379 379.80728
334.0 0.002994 311.98816 368.72711
325.0 0.003077 311.96259 363.59903
302.0 0.003311 311.93704 363.84363
353.0 0.002833 311.91168 368.00940
399.0 0.002506 311.88623 373.18011
351.0 0.002849 311.86096 377.16965
348.0 0.002874 311.83566 382.96509
369.0 0.002710 311.81049 395.55487
394.0 0.002538 311.78534 418.17905
440.0 0.002273 311.76025 447.83929
414.0 0.002415 311.73532 470.48871
398.0 0.002513 311.71027 469.65683
465.0 0.002151 311.68542 450.93103
421.0 0.002375 311.66061 431.84851
443.0 0.002257 311.63583 417.01926
405.0 0.002469 311.61115 402.42856
376.0 0.002660 311.58649 387.60071
353.0 0.002833 311.56195 376.28998
364.0 0.002747 311.53745 370.28802
333.0 0.003003 311.51300 369.39847
327.0 0.003058 311.48865 373.35883
379.0 0.002639 311.46436 380.63507
380.0 0.002632 311.44006 386.25632
367.0 0.002725 311.41592 386.80121
379.0 0.002639 311.39182 387.22696
398.0 0.002513 311.36777 394.02872
435.0 0.002299 311.34384 410.19693
429.0 0.002331 311.31985 433.41348
447.0 0.002237 311.29611 454.97852
456.0 0.002193 311.27228 466.49661
471.0 0.002123 311.24863 474.31018
478.0 0.002092 311.22501 487.12054
477.0 0.002096 311.20142 496.36295
466.0 0.002146 311.17798 487.93314
464.0 0.002155 311.15454 469.71729
465.0 0.002151 311.13120 455.72980
446.0 0.002242 311.10788 448.49457
437.0 0.002288 311.08469 445.89905
440.0 0.002273 311.06155 445.44611
463.0 0.002160 311.03854 447.06845
458.0 0.002183 311.01550 449.30530
428.0 0.002336 310.99255 444.49841
407.0 0.002457 310.96979 432.28375
408.0 0.002451 310.94696 423.71521
435.0 0.002299 310.92426 427.05026
457.0 0.002188 310.90164 443.62729
462.0 0.002165 310.87912 469.37473
467.0 0.002141 310.85663 494.43863
475.0 0.002105 310.83426 513.52216
523.0 0.001912 310.81189 534.65894
610.0 0.001639 310.78970 563.73883
604.0 0.001656 310.76755 590.39899
581.0 0.001721 310.74536 592.85565
524.0 0.001908 310.72339 559.20007
465.0 0.002151 310.70142 511.07202
459.0 0.002179 310.67957 471.24521
424.0 0.002358 310.65775 445.99429
442.0 0.002262 310.63605 435.54166
442.0 0.002262 310.61444 437.15799
492.0 0.002033 310.59286 443.00623
468.0 0.002137 310.57141 443.66953
417.0 0.002398 310.55002 432.75760
454.0 0.002203 310.52869 414.96866
375.0 0.002667 310.50751 401.52301
357.0 0.002801 310.48636 396.35971
360.0 0.002778 310.46521 396.61310
385.0 0.002597 310.44424 397.70972
397.0 0.002519 310.42337 401.25778
469.0 0.002132 310.40250 411.32983
453.0 0.002208 310.38174 424.48395
409.0 0.002445 310.36115 427.38834
382.0 0.002618 310.34048 412.00259
382.0 0.002618 310.31995 389.03937
361.0 0.002770 310.29953 369.83160
369.0 0.002710 310.27927 357.82074
383.0 0.002611 310.25900 352.94440
378.0 0.002646 310.23886 353.98502
399.0 0.002506 310.21878 358.92279
373.0 0.002681 310.19879 363.56393
366.0 0.002732 310.17883 362.75818
368.0 0.002717 310.15906 356.93726
344.0 0.002907 310.13928 349.71371
330.0 0.003030 310.11960 342.86368
333.0 0.003003 310.10007 337.26923
337.0 0.002967 310.08057 333.55789
337.0 0.002967 310.06116 332.29083
339.0 0.002950 310.04181 332.99359
323.0 0.003096 310.02264 335.32312
338.0 0.002959 310.00351 338.73755
357.0 0.002801 309.98444 342.50763
362.0 0.002762 309.96548 347.86243
387.0 0.002584 309.94659 357.31549
413.0 0.002421 309.92789 371.77377
423.0 0.002364 309.90912 388.11703
413.0 0.002421 309.89053 396.71652
381.0 0.002625 309.87204 389.42606
364.0 0.002747 309.85358 372.78510
347.0 0.002882 309.83530 357.28131
342.0 0.002924 309.81708 346.48392
333.0 0.003003 309.79892 339.63150
338.0 0.002959 309.78082 335.46664
353.0 0.002833 309.76285 332.92163
351.0 0.002849 309.74496 331.86633
333.0 0.003003 309.72720 332.44833
335.0 0.002985 309.70950 334.94800
350.0 0.002857 309.69196 339.81131
379.0 0.002639 309.67447 346.83652
386.0 0.002591 309.65701 355.19299
356.0 0.002809 309.63977 363.12057
382.0 0.002618 309.62250 369.64859
392.0 0.002551 309.60535 377.31302
423.0 0.002364 309.58841 389.81393
425.0 0.002353 309.57141 406.55576
397.0 0.002519 309.55466 425.61194
480.0 0.002083 309.53781 450.59732
500.0 0.002000 309.52118 482.54172
536.0 0.001866 309.50470 506.60822
489.0 0.002045 309.48819 498.43109
445.0 0.002247 309.47186 461.60022
378.0 0.002646 309.45560 420.30759
345.0 0.002899 309.43942 388.43741
362.0 0.002762 309.42331 367.75082
339.0 0.002950 309.40744 356.17642
329.0 0.003040 309.39151 350.69186
337.0 0.002967 309.37573 349.58804
314.0 0.003185 309.36014 352.30582
356.0 0.002809 309.34454 357.99316
349.0 0.002865 309.32910 365.36520
406.0 0.002463 309.31375 373.52454
381.0 0.002625 309.29840 380.41437
375.0 0.002667 309.28326 382.69379
385.0 0.002597 309.26816 383.39426
389.0 0.002571 309.25323 389.34662
414.0 0.002415 309.23831 402.21759
467.0 0.002141 309.22360 416.37302
444.0 0.002252 309.20892 419.07736
421.0 0.002375 309.19440 406.33371
384.0 0.002604 309.17990 389.32080
387.0 0.002584 309.16559 377.13510
397.0 0.002519 309.15131 371.60690
375.0 0.002667 309.13721 370.56198
365.0 0.002740 309.12314 369.73355
360.0 0.002778 309.10928 365.90265
369.0 0.002710 309.09537 361.37186
331.0 0.003021 309.08163 360.12836
354.0 0.002825 309.06796 364.93378
392.0 0.002551 309.05444 377.23938
390.0 0.002564 309.04105 396.40778
395.0 0.002532 309.02780 419.05197
416.0 0.002404 309.01459 439.12662
440.0 0.002273 309.00146 446.28085
421.0 0.002375 308.98846 432.02451
393.0 0.002545 308.97549 405.90561
366.0 0.002732 308.96277 381.77139
355.0 0.002817 308.95010 364.26926
349.0 0.002865 308.93756 353.58105
337.0 0.002967 308.92514 348.46570
346.0 0.002890 308.91272 347.48383
373.0 0.002681 308.90051 348.92392
340.0 0.002941 308.88840 351.19531
337.0 0.002967 308.87637 352.69211
384.0 0.002604 308.86444 353.98935
381.0 0.002625 308.85266 357.36847
345.0 0.002899 308.84100 364.73907
366.0 0.002732 308.82938 376.66754
369.0 0.002710 308.81790 392.71191
409.0 0.002445 308.80655 414.15594
458.0 0.002183 308.79529 441.73965
519.0 0.001927 308.78415 468.81165
462.0 0.002165 308.77313 479.81360
475.0 0.002105 308.76221 471.81720
473.0 0.002114 308.75143 461.92249
464.0 0.002155 308.74069 460.50644
453.0 0.002208 308.73010 462.64731
484.0 0.002066 308.71967 456.81079
416.0 0.002404 308.70932 444.96652
435.0 0.002299 308.69901 437.83356
442.0 0.002262 308.68893 436.57666
489.0 0.002045 308.67892 432.73114
419.0 0.002387 308.66901 421.72379
399.0 0.002506 308.65921 406.91693
381.0 0.002625 308.64948 392.11945
378.0 0.002646 308.64005 381.02698
356.0 0.002809 308.63058 375.29379
400.0 0.002500 308.62122 373.17322
367.0 0.002725 308.61200 375.05835
409.0 0.002445 308.60291 381.09796
396.0 0.002525 308.59393 388.94986
403.0 0.002481 308.58508 394.46613
395.0 0.002532 308.57626 398.41855
419.0 0.002387 308.56769 403.28226
404.0 0.002475 308.55914 406.99393
376.0 0.002660 308.55069 405.11063
400.0 0.002500 308.54251 397.29395
409.0 0.002445 308.53433 389.29349
396.0 0.002525 308.52628 385.41946
377.0 0.002653 308.51831 383.86746
370.0 0.002703 308.51050 380.00098
385.0 0.002597 308.50281 373.28601
388.0 0.002577 308.49524 365.71356
347.0 0.002882 308.48782 359.36487
355.0 0.002817 308.48047 356.54517
355.0 0.002817 308.47324 358.47076
386.0 0.002591 308.46613 365.98035
415.0 0.002410 308.45917 379.64899
451.0 0.002217 308.45227 398.84540
453.0 0.002208 308.44553 418.37637
432.0 0.002315 308.43896 428.82315
449.0 0.002227 308.43243 428.54471
436.0 0.002294 308.42606 422.48331
412.0 0.002427 308.41980 411.78870
409.0 0.002445 308.41370 399.19427
397.0 0.002519 308.40765 388.80530
384.0 0.002604 308.40179 379.66412
361.0 0.002770 308.39606 371.21365
345.0 0.002899 308.39041 365.68060
367.0 0.002725 308.38489 364.62393
369.0 0.002710 308.37946 369.03217
390.0 0.002564 308.37421 379.79858
446.0 0.002242 308.36899 397.46991
476.0 0.002101 308.36404 420.20499
446.0 0.002242 308.35913 443.25214
472.0 0.002119 308.35431 464.71896
529.0 0.001890 308.34964 490.46405
572.0 0.001748 308.34515 521.06458
563.0 0.001776 308.34076 542.05530
526.0 0.001901 308.33643 535.04474
456.0 0.002193 308.33228 502.54639
461.0 0.002169 308.32825 465.02884
407.0 0.002457 308.32437 434.00790
408.0 0.002451 308.32059 412.68332
365.0 0.002740 308.31693 400.94009
360.0 0.002778 308.31335 396.53391
406.0 0.002463 308.30994 399.80884
388.0 0.002577 308.30670 413.23587
483.0 0.002070 308.30353 438.98868
507.0 0.001972 308.30048 476.55270
581.0 0.001721 308.29761 518.97644
538.0 0.001859 308.29483 549.36279
496.0 0.002016 308.29218 551.83252
525.0 0.001905 308.28964 532.14087
442.0 0.002262 308.28726 512.14240
516.0 0.001938 308.28503 508.14255
494.0 0.002024 308.28287 524.53394
619.0 0.001616 308.28085 555.42096
638.0 0.001567 308.27899 587.99731
628.0 0.001592 308.27728 605.46826
563.0 0.001776 308.27567 589.68915
533.0 0.001876 308.27414 543.08594
427.0 0.002342 308.27274 488.30859
402.0 0.002488 308.27151 442.06805
398.0 0.002513 308.27045 410.44092
400.0 0.002500 308.26947 393.07910
380.0 0.002632 308.26862 387.78555
399.0 0.002506 308.26788 392.54785
396.0 0.002525 308.26733 404.58386
430.0 0.002326 308.26688 419.14542
446.0 0.002242 308.26657 427.19897
434.0 0.002304 308.26633 421.18134
387.0 0.002584 308.26630 405.48676
379.0 0.002639 308.26642 391.05255
381.0 0.002625 308.26657 384.41693
389.0 0.002571 308.26697 387.89722
422.0 0.002370 308.26736 401.66589
446.0 0.002242 308.26797 422.79218
456.0 0.002193 308.26871 442.16489
451.0 0.002217 308.26956 445.58890
405.0 0.002469 308.27063 429.35248
386.0 0.002591 308.27167 403.77548
383.0 0.002611 308.27295 379.32916
360.0 0.002778 308.27438 360.90594
334.0 0.002994 308.27588 348.68259
336.0 0.002976 308.27756 341.29529
347.0 0.002882 308.27933 337.15106
361.0 0.002770 308.28128 335.42471
344.0 0.002907 308.28326 335.60571
336.0 0.002976 308.28549 337.79184
363.0 0.002755 308.28784 342.24796
370.0 0.002703 308.29034 349.31030
371.0 0.002695 308.29291 357.85602
352.0 0.002841 308.29568 365.21439
349.0 0.002865 308.29852 366.68936
343.0 0.002915 308.30151 362.97205
366.0 0.002732 308.30463 359.13519
357.0 0.002801 308.30792 358.49380
355.0 0.002817 308.31131 361.82565
353.0 0.002833 308.31479 368.78363
382.0 0.002618 308.31857 380.16354
417.0 0.002398 308.32227 398.91586
457.0 0.002188 308.32626 427.12216
509.0 0.001965 308.33038 460.82883
509.0 0.001965 308.33453 486.35083
447.0 0.002237 308.33899 483.81122
405.0 0.002469 308.34341 456.71014
397.0 0.002519 308.34811 425.63080
385.0 0.002597 308.35281 402.83429
387.0 0.002584 308.35767 390.10553
410.0 0.002439 308.36279 384.58072
365.0 0.002740 308.36792 382.51404
376.0 0.002660 308.37329 383.61343
352.0 0.002841 308.37869 387.17847
376.0 0.002660 308.38428 394.45474
441.0 0.002268 308.39001 408.88602
494.0 0.002024 308.39584 431.46286
549.0 0.001821 308.40192 456.69965
509.0 0.001965 308.40805 471.08163
487.0 0.002053 308.41434 468.21274
473.0 0.002114 308.42075 460.55777
509.0 0.001965 308.42728 461.21982
500.0 0.002000 308.43399 470.69977
506.0 0.001976 308.44077 477.34869
467.0 0.002141 308.44778 466.19559
421.0 0.002375 308.45486 438.57877
376.0 0.002660 308.46213 408.43002
371.0 0.002695 308.46951 384.73572
382.0 0.002618 308.47702 369.19855
366.0 0.002732 308.48468 360.01599
350.0 0.002857 308.49252 354.47855
355.0 0.002817 308.50043 351.80896
354.0 0.002825 308.50851 352.34799
347.0 0.002882 308.51672 356.68161
354.0 0.002825 308.52509 365.25327
382.0 0.002618 308.53357 377.66501
411.0 0.002433 308.54224 390.88910
405.0 0.002469 308.55103 398.63727
403.0 0.002481 308.55991 396.21921
395.0 0.002532 308.56900 387.88589
400.0 0.002500 308.57813 381.44360
402.0 0.002488 308.58749 380.04361
371.0 0.002695 308.59698 381.55704
367.0 0.002725 308.60672 382.17737
394.0 0.002538 308.61642 381.63806
395.0 0.002532 308.62631 380.29752
383.0 0.002611 308.63632 375.91806
395.0 0.002532 308.64658 368.41586
394.0 0.002538 308.65689 361.84985
356.0 0.002809 308.66730 357.97910
361.0 0.002770 308.67795 354.90958
365.0 0.002740 308.68869 349.98627
346.0 0.002890 308.69955 344.18646
362.0 0.002762 308.71060 339.23230
345.0 0.002899 308.72177 336.06854
340.0 0.002941 308.73309 334.48157
331.0 0.003021 308.74448 333.62381
350.0 0.002857 308.75616 333.35321
327.0 0.003058 308.76788 335.45676
365.0 0.002740 308.77966 339.76724
373.0 0.002681 308.79178 346.09781
390.0 0.002564 308.80396 352.45651
401.0 0.002494 308.81628 355.95789
377.0 0.002653 308.82867 356.10471
371.0 0.002695 308.84125 355.20847
348.0 0.002874 308.85400 353.11124
329.0 0.003040 308.86688 348.92191
343.0 0.002915 308.87994 344.19296
342.0 0.002924 308.89310 341.06967
384.0 0.002604 308.90643 339.37213
341.0 0.002933 308.91986 338.34100
353.0 0.002833 308.93341 336.83844
349.0 0.002865 308.94714 335.46848
331.0 0.003021 308.96103 334.09219
330.0 0.003030 308.97507 332.48877
358.0 0.002793 308.98920 331.70502
345.0 0.002899 309.00357 332.16611
316.0 0.003165 309.01797 333.61017
336.0 0.002976 309.03253 335.95685
363.0 0.002755 309.04730 338.86252
377.0 0.002653 309.06216 342.95547
369.0 0.002710 309.07724 348.04990
348.0 0.002874 309.09238 353.90417
367.0 0.002725 309.10760 361.34555
374.0 0.002674 309.12305 370.71286
377.0 0.002653 309.13870 379.23273
384.0 0.002604 309.15442 381.49695
384.0 0.002604 309.17032 374.58582
356.0 0.002809 309.18634 362.43246
352.0 0.002841 309.20248 351.04611
343.0 0.002915 309.21881 343.14178
351.0 0.002849 309.23523 338.56644
356.0 0.002809 309.25180 336.45959
347.0 0.002882 309.26859 335.76422
346.0 0.002890 309.28549 335.96527
367.0 0.002725 309.30246 337.58936
367.0 0.002725 309.31964 340.93912
375.0 0.002667 309.33694 346.47693
364.0 0.002747 309.35446 354.52744
369.0 0.002710 309.37204 365.95728
423.0 0.002364 309.38980 380.64893
432.0 0.002315 309.40771 396.40771
446.0 0.002242 309.42578 410.26981
478.0 0.002092 309.44391 423.01511
473.0 0.002114 309.46219 437.77509
485.0 0.002062 309.48065 451.73959
448.0 0.002232 309.49933 456.45865
459.0 0.002179 309.51804 450.63925
465.0 0.002151 309.53690 443.56223
460.0 0.002174 309.55594 441.49472
440.0 0.002273 309.57513 443.99237
470.0 0.002128 309.59451 451.33188
450.0 0.002222 309.61398 463.95129
483.0 0.002070 309.63358 477.40994
440.0 0.002273 309.65332 487.38336
478.0 0.002092 309.67328 495.07712
524.0 0.001908 309.69327 502.37201
513.0 0.001949 309.71347 508.82135
474.0 0.002110 309.73383 509.92313
496.0 0.002016 309.75430 497.91507
453.0 0.002208 309.77493 475.95035
451.0 0.002217 309.79565 454.66553
427.0 0.002342 309.81662 439.77127
443.0 0.002257 309.83765 432.21411
400.0 0.002500 309.85889 429.90088
436.0 0.002294 309.88019 426.91092
407.0 0.002457 309.90170 419.18292
408.0 0.002451 309.92331 409.36252
387.0 0.002584 309.94510 402.61935
415.0 0.002410 309.96701 400.86569
382.0 0.002618 309.98904 403.12320
428.0 0.002336 310.01126 409.25116
375.0 0.002667 310.03363 418.55878
407.0 0.002457 310.05603 427.60349
423.0 0.002364 310.07874 434.10217
412.0 0.002427 310.10156 439.54465
446.0 0.002242 310.12442 445.25613
430.0 0.002326 310.14752 452.62418
448.0 0.002232 310.17068 461.11005
458.0 0.002183 310.19406 469.17334
490.0 0.002041 310.21759 478.97015
482.0 0.002075 310.24118 492.93127
471.0 0.002123 310.26505 502.63702
494.0 0.002024 310.28897 495.29150
439.0 0.002278 310.31302 473.27451
411.0 0.002433 310.33722 449.64670
413.0 0.002421 310.36160 433.66953
415.0 0.002410 310.38611 429.65591
427.0 0.002342 310.41071 437.95236
438.0 0.002283 310.43549 454.34613
457.0 0.002188 310.46042 469.41629
480.0 0.002083 310.48547 475.26382
486.0 0.002058 310.51074 472.83243
504.0 0.001984 310.53610 465.51462
484.0 0.002066 310.56158 457.40030
453.0 0.002208 310.58722 449.54346
426.0 0.002347 310.61304 438.01309
384.0 0.002604 310.63892 423.51932
364.0 0.002747 310.66504 412.38040
374.0 0.002674 310.69125 409.32809
421.0 0.002375 310.71765 415.73669
437.0 0.002288 310.74411 430.28656
453.0 0.002208 310.77075 447.23703
459.0 0.002179 310.79752 458.12689
471.0 0.002123 310.82452 459.17764
456.0 0.002193 310.85156 451.34369
404.0 0.002475 310.87872 438.06888
407.0 0.002457 310.90613 425.95673
389.0 0.002571 310.93359 420.94086
390.0 0.002564 310.96127 424.19604
410.0 0.002439 310.98907 431.51141
425.0 0.002353 311.01694 439.72034
447.0 0.002237 311.04501 449.48596
498.0 0.002008 311.07321 462.60257
511.0 0.001957 311.10162 478.97949
513.0 0.001949 311.13010 491.28116
494.0 0.002024 311.15869 486.01059
427.0 0.002342 311.18753 461.42670
437.0 0.002288 311.21640 430.83557
400.0 0.002500 311.24551 404.66461
369.0 0.002710 311.27469 386.97342
381.0 0.002625 311.30405 377.45718
392.0 0.002551 311.33353 374.89053
394.0 0.002538 311.36316 377.66394
395.0 0.002532 311.39291 383.19617
407.0 0.002457 311.42282 388.24329
412.0 0.002427 311.45279 392.09283
419.0 0.002387 311.48300 397.39499
461.0 0.002169 311.51328 409.51370
423.0 0.002364 311.54382 432.16629
526.0 0.001901 311.57443 465.65689
616.0 0.001623 311.60519 504.77695
562.0 0.001779 311.63605 533.77368
507.0 0.001972 311.66705 535.49292
498.0 0.002008 311.69818 514.11981
479.0 0.002088 311.72955 487.58057
421.0 0.002375 311.76096 461.83704
401.0 0.002494 311.79260 436.87085
407.0 0.002457 311.82428 415.66034
423.0 0.002364 311.85614 399.97748
406.0 0.002463 311.88818 388.05899
372.0 0.002688 311.92032 377.19504
385.0 0.002597 311.95261 367.22086
381.0 0.002625 311.98502 359.51730
352.0 0.002841 312.01758 354.52820
354.0 0.002825 312.05026 352.58792
361.0 0.002770 312.08310 353.59531
364.0 0.002747 312.11606 358.32935
385.0 0.002597 312.14923 367.81003
396.0 0.002525 312.18253 383.51343
420.0 0.002381 312.21585 406.97748
468.0 0.002137 312.24936 437.37753
490.0 0.002041 312.28308 468.84656
500.0 0.002000 312.31680 488.54822
465.0 0.002151 312.35086 485.93600
417.0 0.002398 312.38495 463.64700
412.0 0.002427 312.41913 434.00043
383.0 0.002611 312.45349 408.24734
366.0 0.002732 312.48795 390.77988
370.0 0.002703 312.52255 381.67380
362.0 0.002762 312.55734 378.99994
410.0 0.002439 312.59229 380.74643
416.0 0.002404 312.62729 386.36768
403.0 0.002481 312.66241 396.40082
414.0 0.002415 312.69781 409.81937
452.0 0.002212 312.73328 423.50714
452.0 0.002212 312.76877 434.91098
450.0 0.002222 312.80460 440.88745
445.0 0.002247 312.84042 436.83408
421.0 0.002375 312.87637 424.34238
412.0 0.002427 312.91257 412.60901
423.0 0.002364 312.94873 408.18732
446.0 0.002242 312.98523 412.87433
480.0 0.002083 313.02173 425.20068
454.0 0.002203 313.05838 440.31085
404.0 0.002475 313.09518 449.91122
395.0 0.002532 313.13205 448.97589
408.0 0.002451 313.16925 443.23462
399.0 0.002506 313.20636 440.69760
406.0 0.002463 313.24371 442.38638
431.0 0.002320 313.28131 441.66162
388.0 0.002577 313.31888 433.17929
409.0 0.002445 313.35660 420.41412
371.0 0.002695 313.39444 410.29538
386.0 0.002591 313.43253 406.45874
400.0 0.002500 313.47067 410.16852
388.0 0.002577 313.50891 418.98276
405.0 0.002469 313.54730 430.06345
432.0 0.002315 313.58585 436.87271
413.0 0.002421 313.62451 432.00339
364.0 0.002747 313.66330 416.33673
387.0 0.002584 313.70227 398.19757
372.0 0.002688 313.74136 384.06531
373.0 0.002681 313.78055 375.88303
377.0 0.002653 313.81989 372.96899
379.0 0.002639 313.85938 373.24719
374.0 0.002674 313.89896 373.75272
382.0 0.002618 313.93869 372.83456
370.0 0.002703 313.97849 372.10898
364.0 0.002747 314.01855 373.28986
357.0 0.002801 314.05865 375.02255
351.0 0.002849 314.09888 373.55554
340.0 0.002941 314.13925 367.34961
317.0 0.003155 314.17978 358.95813
351.0 0.002849 314.22046 351.26813
356.0 0.002809 314.26120 346.53912
326.0 0.003067 314.30206 344.86932
324.0 0.003086 314.34317 346.18362
342.0 0.002924 314.38428 349.19098
338.0 0.002959 314.42572 351.48334
349.0 0.002865 314.46701 350.39706
339.0 0.002950 314.50848 345.97092
331.0 0.003021 314.55023 340.40634
316.0 0.003165 314.59204 335.61423
325.0 0.003077 314.63400 332.30905
344.0 0.002907 314.67606 330.23251
337.0 0.002967 314.71820 329.15738
327.0 0.003058 314.76056 329.13779
361.0 0.002770 314.80298 330.28165
344.0 0.002907 314.84549 332.71735
342.0 0.002924 314.88828 336.65353
327.0 0.003058 314.93100 342.68671
362.0 0.002762 314.97406 350.27090
376.0 0.002660 315.01709 358.19421
390.0 0.002564 315.06033 363.73541
364.0 0.002747 315.10364 363.22467
374.0 0.002674 315.14709 356.61911
339.0 0.002950 315.19070 347.85126
366.0 0.002732 315.23438 340.06546
321.0 0.003115 315.27826 334.47888
314.0 0.003185 315.32217 330.91568
328.0 0.003049 315.36624 329.03214
326.0 0.003067 315.41046 328.53296
330.0 0.003030 315.45480 329.25732
347.0 0.002882 315.49927 331.34534
362.0 0.002762 315.54385 335.05997
356.0 0.002809 315.58853 340.46365
384.0 0.002604 315.63336 347.32376
357.0 0.002801 315.67828 354.05771
414.0 0.002415 315.72339 357.57587
361.0 0.002770 315.76855 356.02667
329.0 0.003040 315.81393 351.88486
333.0 0.003003 315.85931 348.41730
358.0 0.002793 315.90488 346.95020
362.0 0.002762 315.95062 347.16962
369.0 0.002710 315.99637 347.46786
346.0 0.002890 316.04227 345.70667
335.0 0.002985 316.08835 341.70020
336.0 0.002976 316.13449 336.80988
327.0 0.003058 316.18085 332.62250
337.0 0.002967 316.22723 329.58038
323.0 0.003096 316.27368 327.61707
347.0 0.002882 316.32043 326.54874
318.0 0.003145 316.36713 326.20831
333.0 0.003003 316.41406 326.52582
345.0 0.002899 316.46109 327.43726
348.0 0.002874 316.50812 329.23834
318.0 0.003145 316.55539 331.90793
330.0 0.003030 316.60278 335.20380
371.0 0.002695 316.65027 338.64871
352.0 0.002841 316.69785 340.52631
325.0 0.003077 316.74554 339.72177
322.0 0.003106 316.79346 337.29883
327.0 0.003058 316.84140 334.85117
327.0 0.003058 316.88947 333.28864
323.0 0.003096 316.93759 332.98383
351.0 0.002849 316.98596 334.08655
356.0 0.002809 317.03436 336.78922
349.0 0.002865 317.08286 341.61069
349.0 0.002865 317.13159 348.92453
379.0 0.002639 317.18039 358.56491
396.0 0.002525 317.22919 369.26163
380.0 0.002632 317.27826 377.56519
365.0 0.002740 317.32736 379.35678
373.0 0.002681 317.37659 374.94141
357.0 0.002801 317.42593 369.31757
387.0 0.002584 317.47537 366.32239
390.0 0.002564 317.52493 367.79794
387.0 0.002584 317.57465 374.50711
429.0 0.002331 317.62439 386.73203
438.0 0.002283 317.67441 403.34769
415.0 0.002410 317.72437 420.85782
416.0 0.002404 317.77451 433.47833
397.0 0.002519 317.82471 436.35236
417.0 0.002398 317.87512 431.09146
424.0 0.002358 317.92557 420.34448
385.0 0.002597 317.97617 404.76566
368.0 0.002717 318.02689 387.68365
340.0 0.002941 318.07767 373.43643
354.0 0.002825 318.12863 363.89389
350.0 0.002857 318.17960 359.06503
321.0 0.003115 318.23077 358.37872
399.0 0.002506 318.28204 360.69714
366.0 0.002732 318.33340 363.97952
380.0 0.002632 318.38492 365.60614
401.0 0.002494 318.43646 364.58896
381.0 0.002625 318.48813 362.34509
394.0 0.002538 318.54004 360.80304
367.0 0.002725 318.59180 361.32388
396.0 0.002525 318.64389 364.92300
387.0 0.002584 318.69601 371.99417
421.0 0.002375 318.74817 381.79874
423.0 0.002364 318.80060 392.26202
421.0 0.002375 318.85297 400.47275
415.0 0.002410 318.90558 403.08191
380.0 0.002632 318.95828 400.38440
384.0 0.002604 319.01096 395.08344
405.0 0.002469 319.06384 388.53653
379.0 0.002639 319.11679 382.13782
386.0 0.002591 319.16992 378.24915
382.0 0.002618 319.22314 378.24921
361.0 0.002770 319.27637 382.00320
374.0 0.002674 319.32977 389.51797
407.0 0.002457 319.38327 401.98767
465.0 0.002151 319.43689 420.40753
512.0 0.001953 319.49066 442.50333
520.0 0.001923 319.54443 460.02475
480.0 0.002083 319.59836 461.47247
424.0 0.002358 319.65237 445.19556
393.0 0.002545 319.70648 421.65616
407.0 0.002457 319.76077 400.39462
403.0 0.002481 319.81503 385.18558
373.0 0.002681 319.86951 376.38226
385.0 0.002597 319.92398 373.05585
407.0 0.002457 319.97867 374.05460
401.0 0.002494 320.03342 378.44031
397.0 0.002519 320.08820 385.11273
393.0 0.002545 320.14319 392.42459
380.0 0.002632 320.19818 397.51071
375.0 0.002667 320.25333 398.21646
388.0 0.002577 320.30856 395.73761
390.0 0.002564 320.36383 393.38226
385.0 0.002597 320.41934 394.22070
395.0 0.002532 320.47485 399.27399
400.0 0.002500 320.53055 408.53046
457.0 0.002188 320.58627 421.59286
469.0 0.002132 320.64206 439.09555
474.0 0.002110 320.69800 459.74603
500.0 0.002000 320.75403 476.95557
486.0 0.002058 320.81015 483.52884
472.0 0.002119 320.86633 481.11963
418.0 0.002392 320.92264 474.61673
412.0 0.002427 320.97910 462.93243
421.0 0.002375 321.03555 444.21103
373.0 0.002681 321.09219 423.29712
384.0 0.002604 321.14893 406.58762
375.0 0.002667 321.20563 397.14270
394.0 0.002538 321.26257 395.06644
402.0 0.002488 321.31949 399.40189
417.0 0.002398 321.37668 406.97171
432.0 0.002315 321.43384 412.79749
395.0 0.002532 321.49109 411.74152
364.0 0.002747 321.54843 403.65314
393.0 0.002545 321.60580 393.12595
356.0 0.002809 321.66342 384.66132
348.0 0.002874 321.72104 379.69778
374.0 0.002674 321.77878 377.54599
367.0 0.002725 321.83661 376.98502
359.0 0.002786 321.89453 378.09897
409.0 0.002445 321.95255 381.14658
399.0 0.002506 322.01065 385.26288
392.0 0.002551 322.06870 389.18869
384.0 0.002604 322.12708 392.96078
408.0 0.002451 322.18542 395.89951
415.0 0.002410 322.24393 395.77063
422.0 0.002370 322.30240 392.35840
387.0 0.002584 322.36096 389.35083
394.0 0.002538 322.41968 390.89038
397.0 0.002519 322.47855 399.29443
414.0 0.002415 322.53754 415.57962
457.0 0.002188 322.59641 438.86099
499.0 0.002004 322.65549 463.99820
473.0 0.002114 322.71466 480.02188
443.0 0.002257 322.77386 476.17563
415.0 0.002410 322.83328 454.74600
419.0 0.002387 322.89267 427.26437
393.0 0.002545 322.95212 402.52783
354.0 0.002825 323.01181 383.63626
335.0 0.002985 323.07144 370.34378
326.0 0.003067 323.13126 361.32306
353.0 0.002833 323.19110 355.34399
349.0 0.002865 323.25098 351.32294
346.0 0.002890 323.31107 348.99695
350.0 0.002857 323.37106 347.84555
343.0 0.002915 323.43127 347.63138
333.0 0.003003 323.49158 348.34415
343.0 0.002915 323.55188 350.13181
343.0 0.002915 323.61230 353.29938
315.0 0.003175 323.67282 358.39865
354.0 0.002825 323.73349 366.18924
372.0 0.002688 323.79416 377.46878
407.0 0.002457 323.85486 392.47409
433.0 0.002309 323.91571 410.36273
436.0 0.002294 323.97662 428.28476
453.0 0.002208 324.03769 442.48615
455.0 0.002198 324.09875 451.12915
483.0 0.002070 324.15988 457.16632
506.0 0.001976 324.22116 464.42032
488.0 0.002049 324.28244 471.97028
514.0 0.001946 324.34390 475.43591
475.0 0.002105 324.40540 474.19073
457.0 0.002188 324.46686 468.68927
450.0 0.002222 324.52859 456.10144
410.0 0.002439 324.59024 435.86066
384.0 0.002604 324.65201 414.09238
355.0 0.002817 324.71396 395.83954
369.0 0.002710 324.77585 382.77176
376.0 0.002660 324.83792 374.43848
331.0 0.003021 324.89996 370.46375
373.0 0.002681 324.96216 369.89841
372.0 0.002688 325.02444 371.54816
366.0 0.002732 325.08670 373.71481
348.0 0.002874 325.14911 375.19061
353.0 0.002833 325.21158 376.48584
341.0 0.002933 325.27417 378.55994
378.0 0.002646 325.33682 381.29852
367.0 0.002725 325.39941 383.99448
412.0 0.002427 325.46228 387.42300
417.0 0.002398 325.52505 393.07001
367.0 0.002725 325.58804 401.47168
419.0 0.002387 325.65106 410.61951
413.0 0.002421 325.71402 417.01767
402.0 0.002488 325.77725 419.68890
405.0 0.002469 325.84036 420.11783
390.0 0.002564 325.90375 417.97614
383.0 0.002611 325.96707 412.67758
384.0 0.002604 326.03043 405.67343
379.0 0.002639 326.09396 397.95352
381.0 0.002625 326.15753 389.78055
363.0 0.002755 326.22122 382.12836
375.0 0.002667 326.28494 376.47818
372.0 0.002688 326.34857 373.68207
367.0 0.002725 326.41254 373.99777
372.0 0.002688 326.47635 376.87628
366.0 0.002732 326.54041 381.29358
397.0 0.002519 326.60446 386.21014
407.0 0.002457 326.66852 389.99234
385.0 0.002597 326.73273 390.53778
380.0 0.002632 326.79694 388.75360
393.0 0.002545 326.86133 387.07184
399.0 0.002506 326.92572 388.19647
408.0 0.002451 326.99008 393.84598
442.0 0.002262 327.05463 404.50449
454.0 0.002203 327.11920 419.13516
447.0 0.002237 327.18384 434.82941
446.0 0.002242 327.24857 446.25281
452.0 0.002212 327.31329 449.10849
466.0 0.002146 327.37820 445.26538
445.0 0.002247 327.44312 439.18155
406.0 0.002463 327.50809 433.14481
413.0 0.002421 327.57315 428.19980
411.0 0.002433 327.63815 423.69894
374.0 0.002674 327.70340 417.58926
385.0 0.002597 327.76849 408.56354
394.0 0.002538 327.83386 397.95419
372.0 0.002688 327.89917 388.77621
361.0 0.002770 327.96457 382.86520
376.0 0.002660 328.03006 380.45102
387.0 0.002584 328.09558 380.65451
414.0 0.002415 328.16125 382.07248
378.0 0.002646 328.22684 384.46185
394.0 0.002538 328.29254 388.73871
396.0 0.002525 328.35840 395.94052
405.0 0.002469 328.42419 405.50266
453.0 0.002208 328.49011 415.63788
435.0 0.002299 328.55609 424.37842
451.0 0.002217 328.62201 432.84006
437.0 0.002288 328.68811 442.93356
486.0 0.002058 328.75421 454.52170
478.0 0.002092 328.82047 468.51721
527.0 0.001898 328.88669 485.45245
580.0 0.001724 328.95294 502.72659
544.0 0.001838 329.01932 512.50623
484.0 0.002066 329.08569 507.45761
452.0 0.002212 329.15222 488.53149
471.0 0.002123 329.21875 462.69299
382.0 0.002618 329.28531 436.38165
378.0 0.002646 329.35199 413.17709
365.0 0.002740 329.41864 394.97116
369.0 0.002710 329.48541 382.07489
353.0 0.002833 329.55225 373.79025
401.0 0.002494 329.61905 369.20630
357.0 0.002801 329.68597 367.61453
363.0 0.002755 329.75302 368.55008
391.0 0.002558 329.82001 371.79291
397.0 0.002519 329.88705 377.12149
381.0 0.002625 329.95416 384.00653
390.0 0.002564 330.02142 391.87933
411.0 0.002433 330.08859 400.95370
410.0 0.002439 330.15601 413.02728
447.0 0.002237 330.22327 429.21381
501.0 0.001996 330.29065 448.34290
518.0 0.001931 330.35812 466.00037
523.0 0.001912 330.42554 477.94882
531.0 0.001883 330.49316 483.20776
489.0 0.002045 330.56085 481.05542
451.0 0.002217 330.62839 469.84213
444.0 0.002252 330.69614 450.60703
429.0 0.002331 330.76385 427.96222
385.0 0.002597 330.83167 406.71613
383.0 0.002611 330.89954 389.39661
371.0 0.002695 330.96738 376.49622
370.0 0.002703 331.03537 367.61664
356.0 0.002809 331.10330 361.99509
337.0 0.002967 331.17142 358.56580
349.0 0.002865 331.23947 356.87540
352.0 0.002841 331.30753 356.48883
362.0 0.002762 331.37576 357.13510
360.0 0.002778 331.44400 358.57550
369.0 0.002710 331.51236 360.71387
368.0 0.002717 331.58066 363.79019
376.0 0.002660 331.64899 368.07928
397.0 0.002519 331.71750 374.03094
402.0 0.002488 331.78589 381.15427
389.0 0.002571 331.85446 388.36566
400.0 0.002500 331.92303 393.83521
400.0 0.002500 331.99161 396.79630
413.0 0.002421 332.06024 399.09140
438.0 0.002283 332.12894 402.69797
446.0 0.002242 332.19778 407.59576
450.0 0.002222 332.26657 411.85638
430.0 0.002326 332.33533 412.92535
436.0 0.002294 332.40424 408.78104
395.0 0.002532 332.47311 400.01770
390.0 0.002564 332.54208 389.40338
359.0 0.002786 332.61121 379.50833
388.0 0.002577 332.68008 371.81601
339.0 0.002950 332.74924 366.78049
389.0 0.002571 332.81836 364.13824
385.0 0.002597 332.88754 363.68457
380.0 0.002632 332.95682 365.14169
360.0 0.002778 333.02597 368.46680
381.0 0.002625 333.09534 374.28763
382.0 0.002618 333.16464 383.30310
410.0 0.002439 333.23410 396.29471
414.0 0.002415 333.30347 414.46875
482.0 0.002075 333.37292 437.57315
505.0 0.001980 333.44247 463.62152
519.0 0.001927 333.51199 486.02771
492.0 0.002033 333.58157 497.94009
511.0 0.001957 333.65121 498.11728
471.0 0.002123 333.72083 490.31213
499.0 0.002004 333.79062 478.50262
450.0 0.002222 333.86029 465.01443
436.0 0.002294 333.93008 450.25433
411.0 0.002433 333.99991 434.06812
417.0 0.002398 334.06973 417.16989
393.0 0.002545 334.13974 401.33627
361.0 0.002770 334.20966 388.14569
345.0 0.002899 334.27960 378.20450
383.0 0.002611 334.34967 371.33655
418.0 0.002392 334.41968 367.01593
387.0 0.002584 334.48978 364.69724
367.0 0.002725 334.55984 364.19302
369.0 0.002710 334.63000 365.28641
372.0 0.002688 334.70026 368.31607
364.0 0.002747 334.77039 373.56845
382.0 0.002618 334.84073 381.94809
386.0 0.002591 334.91095 393.63538
404.0 0.002475 334.98135 408.54352
450.0 0.002222 335.05179 425.78864
485.0 0.002062 335.12219 441.33228
489.0 0.002045 335.19260 451.26285
476.0 0.002101 335.26309 453.47913
458.0 0.002183 335.33359 448.73947
436.0 0.002294 335.40417 440.50641
427.0 0.002342 335.47467 432.63000
408.0 0.002451 335.54535 427.45071
418.0 0.002392 335.61600 426.49521
458.0 0.002183 335.68671 429.77228
459.0 0.002179 335.75745 435.44916
428.0 0.002336 335.82809 439.17749
433.0 0.002309 335.89896 435.95166
413.0 0.002421 335.96976 425.38974
377.0 0.002653 336.04071 411.69421
391.0 0.002558 336.11157 398.77499
379.0 0.002639 336.18240 388.40094
359.0 0.002786 336.25342 381.19357
334.0 0.002994 336.32434 377.21112
356.0 0.002809 336.39548 376.14429
383.0 0.002611 336.46643 377.57462
376.0 0.002660 336.53748 380.99167
377.0 0.002653 336.60867 385.64581
423.0 0.002364 336.67975 390.44470
436.0 0.002294 336.75098 394.14340
395.0 0.002532 336.82217 396.05313
422.0 0.002370 336.89334 396.74271
396.0 0.002525 336.96466 396.92099
396.0 0.002525 337.03589 397.33582
396.0 0.002525 337.10733 399.77536
406.0 0.002463 337.17862 406.04208
410.0 0.002439 337.24997 417.48001
475.0 0.002105 337.32141 435.46317
499.0 0.002004 337.39294 460.83823
490.0 0.002041 337.46436 493.57318
608.0 0.001645 337.53592 532.17896
686.0 0.001458 337.60736 574.76941
735.0 0.001361 337.67902 618.26953
789.0 0.001267 337.75055 655.86322
755.0 0.001325 337.82220 677.75989
667.0 0.001499 337.89392 674.21796
579.0 0.001727 337.96548 642.78656
517.0 0.001934 338.03720 592.93329
475.0 0.002105 338.10898 540.31885
457.0 0.002188 338.18079 495.96686
425.0 0.002353 338.25259 463.06873
412.0 0.002427 338.32437 441.09396
449.0 0.002227 338.39624 427.40436
428.0 0.002336 338.46811 419.67270
425.0 0.002353 338.54001 415.93390
427.0 0.002342 338.61203 414.92307
419.0 0.002387 338.68384 415.29568
421.0 0.002375 338.75592 415.92093
436.0 0.002294 338.82788 416.52408
437.0 0.002288 338.90002 418.47501
450.0 0.002222 338.97211 422.53259
425.0 0.002353 339.04410 428.91327
430.0 0.002326 339.11630 437.65128
492.0 0.002033 339.18842 450.06656
495.0 0.002020 339.26065 467.97125
534.0 0.001873 339.33286 491.56583
595.0 0.001681 339.40503 518.45221
628.0 0.001592 339.47733 544.57166
603.0 0.001658 339.54956 565.04596
590.0 0.001695 339.62201 576.38452
593.0 0.001686 339.69434 578.95215
571.0 0.001751 339.76660 576.26929
558.0 0.001792 339.83902 569.49164
535.0 0.001869 339.91141 556.86096
504.0 0.001984 339.98389 541.32574
513.0 0.001949 340.05637 529.32080
497.0 0.002012 340.12885 522.61945
513.0 0.001949 340.20142 517.35431
531.0 0.001883 340.27390 508.90692
504.0 0.001984 340.34653 495.53357
441.0 0.002268 340.41910 477.87585
439.0 0.002278 340.49164 458.89090
424.0 0.002358 340.56439 442.05511
438.0 0.002283 340.63693 429.28397
372.0 0.002688 340.70978 420.11230
417.0 0.002398 340.78259 413.38034
403.0 0.002481 340.85513 407.75565
388.0 0.002577 340.92795 402.29709
388.0 0.002577 341.00079 396.88663
411.0 0.002433 341.07367 392.40869
387.0 0.002584 341.14655 390.03195
376.0 0.002660 341.21930 390.52274
382.0 0.002618 341.29224 394.26804
387.0 0.002584 341.36520 401.29437
419.0 0.002387 341.43811 411.04034
404.0 0.002475 341.51117 421.55264
406.0 0.002463 341.58408 429.48520
421.0 0.002375 341.65717 432.66025
415.0 0.002410 341.73013 432.84207
413.0 0.002421 341.80331 433.20422
440.0 0.002273 341.87640 434.48840
440.0 0.002273 341.94943 434.83237
440.0 0.002273 342.02267 432.60138
432.0 0.002315 342.09576 427.38885
419.0 0.002387 342.16907 420.74518
379.0 0.002639 342.24225 414.79291
401.0 0.002494 342.31552 411.23535
426.0 0.002347 342.38876 409.39633
380.0 0.002632 342.46207 407.48361
384.0 0.002604 342.53543 404.34894
397.0 0.002519 342.60880 399.88300
386.0 0.002591 342.68201 395.35342
375.0 0.002667 342.75549 391.05380
369.0 0.002710 342.82892 388.52054
370.0 0.002703 342.90240 388.22913
383.0 0.002611 342.97589 390.22900
414.0 0.002415 343.04926 394.96628
414.0 0.002415 343.12286 403.02869
419.0 0.002387 343.19641 415.08084
431.0 0.002320 343.27005 431.49817
462.0 0.002165 343.34360 452.08176
509.0 0.001965 343.41714 476.47900
533.0 0.001876 343.49094 503.48010
541.0 0.001848 343.56448 528.89490
551.0 0.001815 343.63824 546.74463
563.0 0.001776 343.71201 553.09052
587.0 0.001704 343.78564 548.96027
537.0 0.001862 343.85944 536.28668
472.0 0.002119 343.93326 514.77325
458.0 0.002183 344.00711 487.57800
436.0 0.002294 344.08096 460.95590
394.0 0.002538 344.15479 438.65759
396.0 0.002525 344.22873 421.22147
377.0 0.002653 344.30264 407.69025
376.0 0.002660 344.37668 397.13654
387.0 0.002584 344.45065 389.28949
406.0 0.002463 344.52451 384.20740
387.0 0.002584 344.59863 381.22601
381.0 0.002625 344.67267 380.12753
410.0 0.002439 344.74673 380.56696
390.0 0.002564 344.82092 382.70923
329.0 0.003040 344.89499 386.37573
387.0 0.002584 344.96918 391.59729
434.0 0.002304 345.04337 398.88367
426.0 0.002347 345.11761 408.18890
395.0 0.002532 345.19186 419.20270
453.0 0.002208 345.26599 431.56387
442.0 0.002262 345.34042 443.50500
471.0 0.002123 345.41473 452.29050
438.0 0.002283 345.48914 455.77307
466.0 0.002146 345.56345 454.11920
440.0 0.002273 345.63782 448.15820
428.0 0.002336 345.71228 437.82452
411.0 0.002433 345.78668 424.06589
401.0 0.002494 345.86124 409.85074
369.0 0.002710 345.93573 397.72311
390.0 0.002564 346.01025 388.44824
392.0 0.002551 346.08481 382.08035
368.0 0.002717 346.15945 378.24957
350.0 0.002857 346.23413 376.64685
375.0 0.002667 346.30881 376.76672
370.0 0.002703 346.38342 378.67535
394.0 0.002538 346.45819 382.38345
378.0 0.002646 346.53281 388.01370
380.0 0.002632 346.60767 396.14063
418.0 0.002392 346.68246 407.06219
455.0 0.002198 346.75723 420.88574
462.0 0.002165 346.83215 437.02249
460.0 0.002174 346.90698 452.28299
468.0 0.002137 346.98199 461.66812
461.0 0.002169 347.05695 461.97150
461.0 0.002169 347.13190 456.14041
465.0 0.002151 347.20688 449.32919
454.0 0.002203 347.28195 444.07031
438.0 0.002283 347.35703 439.25650
441.0 0.002268 347.43219 432.91431
457.0 0.002188 347.50723 425.65146
435.0 0.002299 347.58243 420.06116
410.0 0.002439 347.65768 418.37799
438.0 0.002283 347.73285 421.44336
447.0 0.002237 347.80820 428.69333
433.0 0.002309 347.88339 437.97171
440.0 0.002273 347.95880 444.97290
419.0 0.002387 348.03409 445.12607
395.0 0.002532 348.10962 437.40714
372.0 0.002688 348.18497 425.68469
377.0 0.002653 348.26038 414.24023
387.0 0.002584 348.33600 405.57666
385.0 0.002597 348.41138 400.42963
393.0 0.002545 348.48703 398.94089
394.0 0.002538 348.56265 400.79016
425.0 0.002353 348.63818 405.30750
411.0 0.002433 348.71399 411.49994
443.0 0.002257 348.78961 417.10904
427.0 0.002342 348.86539 419.42075
413.0 0.002421 348.94116 418.15991
402.0 0.002488 349.01691 415.87250
415.0 0.002410 349.09280 414.40765
406.0 0.002463 349.16861 414.60907
436.0 0.002294 349.24460 415.87231
420.0 0.002381 349.32059 417.93381
445.0 0.002247 349.39648 421.80341
454.0 0.002203 349.47256 428.65768
484.0 0.002066 349.54865 438.25427
463.0 0.002160 349.62482 448.28519
528.0 0.001894 349.70093 455.02136
421.0 0.002375 349.77701 456.12488
429.0 0.002331 349.85330 451.51495
410.0 0.002439 349.92957 442.48618
427.0 0.002342 350.00595 431.36859
419.0 0.002387 350.08228 421.24908
418.0 0.002392 350.15860 414.05234
369.0 0.002710 350.23511 410.83685
421.0 0.002375 350.31143 411.91055
415.0 0.002410 350.38803 417.46561
471.0 0.002123 350.46457 427.45416
497.0 0.002012 350.54114 441.36700
467.0 0.002141 350.61780 457.45825
518.0 0.001931 350.69443 472.55484
503.0 0.001988 350.77118 484.35138
527.0 0.001898 350.84796 492.79633
499.0 0.002004 350.92471 498.22729
504.0 0.001984 351.00165 498.81326
500.0 0.002000 351.07843 492.89813
485.0 0.002062 351.15543 482.86365
455.0 0.002198 351.23242 473.92496
476.0 0.002101 351.30936 469.45667
499.0 0.002004 351.38654 469.23166
496.0 0.002016 351.46353 469.72992
476.0 0.002101 351.54083 466.18671
451.0 0.002217 351.61798 456.58658
426.0 0.002347 351.69513 443.16083
402.0 0.002488 351.77255 429.50586
392.0 0.002551 351.84982 418.16028
385.0 0.002597 351.92734 410.08701
393.0 0.002545 352.00476 405.22717
396.0 0.002525 352.08224 402.86343
397.0 0.002519 352.15985 402.74756
384.0 0.002604 352.23737 404.49612
387.0 0.002584 352.31506 408.02103
426.0 0.002347 352.39273 413.72281
424.0 0.002358 352.47043 421.69229
435.0 0.002299 352.54828 431.61246
453.0 0.002208 352.62607 442.53284
465.0 0.002151 352.70404 453.89841
498.0 0.002008 352.78195 466.21805
549.0 0.001821 352.85995 479.84763
568.0 0.001761 352.93805 493.76935
560.0 0.001786 353.01617 505.55591
525.0 0.001905 353.09439 514.06958
552.0 0.001812 353.17264 518.94464
528.0 0.001894 353.25079 521.19037
524.0 0.001908 353.32922 522.30023
543.0 0.001842 353.40756 522.49664
544.0 0.001838 353.48602 519.87311
482.0 0.002075 353.56458 512.16052
504.0 0.001984 353.64307 499.18039
428.0 0.002336 353.72177 483.48599
458.0 0.002183 353.80035 469.32867
461.0 0.002169 353.87921 460.15344
484.0 0.002066 353.95801 457.33057
526.0 0.001901 354.03677 460.00705
526.0 0.001901 354.11572 465.55743
469.0 0.002132 354.19473 468.83411
492.0 0.002033 354.27380 464.88461
408.0 0.002451 354.35291 453.49432
409.0 0.002445 354.43201 438.85455
374.0 0.002674 354.51132 425.17169
391.0 0.002558 354.59055 414.70728
400.0 0.002500 354.67004 408.18497
435.0 0.002299 354.74942 405.57953
416.0 0.002404 354.82880 406.89282
458.0 0.002183 354.90842 411.47427
472.0 0.002119 354.98801 418.22372
499.0 0.002004 355.06772 425.62399
499.0 0.002004 355.14752 431.52594
491.0 0.002037 355.22726 434.65378
473.0 0.002114 355.30722 435.16028
446.0 0.002242 355.38715 434.17200
419.0 0.002387 355.46719 432.50336
422.0 0.002370 355.54736 429.59711
452.0 0.002212 355.62741 424.83777
404.0 0.002475 355.70776 418.55832
381.0 0.002625 355.78799 412.27203
373.0 0.002681 355.86844 407.80783
367.0 0.002725 355.94885 406.20935
422.0 0.002370 356.02936 407.44019
442.0 0.002262 356.11002 410.56772
435.0 0.002299 356.19067 413.46530
440.0 0.002273 356.27142 413.56985
416.0 0.002404 356.35229 409.79507
376.0 0.002660 356.43314 403.28235
377.0 0.002653 356.51422 395.96881
373.0 0.002681 356.59518 389.05231
379.0 0.002639 356.67636 383.50577
398.0 0.002513 356.75766 379.49475
387.0 0.002584 356.83884 376.92880
376.0 0.002660 356.92026 375.71329
378.0 0.002646 357.00168 375.63553
382.0 0.002618 357.08334 376.56107
393.0 0.002545 357.16489 378.27371
382.0 0.002618 357.24664 380.49350
381.0 0.002625 357.32843 382.85480
369.0 0.002710 357.41028 385.14874
373.0 0.002681 357.49219 387.05402
414.0 0.002415 357.57434 387.96649
364.0 0.002747 357.65631 387.67966
392.0 0.002551 357.73862 386.73880
359.0 0.002786 357.82086 385.62686
395.0 0.002532 357.90332 384.48819
376.0 0.002660 357.98581 382.99823
377.0 0.002653 358.06830 381.28986
377.0 0.002653 358.15100 379.91235
357.0 0.002801 358.23373 379.37967
387.0 0.002584 358.31662 379.76019
373.0 0.002681 358.39954 381.34015
408.0 0.002451 358.48248 383.72336
361.0 0.002770 358.56570 386.72842
405.0 0.002469 358.64886 390.08591
386.0 0.002591 358.73221 393.19733
434.0 0.002304 358.81564 395.20645
417.0 0.002398 358.89902 395.38821
366.0 0.002732 358.98267 393.36096
407.0 0.002457 359.06628 389.66925
384.0 0.002604 359.15024 385.40689
372.0 0.002688 359.23407 381.64157
379.0 0.002639 359.31799 378.93509
355.0 0.002817 359.40216 377.41068
362.0 0.002762 359.48624 376.94412
382.0 0.002618 359.57068 377.22296
395.0 0.002532 359.65503 377.54385
384.0 0.002604 359.73947 377.80414
375.0 0.002667 359.82410 377.67303
381.0 0.002625 359.90878 377.39505
388.0 0.002577 359.99365 377.15146
404.0 0.002475 360.07864 376.88483
399.0 0.002506 360.16354 376.53851
388.0 0.002577 360.24869 376.17538
359.0 0.002786 360.33392 376.22763
347.0 0.002882 360.41934 376.98911
363.0 0.002755 360.50479 378.57639
378.0 0.002646 360.59033 381.24380
383.0 0.002611 360.67599 384.94098
404.0 0.002475 360.76187 389.75775
411.0 0.002433 360.84778 395.41177
382.0 0.002618 360.93387 401.10037
384.0 0.002604 361.01987 405.32309
380.0 0.002632 361.10620 406.90427
380.0 0.002632 361.19257 405.92175
403.0 0.002481 361.27902 403.56573
394.0 0.002538 361.36569 400.95755
373.0 0.002681 361.45239 398.51050
378.0 0.002646 361.53931 396.39227
379.0 0.002639 361.62622 394.93628
380.0 0.002632 361.71335 394.82257
415.0 0.002410 361.80057 396.40179
424.0 0.002358 361.88794 399.97662
435.0 0.002299 361.97537 405.01114
423.0 0.002364 362.06293 410.42014
459.0 0.002179 362.15076 414.88422
468.0 0.002137 362.23865 417.93652
448.0 0.002232 362.32642 420.17532
454.0 0.002203 362.41464 421.92368
446.0 0.002242 362.50284 422.47800
407.0 0.002457 362.59122 420.74734
408.0 0.002451 362.67978 416.74130
420.0 0.002381 362.76825 411.61029
420.0 0.002381 362.85715 406.53571
360.0 0.002778 362.94592 402.50409
370.0 0.002703 363.03506 399.75522
391.0 0.002558 363.12421 398.05997
403.0 0.002481 363.21341 397.17035
382.0 0.002618 363.30295 396.64706
393.0 0.002545 363.39249 396.26422
362.0 0.002762 363.48227 396.16846
378.0 0.002646 363.57211 396.76044
376.0 0.002660 363.66199 398.13290
371.0 0.002695 363.75226 399.93494
400.0 0.002500 363.84247 401.36124
366.0 0.002732 363.93301 401.72617
391.0 0.002558 364.02362 400.97678
428.0 0.002336 364.11423 399.96567
389.0 0.002571 364.20517 399.65784
441.0 0.002268 364.29617 400.45227
397.0 0.002519 364.38739 402.10260
403.0 0.002481 364.47870 404.27710
428.0 0.002336 364.57007 406.47815
431.0 0.002320 364.66168 409.10806
402.0 0.002488 364.75348 412.54337
446.0 0.002242 364.84546 416.45938
447.0 0.002237 364.93759 420.30359
443.0 0.002257 365.02972 423.67172
458.0 0.002183 365.12213 426.34512
477.0 0.002096 365.21469 428.16962
436.0 0.002294 365.30743 429.53760
423.0 0.002364 365.40033 431.83441
472.0 0.002119 365.49329 436.34808
469.0 0.002132 365.58655 443.51047
510.0 0.001961 365.67987 452.36432
534.0 0.001873 365.77341 460.58118
530.0 0.001887 365.86710 465.51151
502.0 0.001992 365.96085 465.97665
495.0 0.002020 366.05496 461.85190
472.0 0.002119 366.14914 453.54327
418.0 0.002392 366.24353 442.62668
406.0 0.002463 366.33807 431.26163
383.0 0.002611 366.43265 420.94928
378.0 0.002646 366.52762 412.17221
380.0 0.002632 366.62259 405.25082
369.0 0.002710 366.71790 400.05362
369.0 0.002710 366.81326 396.39844
367.0 0.002725 366.90881 394.22464
369.0 0.002710 367.00464 393.46786
384.0 0.002604 367.10043 394.16486
388.0 0.002577 367.19666 396.44382
397.0 0.002519 367.29294 400.42343
416.0 0.002404 367.38928 406.21658
415.0 0.002410 367.48602 413.88080
405.0 0.002469 367.58279 422.90820
433.0 0.002309 367.67987 432.25827
465.0 0.002151 367.77719 440.21078
465.0 0.002151 367.87445 445.35666
430.0 0.002326 367.97202 447.97922
436.0 0.002294 368.06979 449.93637
463.0 0.002160 368.16782 452.86060
479.0 0.002088 368.26599 456.50195
471.0 0.002123 368.36429 458.87479
453.0 0.002208 368.46286 457.92245
452.0 0.002212 368.56158 453.22052
464.0 0.002155 368.66049 445.84528
403.0 0.002481 368.75970 437.57956
416.0 0.002404 368.85895 430.33585
437.0 0.002288 368.95853 425.44431
428.0 0.002336 369.05817 423.39484
451.0 0.002217 369.15820 423.46130
436.0 0.002294 369.25830 424.31555
467.0 0.002141 369.35864 424.02637
417.0 0.002398 369.45926 421.38834
394.0 0.002538 369.55994 416.92087
421.0 0.002375 369.66095 412.08719
391.0 0.002558 369.76215 408.16531
406.0 0.002463 369.86334 405.93719
394.0 0.002538 369.96509 405.80185
416.0 0.002404 370.06671 408.00287
380.0 0.002632 370.16885 412.62051
426.0 0.002347 370.27106 419.38257
443.0 0.002257 370.37341 427.62762
476.0 0.002101 370.47617 435.94373
450.0 0.002222 370.57898 442.32816
430.0 0.002326 370.68219 445.14334
421.0 0.002375 370.78549 444.14874
417.0 0.002398 370.88895 440.34363
408.0 0.002451 370.99277 435.04538
410.0 0.002439 371.09668 429.26099
392.0 0.002551 371.20105 423.38550
384.0 0.002604 371.30542 417.84213
387.0 0.002584 371.41003 413.39249
409.0 0.002445 371.51498 410.69513
403.0 0.002481 371.62003 410.04318
410.0 0.002439 371.72552 411.85791
426.0 0.002347 371.83112 415.66364
430.0 0.002326 371.93689 421.60379
431.0 0.002320 372.04291 429.21896
470.0 0.002128 372.14923 437.83893
484.0 0.002066 372.25589 446.85825
472.0 0.002119 372.36270 455.62659
462.0 0.002165 372.46954 462.64316
459.0 0.002179 372.57681 465.69962
437.0 0.002288 372.68433 463.76913
408.0 0.002451 372.79211 457.97717
418.0 0.002392 372.90018 450.82224
428.0 0.002336 373.00824 444.14545
417.0 0.002398 373.11685 438.63614
414.0 0.002415 373.22543 434.90497
415.0 0.002410 373.33456 433.23395
412.0 0.002427 373.44379 433.36377
435.0 0.002299 373.55316 434.15369
420.0 0.002381 373.66299 434.54855
418.0 0.002392 373.77292 433.71097
391.0 0.002558 373.88327 431.20636
416.0 0.002404 373.99374 427.13596
365.0 0.002740 374.10446 422.68393
404.0 0.002475 374.21555 419.09366
393.0 0.002545 374.32678 417.19812
420.0 0.002381 374.43842 417.53564
438.0 0.002283 374.55023 420.40323
445.0 0.002247 374.66223 425.92697
450.0 0.002222 374.77472 433.78952
465.0 0.002151 374.88730 443.46390
470.0 0.002128 375.00027 453.63046
472.0 0.002119 375.11334 462.26373
501.0 0.001996 375.22668 468.11115
479.0 0.002088 375.34048 471.80258
495.0 0.002020 375.45447 474.58078
511.0 0.001957 375.56879 476.72894
488.0 0.002049 375.68329 477.80856
470.0 0.002128 375.79803 477.56714
488.0 0.002049 375.91321 476.44409
476.0 0.002101 376.02847 475.18256
444.0 0.002252 376.14429 473.71371
481.0 0.002079 376.26031 470.97217
417.0 0.002398 376.37634 465.47711
392.0 0.002551 376.49301 457.19302
400.0 0.002500 376.60968 447.84735
443.0 0.002257 376.72684 439.17838
405.0 0.002469 376.84427 432.04462
411.0 0.002433 376.96188 426.39902
419.0 0.002387 377.07990 421.98279
422.0 0.002370 377.19815 418.94769
416.0 0.002404 377.31680 417.78622
409.0 0.002445 377.43570 418.69119
416.0 0.002404 377.55475 421.74368
444.0 0.002252 377.67419 426.78577
417.0 0.002398 377.79401 433.13800
427.0 0.002342 377.91409 439.55545
468.0 0.002137 378.03452 444.25360
432.0 0.002315 378.15506 446.08267
447.0 0.002237 378.27618 444.84467
435.0 0.002299 378.39737 441.24939
433.0 0.002309 378.51913 436.44171
443.0 0.002257 378.64102 432.02570
454.0 0.002203 378.76315 429.08441
451.0 0.002217 378.88586 427.93195
444.0 0.002252 379.00864 428.25281
437.0 0.002288 379.13190 429.55832
424.0 0.002358 379.25540 431.47449
414.0 0.002415 379.37909 433.88470
413.0 0.002421 379.50330 436.39685
428.0 0.002336 379.62775 438.24936
446.0 0.002242 379.75259 439.11060
455.0 0.002198 379.87775 439.81219
450.0 0.002222 380.00302 441.24866
453.0 0.002208 380.12891 443.88071
464.0 0.002155 380.25497 447.21906
442.0 0.002262 380.38147 450.26508
458.0 0.002183 380.50821 452.78812
465.0 0.002151 380.63522 455.99710
478.0 0.002092 380.76279 461.75848
475.0 0.002105 380.89047 471.36902
565.0 0.001770 381.01868 485.09732
580.0 0.001724 381.14719 501.77078
649.0 0.001541 381.27582 517.93396
591.0 0.001692 381.40503 528.41296
505.0 0.001980 381.53445 529.17126
485.0 0.002062 381.66437 521.19617
493.0 0.002028 381.79459 509.36902
517.0 0.001934 381.92499 497.95782
537.0 0.001862 382.05588 488.60764
501.0 0.001996 382.18710 481.10986
496.0 0.002016 382.31873 474.51987
434.0 0.002304 382.45068 467.58527
438.0 0.002283 382.58286 460.25366
436.0 0.002294 382.71558 453.88629
412.0 0.002427 382.84851 449.88669
461.0 0.002169 382.98193 448.75479
434.0 0.002304 383.11575 450.57489
447.0 0.002237 383.24969 454.66165
474.0 0.002110 383.38425 459.71829
518.0 0.001931 383.51892 463.95361
488.0 0.002049 383.65424 466.57397
509.0 0.001965 383.78976 467.82498
471.0 0.002123 383.92563 467.66992
434.0 0.002304 384.06201 465.69666
436.0 0.002294 384.19861 461.89709
429.0 0.002331 384.33575 457.60077
402.0 0.002488 384.47314 454.46249
419.0 0.002387 384.61081 453.81543
454.0 0.002203 384.74908 456.04422
460.0 0.002174 384.88760 460.47693
491.0 0.002037 385.02658 465.35959
472.0 0.002119 385.16599 468.45462
474.0 0.002110 385.30548 468.30807
481.0 0.002079 385.44574 465.75482
448.0 0.002232 385.58615 462.73071
459.0 0.002179 385.72711 460.52228
501.0 0.001996 385.86838 459.37393
486.0 0.002058 386.00986 458.99304
466.0 0.002146 386.15198 458.22348
458.0 0.002183 386.29431 455.77902
452.0 0.002212 386.43729 451.21393
444.0 0.002252 386.58057 445.35245
405.0 0.002469 386.72403 439.89645
389.0 0.002571 386.86813 435.84763
418.0 0.002392 387.01251 433.58041
423.0 0.002364 387.15747 432.86777
418.0 0.002392 387.30280 432.94873
430.0 0.002326 387.44830 432.98282
422.0 0.002370 387.59436 432.54907
425.0 0.002353 387.74078 431.91205
417.0 0.002398 387.88779 431.24063
427.0 0.002342 388.03503 430.57892
440.0 0.002273 388.18271 429.90872
417.0 0.002398 388.33081 429.57748
435.0 0.002299 388.47940 430.06311
441.0 0.002268 388.62839 431.49146
451.0 0.002217 388.77786 433.79922
472.0 0.002119 388.92746 436.53799
456.0 0.002193 389.07776 439.79858
466.0 0.002146 389.22836 443.77161
440.0 0.002273 389.37952 448.95248
488.0 0.002049 389.53101 455.53732
475.0 0.002105 389.68283 463.01111
486.0 0.002058 389.83530 470.21896
489.0 0.002045 389.98798 476.14828
526.0 0.001901 390.14133 480.71106
483.0 0.002070 390.29495 484.09668
539.0 0.001855 390.44891 486.03711
515.0 0.001942 390.60358 486.17487
527.0 0.001898 390.75845 484.26553
525.0 0.001905 390.91397 479.71170
462.0 0.002165 391.06985 472.44632
455.0 0.002198 391.22589 463.56207
450.0 0.002222 391.38281 454.49307
412.0 0.002427 391.53992 446.19986
424.0 0.002358 391.69763 439.03516
422.0 0.002370 391.85568 433.54367
416.0 0.002404 392.01404 430.11438
413.0 0.002421 392.17319 428.43857
423.0 0.002364 392.33249 428.65775
428.0 0.002336 392.49252 430.66769
419.0 0.002387 392.65286 434.22479
450.0 0.002222 392.81357 438.94107
442.0 0.002262 392.97491 443.87878
448.0 0.002232 393.13651 448.16418
415.0 0.002410 393.29883 450.57834
410.0 0.002439 393.46155 451.23853
457.0 0.002188 393.62445 451.34644
459.0 0.002179 393.78809 452.19562
448.0 0.002232 393.95209 454.85544
454.0 0.002203 394.11676 459.66412
456.0 0.002193 394.28177 466.40417
485.0 0.002062 394.44708 474.45084
515.0 0.001942 394.61304 483.49548
526.0 0.001901 394.77942 492.75900
510.0 0.001961 394.94638 500.89951
515.0 0.001942 395.11380 506.32660
523.0 0.001912 395.28146 508.33978
531.0 0.001883 395.44986 507.48477
506.0 0.001976 395.61862 505.10767
502.0 0.001992 395.78793 503.23511
505.0 0.001980 395.95779 503.33548
528.0 0.001894 396.12781 505.64383
538.0 0.001859 396.29871 508.93567
551.0 0.001815 396.46982 511.31854
532.0 0.001880 396.64172 511.48929
512.0 0.001953 396.81390 508.88651
494.0 0.002024 396.98645 503.76770
502.0 0.001992 397.15973 496.60825
521.0 0.001919 397.33334 488.49725
496.0 0.002016 397.50766 480.01172
448.0 0.002232 397.68228 471.71652
421.0 0.002375 397.85739 463.72855
416.0 0.002404 398.03317 456.16806
430.0 0.002326 398.20929 449.19699
417.0 . . .
loop_
_refln_index_h
_refln_index_k
_refln_index_l
_pd_refln_wavelength_id
_refln_observed_status
_refln_F_squared_meas
_refln_F_squared_calc
_refln_phase_calc
_refln_d_spacing
_gsas_i100_meas
0 2 0 1 o 43313.25 39168.17 0.00 6.67647 15.38
0 2 0 2 o 43083.19 39168.17 0.00 6.67647 7.61
1 1 1 1 o 19464.232 19019.648 0.00 6.04766 19.44
1 1 1 2 o 18964.402 19019.648 0.00 6.04766 9.40
2 0 0 1 o 794.319 1022.977 180.00 4.81597 0.00
2 0 0 2 o 794.319 1022.977 180.00 4.81597 0.00
0 0 2 1 o 36180.98 38063.64 0.00 4.77724 4.12
0 0 2 2 o 36592.20 38063.64 0.00 4.77724 2.08
1 2 1 1 o 5752.292 5936.429 0.00 4.75828 2.04
1 2 1 2 o 5544.200 5936.429 0.00 4.75828 0.94
2 1 0 1 o 160913.09 161069.09 180.00 4.53032 40.70
2 1 0 2 o 159086.69 161069.09 180.00 4.53032 19.98
1 0 2 1 o 225605.64 230726.66 0.00 4.27975 50.83
1 0 2 2 o 224186.80 230726.66 0.00 4.27975 25.11
2 1 1 1 o 122944.38 117195.56 0.00 4.09347 52.26
2 1 1 2 o 121182.83 117195.56 0.00 4.09347 25.57
1 1 2 1 o 122622.59 119944.27 0.00 4.07553 51.33
1 1 2 2 o 119658.83 119944.27 0.00 4.07553 24.83
0 3 1 1 o 430459.2 448182.0 180.00 4.03466 100.00
0 3 1 2 o 435869.6 448182.0 180.00 4.03466 50.48
2 2 0 1 o 89454.60 82873.17 180.00 3.90585 17.85
2 2 0 2 o 85479.96 82873.17 180.00 3.90585 8.43
0 2 2 1 o 52358.26 52319.07 0.00 3.88510 10.21
0 2 2 2 o 53318.78 52319.07 0.00 3.88510 5.19
1 3 1 1 o 83234.96 77760.12 180.00 3.72136 32.93
1 3 1 2 o 81994.09 77760.12 180.00 3.72136 16.10
2 2 1 1 o 187014.09 181606.39 180.00 3.61542 63.35
2 2 1 2 o 183851.14 181606.39 180.00 3.61542 30.90
1 2 2 1 o 577.426 561.971 0.00 3.60304 0.20
1 2 2 2 o 810.968 561.971 0.00 3.60304 0.15
2 0 2 1 o 154188.56 142790.11 180.00 3.39163 23.15
2 0 2 2 o 153096.08 142790.11 180.00 3.39163 11.43
0 4 0 1 o 148275.09 139597.17 180.00 3.33823 13.26
0 4 0 2 o 142452.59 139597.17 180.00 3.33823 6.32
2 1 2 1 o 13476.726 13855.181 180.00 3.28724 3.74
2 1 2 2 o 13112.111 13855.181 180.00 3.28724 1.80
2 3 0 1 o 40250.75 44028.11 180.00 3.26874 5.53
2 3 0 2 o 37293.56 44028.11 180.00 3.26874 2.51
0 1 3 1 o 149138.17 150459.89 180.00 3.09793 17.31
2 3 1 1 o 41863.00 42022.18 0.00 3.09276 10.50
0 1 3 2 o 150516.14 150459.89 180.00 3.09793 8.70
2 3 1 2 o 43532.13 42022.18 0.00 3.09276 5.47
1 3 2 1 o 27404.963 26432.297 0.00 3.08500 6.86
1 3 2 2 o 27842.498 26432.297 0.00 3.08500 3.47
2 2 2 1 o 60294.48 58458.53 180.00 3.02383 13.68
2 2 2 2 o 57810.22 58458.53 180.00 3.02383 6.48
1 4 1 1 o 17519.096 18281.799 180.00 2.99518 4.51
1 4 1 2 o 18296.490 18281.799 180.00 2.99518 2.36
3 1 1 1 o 66809.79 64138.07 0.00 2.96731 14.62
3 1 1 2 o 65009.08 64138.07 0.00 2.96731 7.05
1 1 3 1 o 277.924 705.547 0.00 2.94914 0.02
1 1 3 2 o 213.013 705.547 0.00 2.94914 0.00
3 2 1 1 o 32211.936 31455.336 180.00 2.76926 6.26
3 2 1 2 o 31664.480 31455.336 180.00 2.76926 3.05
1 2 3 1 o 119241.63 125631.66 0.00 2.75448 22.38
1 2 3 2 o 119969.24 125631.66 0.00 2.75448 11.21
2 4 0 1 o 99860.41 100717.53 180.00 2.74358 10.21
2 4 0 2 o 100539.32 100717.53 180.00 2.74358 5.12
0 4 2 1 o 30406.807 30474.645 0.00 2.73636 3.24
0 4 2 2 o 28563.703 30474.645 0.00 2.73636 1.50
2 3 2 1 o 2844.820 4029.708 180.00 2.69769 0.55
2 3 2 2 o 2827.711 4029.708 180.00 2.69769 0.27
3 0 2 1 o 86691.24 83818.09 0.00 2.66475 7.09
3 0 2 2 o 84901.01 83818.09 0.00 2.66475 3.44
2 4 1 1 o 24308.543 23189.184 0.00 2.63701 4.40
1 4 2 1 o 31705.230 30587.900 180.00 2.63220 5.71
2 4 1 2 o 24186.291 23189.184 0.00 2.63701 2.18
1 4 2 2 o 32831.172 30587.900 180.00 2.63220 2.96
3 1 2 1 o 27604.916 27976.768 180.00 2.61322 4.26
3 1 2 2 o 28220.289 27976.768 180.00 2.61322 2.18
2 1 3 1 o 28813.340 28811.768 0.00 2.60543 4.50
2 1 3 2 o 28092.131 28811.768 0.00 2.60543 2.17
0 3 3 1 o 4.906 4.370 0.00 2.59007 0.00
0 3 3 2 o 7.100 4.370 0.00 2.59007 0.00
0 5 1 1 o 60979.79 61699.20 180.00 2.57200 5.35
0 5 1 2 o 57946.88 61699.20 180.00 2.57200 2.50
3 3 1 1 o 28495.473 25811.318 180.00 2.51227 4.41
3 3 1 2 o 26641.674 25811.318 180.00 2.51227 2.03
1 3 3 1 o 121681.93 121209.65 180.00 2.50122 18.43
1 3 3 2 o 120072.09 121209.65 180.00 2.50122 9.02
1 5 1 1 o 6222.223 6075.807 180.00 2.48494 1.06
1 5 1 2 o 5648.530 6075.807 180.00 2.48494 0.47
3 2 2 1 o 16297.787 17335.598 180.00 2.47491 2.19
3 2 2 2 o 16899.332 17335.598 180.00 2.47491 1.14
2 2 3 1 o 24987.521 25474.119 0.00 2.46828 3.38
2 2 3 2 o 24561.678 25474.119 0.00 2.46828 1.65
4 0 0 1 o 23625.154 19422.953 180.00 2.40798 0.73
4 0 0 2 o 23975.621 19422.953 180.00 2.40798 0.37
0 0 4 1 o 51629.12 47967.39 180.00 2.38862 1.63
0 0 4 2 o 47869.70 47967.39 180.00 2.38862 0.74
2 4 2 1 o 28603.068 28592.289 180.00 2.37914 3.72
2 4 2 2 o 29566.885 28592.289 180.00 2.37914 1.93
4 1 0 1 o 14908.544 13030.404 180.00 2.36976 0.98
4 1 0 2 o 14834.138 13030.404 180.00 2.36976 0.48
2 5 0 1 o 160579.94 143891.84 0.00 2.33553 11.48
2 5 0 2 o 151975.84 143891.84 0.00 2.33553 5.34
1 0 4 1 o 34106.953 30818.211 0.00 2.31839 1.95
1 0 4 2 o 35491.47 30818.211 0.00 2.31839 1.02
4 1 1 1 o 163993.81 157958.67 180.00 2.30007 19.67
4 1 1 2 o 161748.45 157958.67 180.00 2.30007 9.62
3 3 2 1 o 28977.088 26020.068 180.00 2.28633 3.93
1 1 4 1 o 3090.027 2895.969 0.00 2.28422 0.31
2 3 3 1 o 31437.770 28064.777 0.00 2.28110 3.77
3 3 2 2 o 29711.674 26020.068 180.00 2.28633 2.01
1 1 4 2 o 3194.879 2895.969 0.00 2.28422 0.16
2 3 3 2 o 32549.563 28064.777 0.00 2.28110 1.96
2 5 1 1 o 37626.15 36661.20 0.00 2.26873 4.99
1 5 2 1 o 57741.64 58871.34 180.00 2.26567 7.20
4 2 0 1 o 69078.70 70576.29 0.00 2.26516 3.92
2 5 1 2 o 35479.02 36661.20 0.00 2.26873 2.31
1 5 2 2 o 56933.84 58871.34 180.00 2.26567 3.52
4 2 0 2 o 68784.55 70576.29 0.00 2.26516 1.94
0 2 4 1 o 67032.34 60499.52 0.00 2.24902 3.95
3 4 1 1 o 4933.554 4451.341 0.00 2.24904 0.62
0 2 4 2 o 62053.82 60499.52 0.00 2.24902 1.79
3 4 1 2 o 4565.112 4451.341 0.00 2.24904 0.28
1 4 3 1 o 19232.975 18354.602 180.00 2.24109 2.39
1 4 3 2 o 20001.631 18354.602 180.00 2.24109 1.25
3 1 3 1 o 60122.25 57228.95 0.00 2.22935 6.38
0 6 0 1 o 205146.13 185770.00 0.00 2.22549 6.89
3 1 3 2 o 62377.50 57228.95 0.00 2.22935 3.32
0 6 0 2 o 210016.11 185770.00 0.00 2.22549 3.53
4 2 1 1 o 15528.510 16339.076 180.00 2.20407 1.80
4 2 1 2 o 15945.414 16339.076 180.00 2.20407 0.92
1 2 4 1 o 9706.942 10810.004 0.00 2.19011 1.01
1 2 4 2 o 8790.068 10810.004 0.00 2.19011 0.44
4 0 2 1 o -172.536 83.533 180.00 2.15027 0.01
4 0 2 2 o -112.230 83.533 180.00 2.15027 0.01
3 2 3 1 o 3703.033 3552.626 180.00 2.14160 0.22
2 0 4 1 o 10668.853 10345.779 180.00 2.13988 0.41
3 2 3 2 o 3496.036 3552.626 180.00 2.14160 0.10
2 0 4 2 o 10336.517 10345.779 180.00 2.13988 0.20
4 1 2 1 o 5266.582 5137.584 180.00 2.12292 0.63
4 3 0 1 o 1596.068 1471.230 180.00 2.11791 0.07
4 1 2 2 o 5726.691 5137.584 180.00 2.12292 0.34
1 6 1 1 o 122.538 120.778 180.00 2.11459 0.01
2 1 4 1 o 111499.60 109170.65 0.00 2.11292 11.42
4 3 0 2 o 1498.102 1471.230 180.00 2.11791 0.03
1 6 1 2 o 120.354 120.778 180.00 2.11459 0.00
2 1 4 2 o 109589.46 109170.65 0.00 2.11292 5.56
2 5 2 1 o 23073.420 18283.697 0.00 2.09821 2.83
2 5 2 2 o 23326.738 18283.697 0.00 2.09821 1.42
3 4 2 1 o 109323.35 108479.13 180.00 2.08260 10.98
2 4 3 1 o 7291.736 7782.106 180.00 2.07864 0.75
3 4 2 2 o 103047.22 108479.13 180.00 2.08260 5.07
2 4 3 2 o 6823.995 7782.106 180.00 2.07864 0.34
4 3 1 1 o 5780.955 6137.073 0.00 2.06772 0.57
4 3 1 2 o 4986.181 6137.073 0.00 2.06772 0.24
1 3 4 1 o 3467.260 3683.363 0.00 2.05618 0.34
1 3 4 2 o 4039.805 3683.363 0.00 2.05618 0.20
4 2 2 1 o 52657.94 50237.82 0.00 2.04674 5.06
0 5 3 1 o 39560.47 37727.96 180.00 2.04636 2.19
4 2 2 2 o 52326.66 50237.82 0.00 2.04674 2.50
0 5 3 2 o 39791.11 37727.96 180.00 2.04636 1.10
2 2 4 1 o 18983.277 18487.074 180.00 2.03777 1.76
2 2 4 2 o 17815.508 18487.074 180.00 2.03777 0.81
2 6 0 1 o 45175.52 40052.12 180.00 2.02022 2.54
0 6 2 1 o 68877.14 64615.04 0.00 2.01733 3.72
3 3 3 1 o 16340.300 15974.902 180.00 2.01589 1.40
2 6 0 2 o 40630.96 40052.12 180.00 2.02022 1.12
0 6 2 2 o 64544.61 64615.04 0.00 2.01733 1.71
3 3 3 2 o 15844.465 15974.902 180.00 2.01589 0.67
3 5 1 1 o 637.119 541.552 180.00 2.00733 0.08
3 5 1 2 o 545.939 541.552 180.00 2.00733 0.03
1 5 3 1 o 20218.115 20312.643 180.00 2.00168 1.95
1 5 3 2 o 17916.705 20312.643 180.00 2.00168 0.83
2 6 1 1 o 74358.58 70946.21 0.00 1.97652 7.68
1 6 2 1 o 69973.19 67149.42 0.00 1.97449 7.16
2 6 1 2 o 70380.56 70946.21 0.00 1.97652 3.58
1 6 2 2 o 67700.85 67149.42 0.00 1.97449 3.43
4 4 0 1 o 266290.25 282667.72 0.00 1.95292 11.58
4 4 0 2 o 261173.97 282667.72 0.00 1.95292 5.62
0 4 4 1 o 164288.22 172455.53 0.00 1.94255 6.83
0 4 4 2 o 160875.03 172455.53 0.00 1.94255 3.31
4 3 2 1 o 5496.322 5709.160 180.00 1.93617 0.57
4 3 2 2 o 5679.748 5709.160 180.00 1.93617 0.29
2 3 4 1 o 40487.47 40611.49 0.00 1.92857 3.61
2 3 4 2 o 38205.13 40611.49 0.00 1.92857 1.68
3 0 4 1 o 1430.583 1090.151 180.00 1.91643 0.07
4 4 1 1 o 2442.320 2169.480 0.00 1.91336 0.22
3 0 4 2 o 987.917 1090.151 180.00 1.91643 0.02
4 4 1 2 o 1780.048 2169.480 0.00 1.91336 0.07
1 4 4 1 o 4048.666 5660.873 0.00 1.90421 0.36
4 1 3 1 o 7289.593 7290.307 180.00 1.90120 0.61
1 4 4 2 o 5191.585 5660.873 0.00 1.90421 0.24
3 1 4 1 o 13795.033 14127.772 180.00 1.89699 1.19
4 1 3 2 o 7368.374 7290.307 180.00 1.90120 0.31
3 1 4 2 o 13680.870 14127.772 180.00 1.89699 0.59
0 1 5 1 o 100926.82 103345.91 180.00 1.89162 3.83
0 1 5 2 o 100058.30 103345.91 180.00 1.89162 1.89
3 5 2 1 o 32677.357 33656.945 0.00 1.88632 2.71
2 5 3 1 o 22833.408 22210.637 0.00 1.88339 1.88
3 5 2 2 o 33934.191 33656.945 0.00 1.88632 1.41
2 5 3 2 o 22984.660 22210.637 0.00 1.88339 0.94
3 4 3 1 o 18282.863 16644.500 0.00 1.87207 1.62
0 7 1 1 o 35077.32 28785.045 0.00 1.87064 1.77
5 1 1 1 o 125.663 123.493 180.00 1.86978 0.00
3 4 3 2 o 18778.225 16644.500 0.00 1.87207 0.83
0 7 1 2 o 36589.10 28785.045 0.00 1.87064 0.92
5 1 1 2 o 126.452 123.493 180.00 1.86978 0.00
2 6 2 1 o 15720.327 17501.770 180.00 1.86068 1.21
1 1 5 1 o 31073.357 34138.855 180.00 1.85617 2.24
2 6 2 2 o 15994.855 17501.770 180.00 1.86068 0.61
1 1 5 2 o 30727.783 34138.855 180.00 1.85617 1.10
4 2 3 1 o 8273.968 8508.196 0.00 1.84590 0.68
3 2 4 1 o 33402.441 32993.844 180.00 1.84204 2.56
4 2 3 2 o 8640.078 8508.196 0.00 1.84590 0.35
3 2 4 2 o 32778.543 32993.844 180.00 1.84204 1.25
1 7 1 1 o 25378.199 25641.457 0.00 1.83633 2.33
1 7 1 2 o 22859.699 25641.457 0.00 1.83633 1.03
5 2 1 1 o 77544.03 80442.52 180.00 1.81710 5.91
5 2 1 2 o 77033.32 80442.52 180.00 1.81710 2.92
4 4 2 1 o 99647.47 99142.37 0.00 1.80771 7.87
1 2 5 1 o 32276.869 33081.828 180.00 1.80460 2.65
4 4 2 2 o 97906.53 99142.37 0.00 1.80771 3.84
2 4 4 1 o 38578.55 38977.42 180.00 1.80152 3.24
1 2 5 2 o 32557.061 33081.828 180.00 1.80460 1.33
2 4 4 2 o 39801.41 38977.42 180.00 1.80152 1.66
3 6 1 1 o 34336.762 32915.082 0.00 1.79643 3.06
1 6 3 1 o 75506.11 71437.34 180.00 1.79237 6.41
3 6 1 2 o 34768.766 32915.082 0.00 1.79643 1.54
4 5 0 1 o 9741.837 10168.521 0.00 1.78836 0.35
1 6 3 2 o 68756.27 71437.34 180.00 1.79237 2.87
5 0 2 1 o 4447.078 4821.952 180.00 1.78660 0.14
4 5 0 2 o 6605.854 10168.521 0.00 1.78836 0.10
5 0 2 2 o 3566.912 4821.952 180.00 1.78660 0.05
2 7 0 1 o 2461.275 2289.282 180.00 1.77351 0.12
5 1 2 1 o 66393.45 62552.13 180.00 1.77082 4.48
2 7 0 2 o 2470.390 2289.282 180.00 1.77351 0.06
5 1 2 2 o 66554.07 62552.13 180.00 1.77082 2.23
4 3 3 1 o 91929.76 90404.23 180.00 1.76356 6.29
2 1 5 1 o 6140.803 5743.958 0.00 1.76068 0.41
3 3 4 1 o 1833.639 1727.143 180.00 1.76020 0.13
4 3 3 2 o 94212.84 90404.23 180.00 1.76356 3.22
4 5 1 1 o 19033.928 18033.852 180.00 1.75783 1.40
2 1 5 2 o 6163.614 5743.958 0.00 1.76068 0.20
3 3 4 2 o 1866.764 1727.143 180.00 1.76020 0.07
0 3 5 1 o 57234.82 53046.39 0.00 1.75591 2.01
4 5 1 2 o 18471.037 18033.852 180.00 1.75783 0.67
0 3 5 2 o 54559.23 53046.39 0.00 1.75591 0.95
1 5 4 1 o 17327.475 17285.031 180.00 1.75072 1.28
1 5 4 2 o 16773.082 17285.031 180.00 1.75072 0.61
2 7 1 1 o 42457.91 45094.76 0.00 1.74372 3.16
1 7 2 1 o 13.723 14.598 0.00 1.74233 0.00
2 7 1 2 o 41163.48 45094.76 0.00 1.74372 1.51
5 3 1 1 o 672.924 758.156 0.00 1.73840 0.03
1 7 2 2 o 12.449 14.598 0.00 1.74233 0.00
5 3 1 2 o 352.952 758.156 0.00 1.73840 0.00
1 3 5 1 o 5118.550 5389.542 180.00 1.72744 0.32
5 2 2 1 o 10462.658 10806.590 0.00 1.72588 0.68
3 5 3 1 o 7792.595 8126.881 0.00 1.72565 0.62
1 3 5 2 o 5320.293 5389.542 180.00 1.72744 0.17
5 2 2 2 o 9966.532 10806.590 0.00 1.72588 0.32
3 5 3 2 o 7449.911 8126.881 0.00 1.72565 0.29
2 2 5 1 o 122066.56 123937.45 0.00 1.71648 7.79
2 2 5 2 o 117239.85 123937.45 0.00 1.71648 3.69
3 6 2 1 o 13019.087 15008.809 0.00 1.70813 0.86
2 6 3 1 o 11714.545 12208.589 180.00 1.70595 0.78
3 6 2 2 o 13760.938 15008.809 0.00 1.70813 0.46
2 6 3 2 o 12751.898 12208.589 180.00 1.70595 0.43
4 0 4 1 o 305280.41 287486.69 0.00 1.69581 9.80
4 0 4 2 o 290388.78 287486.69 0.00 1.69581 4.60
4 1 4 1 o 18602.131 15882.474 0.00 1.68230 1.26
4 1 4 2 o 17433.697 15882.474 0.00 1.68230 0.58
4 5 2 1 o 3714.781 3720.173 0.00 1.67485 0.28
4 5 2 2 o 3953.227 3720.173 0.00 1.67485 0.15
2 5 4 1 o 103638.49 102438.55 180.00 1.66992 6.63
0 8 0 1 o 255098.41 259136.61 0.00 1.66912 4.86
2 5 4 2 o 99138.67 102438.55 180.00 1.66992 3.13
4 4 3 1 o 103.589 105.437 180.00 1.66485 0.00
0 8 0 2 o 252662.91 259136.61 0.00 1.66912 2.39
2 7 2 1 o 728.572 796.643 0.00 1.66263 0.07
3 4 4 1 o 51274.47 55661.41 180.00 1.66202 3.12
4 4 3 2 o 95.731 105.437 180.00 1.66485 0.00
2 7 2 2 o 764.084 796.643 0.00 1.66263 0.03
5 3 2 1 o 18833.451 19267.145 180.00 1.65802 1.12
3 4 4 2 o 54459.23 55661.41 180.00 1.66202 1.67
5 3 2 2 o 19694.605 19267.145 180.00 1.65802 0.59
2 3 5 1 o 27337.980 31732.061 0.00 1.64968 1.61
2 3 5 2 o 27946.277 31732.061 0.00 1.64968 0.82
4 2 4 1 o 7011.923 6590.632 0.00 1.64362 0.43
5 4 1 1 o 7147.565 6757.592 0.00 1.64363 0.42
4 2 4 2 o 6864.196 6590.632 0.00 1.64362 0.21
5 4 1 2 o 7008.973 6757.592 0.00 1.64363 0.20
0 7 3 1 o 117994.73 116802.12 180.00 1.63648 3.92
5 1 3 1 o 54053.32 52138.23 180.00 1.63590 3.30
1 4 5 1 o 301.549 292.287 0.00 1.63436 0.01
4 6 0 1 o 1645.465 1578.046 180.00 1.63437 0.05
0 7 3 2 o 119250.53 116802.12 180.00 1.63648 1.98
5 1 3 2 o 55449.35 52138.23 180.00 1.63590 1.69
1 4 5 2 o 326.459 292.287 0.00 1.63436 0.01
4 6 0 2 o 1824.123 1578.046 180.00 1.63437 0.03
3 1 5 1 o 14105.637 11934.589 0.00 1.62979 0.86
0 6 4 1 o 8326.926 7466.658 180.00 1.62828 0.27
3 1 5 2 o 13084.054 11934.589 0.00 1.62979 0.39
0 6 4 2 o 8391.415 7466.658 180.00 1.62828 0.14
1 8 1 1 o 32310.471 29508.494 0.00 1.62077 2.31
1 8 1 2 o 30439.580 29508.494 0.00 1.62077 1.07
3 7 1 1 o 57870.14 55168.30 0.00 1.61631 3.77
1 7 3 1 o 10778.650 10626.745 0.00 1.61336 0.67
3 7 1 2 o 58371.03 55168.30 0.00 1.61631 1.89
4 6 1 1 o 4474.720 4302.162 0.00 1.61097 0.28
1 7 3 2 o 10190.817 10626.745 0.00 1.61336 0.31
4 6 1 2 o 4421.790 4302.162 0.00 1.61097 0.14
6 0 0 1 o 74942.81 73843.73 180.00 1.60532 0.97
1 6 4 1 o 30763.346 30434.201 0.00 1.60550 1.85
6 0 0 2 o 71796.09 73843.73 180.00 1.60532 0.45
1 6 4 2 o 29528.359 30434.201 0.00 1.60550 0.88
5 2 3 1 o 50113.44 51294.83 180.00 1.60027 2.54
5 2 3 2 o 47616.07 51294.83 180.00 1.60027 1.18
3 2 5 1 o 726.375 792.129 180.00 1.59454 0.08
6 1 0 1 o 94489.16 98643.36 0.00 1.59385 2.66
0 0 6 1 o 29270.959 31726.684 180.00 1.59241 0.43
3 2 5 2 o 636.622 792.129 180.00 1.59454 0.04
6 1 0 2 o 89520.64 98643.36 0.00 1.59385 1.24
0 0 6 2 o 25285.928 31726.684 180.00 1.59241 0.18
3 6 3 1 o 2291.282 2356.255 0.00 1.58609 0.08
4 3 4 1 o 6888.102 6546.557 0.00 1.58469 0.43
3 6 3 2 o 2224.774 2356.255 0.00 1.58609 0.04
4 3 4 2 o 4878.538 6546.557 0.00 1.58469 0.15
2 8 0 1 o 1878.598 2254.202 180.00 1.57708 0.02
0 8 2 1 o 15087.220 16923.689 0.00 1.57571 0.37
5 4 2 1 o 33676.441 37786.25 0.00 1.57519 1.81
2 8 0 2 o 2202.390 2254.202 180.00 1.57708 0.02
6 1 1 1 o 3186.791 3362.230 0.00 1.57212 0.14
0 8 2 2 o 15899.874 16923.689 0.00 1.57571 0.20
5 4 2 2 o 34904.750 37786.25 0.00 1.57519 0.94
1 0 6 1 o 3695.977 3997.100 180.00 1.57109 0.11
6 1 1 2 o 3223.958 3362.230 0.00 1.57212 0.07
2 4 5 1 o 23842.143 25362.225 180.00 1.56804 1.29
1 0 6 2 o 3710.861 3997.100 180.00 1.57109 0.05
2 4 5 2 o 24851.777 25362.225 180.00 1.56804 0.67
6 2 0 1 o 21414.211 21661.361 180.00 1.56084 0.56
1 1 6 1 o 24716.262 24759.764 180.00 1.56032 1.24
4 5 3 1 o 33911.242 33336.578 180.00 1.55934 1.86
6 2 0 2 o 23649.303 21661.361 180.00 1.56084 0.31
3 5 4 1 o 3525.177 3247.512 0.00 1.55701 0.19
1 1 6 2 o 27254.088 24759.764 180.00 1.56032 0.70
2 8 1 1 o 47033.10 42508.01 180.00 1.55603 2.88
4 5 3 2 o 36641.11 33336.578 180.00 1.55934 1.02
1 8 2 1 o 33562.563 31079.738 0.00 1.55504 2.02
0 5 5 1 o 950.941 919.981 180.00 1.55404 0.02
3 5 4 2 o 3342.719 3247.512 0.00 1.55701 0.09
2 8 1 2 o 46177.87 42508.01 180.00 1.55603 1.40
1 8 2 2 o 33568.930 31079.738 0.00 1.55504 1.00
3 7 2 1 o 41.928 37.831 0.00 1.55110 0.00
0 5 5 2 o 881.250 919.981 180.00 1.55404 0.01
2 7 3 1 o 19478.541 22239.863 0.00 1.54946 1.13
0 2 6 1 o 10735.327 12266.386 0.00 1.54896 0.25
3 7 2 2 o 30.831 37.831 0.00 1.55110 0.00
4 6 2 1 o 17612.484 20489.471 0.00 1.54638 0.99
5 3 3 1 o 3376.449 3974.147 0.00 1.54573 0.21
2 7 3 2 o 19335.918 22239.863 0.00 1.54946 0.56
0 2 6 2 o 10765.645 12266.386 0.00 1.54896 0.13
4 6 2 2 o 18857.318 20489.471 0.00 1.54638 0.53
2 6 4 1 o 28805.582 31108.883 180.00 1.54250 1.60
5 3 3 2 o 3763.970 3974.147 0.00 1.54573 0.11
5 5 1 1 o 2710.211 2861.146 180.00 1.54186 0.18
3 3 5 1 o 28822.938 29542.809 0.00 1.54057 1.38
6 2 1 1 o 55182.02 56719.51 0.00 1.54042 2.77
2 6 4 2 o 28312.281 31108.883 180.00 1.54250 0.78
5 5 1 2 o 2644.866 2861.146 180.00 1.54186 0.09
3 3 5 2 o 29661.674 29542.809 0.00 1.54057 0.71
6 2 1 2 o 57465.55 56719.51 0.00 1.54042 1.45
1 5 5 1 o 22085.020 22756.037 180.00 1.53420 1.21
1 5 5 2 o 22364.414 22756.037 180.00 1.53420 0.61
1 2 6 1 o 33776.898 34298.480 0.00 1.52931 1.65
1 2 6 2 o 32736.137 34298.480 0.00 1.52931 0.79
6 0 2 1 o 45977.15 51386.56 180.00 1.52170 1.14
6 0 2 2 o 49974.15 51386.56 180.00 1.52170 0.63
6 1 2 1 o 4.473 4.949 0.00 1.51192 0.00
2 0 6 1 o 26470.113 27213.133 180.00 1.51191 0.70
4 4 4 1 o 37202.26 38219.00 180.00 1.51191 2.00
6 3 0 1 o 35591.48 37384.55 0.00 1.51011 0.94
6 1 2 2 o 3.212 4.949 0.00 1.51192 0.00
2 0 6 2 o 24550.828 27213.133 180.00 1.51191 0.32
4 4 4 2 o 34538.855 38219.00 180.00 1.51191 0.91
6 3 0 2 o 36299.26 37384.55 0.00 1.51011 0.48
2 1 6 1 o 19208.053 18315.346 0.00 1.50231 0.89
5 0 4 1 o 2597.770 2738.154 0.00 1.49950 0.06
2 1 6 2 o 17745.383 18315.346 0.00 1.50231 0.40
2 8 2 1 o 45797.14 48466.69 180.00 1.49759 2.72
5 0 4 2 o 2601.012 2738.154 0.00 1.49950 0.03
4 7 0 1 o 2271.388 2315.139 180.00 1.49524 0.08
2 8 2 2 o 48513.72 48466.69 180.00 1.49759 1.45
6 3 1 1 o 70982.00 74167.71 0.00 1.49159 3.35
4 7 0 2 o 2186.745 2315.139 180.00 1.49524 0.04
5 1 4 1 o 7172.086 7595.312 180.00 1.49013 0.32
6 3 1 2 o 70065.39 74167.71 0.00 1.49159 1.64
4 1 5 1 o 5821.237 5964.323 0.00 1.48753 0.26
5 1 4 2 o 7679.729 7595.312 180.00 1.49013 0.17
5 5 2 1 o 87162.77 93418.17 0.00 1.48495 4.22
4 1 5 2 o 5981.536 5964.323 0.00 1.48753 0.13
6 2 2 1 o 17113.342 16851.031 180.00 1.48366 0.77
1 3 6 1 o 9178.551 9587.472 180.00 1.48150 0.43
5 5 2 2 o 90141.54 93418.17 0.00 1.48495 2.19
6 2 2 2 o 17449.689 16851.031 180.00 1.48366 0.39
2 5 5 1 o 20714.072 19748.217 0.00 1.47895 1.06
5 4 3 1 o 16150.216 15744.381 0.00 1.47796 0.78
1 3 6 2 o 9829.806 9587.472 180.00 1.48150 0.23
4 7 1 1 o 186168.19 181340.92 180.00 1.47726 9.66
2 5 5 2 o 19703.174 19748.217 0.00 1.47895 0.50
2 2 6 1 o 5245.016 5139.895 180.00 1.47457 0.24
5 4 3 2 o 16182.044 15744.381 0.00 1.47796 0.39
4 7 1 2 o 190673.13 181340.92 180.00 1.47726 4.94
3 4 5 1 o 819.447 771.405 180.00 1.47345 0.04
1 7 4 1 o 129.504 119.381 0.00 1.47304 0.01
2 2 6 2 o 6259.046 5139.895 180.00 1.47457 0.15
3 4 5 2 o 913.442 771.405 180.00 1.47345 0.02
1 7 4 2 o 149.613 119.381 0.00 1.47304 0.00
0 9 1 1 o 54254.19 49693.07 180.00 1.46609 1.50
3 8 1 1 o 6872.899 5705.602 180.00 1.46347 0.35
5 2 4 1 o 15590.302 13146.480 0.00 1.46305 0.72
0 9 1 2 o 56400.80 49693.07 180.00 1.46609 0.78
1 8 3 1 o 27727.803 26430.406 0.00 1.46128 1.41
4 2 5 1 o 6751.339 6671.333 0.00 1.46059 0.29
3 8 1 2 o 5838.554 5705.602 180.00 1.46347 0.14
5 2 4 2 o 13618.267 13146.480 0.00 1.46305 0.30
3 7 3 1 o 87787.38 88971.96 0.00 1.45801 4.21
1 8 3 2 o 25894.709 26430.406 0.00 1.46128 0.64
4 2 5 2 o 6624.905 6671.333 0.00 1.46059 0.14
3 7 3 2 o 93414.74 88971.96 0.00 1.45801 2.26
4 6 3 1 o 714.225 682.478 180.00 1.45408 0.03
3 6 4 1 o 1872.006 1440.475 180.00 1.45220 0.09
4 6 3 2 o 1055.074 682.478 180.00 1.45408 0.03
1 9 1 1 o 4760.440 2882.407 180.00 1.44939 0.26
3 6 4 2 o 2627.700 1440.475 180.00 1.45220 0.07
6 4 0 1 o 6532.393 3584.911 180.00 1.44673 0.17
1 9 1 2 o 6249.594 2882.407 180.00 1.44939 0.18
6 4 0 2 o 6510.735 3584.911 180.00 1.44673 0.09
6 3 2 1 o 677.401 590.919 180.00 1.43988 0.05
5 6 1 1 o 38929.14 35637.04 0.00 1.43988 1.97
0 4 6 1 o 120015.90 117284.09 0.00 1.43726 2.90
6 3 2 2 o 643.717 590.919 180.00 1.43988 0.02
5 6 1 2 o 37651.41 35637.04 0.00 1.43988 0.94
0 4 6 2 o 122809.95 117284.09 0.00 1.43726 1.48
1 6 5 1 o 15200.287 14242.290 0.00 1.43364 0.83
2 3 6 1 o 2579.889 2399.553 0.00 1.43157 0.10
4 5 4 1 o 17084.855 15585.179 180.00 1.43158 0.84
6 4 1 1 o 14910.496 12776.996 180.00 1.43043 0.69
1 6 5 2 o 17427.252 14242.290 0.00 1.43364 0.47
2 3 6 2 o 2488.015 2399.553 0.00 1.43157 0.05
4 5 4 2 o 16331.435 15585.179 180.00 1.43158 0.40
6 4 1 2 o 12605.693 12776.996 180.00 1.43043 0.28
4 7 2 1 o 3793.233 3878.986 0.00 1.42698 0.23
3 0 6 1 o 138301.23 135651.13 180.00 1.42658 2.94
6 1 3 1 o 40228.42 35550.01 0.00 1.42532 1.77
2 7 4 1 o 222.983 207.743 180.00 1.42393 0.02
4 7 2 2 o 3841.992 3878.986 0.00 1.42698 0.12
3 0 6 2 o 134296.17 135651.13 180.00 1.42658 1.41
6 1 3 2 o 34428.996 35550.01 0.00 1.42532 0.73
1 4 6 1 o 94955.70 96371.18 0.00 1.42152 4.16
5 3 4 1 o 255.059 250.316 180.00 1.42103 0.01
2 7 4 2 o 219.586 207.743 180.00 1.42393 0.01
4 3 5 1 o 136771.34 134894.67 180.00 1.41876 5.85
3 1 6 1 o 15944.876 15369.081 0.00 1.41851 0.69
1 4 6 2 o 104848.09 96371.18 0.00 1.42152 2.33
2 9 0 1 o 102970.10 93464.55 180.00 1.41790 2.63
5 3 4 2 o 273.330 250.316 180.00 1.42103 0.00
4 3 5 2 o 143539.42 134894.67 180.00 1.41876 3.08
3 1 6 2 o 16992.334 15369.081 0.00 1.41851 0.37
3 8 2 1 o 8818.407 7536.753 0.00 1.41454 0.42
2 9 0 2 o 111556.09 93464.55 180.00 1.41790 1.44
2 8 3 1 o 19112.908 15689.625 0.00 1.41330 0.96
3 8 2 2 o 10549.896 7536.753 0.00 1.41454 0.26
2 8 3 2 o 22266.279 15689.625 0.00 1.41330 0.57
5 5 3 1 o 45.652 45.585 180.00 1.40266 0.00
2 9 1 1 o 27337.027 25189.918 0.00 1.40254 1.38
6 2 3 1 o 18627.393 15973.367 180.00 1.40157 0.79
1 9 2 1 o 55074.41 48852.69 0.00 1.40181 2.73
5 5 3 2 o 45.637 45.585 180.00 1.40266 0.00
2 9 1 2 o 27075.348 25189.918 0.00 1.40254 0.68
3 5 5 1 o 12419.641 11386.459 0.00 1.39880 0.50
6 2 3 2 o 19418.088 15973.367 180.00 1.40157 0.41
1 9 2 2 o 56914.41 48852.69 0.00 1.40181 1.42
3 5 5 2 o 15063.640 11386.459 0.00 1.39880 0.32
3 2 6 1 o 10322.901 7469.765 180.00 1.39509 0.45
5 6 2 1 o 157.576 105.825 180.00 1.39320 0.01
3 2 6 2 o 11723.628 7469.765 180.00 1.39509 0.26
5 6 2 2 o 119.753 105.825 180.00 1.39320 0.00
2 6 5 1 o 58411.90 59353.72 180.00 1.38825 2.54
2 6 5 2 o 64457.23 59353.72 180.00 1.38825 1.42
6 4 2 1 o 9616.697 8641.512 180.00 1.38463 0.37
6 4 2 2 o 11841.075 8641.512 180.00 1.38463 0.24
2 4 6 1 o 1770.044 1543.727 0.00 1.37724 0.12
6 5 0 1 o 108511.95 105727.02 180.00 1.37588 2.35
4 8 0 1 o 1804.765 1282.141 0.00 1.37179 0.06
2 4 6 2 o 1831.435 1543.727 0.00 1.37724 0.06
6 5 0 2 o 115312.13 105727.02 180.00 1.37588 1.25
4 8 0 2 o 1902.310 1282.141 0.00 1.37179 0.03
0 8 4 1 o 422.771 224.484 0.00 1.36818 0.02
5 4 4 1 o 20843.715 15249.440 0.00 1.36784 0.86
4 4 5 1 o 2823.602 1950.940 180.00 1.36582 0.12
0 8 4 2 o 414.580 224.484 0.00 1.36818 0.01
6 3 3 1 o 10397.257 7919.647 0.00 1.36449 0.44
5 4 4 2 o 19666.596 15249.440 0.00 1.36784 0.40
4 4 5 2 o 2137.616 1950.940 180.00 1.36582 0.04
6 5 1 1 o 39807.07 38442.34 0.00 1.36183 1.67
6 3 3 2 o 8427.701 7919.647 0.00 1.36449 0.17
2 9 2 1 o 6096.586 5816.295 180.00 1.35929 0.29
3 3 6 1 o 3793.683 3808.316 0.00 1.35851 0.15
6 5 1 2 o 38405.00 38442.34 0.00 1.36183 0.79
0 1 7 1 o 833.031 756.695 180.00 1.35785 0.02
4 8 1 1 o 6209.205 5590.623 180.00 1.35786 0.29
2 9 2 2 o 6457.212 5816.295 180.00 1.35929 0.16
3 3 6 2 o 4039.807 3808.316 0.00 1.35851 0.08
7 1 1 1 o 854.623 840.186 180.00 1.35491 0.02
0 1 7 2 o 766.353 756.695 180.00 1.35785 0.01
1 8 4 1 o 18752.725 18479.502 0.00 1.35458 0.80
4 8 1 2 o 5672.364 5590.623 180.00 1.35786 0.13
1 5 6 1 o 36615.75 35954.45 0.00 1.35414 1.47
4 7 3 1 o 126.624 121.684 0.00 1.35349 0.01
3 7 4 1 o 207.914 202.601 0.00 1.35197 0.01
7 1 1 2 o 836.380 840.186 180.00 1.35491 0.01
1 8 4 2 o 18071.848 18479.502 0.00 1.35458 0.38
1 5 6 2 o 34797.313 35954.45 0.00 1.35414 0.69
4 7 3 2 o 118.839 121.684 0.00 1.35349 0.00
0 7 5 1 o 160853.42 162914.67 180.00 1.35003 3.37
5 1 5 1 o 7716.460 7676.754 180.00 1.34970 0.28
4 6 4 1 o 65437.22 65467.17 0.00 1.34884 2.56
3 7 4 2 o 202.749 202.601 0.00 1.35197 0.01
0 7 5 2 o 161915.36 162914.67 180.00 1.35003 1.69
5 1 5 2 o 7778.320 7676.754 180.00 1.34970 0.14
4 6 4 2 o 66634.54 65467.17 0.00 1.34884 1.30
0 9 3 1 o 9118.083 8933.865 180.00 1.34489 0.20
1 1 7 1 o 68487.62 66744.13 180.00 1.34455 2.57
3 8 3 1 o 22131.736 21329.279 180.00 1.34287 1.00
5 7 1 1 o 6447.372 6153.563 180.00 1.34202 0.24
0 9 3 2 o 9162.431 8933.865 180.00 1.34489 0.10
1 1 7 2 o 68922.88 66744.13 180.00 1.34455 1.29
3 8 3 2 o 21821.377 21329.279 180.00 1.34287 0.49
5 7 1 2 o 6495.604 6153.563 180.00 1.34202 0.12
1 7 5 1 o 36195.18 37470.88 180.00 1.33696 1.50
0 10 0 1 o 15978.657 11610.613 180.00 1.33529 0.18
7 2 1 1 o 1209.908 1011.318 0.00 1.33446 0.04
1 7 5 2 o 39658.25 37470.88 180.00 1.33696 0.83
3 9 1 1 o 526.406 481.902 0.00 1.33363 0.03
6 0 4 1 o 670.705 567.612 0.00 1.33238 0.02
1 9 3 1 o 18909.127 16389.910 180.00 1.33196 0.85
0 10 0 2 o 13251.062 11610.613 180.00 1.33529 0.07
7 2 1 2 o 1177.143 1011.318 0.00 1.33446 0.02
3 9 1 2 o 634.396 481.902 0.00 1.33363 0.02
5 2 5 1 o 2952.419 2759.104 0.00 1.32948 0.10
6 0 4 2 o 611.641 567.612 0.00 1.33238 0.01
1 9 3 2 o 16868.568 16389.910 180.00 1.33196 0.37
4 0 6 1 o 45238.29 45942.92 0.00 1.32824 0.79
5 2 5 2 o 2620.205 2759.104 0.00 1.32948 0.04
6 1 4 1 o 25608.748 26379.076 180.00 1.32579 0.87
4 0 6 2 o 45426.54 45942.92 0.00 1.32824 0.40
1 2 7 1 o 22206.141 22100.527 180.00 1.32456 0.70
5 6 3 1 o 18854.688 18768.088 0.00 1.32457 0.66
6 1 4 2 o 25508.420 26379.076 180.00 1.32579 0.43
7 0 2 1 o 98987.95 101593.38 180.00 1.32224 1.76
6 5 2 1 o 161.757 162.756 180.00 1.32214 0.00
4 1 6 1 o 111.163 111.249 0.00 1.32172 0.00
1 2 7 2 o 22369.410 22100.527 180.00 1.32456 0.35
5 6 3 2 o 18999.070 18768.088 0.00 1.32457 0.33
3 6 5 1 o 90.957 87.373 0.00 1.32132 0.01
7 0 2 2 o 93505.35 101593.38 180.00 1.32224 0.81
6 5 2 2 o 159.147 162.756 180.00 1.32214 0.00
4 1 6 2 o 108.523 111.249 0.00 1.32172 0.00
4 8 2 1 o 2083.235 2189.709 0.00 1.31851 0.05
3 6 5 2 o 58.514 87.373 0.00 1.32132 0.00
6 4 3 1 o 4808.136 5294.206 0.00 1.31720 0.19
2 8 4 1 o 6538.414 6841.341 180.00 1.31610 0.21
7 1 2 1 o 7221.847 7543.637 0.00 1.31580 0.28
2 5 6 1 o 28403.551 29456.088 180.00 1.31569 1.06
4 8 2 2 o 2127.519 2189.709 0.00 1.31851 0.03
6 4 3 2 o 4872.195 5294.206 0.00 1.31720 0.09
2 8 4 2 o 6481.421 6841.341 180.00 1.31610 0.10
7 1 2 2 o 6936.201 7543.637 0.00 1.31580 0.13
2 5 6 2 o 27149.605 29456.088 180.00 1.31569 0.50
3 4 6 1 o 3952.119 4422.448 0.00 1.31182 0.15
1 10 1 1 o 397.969 422.805 0.00 1.31015 0.01
3 4 6 2 o 2422.962 4422.448 0.00 1.31182 0.04
5 5 4 1 o 5186.309 6336.597 0.00 1.30749 0.17
2 1 7 1 o 1411.775 1736.625 0.00 1.30690 0.05
6 2 4 1 o 15280.395 19202.111 180.00 1.30661 0.51
1 10 1 2 o 380.839 422.805 0.00 1.31015 0.00
4 5 5 1 o 13004.712 16567.109 180.00 1.30573 0.43
0 3 7 1 o 3942.051 5230.372 180.00 1.30495 0.07
5 5 4 2 o 4879.689 6336.597 0.00 1.30749 0.08
5 7 2 1 o 753.064 1067.209 180.00 1.30398 0.03
2 1 7 2 o 1334.570 1736.625 0.00 1.30690 0.02
6 2 4 2 o 14860.678 19202.111 180.00 1.30661 0.25
4 2 6 1 o 305.424 355.088 0.00 1.30271 0.01
4 5 5 2 o 14033.977 16567.109 180.00 1.30573 0.24
7 3 1 1 o 18592.252 21582.504 0.00 1.30234 0.57
6 6 0 1 o 61966.93 72563.23 180.00 1.30195 1.17
0 3 7 2 o 4472.155 5230.372 180.00 1.30495 0.04
5 7 2 2 o 753.776 1067.209 180.00 1.30398 0.02
2 7 5 1 o 1348.896 1768.580 0.00 1.29992 0.05
4 2 6 2 o 292.777 355.088 0.00 1.30271 0.00
7 3 1 2 o 18282.873 21582.504 0.00 1.30234 0.28
6 6 0 2 o 61332.66 72563.23 180.00 1.30195 0.57
5 3 5 1 o 25232.920 29775.678 180.00 1.29771 0.91
7 2 2 1 o 160.644 182.458 0.00 1.29704 0.01
2 7 5 2 o 1565.052 1768.580 0.00 1.29992 0.03
3 9 2 1 o 10261.094 11743.223 180.00 1.29628 0.36
2 9 3 1 o 10393.733 13874.848 0.00 1.29533 0.37
0 6 6 1 o 40.619 42.578 180.00 1.29503 0.00
5 3 5 2 o 22282.635 29775.678 180.00 1.29771 0.39
7 2 2 2 o 153.893 182.458 0.00 1.29704 0.00
1 3 7 1 o 1214.748 1439.457 0.00 1.29313 0.04
3 9 2 2 o 10115.873 11743.223 180.00 1.29628 0.18
2 9 3 2 o 10713.508 13874.848 0.00 1.29533 0.19
0 6 6 2 o 40.967 42.578 180.00 1.29503 0.00
6 6 1 1 o 21929.566 26807.652 180.00 1.29003 0.78
1 3 7 2 o 1156.223 1439.457 0.00 1.29313 0.02
2 2 7 1 o 80.042 217.545 0.00 1.28851 0.01
6 6 1 2 o 20345.854 26807.652 180.00 1.29003 0.35
2 10 0 1 o 19872.863 26175.947 180.00 1.28675 0.36
0 10 2 1 o 3307.596 4999.415 0.00 1.28600 0.05
2 2 7 2 o 25.705 217.545 0.00 1.28851 0.00
1 6 6 1 o 669.406 1453.746 0.00 1.28348 0.02
2 10 0 2 o 14207.028 26175.947 180.00 1.28675 0.10
0 10 2 2 o 1593.186 4999.415 0.00 1.28600 0.00
1 6 6 2 o 200.061 1453.746 0.00 1.28348 0.00
6 3 4 1 o 2986.330 3981.328 180.00 1.27641 0.07
2 10 1 1 o 10559.821 10815.645 180.00 1.27524 0.44
1 10 2 1 o 18034.818 17648.848 180.00 1.27469 0.75
6 3 4 2 o 3708.485 3981.328 180.00 1.27641 0.05
4 3 6 1 o 8.603 13.922 180.00 1.27278 0.00
2 10 1 2 o 10588.732 10815.645 180.00 1.27524 0.22
1 10 2 2 o 17775.541 17648.848 180.00 1.27469 0.37
4 3 6 2 o 12.278 13.922 180.00 1.27278 0.00
7 3 2 1 o 1063.379 1625.297 0.00 1.26749 0.04
4 7 4 1 o 530.873 920.909 180.00 1.26740 0.03
7 3 2 2 o 1450.383 1625.297 0.00 1.26749 0.03
4 7 4 2 o 798.563 920.909 180.00 1.26740 0.02
6 5 3 1 o 10538.007 11268.667 0.00 1.26305 0.35
4 9 0 1 o 7296.780 7918.800 180.00 1.26314 0.14
7 4 1 1 o 1841.562 2143.960 180.00 1.26103 0.07
6 5 3 2 o 10950.785 11268.667 0.00 1.26305 0.19
4 9 0 2 o 7581.507 7918.800 180.00 1.26314 0.07
4 8 3 1 o 1864.421 1906.839 0.00 1.25989 0.07
2 3 7 1 o 2338.553 2303.158 0.00 1.25953 0.08
3 8 4 1 o 2010.925 2210.172 180.00 1.25866 0.08
3 5 6 1 o 9424.367 11094.437 180.00 1.25831 0.30
7 4 1 2 o 1761.283 2143.960 180.00 1.26103 0.03
7 1 3 1 o 10047.851 11816.011 180.00 1.25753 0.36
5 4 5 1 o 1627.248 1882.445 180.00 1.25683 0.06
4 8 3 2 o 1651.367 1906.839 0.00 1.25989 0.03
2 3 7 2 o 1997.269 2303.158 0.00 1.25953 0.03
6 6 2 1 o 16118.018 18651.750 180.00 1.25614 0.53
3 8 4 2 o 1774.442 2210.172 180.00 1.25866 0.03
3 5 6 2 o 8786.622 11094.437 180.00 1.25831 0.13
7 1 3 2 o 8903.812 11816.011 180.00 1.25753 0.15
5 4 5 2 o 1479.077 1882.445 180.00 1.25683 0.03
6 6 2 2 o 15628.820 18651.750 180.00 1.25614 0.25
1 4 7 1 o 10062.946 12369.889 0.00 1.25267 0.34
4 9 1 1 o 5761.257 7358.132 180.00 1.25225 0.20
3 1 7 1 o 689.013 811.432 180.00 1.25060 0.03
2 6 6 1 o 5826.303 6653.995 180.00 1.25061 0.19
5 8 1 1 o 15212.939 17390.838 180.00 1.25062 0.53
1 4 7 2 o 10570.593 12369.889 0.00 1.25267 0.18
1 9 4 1 o 2312.126 2641.522 0.00 1.24967 0.07
4 9 1 2 o 6610.365 7358.132 180.00 1.25225 0.12
3 1 7 2 o 692.408 811.432 180.00 1.25060 0.01
2 6 6 2 o 5849.783 6653.995 180.00 1.25061 0.10
5 8 1 2 o 15279.014 17390.838 180.00 1.25062 0.27
5 7 3 1 o 32191.982 37622.65 180.00 1.24720 1.14
1 9 4 2 o 2231.594 2641.522 0.00 1.24967 0.03
1 8 5 1 o 590.029 685.909 180.00 1.24652 0.01
3 7 5 1 o 2518.029 2845.122 0.00 1.24448 0.09
5 7 3 2 o 33591.070 37622.65 180.00 1.24720 0.60
5 6 4 1 o 1924.307 2133.810 0.00 1.24356 0.06
1 8 5 2 o 623.820 685.909 180.00 1.24652 0.01
2 10 2 1 o 21925.785 25859.811 180.00 1.24247 0.85
4 6 5 1 o 3486.933 3950.516 180.00 1.24204 0.12
3 7 5 2 o 2730.014 2845.122 0.00 1.24448 0.05
7 2 3 1 o 5312.284 5207.790 0.00 1.24112 0.18
5 6 4 2 o 2199.711 2133.810 0.00 1.24356 0.03
3 9 3 1 o 285.819 274.027 180.00 1.24045 0.02
2 10 2 2 o 22031.137 25859.811 180.00 1.24247 0.42
4 6 5 2 o 3722.348 3950.516 180.00 1.24204 0.06
7 2 3 2 o 5664.536 5207.790 0.00 1.24112 0.10
6 4 4 1 o 53381.89 48895.13 180.00 1.23745 1.83
3 9 3 2 o 315.242 274.027 180.00 1.24045 0.01
3 2 7 1 o 36472.79 36154.32 0.00 1.23447 1.27
6 4 4 2 o 49274.52 48895.13 180.00 1.23745 0.83
4 4 6 1 o 1040.625 1045.874 180.00 1.23414 0.02
3 2 7 2 o 32989.477 36154.32 0.00 1.23447 0.56
4 4 6 2 o 989.661 1045.874 180.00 1.23414 0.01
7 4 2 1 o 32784.570 33718.617 0.00 1.22932 1.06
6 7 0 1 o 1689.551 1805.274 180.00 1.22826 0.04
5 0 6 1 o 47200.39 47552.98 0.00 1.22736 0.75
7 4 2 2 o 31260.074 33718.617 0.00 1.22932 0.50
6 7 0 2 o 1865.162 1805.274 180.00 1.22826 0.02
5 0 6 2 o 50344.46 47552.98 0.00 1.22736 0.40
6 1 5 1 o 27938.990 26337.521 0.00 1.22397 0.90
3 10 1 1 o 6260.882 5868.842 180.00 1.22278 0.27
5 1 6 1 o 30968.354 30409.381 0.00 1.22221 0.99
2 4 7 1 o 390.066 385.116 0.00 1.22205 0.01
1 10 3 1 o 13438.893 13138.044 0.00 1.22150 0.56
6 1 5 2 o 28210.703 26337.521 0.00 1.22397 0.45
4 9 2 1 o 446.285 424.673 180.00 1.22118 0.02
5 8 2 1 o 42.227 39.947 180.00 1.21966 0.00
3 10 1 2 o 6456.667 5868.842 180.00 1.22278 0.14
5 1 6 2 o 32013.732 30409.381 0.00 1.22221 0.52
2 9 4 1 o 58670.25 55651.04 0.00 1.21926 2.11
2 4 7 2 o 405.496 385.116 0.00 1.22205 0.01
1 10 3 2 o 13730.364 13138.044 0.00 1.22150 0.29
6 7 1 1 o 1743.783 1671.109 0.00 1.21824 0.06
4 9 2 2 o 446.108 424.673 180.00 1.22118 0.01
5 8 2 2 o 41.155 39.947 180.00 1.21966 0.00
2 8 5 1 o 40813.59 39677.93 0.00 1.21633 1.40
2 9 4 2 o 57135.21 55651.04 0.00 1.21926 1.02
0 5 7 1 o 2400.022 2435.026 180.00 1.21538 0.04
7 3 3 1 o 87624.27 89980.38 0.00 1.21516 2.80
6 7 1 2 o 1635.305 1671.109 0.00 1.21824 0.03
7 5 1 1 o 128.990 128.455 0.00 1.21328 0.00
2 8 5 2 o 41119.14 39677.93 0.00 1.21633 0.70
1 7 6 1 o 91.802 90.751 180.00 1.21272 0.00
0 5 7 2 o 2446.036 2435.026 180.00 1.21538 0.02
7 3 3 2 o 90630.95 89980.38 0.00 1.21516 1.46
7 5 1 2 o 128.819 128.455 0.00 1.21328 0.00
1 7 6 2 o 93.581 90.751 180.00 1.21272 0.00
5 5 5 1 o 19549.791 19178.518 180.00 1.20953 0.67
3 3 7 1 o 124444.88 129754.58 0.00 1.20891 3.92
6 2 5 1 o 48993.96 51453.81 180.00 1.20883 1.50
5 2 6 1 o 11407.403 11350.255 0.00 1.20713 0.36
5 5 5 2 o 19292.256 19178.518 180.00 1.20953 0.33
3 3 7 2 o 129155.38 129754.58 0.00 1.20891 2.04
6 2 5 2 o 51136.30 51453.81 180.00 1.20883 0.79
1 5 7 1 o 6650.996 6696.360 180.00 1.20582 0.20
6 6 3 1 o 8616.018 8711.596 0.00 1.20514 0.28
5 2 6 2 o 11257.309 11350.255 0.00 1.20713 0.18
8 0 0 1 o 116895.83 118801.04 0.00 1.20399 0.88
0 11 1 1 o 111195.70 111828.23 180.00 1.20422 2.09
1 5 7 2 o 6574.866 6696.360 180.00 1.20582 0.10
6 6 3 2 o 9003.811 8711.596 0.00 1.20514 0.15
8 0 0 2 o 118244.09 118801.04 0.00 1.20399 0.45
0 11 1 2 o 111484.66 111828.23 180.00 1.20422 1.05
3 6 6 1 o 51052.07 51294.09 180.00 1.20101 1.62
8 1 0 1 o 25453.910 23191.104 0.00 1.19913 0.42
3 6 6 2 o 55603.76 51294.09 180.00 1.20101 0.90
8 1 0 2 o 29645.244 23191.104 0.00 1.19913 0.25
1 11 1 1 o 16848.102 15076.131 180.00 1.19492 0.64
0 0 8 1 o 53632.88 49862.65 0.00 1.19431 0.43
3 10 2 1 o 60843.32 56978.86 180.00 1.19380 2.15
2 10 3 1 o 3737.680 3623.180 0.00 1.19305 0.14
7 0 4 1 o 36475.44 36187.98 180.00 1.19231 0.55
6 5 4 1 o 35633.73 35466.89 0.00 1.19223 1.06
1 11 1 2 o 14905.430 15076.131 180.00 1.19492 0.27
0 0 8 2 o 48539.60 49862.65 0.00 1.19431 0.19
3 10 2 2 o 56745.54 56978.86 180.00 1.19380 0.98
2 10 3 2 o 3627.711 3623.180 0.00 1.19305 0.07
8 1 1 1 o 851.397 849.428 180.00 1.18979 0.03
6 7 2 1 o 2060.774 2094.832 0.00 1.18957 0.09
7 0 4 2 o 34969.660 36187.98 180.00 1.19231 0.26
4 8 4 1 o 69130.77 70027.48 0.00 1.18957 2.36
6 5 4 2 o 34058.906 35466.89 0.00 1.19223 0.50
4 5 6 1 o 611.738 633.416 180.00 1.18927 0.01
7 1 4 1 o 177.882 167.548 0.00 1.18758 0.00
8 1 1 2 o 866.469 849.428 180.00 1.18979 0.01
6 7 2 2 o 2103.531 2094.832 0.00 1.18957 0.05
4 8 4 2 o 70243.51 70027.48 0.00 1.18957 1.20
4 5 6 2 o 640.541 633.416 180.00 1.18927 0.01
1 0 8 1 o 788.299 608.034 0.00 1.18523 0.01
7 5 2 1 o 5678.792 4420.818 180.00 1.18495 0.19
8 2 0 1 o 5179.784 4071.028 0.00 1.18488 0.08
6 3 5 1 o 993.219 746.697 180.00 1.18480 0.03
2 7 6 1 o 600.528 436.625 0.00 1.18487 0.02
7 1 4 2 o 215.305 167.548 0.00 1.18758 0.00
5 3 6 1 o 9418.252 7022.437 0.00 1.18320 0.30
4 1 7 1 o 1914.073 1543.758 180.00 1.18276 0.06
1 0 8 2 o 862.123 608.034 0.00 1.18523 0.01
7 5 2 2 o 6088.296 4420.818 180.00 1.18495 0.10
8 2 0 2 o 5490.933 4071.028 0.00 1.18488 0.04
6 3 5 2 o 1048.399 746.697 180.00 1.18480 0.02
2 7 6 2 o 645.761 436.625 0.00 1.18487 0.01
7 4 3 1 o 1397.473 1004.067 180.00 1.18140 0.05
1 1 8 1 o 15812.879 13476.869 180.00 1.18059 0.49
5 3 6 2 o 8237.506 7022.437 0.00 1.18320 0.13
4 1 7 2 o 1930.805 1543.758 180.00 1.18276 0.03
5 7 4 1 o 10.489 6.475 0.00 1.17887 0.00
7 4 3 2 o 1360.158 1004.067 180.00 1.18140 0.02
2 5 7 1 o 1745.686 1320.535 0.00 1.17844 0.06
1 1 8 2 o 15791.220 13476.869 180.00 1.18059 0.24
4 7 5 1 o 29119.873 25254.141 0.00 1.17758 0.95
2 11 0 1 o 19787.582 17894.789 0.00 1.17709 0.37
8 2 1 1 o 13121.247 12193.766 0.00 1.17587 0.39
5 7 4 2 o 7.297 6.475 0.00 1.17887 0.00
0 2 8 1 o 253.795 238.908 180.00 1.17565 0.00
3 4 7 1 o 4133.586 3848.834 180.00 1.17565 0.13
2 5 7 2 o 1407.659 1320.535 0.00 1.17844 0.02
4 7 5 2 o 25724.449 25254.141 0.00 1.17758 0.41
4 9 3 1 o 19023.004 19066.988 180.00 1.17417 0.62
2 11 0 2 o 17864.180 17894.789 0.00 1.17709 0.16
7 2 4 1 o 4446.582 4370.599 180.00 1.17374 0.13
8 2 1 2 o 12715.166 12193.766 0.00 1.17587 0.19
3 9 4 1 o 3644.252 3471.603 180.00 1.17317 0.13
0 2 8 2 o 245.201 238.908 180.00 1.17565 0.00
3 4 7 2 o 3969.657 3848.834 180.00 1.17565 0.06
5 8 3 1 o 30198.936 29167.227 180.00 1.17282 0.99
0 9 5 1 o 278.820 276.260 180.00 1.17190 0.00
4 9 3 2 o 19376.420 19066.988 180.00 1.17417 0.32
7 2 4 2 o 4417.488 4370.599 180.00 1.17374 0.07
3 8 5 1 o 1365.893 1329.491 0.00 1.17056 0.05
3 9 4 2 o 3580.962 3471.603 180.00 1.17317 0.06
5 8 3 2 o 30307.869 29167.227 180.00 1.17282 0.49
4 2 7 1 o 113.337 106.260 180.00 1.16908 0.00
0 9 5 2 o 294.293 276.260 180.00 1.17190 0.00
2 11 1 1 o 10348.087 9893.123 0.00 1.16825 0.36
8 0 2 1 o 24498.346 23932.180 0.00 1.16748 0.35
1 11 2 1 o 8327.844 8055.487 180.00 1.16783 0.29
4 10 0 1 o 127013.02 123055.79 0.00 1.16777 2.16
3 8 5 2 o 1372.290 1329.491 0.00 1.17056 0.02
1 2 8 1 o 23574.896 23599.787 0.00 1.16699 0.68
5 9 1 1 o 784.394 807.149 0.00 1.16665 0.04
4 2 7 2 o 104.872 106.260 180.00 1.16908 0.00
0 10 4 1 o 110135.78 111459.05 0.00 1.16554 1.88
2 11 1 2 o 9733.269 9893.123 0.00 1.16825 0.17
8 0 2 2 o 24010.463 23932.180 0.00 1.16748 0.17
1 11 2 2 o 7899.728 8055.487 180.00 1.16783 0.14
4 10 0 2 o 121025.79 123055.79 0.00 1.16777 1.01
1 2 8 2 o 24537.943 23599.787 0.00 1.16699 0.36
5 9 1 2 o 890.545 807.149 0.00 1.16665 0.02
1 9 5 1 o 6077.865 5502.023 180.00 1.16332 0.19
8 1 2 1 o 8.698 3.396 180.00 1.16305 0.00
0 10 4 2 o 126087.56 111459.05 0.00 1.16554 1.11
8 3 0 1 o 13715.002 11369.774 0.00 1.16222 0.23
7 6 1 1 o 869.886 658.260 180.00 1.16167 0.03
1 9 5 2 o 7789.692 5502.023 180.00 1.16332 0.13
8 1 2 2 o 24.539 3.396 180.00 1.16305 0.00
8 3 0 2 o 17806.928 11369.774 0.00 1.16222 0.15
2 0 8 1 o 2888.565 1727.450 0.00 1.15920 0.05
4 10 1 1 o 1521.192 976.781 180.00 1.15914 0.06
7 6 1 2 o 1015.416 658.260 180.00 1.16167 0.02
5 6 5 1 o 1236.843 835.304 180.00 1.15839 0.03
6 8 0 1 o 35742.78 31526.881 180.00 1.15703 0.56
1 10 4 1 o 642.034 559.552 0.00 1.15710 0.02
2 0 8 2 o 1902.768 1727.450 0.00 1.15920 0.02
4 10 1 2 o 1056.555 976.781 180.00 1.15914 0.02
5 6 5 2 o 866.589 835.304 180.00 1.15839 0.01
1 6 7 1 o 11974.917 11798.573 0.00 1.15513 0.32
2 1 8 1 o 14788.125 14658.536 180.00 1.15485 0.41
6 8 0 2 o 33178.129 31526.881 180.00 1.15703 0.25
1 10 4 2 o 586.535 559.552 0.00 1.15710 0.01
8 3 1 1 o 75995.80 72195.59 180.00 1.15372 2.22
6 4 5 1 o 9050.852 8927.790 0.00 1.15344 0.26
1 6 7 2 o 11903.004 11798.573 0.00 1.15513 0.16
0 8 6 1 o 5620.325 5544.324 180.00 1.15217 0.11
2 1 8 2 o 14844.139 14658.536 180.00 1.15485 0.20
5 4 6 1 o 1861.862 1834.250 0.00 1.15197 0.06
7 3 4 1 o 768.233 738.475 0.00 1.15170 0.03
8 3 1 2 o 80049.38 72195.59 180.00 1.15372 1.18
6 4 5 2 o 10142.273 8927.790 0.00 1.15344 0.15
8 2 2 1 o 15839.971 13309.737 0.00 1.15003 0.48
3 10 3 1 o 279.992 258.746 180.00 1.14977 0.00
0 8 6 2 o 6642.045 5544.324 180.00 1.15217 0.06
5 4 6 2 o 2124.237 1834.250 0.00 1.15197 0.03
7 3 4 2 o 855.697 738.475 0.00 1.15170 0.01
6 8 1 1 o 22682.871 20351.725 0.00 1.14864 0.72
4 3 7 1 o 1080.392 908.560 180.00 1.14730 0.03
8 2 2 2 o 15782.854 13309.737 0.00 1.15003 0.24
3 10 3 2 o 281.903 258.746 180.00 1.14977 0.00
6 7 3 1 o 29200.943 24674.271 0.00 1.14599 0.92
6 8 1 2 o 23503.326 20351.725 0.00 1.14864 0.38
1 3 8 1 o 4615.934 4098.335 180.00 1.14532 0.14
4 3 7 2 o 1131.042 908.560 180.00 1.14730 0.02
1 8 6 1 o 1209.604 1020.929 0.00 1.14401 0.04
6 6 4 1 o 662.378 588.129 180.00 1.14316 0.02
6 7 3 2 o 27880.035 24674.271 0.00 1.14599 0.43
2 11 2 1 o 73.094 68.736 0.00 1.14290 0.00
1 3 8 2 o 4583.382 4098.335 180.00 1.14532 0.07
3 7 6 1 o 19.840 16.775 180.00 1.14244 0.00
2 2 8 1 o 256.630 234.801 180.00 1.14211 0.01
7 5 3 1 o 20988.752 18767.607 0.00 1.14186 0.67
5 9 2 1 o 49350.51 45703.66 180.00 1.14140 1.58
1 8 6 2 o 1085.061 1020.929 0.00 1.14401 0.02
4 6 6 1 o 23473.494 22151.551 0.00 1.14055 0.71
6 6 4 2 o 617.460 588.129 180.00 1.14316 0.01
2 11 2 2 o 70.291 68.736 0.00 1.14290 0.00
3 7 6 2 o 18.320 16.775 180.00 1.14244 0.00
2 2 8 2 o 246.508 234.801 180.00 1.14211 0.00
7 5 3 2 o 19615.643 18767.607 0.00 1.14186 0.31
2 9 5 1 o 7523.921 7440.392 0.00 1.13867 0.24
5 9 2 2 o 46056.94 45703.66 180.00 1.14140 0.72
4 6 6 2 o 22516.313 22151.551 0.00 1.14055 0.33
7 6 2 1 o 35377.43 34751.840 180.00 1.13674 1.03
3 5 7 1 o 34868.512 34387.051 0.00 1.13667 1.05
2 9 5 2 o 7498.839 7440.392 0.00 1.13867 0.12
4 10 2 1 o 20743.564 20850.076 0.00 1.13437 0.64
0 11 3 1 o 24.464 24.922 0.00 1.13430 0.00
7 6 2 2 o 33491.219 34751.840 180.00 1.13674 0.48
3 5 7 2 o 32885.055 34387.051 0.00 1.13667 0.49
2 10 4 1 o 1749.614 1941.817 180.00 1.13283 0.05
8 4 0 1 o 2563.203 2931.125 180.00 1.13258 0.03
4 10 2 2 o 24193.471 20850.076 0.00 1.13437 0.39
0 11 3 2 o 32.614 24.922 0.00 1.13430 0.00
2 6 7 1 o 1.381 0.616 0.00 1.13098 0.00
6 0 6 1 o 449.764 281.592 180.00 1.13054 0.01
2 10 4 2 o 2850.972 1941.817 180.00 1.13283 0.04
8 4 0 2 o 4807.010 2931.125 180.00 1.13258 0.04
8 3 2 1 o 840.662 400.906 180.00 1.12928 0.03
2 6 7 2 o 1.551 0.616 0.00 1.13098 0.00
6 0 6 2 o 389.084 281.592 180.00 1.13054 0.00
3 11 1 1 o 11846.242 9550.819 180.00 1.12752 0.41
8 3 2 2 o 454.169 400.906 180.00 1.12928 0.01
6 1 6 1 o 16878.969 15518.827 180.00 1.12651 0.51
1 11 3 1 o 32769.285 30303.156 180.00 1.12652 1.07
8 4 1 1 o 1944.527 2036.798 180.00 1.12471 0.05
3 11 1 2 o 9115.647 9550.819 180.00 1.12752 0.15
0 4 8 1 o 31646.549 33643.578 180.00 1.12451 0.48
6 8 2 1 o 22203.980 23539.662 180.00 1.12452 0.70
6 1 6 2 o 14909.113 15518.827 180.00 1.12651 0.22
1 11 3 2 o 29203.236 30303.156 180.00 1.12652 0.46
7 4 4 1 o 38.394 35.516 180.00 1.12284 0.00
8 1 3 1 o 23441.652 21999.467 180.00 1.12222 0.64
8 4 1 2 o 2060.516 2036.798 180.00 1.12471 0.03
2 3 8 1 o 3664.240 3752.441 180.00 1.12178 0.10
0 4 8 2 o 32423.588 33643.578 180.00 1.12451 0.25
6 8 2 2 o 22766.248 23539.662 180.00 1.12452 0.36
2 8 6 1 o 10800.297 12003.559 180.00 1.12055 0.36
7 4 4 2 o 32.610 35.516 180.00 1.12284 0.00
8 1 3 2 o 22183.678 21999.467 180.00 1.12222 0.30
3 0 8 1 o 68083.30 68110.87 180.00 1.11937 0.92
2 3 8 2 o 3538.760 3752.441 180.00 1.12178 0.05
1 4 8 1 o 42635.65 43416.67 0.00 1.11692 1.16
4 4 7 1 o 4.077 4.685 180.00 1.11876 0.00
3 0 8 2 o 65313.98 68110.87 180.00 1.11937 0.43
6 5 5 1 o 1932.528 2018.885 0.00 1.11656 0.05
4 9 4 1 o 6872.445 7190.137 0.00 1.11663 0.22
4 4 7 2 o 4.431 4.685 180.00 1.11876 0.00
2 8 6 2 o 11828.971 12003.559 180.00 1.12055 0.20
3 1 8 1 o 5838.788 5594.041 0.00 1.11546 0.16
5 8 4 1 o 3004.488 2880.554 0.00 1.11547 0.09
5 5 6 1 o 33101.383 32001.561 180.00 1.11522 0.94
6 2 6 1 o 7109.923 7053.725 180.00 1.11467 0.20
4 8 5 1 o 2696.491 2649.469 0.00 1.11437 0.08
1 4 8 2 o 44445.98 43416.67 0.00 1.11692 0.61
6 5 5 2 o 2089.073 2018.885 0.00 1.11656 0.03
4 9 4 2 o 7444.807 7190.137 0.00 1.11663 0.12
7 1 5 1 o 32096.902 29762.525 0.00 1.11274 0.95
3 1 8 2 o 5987.668 5594.041 0.00 1.11546 0.08
5 8 4 2 o 3082.742 2880.554 0.00 1.11547 0.05
0 12 0 1 o 1958.404 1859.581 0.00 1.11274 0.01
5 5 6 2 o 33468.832 32001.561 180.00 1.11522 0.47
6 2 6 2 o 7172.740 7053.725 180.00 1.11467 0.10
4 8 5 2 o 2794.698 2649.469 0.00 1.11437 0.04
8 2 3 1 o 3644.338 2931.375 180.00 1.11051 0.10
7 1 5 2 o 35662.29 29762.525 0.00 1.11274 0.53
0 7 7 1 o 181.111 156.367 180.00 1.11003 0.00
5 1 7 1 o 7514.281 6265.959 180.00 1.10985 0.23
0 12 0 2 o 2108.127 1859.581 0.00 1.11274 0.01
7 7 1 1 o 10961.754 9143.517 180.00 1.10842 0.30
8 2 3 2 o 3682.478 2931.375 180.00 1.11051 0.05
0 7 7 2 o 212.392 156.367 180.00 1.11003 0.00
5 1 7 2 o 9615.098 6265.959 180.00 1.10985 0.15
7 7 1 2 o 10911.104 9143.517 180.00 1.10842 0.15
5 7 5 1 o 2347.005 1981.598 180.00 1.10557 0.06
3 11 2 1 o 4064.142 3607.973 0.00 1.10468 0.13
3 2 8 1 o 6124.625 6036.227 180.00 1.10396 0.16
2 11 3 1 o 14011.192 13656.007 0.00 1.10409 0.45
5 7 5 2 o 1901.002 1981.598 180.00 1.10557 0.02
1 7 7 1 o 66333.13 70698.25 180.00 1.10273 1.86
5 9 3 1 o 6351.630 6844.741 180.00 1.10274 0.22
8 4 2 1 o 5318.367 6107.549 0.00 1.10203 0.14
3 11 2 2 o 3150.298 3607.973 0.00 1.10468 0.05
7 2 5 1 o 785.753 847.618 180.00 1.10133 0.02
3 2 8 2 o 5673.730 6036.227 180.00 1.10396 0.07
2 11 3 2 o 12766.829 13656.007 0.00 1.10409 0.20
3 9 5 1 o 13310.955 14454.052 0.00 1.10086 0.41
1 7 7 2 o 64812.46 70698.25 180.00 1.10273 0.90
5 9 3 2 o 6172.657 6844.741 180.00 1.10274 0.11
8 4 2 2 o 5669.441 6107.549 0.00 1.10203 0.08
7 2 5 2 o 835.165 847.618 180.00 1.10133 0.01
5 2 7 1 o 53446.89 54475.52 0.00 1.09852 1.48
7 6 3 1 o 3198.922 3262.450 180.00 1.09853 0.10
3 9 5 2 o 13701.875 14454.052 0.00 1.10086 0.21
1 12 1 1 o 16110.657 17114.014 180.00 1.09807 0.54
8 5 0 1 o 23485.127 25871.346 180.00 1.09760 0.34
4 10 3 1 o 234.192 255.942 0.00 1.09639 0.01
5 2 7 2 o 51468.59 54475.52 0.00 1.09852 0.70
7 6 3 2 o 3072.718 3262.450 180.00 1.09853 0.05
6 3 6 1 o 6671.438 7131.611 180.00 1.09575 0.20
3 10 4 1 o 20827.184 22360.936 180.00 1.09558 0.62
1 12 1 2 o 15466.748 17114.014 180.00 1.09807 0.26
2 4 8 1 o 6897.537 8078.896 180.00 1.09505 0.22
8 5 0 2 o 22356.785 25871.346 180.00 1.09760 0.16
3 6 7 1 o 15100.433 16662.893 180.00 1.09391 0.45
4 10 3 2 o 234.797 255.942 0.00 1.09639 0.00
6 3 6 2 o 6723.490 7131.611 180.00 1.09575 0.10
3 10 4 2 o 21062.201 22360.936 180.00 1.09558 0.31
2 4 8 2 o 7689.578 8078.896 180.00 1.09505 0.13
6 7 4 1 o 1828.724 1927.565 180.00 1.09231 0.07
8 3 3 1 o 205.261 216.383 180.00 1.09180 0.00
3 6 7 2 o 16981.717 16662.893 180.00 1.09391 0.26
8 5 1 1 o 21528.346 21063.240 180.00 1.09043 0.59
5 10 1 1 o 5108.393 4993.017 180.00 1.09026 0.17
4 7 6 1 o 208.941 197.719 0.00 1.09003 0.01
6 7 4 2 o 2057.407 1927.565 180.00 1.09231 0.04
6 9 0 1 o 47842.05 45618.57 0.00 1.08958 0.72
8 3 3 2 o 225.140 216.383 180.00 1.09180 0.00
7 5 4 1 o 536.058 481.305 180.00 1.08873 0.01
8 5 1 2 o 22696.176 21063.240 180.00 1.09043 0.31
5 10 1 2 o 5291.049 4993.017 180.00 1.09026 0.09
6 8 3 1 o 6927.751 6639.975 180.00 1.08749 0.20
1 10 5 1 o 6099.135 5739.022 180.00 1.08754 0.23
4 7 6 2 o 205.688 197.719 0.00 1.09003 0.00
6 9 0 2 o 46250.68 45618.57 0.00 1.08958 0.35
7 7 2 1 o 121.546 118.631 180.00 1.08670 0.00
7 5 4 2 o 484.662 481.305 180.00 1.08873 0.01
3 3 8 1 o 1325.661 1265.038 0.00 1.08557 0.03
4 5 7 1 o 1559.571 1503.204 180.00 1.08501 0.04
6 8 3 2 o 6820.035 6639.975 180.00 1.08749 0.10
1 10 5 2 o 5948.116 5739.022 180.00 1.08754 0.11
3 8 6 1 o 39036.55 39447.34 180.00 1.08445 1.11
7 7 2 2 o 104.535 118.631 180.00 1.08670 0.00
2 12 0 1 o 25931.223 27791.006 180.00 1.08418 0.44
4 11 0 1 o 2496.601 2814.636 0.00 1.08396 0.04
0 12 2 1 o 15814.388 18446.000 0.00 1.08373 0.27
1 5 8 1 o 14106.282 17033.293 0.00 1.08333 0.37
7 3 5 1 o 5.287 6.819 0.00 1.08306 0.00
3 3 8 2 o 1057.348 1265.038 0.00 1.08557 0.01
6 9 1 1 o 14128.009 16237.968 0.00 1.08256 0.39
4 5 7 2 o 1317.313 1503.204 180.00 1.08501 0.02
3 8 6 2 o 36229.45 39447.34 180.00 1.08445 0.50
2 7 7 1 o 1085.270 1184.159 0.00 1.08167 0.03
2 12 0 2 o 25119.287 27791.006 180.00 1.08418 0.21
4 11 0 2 o 2579.799 2814.636 0.00 1.08396 0.02
0 12 2 2 o 17810.340 18446.000 0.00 1.08373 0.15
1 5 8 2 o 17903.295 17033.293 0.00 1.08333 0.25
7 3 5 2 o 7.284 6.819 0.00 1.08306 0.00
5 3 7 1 o 27641.076 26289.395 180.00 1.08040 0.70
6 9 1 2 o 15924.566 16237.968 0.00 1.08256 0.23
2 7 7 2 o 1263.118 1184.159 0.00 1.08167 0.02
1 9 6 1 o 17455.531 16207.267 180.00 1.07869 0.50
5 3 7 2 o 32119.041 26289.395 180.00 1.08040 0.42
2 12 1 1 o 31258.924 25870.045 0.00 1.07727 1.01
4 11 1 1 o 1966.880 1708.515 0.00 1.07705 0.06
1 12 2 1 o 549.570 489.637 0.00 1.07694 0.02
6 6 5 1 o 22629.576 22537.955 0.00 1.07595 0.62
1 9 6 2 o 16412.545 16207.267 180.00 1.07869 0.23
8 0 4 1 o 6173.000 6240.406 180.00 1.07513 0.08
1 11 4 1 o 1672.021 1737.188 180.00 1.07541 0.05
5 6 6 1 o 19527.188 19385.230 0.00 1.07475 0.52
2 12 1 2 o 25824.113 25870.045 0.00 1.07727 0.40
4 11 1 2 o 1689.930 1708.515 0.00 1.07705 0.03
1 12 2 2 o 486.765 489.637 0.00 1.07694 0.01
6 6 5 2 o 22192.449 22537.955 0.00 1.07595 0.30
8 0 4 2 o 5125.971 6240.406 180.00 1.07513 0.03
1 11 4 2 o 1509.070 1737.188 180.00 1.07541 0.02
5 6 6 2 o 15560.431 19385.230 0.00 1.07475 0.19
8 1 4 1 o 2738.989 3080.519 180.00 1.07167 0.05
6 4 6 1 o 6374.290 6740.125 180.00 1.07080 0.15
4 0 8 1 o 11092.099 10749.289 180.00 1.06994 0.13
8 5 2 1 o 12.749 12.646 180.00 1.06973 0.00
5 10 2 1 o 15478.608 14619.166 0.00 1.06957 0.46
3 11 3 1 o 6211.870 5926.741 180.00 1.06952 0.18
8 1 4 2 o 2983.827 3080.519 180.00 1.07167 0.03
6 4 6 2 o 6163.465 6740.125 180.00 1.07080 0.07
4 0 8 2 o 10329.790 10749.289 180.00 1.06994 0.06
2 10 5 1 o 6769.419 7085.407 0.00 1.06732 0.20
8 4 3 1 o 298.749 308.863 0.00 1.06711 0.01
8 5 2 2 o 12.588 12.646 180.00 1.06973 0.00
5 10 2 2 o 14077.592 14619.166 0.00 1.06957 0.20
3 11 3 2 o 5723.912 5926.741 180.00 1.06952 0.08
4 1 8 1 o 18.873 18.905 180.00 1.06652 0.00
2 10 5 2 o 5813.794 7085.407 0.00 1.06732 0.08
8 4 3 2 o 245.695 308.863 0.00 1.06711 0.00
4 1 8 2 o 18.626 18.905 180.00 1.06652 0.00
2 5 8 1 o 15212.811 17487.410 0.00 1.06334 0.37
6 9 2 1 o 497.919 668.758 0.00 1.06230 0.01
8 2 4 1 o 13601.390 14963.321 0.00 1.06146 0.34
3 4 8 1 o 133.578 146.466 0.00 1.06130 0.00
2 5 8 2 o 16205.207 17487.410 0.00 1.06334 0.20
9 1 1 1 o 326.926 334.965 0.00 1.06021 0.01
6 9 2 2 o 687.086 668.758 0.00 1.06230 0.01
7 4 5 1 o 193.025 203.916 0.00 1.05895 0.01
8 6 0 1 o 43887.95 45947.91 0.00 1.05896 0.57
8 2 4 2 o 13797.505 14963.321 0.00 1.06146 0.17
2 9 6 1 o 13906.288 14587.483 0.00 1.05895 0.39
3 4 8 2 o 128.635 146.466 0.00 1.06130 0.00
0 1 9 1 o 11749.511 14825.191 0.00 1.05827 0.13
9 1 1 2 o 155.729 334.965 0.00 1.06021 0.00
2 12 2 1 o 3917.473 4870.275 180.00 1.05729 0.09
4 11 2 1 o 389.626 578.996 180.00 1.05709 0.02
4 2 8 1 o 2437.059 2945.885 0.00 1.05646 0.06
5 4 7 1 o 6199.556 7409.479 180.00 1.05646 0.15
7 4 5 2 o 168.253 203.916 0.00 1.05895 0.00
8 6 0 2 o 39038.06 45947.91 0.00 1.05896 0.24
2 9 6 2 o 12376.094 14587.483 0.00 1.05895 0.17
0 1 9 2 o 13372.234 14825.191 0.00 1.05827 0.08
2 11 4 1 o 6082.439 6614.172 180.00 1.05585 0.16
7 8 1 1 o 873.423 1091.655 0.00 1.05523 0.02
5 9 4 1 o 4713.270 5459.228 180.00 1.05466 0.13
2 12 2 2 o 4286.041 4870.275 180.00 1.05729 0.05
4 11 2 2 o 491.161 578.996 180.00 1.05709 0.01
4 2 8 2 o 2847.775 2945.885 0.00 1.05646 0.04
5 4 7 2 o 7176.852 7409.479 180.00 1.05646 0.09
4 9 5 1 o 13373.188 13865.075 180.00 1.05374 0.37
7 7 3 1 o 20950.119 21994.797 180.00 1.05317 0.58
2 11 4 2 o 6328.519 6614.172 180.00 1.05585 0.09
5 8 5 1 o 4037.885 4170.143 0.00 1.05276 0.12
7 8 1 2 o 1062.825 1091.655 0.00 1.05523 0.02
8 6 1 1 o 5357.031 5482.714 180.00 1.05251 0.14
0 6 8 1 o 9622.325 9814.576 0.00 1.05235 0.12
5 9 4 2 o 5320.049 5459.228 180.00 1.05466 0.07
1 1 9 1 o 13875.765 14358.562 180.00 1.05194 0.35
4 9 5 2 o 13379.143 13865.075 180.00 1.05374 0.18
7 6 4 1 o 14475.489 15043.539 180.00 1.05098 0.38
7 7 3 2 o 21497.787 21994.797 180.00 1.05317 0.30
9 2 1 1 o 18208.578 18805.855 0.00 1.05032 0.47
1 8 7 1 o 21105.691 21826.063 180.00 1.05031 0.60
5 8 5 2 o 3978.798 4170.143 0.00 1.05276 0.06
8 6 1 2 o 5254.547 5482.714 180.00 1.05251 0.07
0 6 8 2 o 9577.988 9814.576 0.00 1.05235 0.06
1 1 9 2 o 14821.366 14358.562 180.00 1.05194 0.19
3 7 7 1 o 8893.479 8665.606 180.00 1.04910 0.25
4 10 4 1 o 5933.529 5796.395 180.00 1.04910 0.16
7 6 4 2 o 14160.541 15043.539 180.00 1.05098 0.18
9 2 1 2 o 19341.535 18805.855 0.00 1.05032 0.25
1 8 7 2 o 22455.070 21826.063 180.00 1.05031 0.32
4 6 7 1 o 2.101 1.974 180.00 1.04763 0.00
3 7 7 2 o 10114.403 8665.606 180.00 1.04910 0.15
4 10 4 2 o 6657.206 5796.395 180.00 1.04910 0.09
1 6 8 1 o 1972.694 1893.271 0.00 1.04612 0.05
8 3 4 1 o 52.933 52.924 180.00 1.04508 0.00
4 6 7 2 o 2.722 1.974 180.00 1.04763 0.00
3 12 1 1 o 2349.042 2114.027 0.00 1.04508 0.06
9 0 2 1 o 4573.190 3953.457 0.00 1.04433 0.06
1 12 3 1 o 16380.559 14517.597 180.00 1.04428 0.48
1 6 8 2 o 2105.357 1893.271 0.00 1.04612 0.03
8 3 4 2 o 52.939 52.924 180.00 1.04508 0.00
3 12 1 2 o 2519.410 2114.027 0.00 1.04508 0.03
1 2 9 1 o 4845.480 3909.231 180.00 1.04228 0.16
9 0 2 2 o 4360.343 3953.457 0.00 1.04433 0.03
1 12 3 2 o 15764.318 14517.597 180.00 1.04428 0.23
6 8 4 1 o 36.221 36.136 180.00 1.04130 0.00
9 1 2 1 o 24496.742 24817.402 0.00 1.04115 0.61
7 0 6 1 o 4861.979 4930.017 0.00 1.04115 0.06
6 5 6 1 o 14228.458 14658.024 0.00 1.04110 0.38
4 3 8 1 o 215.791 337.428 0.00 1.04030 0.01
1 2 9 2 o 3369.448 3909.231 180.00 1.04228 0.05
4 8 6 1 o 9540.021 9576.409 0.00 1.03932 0.24
6 8 4 2 o 36.450 36.136 180.00 1.04130 0.00
9 1 2 2 o 27009.076 24817.402 0.00 1.04115 0.34
7 0 6 2 o 5358.944 4930.017 0.00 1.04115 0.03
6 5 6 2 o 16029.920 14658.024 0.00 1.04110 0.22
7 1 6 1 o 1106.341 1046.701 180.00 1.03800 0.03
4 3 8 2 o 347.182 337.428 0.00 1.04030 0.01
8 5 3 1 o 5575.869 5529.550 180.00 1.03771 0.14
5 10 3 1 o 1475.352 1497.735 180.00 1.03756 0.03
6 1 7 1 o 1166.004 1257.737 0.00 1.03672 0.03
4 8 6 2 o 8989.581 9576.409 0.00 1.03932 0.11
7 8 2 1 o 22462.869 24263.795 180.00 1.03644 0.59
3 10 5 1 o 390.068 448.046 180.00 1.03599 0.02
7 1 6 2 o 1037.235 1046.701 180.00 1.03800 0.01
8 5 3 2 o 5648.405 5529.550 180.00 1.03771 0.07
5 10 3 2 o 1535.967 1497.735 180.00 1.03756 0.02
9 3 1 1 o 3359.641 3422.424 180.00 1.03444 0.10
6 1 7 2 o 1260.779 1257.737 0.00 1.03672 0.02
8 6 2 1 o 17494.436 17095.455 0.00 1.03386 0.47
7 8 2 2 o 24816.912 24263.795 180.00 1.03644 0.34
2 1 9 1 o 40.556 40.049 0.00 1.03361 0.00
3 10 5 2 o 461.236 448.046 180.00 1.03599 0.01
6 7 5 1 o 21721.932 21412.947 0.00 1.03323 0.57
0 3 9 1 o 31985.842 30959.566 180.00 1.03264 0.40
3 5 8 1 o 6342.963 6247.962 180.00 1.03235 0.16
5 7 6 1 o 13.877 13.772 180.00 1.03217 0.00
2 8 7 1 o 339.614 337.681 180.00 1.03207 0.01
9 3 1 2 o 3502.372 3422.424 180.00 1.03444 0.05
9 2 2 1 o 1167.792 1128.245 0.00 1.03178 0.03
8 6 2 2 o 18091.977 17095.455 0.00 1.03386 0.24
2 1 9 2 o 41.012 40.049 0.00 1.03361 0.00
6 9 3 1 o 5527.818 5383.556 0.00 1.03092 0.15
6 7 5 2 o 21808.822 21412.947 0.00 1.03323 0.29
7 5 5 1 o 726.790 712.641 0.00 1.03020 0.01
0 3 9 2 o 32219.240 30959.566 180.00 1.03264 0.20
3 5 8 2 o 6596.047 6247.962 180.00 1.03235 0.09
5 7 6 2 o 15.406 13.772 180.00 1.03217 0.00
2 8 7 2 o 363.582 337.681 180.00 1.03207 0.01
9 2 2 2 o 1269.151 1128.245 0.00 1.03178 0.02
7 2 6 1 o 20228.914 17675.410 180.00 1.02871 0.53
6 9 3 2 o 5855.342 5383.556 0.00 1.03092 0.08
3 9 6 1 o 8659.036 7993.626 0.00 1.02833 0.24
2 6 8 1 o 54.866 50.836 180.00 1.02809 0.00
5 5 7 1 o 6672.391 6499.609 180.00 1.02790 0.15
7 5 5 2 o 716.705 712.641 0.00 1.03020 0.00
6 2 7 1 o 374.667 364.026 0.00 1.02747 0.01
1 3 9 1 o 10790.298 9678.541 180.00 1.02676 0.29
3 12 2 1 o 4450.909 3991.540 180.00 1.02682 0.13
6 10 0 1 o 98.489 93.030 180.00 1.02658 0.00
7 2 6 2 o 18050.541 17675.410 180.00 1.02871 0.23
2 12 3 1 o 7756.537 7364.270 180.00 1.02634 0.23
4 11 3 1 o 27752.684 27362.402 180.00 1.02615 0.79
3 9 6 2 o 7570.701 7993.626 0.00 1.02833 0.10
2 6 8 2 o 44.960 50.836 180.00 1.02809 0.00
5 5 7 2 o 6058.557 6499.609 180.00 1.02790 0.06
3 11 4 1 o 376.684 409.534 0.00 1.02549 0.01
6 2 7 2 o 362.561 364.026 0.00 1.02747 0.01
0 11 5 1 o 13509.248 13298.891 0.00 1.02464 0.20
2 2 9 1 o 37188.33 37547.50 180.00 1.02444 0.92
1 3 9 2 o 9352.938 9678.541 180.00 1.02676 0.12
3 12 2 2 o 3880.120 3991.540 180.00 1.02682 0.06
6 10 0 2 o 91.064 93.030 180.00 1.02658 0.00
2 12 3 2 o 7294.777 7364.270 180.00 1.02634 0.10
4 11 3 2 o 27449.285 27362.402 180.00 1.02615 0.39
8 4 4 1 o 45182.39 45969.57 0.00 1.02337 1.13
0 10 6 1 o 15637.836 16339.464 0.00 1.02318 0.20
3 11 4 2 o 383.214 409.534 0.00 1.02549 0.01
0 11 5 2 o 13394.819 13298.891 0.00 1.02464 0.10
2 2 9 2 o 37868.29 37547.50 180.00 1.02444 0.47
0 13 1 1 o 5.744 5.635 0.00 1.02126 0.00
5 11 1 1 o 219.285 214.074 0.00 1.02112 0.00
8 4 4 2 o 46862.25 45969.57 0.00 1.02337 0.59
6 10 1 1 o 3286.470 3277.100 0.00 1.02070 0.09
0 10 6 2 o 16319.191 16339.464 0.00 1.02318 0.10
4 4 8 1 o 8979.055 8872.741 0.00 1.01888 0.20
1 11 5 1 o 1679.217 1654.523 180.00 1.01889 0.05
0 13 1 2 o 5.567 5.635 0.00 1.02126 0.00
5 11 1 2 o 209.949 214.074 0.00 1.02112 0.00
8 7 0 1 o 1843.467 1855.908 180.00 1.01815 0.03
6 10 1 2 o 3244.904 3277.100 0.00 1.02070 0.05
1 10 6 1 o 36647.86 36796.95 0.00 1.01745 1.02
9 3 2 1 o 4480.907 4603.073 0.00 1.01672 0.10
4 4 8 2 o 8799.943 8872.741 0.00 1.01888 0.09
1 11 5 2 o 1637.804 1654.523 180.00 1.01889 0.02
8 1 5 1 o 33084.945 28851.170 180.00 1.01571 0.86
8 7 0 2 o 2231.067 1855.908 180.00 1.01815 0.02
1 13 1 1 o 1142.272 1015.054 0.00 1.01557 0.03
5 0 8 1 o 29823.861 28009.447 0.00 1.01506 0.38
1 10 6 2 o 38316.26 36796.95 0.00 1.01745 0.54
9 3 2 2 o 4665.750 4603.073 0.00 1.01672 0.05
7 3 6 1 o 606.669 599.993 180.00 1.01378 0.02
9 4 1 1 o 3220.861 3060.688 180.00 1.01337 0.08
8 1 5 2 o 30932.842 28851.170 180.00 1.01571 0.39
1 13 1 2 o 1092.031 1015.054 0.00 1.01557 0.02
6 3 7 1 o 990.806 917.490 0.00 1.01259 0.02
5 0 8 2 o 30451.873 28009.447 0.00 1.01506 0.20
8 7 1 1 o 694.716 636.685 0.00 1.01242 0.02
5 1 8 1 o 11127.575 9741.120 0.00 1.01214 0.28
9 1 3 1 o 6095.584 4958.122 180.00 1.01155 0.18
7 3 6 2 o 742.526 599.993 180.00 1.01378 0.01
7 7 4 1 o 17.170 13.256 0.00 1.01106 0.00
9 4 1 2 o 3759.713 3060.688 180.00 1.01337 0.05
6 3 7 2 o 1222.763 917.490 0.00 1.01259 0.02
4 12 0 1 o 16084.227 12116.985 0.00 1.01011 0.24
8 7 1 2 o 820.548 636.685 0.00 1.01242 0.01
2 3 9 1 o 1306.334 1085.749 180.00 1.00969 0.03
5 1 8 2 o 11556.950 9741.120 0.00 1.01214 0.15
9 1 3 2 o 6528.264 4958.122 180.00 1.01155 0.10
7 7 4 2 o 17.330 13.256 0.00 1.01106 0.00
0 12 4 1 o 5109.368 4291.263 0.00 1.00866 0.06
4 7 7 1 o 1882.630 1551.987 180.00 1.00808 0.05
6 6 6 1 o 154.339 127.353 180.00 1.00794 0.00
4 12 0 2 o 14664.796 12116.985 0.00 1.01011 0.10
2 3 9 2 o 1220.028 1085.749 180.00 1.00969 0.02
7 8 3 1 o 1960.107 1732.474 0.00 1.00723 0.05
8 2 5 1 o 15021.610 13501.313 180.00 1.00700 0.39
1 7 8 1 o 14.896 12.003 0.00 1.00673 0.00
1 4 9 1 o 1.601 1.592 0.00 1.00615 0.00
0 12 4 2 o 5337.398 4291.263 0.00 1.00866 0.03
4 7 7 2 o 2068.748 1551.987 180.00 1.00808 0.03
6 6 6 2 o 162.630 127.353 180.00 1.00794 0.00
3 1 9 1 o 12836.534 10084.300 0.00 1.00508 0.35
8 6 3 1 o 1464.530 1210.967 0.00 1.00486 0.04
7 8 3 2 o 2077.912 1732.474 0.00 1.00723 0.03
8 2 5 2 o 15395.102 13501.313 180.00 1.00700 0.20
0 9 7 1 o 1126.858 1000.309 180.00 1.00450 0.02
4 12 1 1 o 2957.908 2601.102 0.00 1.00451 0.09
2 13 0 1 o 26100.820 22817.289 0.00 1.00455 0.40
1 7 8 2 o 13.978 12.003 0.00 1.00673 0.00
5 11 2 1 o 8807.920 8276.188 0.00 1.00407 0.26
1 4 9 2 o 1.593 1.592 0.00 1.00615 0.00
3 8 7 1 o 6039.340 6001.512 0.00 1.00366 0.15
6 10 2 1 o 6388.727 6342.235 180.00 1.00367 0.18
5 2 8 1 o 7552.847 7603.243 0.00 1.00353 0.19
7 9 1 1 o 8031.917 8174.714 0.00 1.00331 0.25
9 2 3 1 o 28912.650 29724.730 0.00 1.00296 0.71
1 12 4 1 o 3019.999 3076.506 0.00 1.00318 0.09
3 1 9 2 o 9718.881 10084.300 0.00 1.00508 0.13
8 6 3 2 o 1170.354 1210.967 0.00 1.00486 0.01
2 11 5 1 o 6770.328 7030.338 0.00 1.00221 0.19
0 9 7 2 o 963.000 1000.309 180.00 1.00450 0.01
4 12 1 2 o 2496.803 2601.102 0.00 1.00451 0.04
2 13 0 2 o 21935.668 22817.289 0.00 1.00455 0.16
5 11 2 2 o 7857.072 8276.188 0.00 1.00407 0.11
3 8 7 2 o 5544.107 6001.512 0.00 1.00366 0.07
5 9 5 1 o 2810.647 3003.295 180.00 1.00119 0.06
6 10 2 2 o 5831.312 6342.235 180.00 1.00367 0.08
5 2 8 2 o 6980.017 7603.243 0.00 1.00353 0.08
7 9 1 2 o 7446.402 8174.714 0.00 1.00331 0.12
2 10 6 1 o 1681.461 1836.639 180.00 1.00084 0.05
9 2 3 2 o 27911.143 29724.730 0.00 1.00296 0.34
1 12 4 2 o 2862.963 3076.506 0.00 1.00318 0.04
3 6 8 1 o 30674.504 33081.828 180.00 1.00000 0.77
2 11 5 2 o 6420.767 7030.338 0.00 1.00221 0.09
1 9 7 1 o 4967.299 5165.714 180.00 0.99909 0.14
2 13 1 1 o 12521.826 12928.398 0.00 0.99905 0.37
5 9 5 2 o 2997.908 3003.295 180.00 1.00119 0.03
1 13 2 1 o 10218.464 10252.726 180.00 0.99879 0.30
2 10 6 2 o 1727.670 1836.639 180.00 1.00084 0.03
3 12 3 1 o 11928.611 12596.616 0.00 0.99839 0.36
7 6 5 1 o 509.013 576.181 0.00 0.99804 0.02
3 6 8 2 o 31833.477 33081.828 180.00 1.00000 0.41
8 5 4 1 o 6289.937 6544.376 0.00 0.99735 0.14
5 10 4 1 o 9736.403 10347.181 0.00 0.99722 0.27
9 4 2 1 o 258.554 280.732 0.00 0.99670 0.01
3 2 9 1 o 424.482 482.038 180.00 0.99664 0.02
1 9 7 2 o 4798.627 5165.714 180.00 0.99909 0.07
2 13 1 2 o 12143.583 12928.398 0.00 0.99905 0.18
4 10 5 1 o 263.636 270.186 0.00 0.99643 0.01
1 13 2 2 o 10199.419 10252.726 180.00 0.99879 0.15
5 6 7 1 o 26247.838 25776.828 180.00 0.99595 0.71
8 7 2 1 o 1078.315 1064.481 0.00 0.99579 0.04
3 12 3 2 o 12818.386 12596.616 0.00 0.99839 0.20
7 6 5 2 o 583.813 576.181 0.00 0.99804 0.01
8 5 4 2 o 7285.230 6544.376 0.00 0.99735 0.09
5 10 4 2 o 11820.496 10347.181 0.00 0.99722 0.17
9 4 2 2 o 321.224 280.732 0.00 0.99670 0.00
3 2 9 2 o 594.144 482.038 180.00 0.99664 0.01
7 4 6 1 o 52989.77 49187.15 180.00 0.99393 1.34
4 10 5 2 o 292.563 270.186 0.00 0.99643 0.00
5 6 7 2 o 25639.533 25776.828 180.00 0.99595 0.34
8 7 2 2 o 1070.532 1064.481 0.00 0.99579 0.02
4 5 8 1 o 828.132 807.900 0.00 0.99319 0.02
8 3 5 1 o 6289.710 5889.311 0.00 0.99298 0.16
6 4 7 1 o 110.744 100.543 180.00 0.99281 0.00
7 4 6 2 o 50047.26 49187.15 180.00 0.99393 0.62
6 9 4 1 o 19802.648 20302.988 180.00 0.99132 0.51
4 5 8 2 o 781.731 807.900 0.00 0.99319 0.01
8 3 5 2 o 6005.722 5889.311 0.00 0.99298 0.07
2 7 8 1 o 172.170 173.440 180.00 0.99063 0.01
6 4 7 2 o 106.970 100.543 180.00 0.99281 0.00
2 4 9 1 o 9407.568 8784.909 0.00 0.99007 0.24
6 8 5 1 o 19974.584 18951.613 180.00 0.98974 0.53
5 3 8 1 o 2399.117 2290.389 0.00 0.98965 0.06
4 9 6 1 o 159.072 154.986 0.00 0.98961 0.00
9 3 3 1 o 2117.088 2066.686 180.00 0.98910 0.04
6 9 4 2 o 19417.799 20302.988 180.00 0.99132 0.25
5 8 6 1 o 12798.231 13765.186 0.00 0.98880 0.32
4 9 6 2 o 144.064 154.986 0.00 0.98961 0.00
2 12 4 1 o 8196.731 9626.648 180.00 0.98724 0.26
7 9 2 1 o 1796.164 2057.482 0.00 0.98712 0.05
4 11 4 1 o -1.410 6.033 0.00 0.98708 0.00
9 3 3 2 o 1952.997 2066.686 180.00 0.98910 0.02
9 5 1 1 o 2353.810 2911.471 180.00 0.98809 0.07
2 7 8 2 o 138.875 173.440 180.00 0.99063 0.00
4 12 2 1 o 12801.348 15281.241 0.00 0.98826 0.38
0 5 9 1 o 888.462 934.504 180.00 0.98652 0.01
5 8 6 2 o 13046.947 13765.186 0.00 0.98880 0.17
2 4 9 2 o 7489.939 8784.909 0.00 0.99007 0.09
6 8 5 2 o 16405.576 18951.613 180.00 0.98974 0.21
9 5 1 2 o 2150.738 2911.471 180.00 0.98809 0.03
5 3 8 2 o 2002.760 2290.389 0.00 0.98965 0.02
4 12 2 2 o 12309.782 15281.241 0.00 0.98826 0.18
2 12 4 2 o 7832.208 9626.648 180.00 0.98724 0.12
7 9 2 2 o 1755.142 2057.482 0.00 0.98712 0.02
4 11 4 2 o -2.382 6.033 0.00 0.98708 0.00
0 5 9 2 o 1058.752 934.504 180.00 0.98652 0.01
2 9 7 1 o 1208.896 1018.660 0.00 0.98334 0.03
3 3 9 1 o 11504.180 10046.848 0.00 0.98305 0.28
2 13 2 1 o 1837.711 1571.695 0.00 0.98306 0.06
1 5 9 1 o 11753.745 9134.172 180.00 0.98139 0.32
2 9 7 2 o 1170.174 1018.660 0.00 0.98334 0.02
3 3 9 2 o 11347.981 10046.848 0.00 0.98305 0.14
2 13 2 2 o 1809.071 1571.695 0.00 0.98306 0.03
1 5 9 2 o 10038.456 9134.172 180.00 0.98139 0.13
0 13 3 1 o 24621.953 22060.531 180.00 0.97757 0.38
5 11 3 1 o 385.573 344.701 0.00 0.97744 0.01
6 10 3 1 o 760.967 674.873 180.00 0.97707 0.02
9 0 4 1 o 7076.905 6492.925 0.00 0.97666 0.09
8 8 0 1 o 37989.77 37474.77 0.00 0.97646 0.50
3 11 5 1 o 11559.326 12322.904 0.00 0.97613 0.31
0 13 3 2 o 25948.299 22060.531 180.00 0.97757 0.20
5 11 3 2 o 436.251 344.701 0.00 0.97744 0.01
3 10 6 1 o 1608.362 1281.122 0.00 0.97487 0.05
6 10 3 2 o 843.343 674.873 180.00 0.97707 0.01
8 4 5 1 o 2606.613 2143.973 0.00 0.97430 0.07
9 0 4 2 o 7875.401 6492.925 0.00 0.97666 0.05
9 1 4 1 o 3210.171 2827.179 0.00 0.97406 0.08
8 8 0 2 o 42713.07 37474.77 0.00 0.97646 0.29
3 11 5 2 o 13079.396 12322.904 0.00 0.97613 0.18
3 13 1 1 o 3835.736 3697.086 0.00 0.97322 0.10
9 5 2 1 o 35781.39 32444.861 180.00 0.97261 0.92
6 7 6 1 o 891.225 780.814 0.00 0.97257 0.03
1 13 3 1 o 1112.342 1006.345 0.00 0.97257 0.04
3 10 6 2 o 1382.554 1281.122 0.00 0.97487 0.02
8 4 5 2 o 2371.513 2143.973 0.00 0.97430 0.03
9 1 4 2 o 3088.261 2827.179 0.00 0.97406 0.04
8 8 1 1 o 4697.696 4590.723 0.00 0.97140 0.12
0 8 8 1 o 12699.960 12797.870 0.00 0.97128 0.18
5 4 8 1 o 1797.042 1835.690 0.00 0.97115 0.04
9 4 3 1 o 4848.488 4769.991 180.00 0.97064 0.12
3 13 1 2 o 3677.007 3697.086 0.00 0.97322 0.05
9 5 2 2 o 32155.805 32444.861 180.00 0.97261 0.40
7 8 4 1 o 10118.798 10252.865 180.00 0.97020 0.26
6 7 6 2 o 757.900 780.814 0.00 0.97257 0.01
7 5 6 1 o 1274.372 1352.959 0.00 0.97004 0.03
1 13 3 2 o 985.317 1006.345 0.00 0.97257 0.02
8 7 3 1 o 19241.385 21782.928 180.00 0.96980 0.47
6 5 7 1 o 460.683 491.261 0.00 0.96900 0.01
8 8 1 2 o 4270.988 4590.723 0.00 0.97140 0.06
4 1 9 1 o 10935.017 12001.434 180.00 0.96883 0.27
0 8 8 2 o 11679.290 12797.870 0.00 0.97128 0.08
5 4 8 2 o 1658.334 1835.690 0.00 0.97115 0.02
9 4 3 2 o 4297.499 4769.991 180.00 0.97064 0.05
6 11 0 1 o 2947.679 3215.514 180.00 0.96825 0.03
8 6 4 1 o 336.914 356.905 180.00 0.96808 0.01
7 8 4 2 o 10360.779 10252.865 180.00 0.97020 0.13
7 5 6 2 o 1393.281 1352.959 0.00 0.97004 0.02
4 8 7 1 o 4.178 4.038 180.00 0.96756 0.00
8 7 3 2 o 22819.520 21782.928 180.00 0.96980 0.30
6 5 7 2 o 475.916 491.261 0.00 0.96900 0.01
7 1 7 1 o 30234.471 32232.570 0.00 0.96649 0.69
4 1 9 2 o 11050.769 12001.434 180.00 0.96883 0.13
9 2 4 1 o 3415.287 3793.713 0.00 0.96638 0.08
2 5 9 1 o 37.896 40.257 180.00 0.96645 0.00
1 8 8 1 o 1660.257 1850.195 0.00 0.96637 0.04
6 11 0 2 o 2605.027 3215.514 180.00 0.96825 0.01
8 6 4 2 o 280.383 356.905 180.00 0.96808 0.00
3 7 8 1 o 32.657 42.433 0.00 0.96543 0.00
4 8 7 2 o 3.313 4.038 180.00 0.96756 0.00
3 4 9 1 o 86.005 117.471 180.00 0.96491 0.00
4 6 8 1 o 4665.737 4757.186 180.00 0.96429 0.12
7 1 7 2 o 32589.375 32232.570 0.00 0.96649 0.38
9 2 4 2 o 3882.704 3793.713 0.00 0.96638 0.05
2 5 9 2 o 40.766 40.257 180.00 0.96645 0.00
1 8 8 2 o 1894.974 1850.195 0.00 0.96637 0.03
7 7 5 1 o 19454.234 19218.563 0.00 0.96366 0.53
10 0 0 1 o 560.799 620.768 0.00 0.96319 0.00
6 11 1 1 o 19346.982 20984.707 0.00 0.96331 0.52
3 7 8 2 o 34.339 42.433 0.00 0.96543 0.00
4 12 3 1 o 511.836 618.419 180.00 0.96284 0.01
3 4 9 2 o 92.970 117.471 180.00 0.96491 0.00
3 12 4 1 o 3719.017 4528.932 180.00 0.96229 0.10
4 6 8 2 o 4018.983 4757.186 180.00 0.96429 0.05
5 7 7 1 o 523.516 605.823 180.00 0.96178 0.02
7 9 3 1 o 3287.059 3631.387 0.00 0.96179 0.07
4 2 9 1 o 2689.189 2960.109 180.00 0.96127 0.07
7 7 5 2 o 17444.803 19218.563 0.00 0.96366 0.23
10 0 0 2 o 546.407 620.768 0.00 0.96319 0.00
6 11 1 2 o 18208.459 20984.707 0.00 0.96331 0.24
10 1 0 1 o 5745.636 6560.633 180.00 0.96070 0.06
8 0 6 1 o 2012.048 2270.577 180.00 0.96038 0.02
1 11 6 1 o 3188.848 3697.933 0.00 0.96058 0.09
4 12 3 2 o 543.585 618.419 180.00 0.96284 0.01
3 12 4 2 o 4328.995 4528.932 180.00 0.96229 0.06
9 6 1 1 o 8644.267 8586.355 180.00 0.95961 0.22
5 7 7 2 o 630.573 605.823 180.00 0.96178 0.01
7 9 3 2 o 3731.708 3631.387 0.00 0.96179 0.04
7 2 7 1 o 1025.662 954.729 180.00 0.95899 0.02
4 2 9 2 o 3212.563 2960.109 180.00 0.96127 0.04
3 9 7 1 o 13211.308 12664.400 0.00 0.95868 0.34
5 12 1 1 o 8965.295 8583.320 0.00 0.95868 0.25
10 1 0 2 o 6360.818 6560.633 180.00 0.96070 0.03
6 0 8 1 o 2288.473 2419.265 180.00 0.95821 0.02
3 13 2 1 o 4874.770 4943.190 0.00 0.95841 0.14
8 0 6 2 o 2047.183 2270.577 180.00 0.96038 0.01
1 11 6 2 o 3458.117 3697.933 0.00 0.96058 0.05
8 1 6 1 o 5990.053 6797.724 180.00 0.95791 0.17
2 13 3 1 o 4317.678 4763.558 0.00 0.95803 0.12
9 6 1 2 o 8760.162 8586.355 180.00 0.95961 0.11
1 12 5 1 o 260.506 251.909 0.00 0.95683 0.00
7 2 7 2 o 1014.649 954.729 180.00 0.95899 0.01
8 8 2 1 o 10865.298 10137.369 0.00 0.95668 0.29
3 9 7 2 o 13601.903 12664.400 0.00 0.95868 0.18
5 12 1 2 o 9221.727 8583.320 0.00 0.95868 0.13
10 1 1 1 o 26190.918 25418.146 0.00 0.95588 0.66
6 0 8 2 o 2468.837 2419.265 180.00 0.95821 0.01
3 13 2 2 o 5274.970 4943.190 0.00 0.95841 0.08
6 1 8 1 o 12850.535 12966.979 0.00 0.95576 0.34
8 1 6 2 o 6235.698 6797.724 180.00 0.95791 0.09
2 13 3 2 o 4592.799 4763.558 0.00 0.95803 0.07
0 0 10 1 o 8317.939 9028.717 0.00 0.95545 0.04
1 12 5 2 o 261.579 251.909 0.00 0.95683 0.00
8 8 2 2 o 10893.181 10137.369 0.00 0.95668 0.14
9 3 4 1 o 1156.497 1040.218 0.00 0.95397 0.03
10 1 1 2 o 27207.730 25418.146 0.00 0.95588 0.35
0 14 0 1 o 73359.05 65963.84 0.00 0.95378 0.56
6 1 8 2 o 13476.607 12966.979 0.00 0.95576 0.18
1 6 9 1 o 1846.429 1725.864 0.00 0.95347 0.06
10 2 0 1 o 18588.156 18302.564 180.00 0.95332 0.24
7 10 1 1 o 42.324 40.775 0.00 0.95348 0.00
0 0 10 2 o 8784.577 9028.717 0.00 0.95545 0.02
2 8 8 1 o 830.125 763.555 0.00 0.95211 0.03
8 5 5 1 o 869.814 764.096 180.00 0.95177 0.02
9 3 4 2 o 1196.320 1040.218 0.00 0.95397 0.02
5 10 5 1 o 1.867 0.069 0.00 0.95166 0.00
0 14 0 2 o 75565.73 65963.84 0.00 0.95378 0.29
1 6 9 2 o 2126.230 1725.864 0.00 0.95347 0.04
10 2 0 2 o 21676.738 18302.564 180.00 0.95332 0.14
7 10 1 2 o 45.687 40.775 0.00 0.95348 0.00
1 0 10 1 o 28149.951 24544.531 0.00 0.95078 0.36
8 2 6 1 o 3567.940 3250.682 0.00 0.95060 0.09
1 10 7 1 o 249.631 241.231 180.00 0.94985 0.00
2 8 8 2 o 896.285 763.555 0.00 0.95211 0.02
8 5 5 2 o 846.126 764.096 180.00 0.95177 0.01
5 10 5 2 o 1.386 0.069 0.00 0.95166 0.00
4 3 9 1 o 29628.414 27401.854 0.00 0.94905 0.76
6 11 2 1 o 2078.458 1928.561 180.00 0.94895 0.07
5 5 8 1 o 13028.389 12557.733 180.00 0.94883 0.33
10 2 1 1 o 9006.341 8995.662 180.00 0.94861 0.22
6 2 8 1 o 90.459 92.219 0.00 0.94850 0.00
1 0 10 2 o 24059.838 24544.531 0.00 0.95078 0.15
9 5 3 1 o 409.032 414.058 180.00 0.94835 0.01
1 1 10 1 o 3574.021 3661.258 0.00 0.94838 0.09
8 2 6 2 o 3180.905 3250.682 0.00 0.95060 0.04
1 10 7 2 o 249.821 241.231 180.00 0.94985 0.00
7 3 7 1 o 2618.893 2457.242 180.00 0.94686 0.06
4 3 9 2 o 29768.238 27401.854 0.00 0.94905 0.39
6 11 2 2 o 2122.349 1928.561 180.00 0.94895 0.04
5 5 8 2 o 13306.434 12557.733 180.00 0.94883 0.17
6 9 5 1 o 1687.215 1581.456 0.00 0.94652 0.05
2 11 6 1 o 4543.926 4215.246 180.00 0.94656 0.14
10 2 1 2 o 9203.642 8995.662 180.00 0.94861 0.11
6 2 8 2 o 93.572 92.219 0.00 0.94850 0.00
9 5 3 2 o 414.635 414.058 180.00 0.94835 0.00
1 1 10 2 o 3677.578 3661.258 0.00 0.94838 0.05
0 2 10 1 o 3556.978 3640.844 180.00 0.94581 0.05
5 9 6 1 o 17808.064 18687.873 0.00 0.94571 0.48
9 6 2 1 o 1283.784 1456.362 0.00 0.94541 0.03
4 13 0 1 o 836.392 868.225 0.00 0.94479 0.01
7 3 7 2 o 2598.536 2457.242 180.00 0.94686 0.03
5 12 2 1 o 2055.035 1921.795 0.00 0.94453 0.06
10 0 2 1 o 2674.207 2487.410 180.00 0.94419 0.03
1 14 1 1 o 1930.443 1745.832 0.00 0.94449 0.08
6 9 5 2 o 1712.981 1581.456 0.00 0.94652 0.02
2 11 6 2 o 4605.998 4215.246 180.00 0.94656 0.07
0 2 10 2 o 4127.107 3640.844 180.00 0.94581 0.03
5 11 4 1 o 1261.338 1115.036 0.00 0.94349 0.04
5 9 6 2 o 21336.342 18687.873 0.00 0.94571 0.30
9 6 2 2 o 1609.261 1456.362 0.00 0.94541 0.02
6 10 4 1 o 18718.248 16631.113 180.00 0.94316 0.52
7 6 6 1 o 295.065 266.754 0.00 0.94305 0.01
3 5 9 1 o 6008.140 5583.837 0.00 0.94301 0.14
2 12 5 1 o 30688.906 28610.785 180.00 0.94298 0.90
4 11 5 1 o 44092.20 43428.34 180.00 0.94283 1.25
4 13 0 2 o 830.293 868.225 0.00 0.94479 0.01
6 6 7 1 o 211.231 205.665 180.00 0.94209 0.01
5 12 2 2 o 1917.953 1921.795 0.00 0.94453 0.03
10 0 2 2 o 2631.228 2487.410 180.00 0.94419 0.02
1 14 1 2 o 1762.207 1745.832 0.00 0.94449 0.04
10 1 2 1 o 2199.664 2034.643 180.00 0.94184 0.07
4 10 6 1 o 4151.195 3806.872 180.00 0.94169 0.13
10 3 0 1 o 700.051 659.440 180.00 0.94140 0.01
1 2 10 1 o 6385.604 5763.395 0.00 0.94128 0.17
5 11 4 2 o 1244.938 1115.036 0.00 0.94349 0.02
6 10 4 2 o 18728.111 16631.113 180.00 0.94316 0.26
7 6 6 2 o 300.252 266.754 0.00 0.94305 0.00
3 5 9 2 o 6135.312 5583.837 0.00 0.94301 0.07
2 12 5 2 o 31557.467 28610.785 180.00 0.94298 0.47
4 11 5 2 o 46386.49 43428.34 180.00 0.94283 0.67
4 13 1 1 o 28600.494 28733.385 180.00 0.94020 0.83
6 6 7 2 o 196.454 205.665 180.00 0.94209 0.00
2 6 9 1 o 17935.299 18682.518 0.00 0.93975 0.46
10 1 2 2 o 1898.448 2034.643 180.00 0.94184 0.03
7 10 2 1 o 13530.903 14270.586 0.00 0.93954 0.36
4 10 6 2 o 3519.241 3806.872 180.00 0.94169 0.05
10 3 0 2 o 625.624 659.440 180.00 0.94140 0.00
1 2 10 2 o 5277.897 5763.395 0.00 0.94128 0.07
1 13 4 1 o 1432.210 1564.508 180.00 0.93911 0.04
8 3 6 1 o 3328.624 3664.666 180.00 0.93878 0.10
4 13 1 2 o 26084.066 28733.385 180.00 0.94020 0.37
9 4 4 1 o 1820.119 1922.854 0.00 0.93737 0.04
2 6 9 2 o 17569.414 18682.518 0.00 0.93975 0.22
2 0 10 1 o 237.790 244.674 0.00 0.93718 0.00
7 10 2 2 o 13389.907 14270.586 0.00 0.93954 0.18
10 3 1 1 o 18.622 21.943 180.00 0.93687 0.00
6 3 8 1 o 4851.282 5555.978 0.00 0.93675 0.14
1 13 4 2 o 1399.212 1564.508 180.00 0.93911 0.02
8 7 4 1 o 938.055 1126.945 180.00 0.93661 0.04
8 3 6 2 o 3106.976 3664.666 180.00 0.93878 0.05
2 10 7 1 o 15.685 17.432 180.00 0.93629 0.00
6 8 6 1 o 621.747 660.477 180.00 0.93604 0.02
2 14 0 1 o 7824.215 7602.971 180.00 0.93561 0.13
9 4 4 2 o 1896.053 1922.854 0.00 0.93737 0.02
0 14 2 1 o 20084.152 19613.896 0.00 0.93532 0.32
3 13 3 1 o 24188.457 24056.826 0.00 0.93518 0.75
10 2 2 1 o 6524.661 6902.771 180.00 0.93489 0.16
2 1 10 1 o 15045.955 16006.622 180.00 0.93488 0.38
2 0 10 2 o 238.547 244.674 0.00 0.93718 0.00
8 9 0 1 o 11734.965 12466.152 0.00 0.93489 0.16
10 3 1 2 o 17.951 21.943 180.00 0.93687 0.00
6 3 8 2 o 4796.564 5555.978 0.00 0.93675 0.07
8 7 4 2 o 980.712 1126.945 180.00 0.93661 0.02
2 10 7 2 o 17.544 17.432 180.00 0.93629 0.00
6 8 6 2 o 667.491 660.477 180.00 0.93604 0.01
8 8 3 1 o 1003.235 1010.727 180.00 0.93357 0.03
4 7 8 1 o 614.438 607.944 180.00 0.93317 0.02
2 14 0 2 o 7659.335 7602.971 180.00 0.93561 0.06
0 14 2 2 o 19627.764 19613.896 0.00 0.93532 0.16
4 4 9 1 o 370.731 384.005 0.00 0.93271 0.01
3 13 3 2 o 23720.836 24056.826 0.00 0.93518 0.37
10 2 2 2 o 6530.102 6902.771 180.00 0.93489 0.08
2 1 10 2 o 15074.563 16006.622 180.00 0.93488 0.19
8 9 0 2 o 11746.285 12466.152 0.00 0.93489 0.08
9 1 5 1 o 1496.152 1518.917 180.00 0.93147 0.03
8 8 3 2 o 1036.992 1010.727 180.00 0.93357 0.01
2 14 1 1 o 47.069 45.196 180.00 0.93116 0.00
4 7 8 2 o 649.363 607.944 180.00 0.93317 0.01
1 14 2 1 o 23471.854 22357.807 0.00 0.93094 0.73
7 4 7 1 o 374.279 356.498 0.00 0.93062 0.01
8 9 1 1 o 13497.810 12809.028 180.00 0.93045 0.37
4 4 9 2 o 403.694 384.005 0.00 0.93271 0.00
4 12 4 1 o 349.380 338.562 0.00 0.93034 0.01
1 3 10 1 o 1458.500 1547.294 0.00 0.92980 0.04
3 8 8 1 o 19611.768 21859.639 180.00 0.92967 0.50
7 9 4 1 o 208.596 245.951 0.00 0.92939 0.01
9 1 5 2 o 1396.518 1518.917 180.00 0.93147 0.01
9 7 1 1 o 156.522 164.665 0.00 0.92893 0.01
2 14 1 2 o 44.697 45.196 180.00 0.93116 0.00
1 14 2 2 o 22765.781 22357.807 0.00 0.93094 0.35
7 4 7 2 o 368.892 356.498 0.00 0.93062 0.00
8 9 1 2 o 13637.294 12809.028 180.00 0.93045 0.19
2 2 10 1 o 96.340 90.457 0.00 0.92808 0.00
7 8 5 1 o 49.385 46.353 180.00 0.92809 0.00
4 12 4 2 o 355.671 338.562 0.00 0.93034 0.00
0 7 9 1 o 31137.619 28970.439 0.00 0.92763 0.41
5 1 9 1 o 3363.958 3242.487 180.00 0.92752 0.07
1 3 10 2 o 1618.309 1547.294 0.00 0.92980 0.02
3 8 8 2 o 21974.367 21859.639 180.00 0.92967 0.29
7 9 4 2 o 243.616 245.951 0.00 0.92939 0.00
4 9 7 1 o 511.273 514.851 180.00 0.92707 0.01
4 13 2 1 o 241.841 229.297 0.00 0.92683 0.01
9 7 1 2 o 190.550 164.665 0.00 0.92893 0.00
5 8 7 1 o 14605.241 13186.539 0.00 0.92641 0.39
6 11 3 1 o 2535.877 2279.894 0.00 0.92638 0.08
8 6 5 1 o 6378.925 5839.280 0.00 0.92624 0.17
1 9 8 1 o 9012.652 8529.337 180.00 0.92603 0.25
2 13 4 1 o 15710.824 14916.432 180.00 0.92600 0.48
2 2 10 2 o 92.899 90.457 0.00 0.92808 0.00
7 8 5 2 o 47.656 46.353 180.00 0.92809 0.00
10 4 0 1 o 34424.594 34570.336 180.00 0.92544 0.43
0 7 9 2 o 28176.961 28970.439 0.00 0.92763 0.18
5 1 9 2 o 3085.702 3242.487 180.00 0.92752 0.03
9 2 5 1 o 1428.857 1575.569 180.00 0.92475 0.03
4 9 7 2 o 462.617 514.851 180.00 0.92707 0.01
4 13 2 2 o 211.760 229.297 0.00 0.92683 0.00
3 11 6 1 o 1228.357 1293.714 180.00 0.92450 0.03
5 8 7 2 o 14036.113 13186.539 0.00 0.92641 0.18
6 11 3 2 o 2458.520 2279.894 0.00 0.92638 0.04
8 6 5 2 o 6521.049 5839.280 0.00 0.92624 0.09
10 3 2 1 o 1929.886 1650.563 180.00 0.92364 0.06
1 9 8 2 o 9709.986 8529.337 180.00 0.92603 0.14
2 13 4 2 o 16983.656 14916.432 180.00 0.92600 0.26
5 6 8 1 o 16311.095 14672.599 0.00 0.92353 0.44
1 7 9 1 o 9008.036 8382.179 180.00 0.92336 0.24
10 4 0 2 o 36085.83 34570.336 180.00 0.92544 0.23
9 6 3 1 o 13061.366 12631.598 180.00 0.92309 0.34
8 4 6 1 o 13916.866 13582.177 0.00 0.92295 0.36
9 2 5 2 o 1692.277 1575.569 180.00 0.92475 0.02
5 12 3 1 o 23235.887 22319.150 0.00 0.92226 0.70
3 11 6 2 o 1331.937 1293.714 180.00 0.92450 0.02
10 3 2 2 o 2296.515 1650.563 180.00 0.92364 0.04
5 6 8 2 o 19101.641 14672.599 0.00 0.92353 0.27
10 4 1 1 o 2593.905 2054.028 0.00 0.92113 0.07
1 7 9 2 o 10308.183 8382.179 180.00 0.92336 0.14
6 4 8 1 o 283.692 253.289 0.00 0.92102 0.00
3 12 5 1 o 1382.215 1057.385 180.00 0.92116 0.05
5 2 9 1 o 28.769 18.950 180.00 0.92088 0.00
9 6 3 2 o 13657.206 12631.598 180.00 0.92309 0.18
8 4 6 2 o 13783.041 13582.177 0.00 0.92295 0.18
5 12 3 2 o 22839.193 22319.150 0.00 0.92226 0.34
10 1 3 1 o 1502.558 1512.799 0.00 0.91976 0.04
10 4 1 2 o 2087.750 2054.028 0.00 0.92113 0.03
6 4 8 2 o 250.466 253.289 0.00 0.92102 0.00
3 12 5 2 o 1090.114 1057.385 180.00 0.92116 0.02
5 2 9 2 o 14.704 18.950 180.00 0.92088 0.00
0 4 10 1 o 11056.223 11674.073 180.00 0.91856 0.12
3 6 9 1 o 300.186 362.315 0.00 0.91816 0.01
2 14 2 1 o 2560.013 2801.492 180.00 0.91817 0.06
10 1 3 2 o 1530.385 1512.799 0.00 0.91976 0.02
7 10 3 1 o 811.665 832.059 0.00 0.91762 0.03
8 9 2 1 o 52.456 52.117 0.00 0.91749 0.00
9 5 4 1 o 4872.278 4630.621 180.00 0.91725 0.13
2 3 10 1 o 5048.299 4910.533 180.00 0.91707 0.14
0 4 10 2 o 12588.690 11674.073 180.00 0.91856 0.07
9 7 2 1 o 12.417 10.743 0.00 0.91604 0.00
3 6 9 2 o 462.744 362.315 0.00 0.91816 0.01
3 0 10 1 o 72.875 67.790 180.00 0.91576 0.00
2 14 2 2 o 3198.901 2801.492 180.00 0.91817 0.04
7 10 3 2 o 709.700 832.059 0.00 0.91762 0.01
8 9 2 2 o 49.469 52.117 0.00 0.91749 0.00
9 5 4 2 o 3970.376 4630.621 180.00 0.91725 0.05
3 10 7 1 o 3936.022 4826.777 0.00 0.91492 0.13
2 3 10 2 o 4050.220 4910.533 180.00 0.91707 0.05
6 12 0 1 o 4725.049 5510.639 180.00 0.91453 0.07
1 4 10 1 o 650.698 718.232 0.00 0.91442 0.02
4 5 9 1 o 1166.422 1424.837 0.00 0.91288 0.03
9 3 5 1 o 9412.848 7626.774 180.00 0.91385 0.28
7 7 6 1 o 55.342 43.709 180.00 0.91389 0.00
3 10 7 2 o 3560.975 4826.777 0.00 0.91492 0.06
9 7 2 2 o 12.699 10.743 0.00 0.91604 0.00
3 1 10 1 o 1671.627 1425.399 180.00 0.91361 0.04
3 0 10 2 o 76.837 67.790 180.00 0.91576 0.00
6 12 0 2 o 4314.357 5510.639 180.00 0.91453 0.03
1 4 10 2 o 605.480 718.232 0.00 0.91442 0.01
2 9 8 1 o 9959.934 9182.556 180.00 0.91345 0.27
10 2 3 1 o 3201.050 3219.132 0.00 0.91329 0.08
0 12 6 1 o 6816.334 8099.946 0.00 0.91212 0.11
6 7 7 1 o 547.195 644.035 0.00 0.91302 0.02
9 3 5 2 o 8634.213 7626.774 180.00 0.91385 0.13
7 7 6 2 o 49.956 43.709 180.00 0.91389 0.00
3 1 10 2 o 1666.031 1425.399 180.00 0.91361 0.02
2 9 8 2 o 10892.785 9182.556 180.00 0.91345 0.15
10 2 3 2 o 3912.125 3219.132 0.00 0.91329 0.05
7 5 7 1 o 7363.646 5896.343 0.00 0.91092 0.23
2 7 9 1 o 487.908 403.700 0.00 0.91089 0.01
6 7 7 2 o 788.985 644.035 0.00 0.91302 0.01
4 5 9 2 o 1733.493 1424.837 0.00 0.91288 0.02
6 12 1 1 o 16553.461 13987.967 180.00 0.91036 0.51
5 3 9 1 o 13101.664 12514.334 180.00 0.91013 0.37
3 14 1 1 o 930.998 867.945 0.00 0.91013 0.04
0 12 6 2 o 6517.238 8099.946 0.00 0.91212 0.05
1 14 3 1 o 243.893 507.935 180.00 0.90960 0.01
7 5 7 2 o 5642.106 5896.343 0.00 0.91092 0.09
10 4 2 1 o 11941.795 12150.608 180.00 0.90855 0.32
2 7 9 2 o 391.755 403.700 0.00 0.91089 0.01
6 12 1 2 o 14060.325 13987.967 180.00 0.91036 0.21
1 12 6 1 o 7630.840 7601.781 0.00 0.90806 0.22
5 3 9 2 o 12517.368 12514.334 180.00 0.91013 0.18
3 14 1 2 o 868.397 867.945 0.00 0.91013 0.02
3 2 10 1 o 10767.194 10396.485 180.00 0.90726 0.29
1 14 3 2 o 547.519 507.935 180.00 0.90960 0.01
0 11 7 1 o 1092.849 1107.522 180.00 0.90707 0.02
10 4 2 2 o 11486.063 12150.608 180.00 0.90855 0.16
10 5 0 1 o 8489.942 9680.524 0.00 0.90606 0.10
7 11 1 1 o 7937.151 8654.084 0.00 0.90619 0.21
1 12 6 2 o 6159.753 7601.781 0.00 0.90806 0.08
4 13 3 1 o 741.329 938.986 180.00 0.90577 0.02
3 13 4 1 o 380.273 398.753 0.00 0.90531 0.01
3 2 10 2 o 10531.527 10396.485 180.00 0.90726 0.14
0 11 7 2 o 1086.370 1107.522 180.00 0.90707 0.01
0 13 5 1 o 20815.775 22147.586 180.00 0.90473 0.30
5 11 5 1 o 7553.264 8446.720 180.00 0.90463 0.22
6 10 5 1 o 3386.525 4138.825 180.00 0.90434 0.09
10 5 0 2 o 7873.208 9680.524 0.00 0.90606 0.04
7 11 1 2 o 7063.839 8654.084 0.00 0.90619 0.09
8 8 4 1 o 64.920 78.389 180.00 0.90385 0.00
8 5 6 1 o 4308.416 5633.751 0.00 0.90372 0.12
5 10 6 1 o 448.685 565.422 0.00 0.90363 0.01
4 13 3 2 o 742.532 938.986 180.00 0.90577 0.01
1 11 7 1 o 309.853 300.665 0.00 0.90308 0.01
3 13 4 2 o 408.178 398.753 0.00 0.90531 0.01
10 3 3 1 o 16699.430 15562.821 0.00 0.90279 0.46
0 13 5 2 o 23126.938 22147.586 180.00 0.90473 0.17
5 11 5 2 o 8650.270 8446.720 180.00 0.90463 0.13
2 4 10 1 o 981.042 992.794 0.00 0.90230 0.04
5 13 1 1 o 4445.233 4471.743 180.00 0.90231 0.16
10 5 1 1 o 2980.231 3327.135 0.00 0.90202 0.07
6 10 5 2 o 3827.244 4138.825 180.00 0.90434 0.06
7 0 8 1 o 1542.562 1793.929 0.00 0.90195 0.02
6 5 8 1 o 10656.671 12482.746 180.00 0.90192 0.29
8 8 4 2 o 68.080 78.389 180.00 0.90385 0.00
8 5 6 2 o 4820.595 5633.751 0.00 0.90372 0.07
5 10 6 2 o 505.332 565.422 0.00 0.90363 0.01
8 1 7 1 o 442.384 451.616 180.00 0.90086 0.01
1 11 7 2 o 294.641 300.665 0.00 0.90308 0.00
4 8 8 1 o 816.215 820.288 180.00 0.90076 0.02
10 3 3 2 o 15905.728 15562.821 0.00 0.90279 0.22
1 13 5 1 o 8046.475 8111.367 180.00 0.90076 0.25
2 4 10 2 o 1067.067 992.794 0.00 0.90230 0.02
5 13 1 2 o 4748.619 4471.743 180.00 0.90231 0.08
7 1 8 1 o 513.659 505.055 180.00 0.89990 0.01
10 5 1 2 o 3362.277 3327.135 0.00 0.90202 0.04
7 0 8 2 o 1822.287 1793.929 0.00 0.90195 0.01
6 5 8 2 o 12723.375 12482.746 180.00 0.90192 0.18
9 4 5 1 o 495.186 452.036 0.00 0.89923 0.01
6 9 6 1 o 9973.809 9075.396 180.00 0.89923 0.30
8 1 7 2 o 529.640 451.616 180.00 0.90086 0.01
8 7 5 1 o 39107.79 34111.254 180.00 0.89856 1.12
4 8 8 2 o 898.204 820.288 180.00 0.90076 0.01
1 13 5 2 o 9286.101 8111.367 180.00 0.90076 0.15
6 12 2 1 o 3713.198 3531.673 180.00 0.89821 0.10
3 14 2 1 o 11014.764 10999.689 0.00 0.89799 0.34
7 1 8 2 o 489.486 505.055 180.00 0.89990 0.01
2 14 3 1 o 17.426 17.950 0.00 0.89768 0.00
6 11 4 1 o 9861.381 9561.956 0.00 0.89733 0.33
9 4 5 2 o 433.516 452.036 0.00 0.89923 0.01
8 9 3 1 o 3166.194 3270.380 180.00 0.89704 0.09
3 3 10 1 o 167.782 176.129 180.00 0.89697 0.00
6 9 6 2 o 8688.457 9075.396 180.00 0.89923 0.13
9 8 1 1 o 4788.252 5100.690 0.00 0.89695 0.12
8 7 5 2 o 33958.656 34111.254 180.00 0.89856 0.47
5 7 8 1 o 28.354 27.466 0.00 0.89609 0.00
2 12 6 1 o 55.872 55.808 180.00 0.89619 0.00
4 11 6 1 o 1159.079 1118.556 180.00 0.89606 0.04
6 12 2 2 o 3623.427 3531.673 180.00 0.89821 0.05
9 7 3 1 o 1414.268 1493.219 180.00 0.89568 0.04
1 5 10 1 o 5236.087 5446.760 180.00 0.89571 0.15
5 4 9 1 o 72.005 75.871 180.00 0.89568 0.00
3 14 2 2 o 10888.659 10999.689 0.00 0.89799 0.17
2 14 3 2 o 15.762 17.950 0.00 0.89768 0.00
6 11 4 2 o 8273.720 9561.956 0.00 0.89733 0.14
8 2 7 1 o 112.591 115.403 0.00 0.89477 0.00
8 9 3 2 o 3126.548 3270.380 180.00 0.89704 0.04
3 3 10 2 o 173.376 176.129 180.00 0.89697 0.00
9 8 1 2 o 5050.426 5100.690 0.00 0.89695 0.07
9 6 4 1 o 4221.829 3721.008 0.00 0.89433 0.12
7 11 2 1 o 842.841 725.024 180.00 0.89421 0.03
8 10 0 1 o 2053.733 1785.104 180.00 0.89418 0.03
7 2 8 1 o 12787.463 11151.248 180.00 0.89383 0.35
5 7 8 2 o 32.251 27.466 0.00 0.89609 0.00
2 12 6 2 o 56.290 55.808 180.00 0.89619 0.00
4 11 6 2 o 1328.107 1118.556 180.00 0.89606 0.03
3 9 8 1 o 4156.795 3654.757 0.00 0.89358 0.12
9 7 3 2 o 1703.025 1493.219 180.00 0.89568 0.03
1 5 10 2 o 6175.288 5446.760 180.00 0.89571 0.09
5 4 9 2 o 85.528 75.871 180.00 0.89568 0.00
5 12 4 1 o 4068.485 3571.923 0.00 0.89358 0.13
10 0 4 1 o 31213.287 29275.650 180.00 0.89330 0.43
4 12 5 1 o 2425.132 2602.802 180.00 0.89302 0.07
8 2 7 2 o 99.982 115.403 0.00 0.89477 0.00
9 6 4 2 o 3369.345 3721.008 0.00 0.89433 0.05
7 9 5 1 o 6355.569 7145.099 0.00 0.89218 0.21
7 11 2 2 o 663.529 725.024 180.00 0.89421 0.01
8 10 0 2 o 1657.244 1785.104 180.00 0.89418 0.01
1 8 9 1 o 6.377 6.398 180.00 0.89192 0.00
7 2 8 2 o 11337.283 11151.248 180.00 0.89383 0.15
10 1 4 1 o 11913.246 11149.940 0.00 0.89131 0.35
3 9 8 2 o 3871.728 3654.757 0.00 0.89358 0.06
2 11 7 1 o 589.830 557.499 0.00 0.89140 0.02
5 12 4 2 o 3784.750 3571.923 0.00 0.89358 0.06
10 0 4 2 o 31218.477 29275.650 180.00 0.89330 0.22
3 7 9 1 o 5544.185 5188.929 0.00 0.89118 0.17
4 12 5 2 o 2790.063 2602.802 180.00 0.89302 0.04
5 9 7 1 o 14553.966 13583.539 180.00 0.89069 0.46
5 13 2 1 o 12013.635 11638.074 0.00 0.89047 0.38
4 6 9 1 o 1526.845 1566.747 0.00 0.89028 0.04
10 5 2 1 o 1476.206 1589.161 0.00 0.89019 0.05
8 10 1 1 o 813.231 831.722 0.00 0.89029 0.02
0 10 8 1 o 5675.164 6022.153 180.00 0.89019 0.08
7 9 5 2 o 5934.955 7145.099 0.00 0.89218 0.10
