#------------------------------------------------------------------------------
#$Date: 2016-03-21 01:21:50 +0200 (Mon, 21 Mar 2016) $
#$Revision: 178377 $
#$URL: svn://www.crystallography.net/cod/cif/4/00/11/4001184.cif $
#------------------------------------------------------------------------------
#
# This file is available in the Crystallography Open Database (COD),
# http://www.crystallography.net/
#
# All data on this site have been placed in the public domain by the
# contributors.
#
data_4001184
loop_
_publ_author_name
'Zhou, Yongkai'
'Adams, Stefan'
'Rao, R. Prasada'
'Edwards, Doreen D.'
'Neiman, Arkady'
'Pestereva, N.'
_publ_section_title
;
 Charge Transport by Polyatomic Anion Diffusion in Sc2(WO4)3
;
_journal_issue                   20
_journal_name_full               'Chemistry of Materials'
_journal_page_first              6335
_journal_paper_doi               10.1021/cm800466y
_journal_volume                  20
_journal_year                    2008
_chemical_formula_moiety         ' Sc2(WO4)3 '
_chemical_formula_sum            'O12 Sc2 W3'
_chemical_formula_weight         833.45
_chemical_melting_point          1913
_chemical_name_common            ' Scandium Tungstate '
_chemical_name_systematic        ' Scandium Tungstate '
_space_group_IT_number           60
_symmetry_cell_setting           orthorhombic
_symmetry_space_group_name_Hall  '-P 2a 2n'
_symmetry_space_group_name_H-M   'P n c a'
_audit_creation_date             2008-01-25T12:03
_audit_creation_method           'from EXP file using GSAS2CIF'
_audit_update_record
' 2008-01-25T12:03  Initial CIF as created by GSAS2CIF'
_cell_angle_alpha                90.0
_cell_angle_beta                 90.0
_cell_angle_gamma                90.0
_cell_formula_units_Z            4
_cell_length_a                   9.68232(12)
_cell_length_b                   13.32028(17)
_cell_length_c                   9.59088(12)
_cell_measurement_temperature    100
_cell_volume                     1236.95(3)
_computing_structure_refinement  GSAS
_diffrn_radiation_polarisn_ratio 0.68
_diffrn_radiation_probe          x-ray
_exptl_absorpt_correction_T_max  1.00000
_exptl_absorpt_correction_T_min  1.00000
_exptl_absorpt_process_details
;   GSAS Absorption/surface roughness correction: function number 0
 No correction is applied.
;
_pd_block_id
2008-01-25T12:03|T11K|Zhou_Yongkai|Philips_Xpert
_pd_calc_method                  'Rietveld Refinement'
_pd_instr_location               ' ?'
_pd_meas_2theta_range_inc        0.017
_pd_meas_2theta_range_max        119.9874
_pd_meas_2theta_range_min        10.0144
_pd_meas_number_of_points        6470
_pd_proc_2theta_range_inc        0.017
_pd_proc_2theta_range_max        119.9874
_pd_proc_2theta_range_min        10.0144
_pd_proc_info_datetime           2008-01-25T12:05:43
_pd_proc_info_excluded_regions   ' ?'
_pd_proc_ls_background_function
;   GSAS Background function number 1 with 12 terms.
 Shifted Chebyshev function of 1st kind
      1:    396.165     2:   -94.4257     3:    77.4472     4:   -11.6157    
      5:    30.3756     6:   -18.8517     7:    14.1865     8:   -13.3460    
      9:    13.7008    10:   -14.8648    11:    10.3569    12:  -0.764901    
;
_pd_proc_ls_peak_cutoff          0.00250
_pd_proc_ls_pref_orient_corr
;   March-Dollase
 AXIS  1 Ratio=   0.98549  h= 0.000  k= 1.000  l= 0.000
 Prefered orientation correction range: Min=   0.97832, Max=   1.04481
;
_pd_proc_ls_profile_function
;
 CW Profile function number 3 with  19 terms
 Pseudovoigt profile coefficients as parameterized in
 P. Thompson, D.E. Cox & J.B. Hastings (1987). J. Appl. Cryst.,20,79-83.
 Asymmetry correction of L.W. Finger, D.E. Cox & A. P. Jephcoat (1994).
 J. Appl. Cryst.,27,892-900.
 Peak tails are ignored  where the intensity is below 0.0025 times the peak
   Aniso. broadening axis   0.0   0.0   1.0
;
_pd_proc_ls_prof_R_factor        0.0491
_pd_proc_ls_prof_wR_expected     0.0312
_pd_proc_ls_prof_wR_factor       0.0686
_pd_proc_number_of_points        6470
_pd_spec_mounting                ' ?'
_refine_ls_goodness_of_fit_all   1.85
_refine_ls_matrix_type           full
_refine_ls_number_parameters     51
_refine_ls_number_restraints     0
_refine_ls_R_Fsqd_factor         0.03348
_refine_ls_shift/su_max          0.03
_refine_ls_shift/su_mean         0.01
_reflns_d_resolution_high        0.890
_reflns_d_resolution_low         6.660
_reflns_limit_h_max              10
_reflns_limit_h_min              0
_reflns_limit_k_max              15
_reflns_limit_k_min              0
_reflns_limit_l_max              10
_reflns_limit_l_min              0
_reflns_number_total             1847
_cod_data_source_file            cm800466y_si_003.cif
_cod_data_source_block           T100K
_cod_depositor_comments
;
The following automatic conversions were performed:

'_chemical_melting_point' value ' 1913K ' was changed to '1913' - the
value should be numeric and without a unit
designator.

'_geom_bond_publ_flag' value 'N' changed to 'n'
according to /home/saulius/struct/CIF-dictionaries/cif_core.dic
dictionary named 'cif_core.dic' version 2.4.1 from 2010-06-29 (26
times).

'_geom_angle_publ_flag' value 'N' changed to 'n' according
to /home/saulius/struct/CIF-dictionaries/cif_core.dic dictionary
named 'cif_core.dic' version 2.4.1 from 2010-06-29 (33 times).

Automatic conversion script
Id: cif_fix_values 1715 2011-07-08 13:25:40Z adriana 
;
_cod_original_cell_volume        1236.947(33)
_cod_database_code               4001184
#BEGIN Tags that were not found in dictionaries:
_gsas_exptl_extinct_corr_t_min   1.00000
_gsas_exptl_extinct_corr_t_max   1.00000
#END Tags that were not found in dictionaries
loop_
_symmetry_equiv_pos_site_id
_symmetry_equiv_pos_as_xyz
1 +x,+y,+z
2 -x+1/2,+y+1/2,+z+1/2
3 +x,-y+1/2,+z+1/2
4 -x+1/2,-y,+z
-1 -x,-y,-z
-2 +x+1/2,-y+1/2,-z+1/2
-3 -x,+y+1/2,-z+1/2
-4 +x+1/2,+y,-z
loop_
_atom_site_type_symbol
_atom_site_label
_atom_site_fract_x
_atom_site_fract_y
_atom_site_fract_z
_atom_site_occupancy
_atom_site_thermal_displace_type
_atom_site_U_iso_or_equiv
_atom_site_symmetry_multiplicity
Sc Sc1 0.46711(35) 0.37979(25) 0.2499(4) 1.0 Uiso 0.0067(11) 8
W W1 0.25 0.0 0.47381(15) 1.0 Uiso 0.00802(26) 4
W W2 0.11794(10) 0.35566(8) 0.39529(11) 1.0 Uiso 0.00802(26) 8
O O1 0.1014(12) 0.1384(9) 0.0803(12) 1.0 Uiso 0.0173(16) 8
O O2 0.1257(14) 0.0620(8) 0.3637(12) 1.0 Uiso 0.0173(16) 8
O O3 0.0023(12) 0.2630(9) 0.3167(11) 1.0 Uiso 0.0173(16) 8
O O4 0.3356(11) 0.3997(8) 0.0756(11) 1.0 Uiso 0.0173(16) 8
O O5 0.0667(10) 0.4765(9) 0.3193(12) 1.0 Uiso 0.0173(16) 8
O O6 0.2988(12) 0.3328(8) 0.3553(11) 1.0 Uiso 0.0173(16) 8
loop_
_atom_type_symbol
_atom_type_number_in_cell
_atom_type_scat_dispersion_real
_atom_type_scat_dispersion_imag
_atom_type_scat_Cromer_Mann_a1
_atom_type_scat_Cromer_Mann_a2
_atom_type_scat_Cromer_Mann_a3
_atom_type_scat_Cromer_Mann_a4
_atom_type_scat_Cromer_Mann_b1
_atom_type_scat_Cromer_Mann_b2
_atom_type_scat_Cromer_Mann_b3
_atom_type_scat_Cromer_Mann_b4
_atom_type_scat_Cromer_Mann_c
_atom_type_scat_source
Sc 8.0 0.000 0.000 9.18900 9.02130 7.36790 0.57290 1.64090 136.108 1.46800
51.3531 1.33290 International_Tables_Vol_C
W 12.0 0.000 0.000 29.0818 1.72029 15.4300 9.22590 14.4327 0.32170 5.11982
57.0560 9.88750 International_Tables_Vol_C
O 48.0 0.000 0.000 3.04850 13.2771 2.28680 5.70110 1.54630 0.32390 0.86700
32.9089 0.25080 International_Tables_Vol_C
loop_
_diffrn_radiation_wavelength
_diffrn_radiation_wavelength_wt
_diffrn_radiation_type
_diffrn_radiation_wavelength_id
1.540500 1.000 K\a~1~ 1
1.544300 0.500 K\a~2~ 2
loop_
_geom_angle_atom_site_label_1
_geom_angle_atom_site_label_2
_geom_angle_atom_site_label_3
_geom_angle
_geom_angle_site_symmetry_1
_geom_angle_site_symmetry_3
_geom_angle_publ_flag
O1 Sc1 O2 89.5(5) -2_666 -2_666 n
O1 Sc1 O3 91.8(4) -2_666 -2_666 n
O1 Sc1 O4 178.6(5) -2_666 1_555 n
O1 Sc1 O5 87.4(4) -2_666 4_565 n
O1 Sc1 O6 94.3(5) -2_666 1_555 n
O2 Sc1 O3 93.5(5) -2_666 -2_666 n
O2 Sc1 O4 89.0(5) -2_666 1_555 n
O2 Sc1 O5 86.5(5) -2_666 4_565 n
O2 Sc1 O6 174.6(5) -2_666 1_555 n
O3 Sc1 O4 88.3(4) -2_666 1_555 n
O3 Sc1 O5 179.239(6) -2_666 4_565 n
O3 Sc1 O6 90.1(4) -2_666 1_555 n
O4 Sc1 O5 92.5(4) 1_555 4_565 n
O4 Sc1 O6 87.1(4) 1_555 1_555 n
O5 Sc1 O6 89.9(4) 4_565 1_555 n
O2 W1 O2 108.2(7) 1_555 4_555 n
O2 W1 O4 109.9(5) 1_555 2_545 n
O2 W1 O4 106.1(5) 1_555 3_555 n
O2 W1 O4 106.1(5) 4_555 2_545 n
O2 W1 O4 109.9(5) 4_555 3_555 n
O4 W1 O4 116.3(7) 2_545 3_555 n
O1 W2 O3 112.6(5) 3_555 1_555 n
O1 W2 O5 109.4(5) 3_555 1_555 n
O1 W2 O6 107.7(5) 3_555 1_555 n
O3 W2 O5 105.2(5) 1_555 1_555 n
O3 W2 O6 112.9(5) 1_555 1_555 n
O5 W2 O6 108.9(4) 1_555 1_555 n
Sc1 O1 W2 146.4(6) -2_466 3_554 n
Sc1 O2 W1 172.7(7) -2_555 1_555 n
Sc1 O3 W2 149.6(7) -2_466 1_555 n
Sc1 O4 W1 140.9(6) 1_555 2_554 n
Sc1 O5 W2 171.8(6) 4_565 1_555 n
Sc1 O6 W2 146.2(6) 1_555 1_555 n
loop_
_geom_bond_atom_site_label_1
_geom_bond_atom_site_label_2
_geom_bond_distance
_geom_bond_site_symmetry_2
_geom_bond_publ_flag
Sc1 O1 2.098(12) -2_555 n
Sc1 O2 2.037(13) -2_555 n
Sc1 O3 2.035(12) -2_555 n
Sc1 O4 2.118(11) 1_555 n
Sc1 O5 2.054(12) 4_565 n
Sc1 O6 2.017(11) 1_555 n
W1 O2 1.801(12) 1_555 n
W1 O2 1.801(12) 4_555 n
W1 O4 1.850(10) 2_545 n
W1 O4 1.850(10) 3_555 n
W2 O1 1.784(11) 3_555 n
W2 O3 1.829(11) 1_555 n
W2 O5 1.834(12) 1_555 n
W2 O6 1.819(12) 1_555 n
O1 Sc1 2.098(12) -2_455 n
O1 W2 1.784(11) 3_554 n
O2 Sc1 2.037(13) -2_455 n
O2 W1 1.801(12) 1_555 n
O3 Sc1 2.035(12) -2_455 n
O3 W2 1.829(11) 1_555 n
O4 Sc1 2.118(11) 1_555 n
O4 W1 1.850(10) 2_554 n
O5 Sc1 2.054(12) 4_565 n
O5 W2 1.834(12) 1_555 n
O6 Sc1 2.017(11) 1_555 n
O6 W2 1.819(12) 1_555 n
loop_
_pd_meas_counts_total
_pd_proc_ls_weight
_pd_proc_intensity_bkg_calc
_pd_calc_intensity_total
813.0 0.0 1069.92029 .
803.0 0.0 1066.04236 .
860.0 0.0 1062.18420 .
832.0 0.0 1058.34619 .
793.0 0.0 1054.52686 .
820.0 0.0 1050.72742 .
825.0 0.0 1046.94702 .
756.0 0.0 1043.18628 .
765.0 0.0 1039.44482 .
791.0 0.0 1035.72229 .
762.0 0.0 1032.01892 .
763.0 0.0 1028.33459 .
753.0 0.0 1024.66907 .
770.0 0.0 1021.02246 .
747.0 0.0 1017.39459 .
759.0 0.0 1013.78558 .
737.0 0.0 1010.19470 .
735.0 0.0 1006.62238 .
718.0 0.0 1003.06909 .
705.0 0.0 999.53412 .
677.0 0.0 996.01709 .
683.0 0.0 992.51849 .
716.0 0.0 989.03784 .
701.0 0.0 985.57562 .
707.0 0.0 982.13141 .
716.0 0.0 978.70514 .
712.0 0.0 975.29657 .
707.0 0.0 971.90576 .
715.0 0.0 968.53259 .
726.0 0.0 965.17737 .
703.0 0.0 961.83972 .
694.0 0.0 958.51959 .
661.0 0.0 955.21661 .
685.0 0.0 951.93146 .
706.0 0.0 948.66345 .
690.0 0.0 945.41241 .
679.0 0.0 942.17871 .
683.0 0.0 938.96191 .
657.0 0.0 935.76239 .
669.0 0.0 932.57990 .
660.0 0.0 929.41406 .
635.0 0.0 926.26520 .
681.0 0.0 923.13275 .
673.0 0.0 920.01721 .
641.0 0.0 916.91846 .
646.0 0.0 913.83612 .
654.0 0.0 910.76996 .
668.0 0.0 907.72021 .
678.0 0.0 904.68707 .
624.0 0.0 901.67035 .
643.0 0.0 898.66968 .
652.0 0.0 895.68488 .
621.0 0.0 892.71582 .
619.0 0.0 889.76337 .
610.0 0.0 886.82690 .
593.0 0.0 883.90607 .
670.0 0.0 881.00079 .
609.0 0.0 878.11133 .
624.0 0.0 875.23779 .
642.0 0.0 872.37982 .
651.0 0.0 869.53741 .
552.0 0.0 866.71027 .
577.0 0.0 863.89825 .
545.0 0.0 861.10211 .
575.0 0.0 858.32104 .
575.0 0.0 855.55536 .
592.0 0.0 852.80450 .
576.0 0.0 850.06873 .
596.0 0.0 847.34802 .
573.0 0.0 844.64252 .
571.0 0.0 841.95172 .
598.0 0.0 839.27570 .
588.0 0.0 836.61438 .
627.0 0.0 833.96783 .
579.0 0.0 831.33600 .
527.0 0.0 828.71869 .
543.0 0.0 826.11572 .
588.0 0.0 823.52728 .
546.0 0.0 820.95319 .
519.0 0.0 818.39374 .
564.0 0.0 815.84851 .
553.0 0.0 813.31696 .
531.0 0.0 810.79987 .
553.0 0.0 808.29681 .
532.0 0.0 805.80804 .
516.0 0.0 803.33325 .
551.0 0.0 800.87183 .
539.0 0.0 798.42450 .
562.0 0.0 795.99084 .
585.0 0.0 793.57117 .
594.0 0.0 791.16522 .
578.0 0.0 788.77258 .
538.0 0.0 786.39331 .
539.0 0.0 784.02802 .
543.0 0.0 781.67596 .
539.0 0.0 779.33734 .
528.0 0.0 777.01178 .
540.0 0.0 774.69965 .
540.0 0.0 772.40057 .
543.0 0.0 770.11487 .
558.0 0.0 767.84210 .
549.0 0.0 765.58234 .
526.0 0.0 763.33551 .
547.0 0.0 761.10175 .
532.0 0.0 758.88062 .
551.0 0.0 756.67242 .
514.0 0.0 754.47687 .
525.0 0.0 752.29395 .
556.0 0.0 750.12402 .
569.0 0.0 747.96625 .
530.0 0.0 745.82117 .
578.0 0.0 743.68848 .
528.0 0.0 741.56818 .
525.0 0.0 739.46021 .
509.0 0.0 737.36475 .
524.0 0.0 735.28131 .
558.0 0.0 733.20990 .
575.0 0.0 731.15088 .
546.0 0.0 729.10400 .
575.0 0.0 727.06903 .
540.0 0.0 725.04620 .
598.0 0.0 723.03485 .
521.0 0.0 721.03558 .
533.0 0.0 719.04822 .
561.0 0.0 717.07245 .
590.0 0.0 715.10864 .
542.0 0.0 713.15631 .
574.0 0.0 711.21533 .
582.0 0.0 709.28613 .
590.0 0.0 707.36853 .
550.0 0.0 705.46234 .
570.0 0.0 703.56750 .
622.0 0.0 701.68372 .
580.0 0.0 699.81158 .
554.0 0.0 697.95056 .
562.0 0.001779 696.10083 696.09821
564.0 0.001773 694.26215 694.25964
581.0 0.001721 692.43433 692.43176
561.0 0.001783 690.61786 690.61523
558.0 0.001792 688.81226 688.80969
593.0 0.001686 687.01752 687.01483
592.0 0.001689 685.23370 685.23108
565.0 0.001770 683.46063 687.50531
569.0 0.001757 681.69843 685.96967
587.0 0.001704 679.94714 686.48553
585.0 0.001709 678.20630 685.12683
586.0 0.001706 676.47620 683.81421
565.0 0.001770 674.75647 682.55212
575.0 0.001739 673.04742 681.34637
572.0 0.001748 671.34900 680.20349
585.0 0.001709 669.66089 679.13080
594.0 0.001684 667.98309 678.13812
610.0 0.001639 666.31549 677.23651
586.0 0.001706 664.65875 676.44080
629.0 0.001590 663.01184 675.76788
630.0 0.001587 661.37518 675.24042
656.0 0.001524 659.74866 674.88745
673.0 0.001486 658.13208 674.74677
682.0 0.001466 656.52594 674.87054
660.0 0.001515 654.92969 675.33551
672.0 0.001488 653.34320 676.27185
671.0 0.001490 651.76685 677.94952
670.0 0.001493 650.19995 680.94788
668.0 0.001497 648.64337 686.36975
705.0 0.001418 647.09644 695.88495
678.0 0.001475 645.55927 711.21796
711.0 0.001406 644.03156 733.44055
739.0 0.001353 642.51361 762.72729
775.0 0.001290 641.00531 798.56360
811.0 0.001233 639.50659 840.31848
850.0 0.001176 638.01727 887.90485
892.0 0.001121 636.53735 941.50922
960.0 0.001042 635.06689 1001.94537
1004.0 0.000996 633.60583 1070.56323
1050.0 0.000952 632.15411 1149.03210
1145.0 0.000873 630.71185 1239.80322
1285.0 0.000778 629.27850 1346.42786
1447.0 0.000691 627.85437 1474.16907
1620.0 0.000617 626.43964 1631.68359
1790.0 0.000559 625.03375 1833.97046
2157.0 0.000464 623.63727 2104.16382
2596.0 0.000385 622.24939 2462.26660
3084.0 0.0003243 620.87054 2883.48120
3433.0 0.0002913 619.50073 3239.70776
3328.0 0.0003005 618.13995 3298.40112
2775.0 0.000360 616.78778 2935.30249
2071.0 0.000483 615.44440 2332.62866
1477.0 0.000677 614.10986 1708.84021
1072.0 0.000933 612.78412 1235.94226
871.0 0.001148 611.46704 956.93915
749.0 0.001335 610.15857 816.31348
725.0 0.001379 608.85846 748.72192
750.0 0.001333 607.56714 712.81873
719.0 0.001391 606.28436 690.08838
681.0 0.001468 605.01001 673.75824
682.0 0.001466 603.74408 661.26501
696.0 0.001437 602.48639 651.36414
673.0 0.001486 601.23694 643.30975
656.0 0.001524 599.99628 636.61145
677.0 0.001477 598.76361 630.93170
697.0 0.001435 597.53906 626.03412
717.0 0.001395 596.32275 621.74658
715.0 0.001399 595.11438 617.94427
687.0 0.001456 593.91443 614.53210
685.0 0.001460 592.72253 611.43805
701.0 0.001427 591.53845 608.60608
684.0 0.001462 590.36237 605.99255
661.0 0.001513 589.19440 603.56299
700.0 0.001429 588.03412 601.28918
690.0 0.001449 586.88184 599.14917
673.0 0.001486 585.73730 597.12421
684.0 0.001462 584.60065 595.19916
730.0 0.001370 583.47168 593.36163
728.0 0.001374 582.35034 591.60095
678.0 0.001475 581.23669 589.90857
659.0 0.001517 580.13080 588.27686
667.0 0.001499 579.03229 586.69910
700.0 0.001429 577.94141 585.17041
728.0 0.001374 576.85803 591.94916
762.0 0.001312 575.78223 590.94714
702.0 0.001425 574.71381 590.01904
758.0 0.001319 573.65271 593.46863
711.0 0.001406 572.59900 592.92853
671.0 0.001490 571.55255 592.48969
710.0 0.001408 570.51361 592.15912
691.0 0.001447 569.48187 588.85956
696.0 0.001437 568.45715 588.91193
727.0 0.001376 567.43982 587.56488
725.0 0.001379 566.42944 587.96893
763.0 0.001311 565.42621 588.53979
714.0 0.001401 564.43011 589.30402
690.0 0.001449 563.44098 590.29370
711.0 0.001406 562.45905 591.54858
747.0 0.001339 561.48383 593.11859
770.0 0.001299 560.51544 595.06763
719.0 0.001391 559.55420 597.47894
714.0 0.001401 558.59961 600.46375
774.0 0.001292 557.65192 604.17462
796.0 0.001256 556.71106 608.84448
788.0 0.001269 555.77686 614.89124
781.0 0.001280 554.84955 623.19843
801.0 0.001248 553.92859 635.60254
836.0 0.001196 553.01447 655.33508
884.0 0.001131 552.10699 686.83484
909.0 0.001100 551.20593 733.97107
966.0 0.001035 550.31171 798.98267
1028.0 0.000973 549.42371 883.73340
1074.0 0.000931 548.54218 985.05511
1121.0 0.000892 547.66705 1105.69495
1211.0 0.000826 546.79858 1241.81006
1344.0 0.000744 545.93628 1399.90027
1424.0 0.000702 545.08032 1578.46350
1586.0 0.000631 544.23059 1787.87158
1798.0 0.000556 543.38727 2031.68811
2033.0 0.000492 542.55005 2325.28955
2400.0 0.000417 541.71918 2687.39624
2868.0 0.0003487 540.89441 3152.33081
3458.0 0.0002892 540.07568 3770.38770
4343.0 0.0002303 539.26318 4573.88330
5395.0 0.0001854 538.45667 5485.18652
5861.0 0.0001706 537.65625 6202.15625
5569.0 0.0001796 536.86169 6237.06885
4681.0 0.0002136 536.07324 5422.47412
3565.0 0.0002805 535.29077 4186.41455
2599.0 0.000385 534.51410 2912.17407
1847.0 0.000541 533.74341 1918.45410
1366.0 0.000732 532.97839 1312.96143
1041.0 0.000961 532.21936 998.82727
846.0 0.001182 531.46600 846.04285
755.0 0.001325 530.71838 766.10175
690.0 0.001449 529.97650 716.88757
670.0 0.001493 529.24036 682.38446
675.0 0.001481 528.50977 656.54559
685.0 0.001460 527.78491 636.51563
645.0 0.001550 527.06561 620.60760
701.0 0.001427 526.35175 607.71918
647.0 0.001546 525.64355 597.09546
660.0 0.001515 524.94073 588.20612
688.0 0.001453 524.24353 580.66895
636.0 0.001572 523.55170 574.20105
675.0 0.001481 522.86536 568.59131
632.0 0.001582 522.18439 563.67780
653.0 0.001531 521.50854 559.33667
606.0 0.001650 520.83832 555.47052
576.0 0.001736 520.17322 552.00153
597.0 0.001675 519.51343 548.86774
640.0 0.001563 518.85870 546.01880
638.0 0.001567 518.20941 543.41394
651.0 0.001536 517.56525 541.01965
625.0 0.001600 516.92615 538.80792
585.0 0.001709 516.29224 536.75549
623.0 0.001605 515.66333 534.84229
594.0 0.001684 515.03949 533.05194
570.0 0.001754 514.42078 531.37073
592.0 0.001689 513.80701 529.78638
562.0 0.001779 513.19812 528.28827
602.0 0.001661 512.59424 526.86786
592.0 0.001689 511.99527 525.51703
552.0 0.001812 511.40131 524.22943
547.0 0.001828 510.81213 522.99884
544.0 0.001838 510.22775 521.82031
546.0 0.001832 509.64813 520.68921
556.0 0.001799 509.07336 512.81207
591.0 0.001692 508.50336 512.06689
573.0 0.001745 507.93811 507.93665
569.0 0.001757 507.37747 507.37604
576.0 0.001736 506.82144 506.82013
579.0 0.001727 506.27014 506.26877
567.0 0.001764 505.72348 505.72208
544.0 0.001838 505.18124 505.18005
561.0 0.001783 504.64374 504.64246
548.0 0.001825 504.11081 504.10950
570.0 0.001754 503.58218 503.58093
556.0 0.001799 503.05817 503.05698
539.0 0.001855 502.53860 502.53738
536.0 0.001866 502.02344 502.02222
548.0 0.001825 501.51270 501.51147
559.0 0.001789 501.00629 501.00516
538.0 0.001859 500.50427 500.50308
537.0 0.001862 500.00647 500.00540
544.0 0.001838 499.51318 499.51205
525.0 0.001905 499.02393 499.02289
506.0 0.001976 498.53912 498.53790
515.0 0.001942 498.05841 498.05737
517.0 0.001934 497.58194 497.58096
524.0 0.001908 497.10974 497.10870
532.0 0.001880 496.64151 496.64041
508.0 0.001969 496.17743 496.17636
495.0 0.002020 495.71750 495.71661
483.0 0.002070 495.26166 495.26065
496.0 0.002016 494.80978 494.80884
495.0 0.002020 494.36203 494.36102
495.0 0.002020 493.91824 493.91724
531.0 0.001883 493.47839 493.47745
547.0 0.001828 493.04254 493.04163
501.0 0.001996 492.61066 492.60977
510.0 0.001961 492.18250 492.18161
531.0 0.001883 491.75839 491.75748
495.0 0.002020 491.33804 491.33719
462.0 0.002165 490.92163 490.92075
465.0 0.002151 490.50903 490.50812
467.0 0.002141 490.10004 490.09912
509.0 0.001965 489.69492 489.69409
482.0 0.002075 489.29337 489.29260
458.0 0.002183 488.89575 488.89487
475.0 0.002105 488.50168 488.50104
442.0 0.002262 488.11139 488.11069
469.0 0.002132 487.72473 487.72394
465.0 0.002151 487.34167 487.34097
503.0 0.001988 486.96219 486.96149
468.0 0.002137 486.58627 486.58566
515.0 0.001942 486.21384 486.21320
459.0 0.002179 485.84509 485.84451
495.0 0.002020 485.47980 485.47922
485.0 0.002062 485.11801 485.11743
498.0 0.002008 484.75964 484.75903
477.0 0.002096 484.40469 484.40402
453.0 0.002208 484.05322 484.05252
482.0 0.002075 483.70514 483.70456
487.0 0.002053 483.36041 483.35992
450.0 0.002222 483.01904 483.01849
452.0 0.002212 482.68115 482.68045
475.0 0.002105 482.34619 482.34570
485.0 0.002062 482.01483 482.01431
488.0 0.002049 481.68674 481.68613
461.0 0.002169 481.36169 481.36133
466.0 0.002146 481.04007 481.03955
471.0 0.002123 480.72141 480.72110
472.0 0.002119 480.40613 480.40573
462.0 0.002165 480.09409 480.09375
461.0 0.002169 479.78513 479.78467
467.0 0.002141 479.47919 479.47879
472.0 0.002119 479.17636 479.17603
471.0 0.002123 478.87671 478.87631
470.0 0.002128 478.58011 478.57971
461.0 0.002169 478.28650 478.28619
453.0 0.002208 477.99591 477.99554
454.0 0.002203 477.70822 477.70798
462.0 0.002165 477.42365 477.42337
448.0 0.002232 477.14197 477.14175
446.0 0.002242 476.86334 476.86304
453.0 0.002208 476.58740 476.58722
445.0 0.002247 476.31451 476.31436
435.0 0.002299 476.04459 476.04434
434.0 0.002304 475.77744 475.77725
432.0 0.002315 475.51312 475.51297
431.0 0.002320 475.25159 475.25137
478.0 0.002092 474.99289 474.99268
462.0 0.002165 474.73697 474.73682
454.0 0.002203 474.48383 474.48370
426.0 0.002347 474.23340 474.23334
404.0 0.002475 473.98572 473.98566
466.0 0.002146 473.74081 473.74069
460.0 0.002174 473.49844 473.49838
438.0 0.002283 473.25885 473.25882
421.0 0.002375 473.02185 473.02176
428.0 0.002336 472.78751 472.78745
463.0 0.002160 472.55582 472.55579
441.0 0.002268 472.32657 472.32669
442.0 0.002262 472.10004 472.10010
440.0 0.002273 471.87610 471.87607
446.0 0.002242 471.65466 471.65469
465.0 0.002151 471.43573 471.43570
418.0 0.002392 471.21924 471.21924
423.0 0.002364 471.00522 471.00537
466.0 0.002146 470.79388 470.79388
433.0 0.002309 470.58481 470.58490
433.0 0.002309 470.37820 470.37830
475.0 0.002105 470.17395 470.17416
427.0 0.002342 469.97220 469.97241
454.0 0.002203 469.77286 469.77292
428.0 0.002336 469.57574 469.57593
445.0 0.002247 469.38101 469.38129
437.0 0.002288 469.18866 469.18887
451.0 0.002217 468.99860 468.99884
438.0 0.002283 468.81091 468.81104
416.0 0.002404 468.62534 468.62564
427.0 0.002342 468.44217 468.44238
447.0 0.002237 468.26120 468.26144
410.0 0.002439 468.08237 468.08273
445.0 0.002247 467.90585 467.90616
445.0 0.002247 467.73151 467.73178
411.0 0.002433 467.55933 467.55966
422.0 0.002370 467.38928 467.38965
438.0 0.002283 467.22144 467.22168
438.0 0.002283 467.05569 467.05606
448.0 0.002232 466.89203 466.89236
447.0 0.002237 466.73053 466.73087
437.0 0.002288 466.57108 466.57138
413.0 0.002421 466.41370 466.41406
404.0 0.002475 466.25827 466.25870
443.0 0.002257 466.10501 466.10538
471.0 0.002123 465.95370 465.95410
460.0 0.002174 465.80435 465.80490
454.0 0.002203 465.65707 465.65750
467.0 0.002141 465.51172 465.51224
468.0 0.002137 465.36832 465.36880
466.0 0.002146 465.22681 465.33081
472.0 0.002119 465.08737 465.19672
465.0 0.002151 464.94971 465.06500
431.0 0.002320 464.81403 464.98788
417.0 0.002398 464.68015 464.86343
426.0 0.002347 464.54819 464.74194
443.0 0.002257 464.41791 464.62326
454.0 0.002203 464.28967 464.50729
435.0 0.002299 464.16318 464.39432
417.0 0.002398 464.03848 464.28452
440.0 0.002273 463.91565 464.17798
435.0 0.002299 463.79443 466.75888
427.0 0.002342 463.67508 466.80136
440.0 0.002273 463.55746 468.14899
433.0 0.002309 463.44150 468.29135
428.0 0.002336 463.32742 468.45831
405.0 0.002469 463.21487 468.65283
440.0 0.002273 463.10416 468.87836
436.0 0.002294 462.99506 469.49258
434.0 0.002304 462.88760 469.81104
476.0 0.002101 462.78171 470.17612
431.0 0.002320 462.67767 470.77380
416.0 0.002404 462.57510 471.26480
470.0 0.002128 462.47412 471.82993
442.0 0.002262 462.37473 472.48404
421.0 0.002375 462.27695 473.24857
472.0 0.002119 462.18076 474.15894
422.0 0.002370 462.08606 475.27417
451.0 0.002217 461.99295 476.68259
456.0 0.002193 461.90128 478.49579
438.0 0.002283 461.81128 480.81131
458.0 0.002183 461.72263 483.72565
452.0 0.002212 461.63559 487.36398
494.0 0.002024 461.54984 491.76077
483.0 0.002070 461.46567 497.16132
481.0 0.002079 461.38297 503.76248
496.0 0.002016 461.30164 512.17584
492.0 0.002033 461.22177 523.42084
499.0 0.002004 461.14325 539.40222
535.0 0.001869 461.06616 562.70087
580.0 0.001724 460.99039 595.57715
625.0 0.001600 460.91608 637.92175
647.0 0.001546 460.84302 687.78387
690.0 0.001449 460.77136 739.84723
742.0 0.001348 460.70114 794.84363
768.0 0.001302 460.63214 860.74463
826.0 0.001211 460.56436 942.02252
960.0 0.001042 460.49792 1047.68457
1105.0 0.000905 460.43286 1188.66382
1284.0 0.000779 460.36902 1379.57458
1567.0 0.000638 460.30643 1629.33813
1914.0 0.000522 460.24509 1919.38757
2237.0 0.000447 460.18494 2174.44775
2275.0 0.000440 460.12610 2262.49561
2098.0 0.000477 460.06827 2109.10059
1822.0 0.000549 460.01187 1828.44946
1542.0 0.000649 459.95654 1522.79480
1275.0 0.000784 459.90240 1230.74854
1026.0 0.000975 459.84949 1016.58539
899.0 0.001112 459.79764 897.01318
816.0 0.001225 459.74701 835.99567
751.0 0.001332 459.69742 786.17670
729.0 0.001372 459.64905 728.68420
710.0 0.001408 459.60172 671.22369
629.0 0.001590 459.55551 616.22809
516.0 0.001938 459.51031 568.70703
497.0 0.002012 459.46628 534.92316
487.0 0.002053 459.42328 513.96246
488.0 0.002049 459.38126 501.65103
456.0 0.002193 459.34048 494.10092
474.0 0.002110 459.30051 507.55569
478.0 0.002092 459.26169 504.62198
507.0 0.001972 459.22382 502.55695
483.0 0.002070 459.18698 510.47919
493.0 0.002028 459.15109 510.07120
450.0 0.002222 459.11624 510.14059
477.0 0.002096 459.08228 510.63705
485.0 0.002062 459.04941 511.53055
516.0 0.001938 459.01730 512.80695
493.0 0.002028 458.98615 514.46454
492.0 0.002033 458.95599 516.51263
470.0 0.002128 458.92682 518.97144
522.0 0.001916 458.89835 521.87189
526.0 0.001901 458.87103 525.25677
526.0 0.001901 458.84436 529.09265
488.0 0.002049 458.81876 533.63513
513.0 0.001949 458.79391 538.83521
555.0 0.001802 458.76984 544.90375
527.0 0.001898 458.74677 551.94019
536.0 0.001866 458.72446 560.13495
602.0 0.001661 458.70291 569.73395
568.0 0.001761 458.68228 581.06049
595.0 0.001681 458.66245 594.55145
654.0 0.001529 458.64343 610.81317
663.0 0.001508 458.62515 628.45624
753.0 0.001328 458.60760 653.76691
801.0 0.001248 458.59094 687.47882
844.0 0.001185 458.57492 734.75891
902.0 0.001109 458.55972 808.89978
1045.0 0.000957 458.54529 924.40198
1194.0 0.000838 458.53149 1097.49243
1411.0 0.000709 458.51843 1337.79773
1624.0 0.000616 458.50610 1662.06738
1919.0 0.000521 458.49448 2075.98926
2187.0 0.000457 458.48358 2582.47363
2617.0 0.000382 458.47336 3214.71460
3360.0 0.0002976 458.46381 3984.67871
4290.0 0.0002331 458.45486 4967.98438
5514.0 0.0001814 458.44669 6239.39307
7401.0 0.0001351 458.43912 7885.85889
9831.0 0.0001017 458.43213 9838.23633
11818.0 0.0000846 458.42590 11673.74902
12182.0 0.0000821 458.42017 12556.71191
11523.0 0.0000868 458.41501 11782.88281
10075.0 0.0000993 458.41058 9909.64746
7935.0 0.0001260 458.40677 7789.32520
5835.0 0.0001714 458.40341 5604.45703
4055.0 0.0002466 458.40079 3700.82520
2713.0 0.000369 458.39868 2393.09302
1805.0 0.000554 458.39716 1635.71680
1218.0 0.000821 458.39603 1239.39355
900.0 0.001111 458.39563 1031.22083
750.0 0.001333 458.39569 908.56226
642.0 0.001558 458.39633 825.79486
571.0 0.001751 458.39749 765.02454
550.0 0.001818 458.39920 718.48016
573.0 0.001745 458.40125 681.92346
567.0 0.001764 458.40399 652.65503
532.0 0.001880 458.40714 628.84332
546.0 0.001832 458.41080 609.20044
555.0 0.001802 458.41489 592.80139
571.0 0.001751 458.41959 578.96545
548.0 0.001825 458.42465 567.18091
574.0 0.001742 458.43015 557.05908
573.0 0.001745 458.43604 548.29907
560.0 0.001786 458.44250 540.66632
543.0 0.001842 458.44934 533.97516
589.0 0.001698 458.45654 528.07581
572.0 0.001748 458.46420 547.45923
528.0 0.001894 458.47235 544.07623
595.0 0.001681 458.48083 541.28717
534.0 0.001873 458.48975 551.27118
562.0 0.001779 458.49896 550.14709
534.0 0.001873 458.50864 549.53601
500.0 0.002000 458.51871 549.42078
511.0 0.001957 458.52917 549.79370
545.0 0.001835 458.53989 550.65582
553.0 0.001808 458.55099 552.01758
552.0 0.001812 458.56244 553.89838
547.0 0.001828 458.57425 556.32819
531.0 0.001883 458.58640 559.34784
567.0 0.001764 458.59879 563.01074
606.0 0.001650 458.61160 567.38623
560.0 0.001786 458.62463 556.01282
554.0 0.001805 458.63809 562.85327
545.0 0.001835 458.65182 570.69257
556.0 0.001799 458.66574 571.52148
558.0 0.001792 458.67999 582.31708
578.0 0.001730 458.69458 594.78473
596.0 0.001678 458.70941 609.30450
627.0 0.001595 458.72449 626.37433
659.0 0.001517 458.73987 646.66394
687.0 0.001456 458.75537 671.11261
744.0 0.001344 458.77130 701.14392
808.0 0.001238 458.78738 739.25836
913.0 0.001095 458.80371 790.43549
1022.0 0.000978 458.82028 864.47302
1196.0 0.000836 458.83701 978.08801
1374.0 0.000728 458.85400 1154.65991
1543.0 0.000648 458.87125 1418.04041
1817.0 0.000550 458.88864 1782.10376
2143.0 0.000467 458.90625 2275.19189
2507.0 0.000399 458.92407 2913.47852
3112.0 0.0003213 458.94205 3698.14111
3837.0 0.0002606 458.96030 4702.90820
4914.0 0.0002035 458.97858 5960.57129
6489.0 0.0001541 458.99710 7603.60742
8741.0 0.0001144 459.01581 9721.56152
12090.0 0.0000827 459.03461 12262.07520
15128.0 0.0000661 459.05356 14754.17871
16009.0 0.0000625 459.07272 16178.36133
14849.0 0.0000673 459.09198 15532.22559
13168.0 0.0000759 459.11142 13298.53906
10995.0 0.0000910 459.13098 10713.16016
7996.0 0.0001251 459.15063 8021.01367
5438.0 0.0001839 459.17041 5446.99170
3568.0 0.0002803 459.19031 3506.76099
2253.0 0.000444 459.21030 2302.49316
1601.0 0.000625 459.23041 1645.32397
1109.0 0.000902 459.25064 1301.59546
920.0 0.001087 459.27097 1108.09546
803.0 0.001245 459.29138 983.39191
761.0 0.001314 459.31186 894.04272
680.0 0.001471 459.33240 826.42255
658.0 0.001520 459.35303 794.09875
612.0 0.001634 459.37369 753.14331
647.0 0.001546 459.39444 720.27826
608.0 0.001645 459.41522 703.65100
686.0 0.001458 459.43610 682.26892
598.0 0.001672 459.45703 664.73547
647.0 0.001546 459.47791 671.68463
630.0 0.001587 459.49893 660.94226
622.0 0.001608 459.52002 652.44958
616.0 0.001623 459.54105 645.90997
607.0 0.001647 459.56213 652.16864
667.0 0.001499 459.58322 649.49487
603.0 0.001658 459.60431 648.32159
602.0 0.001661 459.62540 648.58429
603.0 0.001658 459.64651 650.25934
615.0 0.001626 459.66766 653.36108
613.0 0.001631 459.68878 657.94360
602.0 0.001661 459.70990 664.09686
661.0 0.001513 459.73105 671.96503
670.0 0.001493 459.75204 681.73883
653.0 0.001531 459.77301 693.68597
724.0 0.001381 459.79410 708.16187
794.0 0.001259 459.81509 725.62469
830.0 0.001205 459.83606 746.71741
888.0 0.001126 459.85696 772.29547
936.0 0.001068 459.87784 803.62836
985.0 0.001015 459.89871 893.42957
1105.0 0.000905 459.91943 946.77283
1190.0 0.000840 459.94019 997.83606
1269.0 0.000788 459.96082 1128.46021
1497.0 0.000668 459.98135 1287.24939
1733.0 0.000577 460.00195 1510.70325
1973.0 0.000507 460.02243 1838.48743
2319.0 0.000431 460.04269 2281.65479
2790.0 0.000358 460.06305 2868.61694
3396.0 0.0002945 460.08325 3614.00098
4154.0 0.0002407 460.10342 4590.45361
5317.0 0.0001881 460.12338 5867.14111
7066.0 0.0001415 460.14337 7569.66553
9491.0 0.0001054 460.16321 9766.26465
12668.0 0.0000789 460.18292 12369.57910
15263.0 0.0000655 460.20251 14901.01660
16000.0 0.0000625 460.22202 16491.83789
15859.0 0.0000631 460.24146 16614.33594
15600.0 0.0000641 460.26074 16063.92676
15463.0 0.0000647 460.27988 15796.94824
15903.0 0.0000629 460.29895 15860.62305
16722.0 0.0000598 460.31781 16187.73926
16875.0 0.0000593 460.33661 16483.69336
15507.0 0.0000645 460.35513 15817.56055
13954.0 0.0000717 460.37369 13870.20410
11895.0 0.0000841 460.39212 11557.22363
9442.0 0.0001059 460.41025 9323.90332
7176.0 0.0001394 460.42828 7071.69141
5511.0 0.0001815 460.44623 5149.53418
4442.0 0.0002251 460.46402 3906.59741
3586.0 0.0002789 460.48157 3349.01563
3577.0 0.0002796 460.49899 3346.53125
3950.0 0.0002532 460.51627 3770.78027
4547.0 0.0002199 460.53339 4554.05127
5473.0 0.0001827 460.55029 5715.42822
6785.0 0.0001474 460.56705 7254.93311
8693.0 0.0001150 460.58353 9282.85352
11405.0 0.0000877 460.59991 11930.43164
15037.0 0.0000665 460.61612 15431.67969
19624.0 0.0000510 460.63214 19906.34961
24795.0 0.0000403 460.64801 25104.47852
29819.0 0.00003354 460.66360 29834.05273
31306.0 0.00003194 460.67896 31958.28906
29127.0 0.00003433 460.69424 29918.20508
25033.0 0.0000399 460.70926 25394.42188
21020.0 0.0000476 460.72409 20582.09766
16218.0 0.0000617 460.73871 15579.48926
11310.0 0.0000884 460.75308 10659.92285
7363.0 0.0001358 460.76730 6844.38672
4867.0 0.0002055 460.78128 4412.67773
3186.0 0.0003139 460.79501 3054.95020
2260.0 0.000442 460.80856 2332.92554
1570.0 0.000637 460.82184 1925.47791
1280.0 0.000781 460.83490 1664.19153
1099.0 0.000910 460.84775 1477.74280
953.0 0.001049 460.86041 1336.86121
899.0 0.001112 460.87274 1227.35754
877.0 0.001140 460.88489 1122.22876
853.0 0.001172 460.89682 1053.61877
816.0 0.001225 460.90854 998.31757
770.0 0.001299 460.91992 953.63080
730.0 0.001370 460.93106 908.86664
770.0 0.001299 460.94202 880.75342
815.0 0.001227 460.95261 859.22571
818.0 0.001222 460.96304 824.30237
794.0 0.001259 460.97321 816.26892
806.0 0.001241 460.98306 815.81989
810.0 0.001235 460.99271 816.07556
863.0 0.001159 461.00204 842.51703
955.0 0.001047 461.01117 892.49628
1032.0 0.000969 461.02002 974.18658
1086.0 0.000921 461.02853 1092.85095
1228.0 0.000814 461.03687 1259.12720
1410.0 0.000709 461.04489 1483.30603
1667.0 0.000600 461.05258 1770.66296
2036.0 0.000491 461.06003 2154.89722
2509.0 0.000399 461.06720 2659.39160
3285.0 0.0003044 461.07410 3312.08398
4149.0 0.0002410 461.08072 4073.94092
4890.0 0.0002045 461.08704 4790.45752
5142.0 0.0001945 461.09308 5171.69141
4852.0 0.0002061 461.09875 5019.43359
4595.0 0.0002176 461.10419 4565.69189
4272.0 0.0002341 461.10938 4082.40479
3772.0 0.0002651 461.11423 3691.00488
3451.0 0.0002898 461.11877 3371.10205
3353.0 0.0002982 461.12302 3259.74805
3564.0 0.0002806 461.12695 3326.90918
3456.0 0.0002894 461.13058 3433.63110
3225.0 0.0003101 461.13388 3319.06689
2944.0 0.0003397 461.13696 2946.67529
2569.0 0.000389 461.13965 2514.71704
2117.0 0.000472 461.14212 2094.02539
1714.0 0.000583 461.14423 1656.12915
1318.0 0.000759 461.14594 1261.23547
1032.0 0.000969 461.14740 976.93036
833.0 0.001200 461.14850 802.32373
739.0 0.001353 461.14935 704.34357
719.0 0.001391 461.14981 649.20392
673.0 0.001486 461.14996 614.92834
628.0 0.001592 461.14984 590.90839
619.0 0.001616 461.14938 572.71368
598.0 0.001672 461.14856 558.34918
665.0 0.001504 461.14737 546.74390
685.0 0.001460 461.14600 537.19965
631.0 0.001585 461.14420 529.23730
675.0 0.001481 461.14197 522.51770
770.0 0.001299 461.13956 516.78259
806.0 0.001241 461.13678 511.84528
780.0 0.001282 461.13358 521.92731
723.0 0.001383 461.13010 518.90814
740.0 0.001351 461.12628 516.39648
723.0 0.001383 461.12219 514.32593
678.0 0.001475 461.11761 519.97375
607.0 0.001647 461.11276 519.02533
559.0 0.001789 461.10751 518.43097
573.0 0.001745 461.10202 518.17310
572.0 0.001748 461.09610 518.24115
578.0 0.001730 461.08990 518.63147
582.0 0.001718 461.08331 519.34705
607.0 0.001647 461.07632 520.39734
591.0 0.001692 461.06906 515.31836
566.0 0.001767 461.06134 517.38971
566.0 0.001767 461.05338 519.84625
601.0 0.001664 461.04498 522.73206
613.0 0.001631 461.03629 522.97333
587.0 0.001704 461.02722 527.03485
563.0 0.001776 461.01779 531.72565
605.0 0.001653 461.00797 537.15192
645.0 0.001550 460.99774 543.45313
646.0 0.001548 460.98727 546.88495
670.0 0.001493 460.97638 555.68707
678.0 0.001475 460.96512 566.05115
739.0 0.001353 460.95349 576.37891
790.0 0.001266 460.94153 591.27594
871.0 0.001148 460.92914 609.42902
922.0 0.001085 460.91641 632.02026
968.0 0.001033 460.90335 661.20068
1114.0 0.000898 460.88986 701.11609
1141.0 0.000876 460.87604 759.62268
1211.0 0.000826 460.86182 849.73987
1342.0 0.000745 460.84726 989.53290
1534.0 0.000652 460.83228 1198.17688
1653.0 0.000605 460.81689 1490.12268
1991.0 0.000502 460.80127 1891.42017
2464.0 0.000406 460.78525 2424.08838
3141.0 0.0003184 460.76886 3153.51855
4046.0 0.0002472 460.75192 4082.90991
5181.0 0.0001930 460.73471 5282.77490
6554.0 0.0001526 460.71713 6719.96924
8137.0 0.0001229 460.69919 8165.65576
9196.0 0.0001087 460.68088 9073.15527
8830.0 0.0001133 460.66214 8911.87793
7649.0 0.0001307 460.64307 7854.96094
6627.0 0.0001509 460.62354 6628.98291
5657.0 0.0001768 460.60370 5428.18213
4237.0 0.0002360 460.58344 4130.96387
3059.0 0.0003269 460.56281 2918.81641
2249.0 0.000445 460.54181 2029.44958
1809.0 0.000553 460.52048 1481.32959
1632.0 0.000613 460.49866 1180.72046
1653.0 0.000605 460.47656 1022.02002
1808.0 0.000553 460.45395 933.05530
1869.0 0.000535 460.43100 877.97559
1746.0 0.000573 460.40771 841.75372
1611.0 0.000621 460.38400 818.10742
1483.0 0.000674 460.35995 803.97852
1288.0 0.000776 460.33545 797.64783
1163.0 0.000860 460.31058 798.18890
1033.0 0.000968 460.28537 805.22522
939.0 0.001065 460.25970 818.85443
895.0 0.001117 460.23361 839.62164
970.0 0.001031 460.20724 868.64783
1062.0 0.000942 460.18042 907.83777
1226.0 0.000816 460.15320 960.68121
1417.0 0.000706 460.12561 1034.05530
1646.0 0.000608 460.09766 1141.52930
1861.0 0.000537 460.06927 1307.51819
2064.0 0.000484 460.04056 1568.81714
2360.0 0.000424 460.01138 1971.55896
2822.0 0.000354 459.98190 2555.05957
3482.0 0.0002872 459.95197 3354.84741
4395.0 0.0002275 459.92160 4464.55322
5599.0 0.0001786 459.89093 5935.12354
7394.0 0.0001352 459.85980 7863.99658
10186.0 0.0000982 459.82831 10422.99023
13910.0 0.0000719 459.79645 13532.73535
17807.0 0.0000562 459.76416 16801.26367
19675.0 0.0000508 459.73154 19209.77539
18600.0 0.0000538 459.69846 19475.40039
16649.0 0.0000601 459.66504 17470.55273
14760.0 0.0000678 459.63116 14779.10742
12413.0 0.0000806 459.59692 12207.36523
9449.0 0.0001058 459.56229 9451.34570
6539.0 0.0001529 459.52725 6649.87061
4392.0 0.0002277 459.49185 4402.28516
3039.0 0.0003291 459.45609 2914.59473
2141.0 0.000467 459.41986 2058.90283
1548.0 0.000646 459.38324 1593.52527
1139.0 0.000878 459.34628 1329.05640
972.0 0.001029 459.30890 1160.12573
854.0 0.001171 459.27112 1040.32446
787.0 0.001271 459.23297 950.01404
705.0 0.001418 459.19443 879.73499
707.0 0.001414 459.15552 823.80542
663.0 0.001508 459.11615 778.48615
656.0 0.001524 459.07639 741.22900
617.0 0.001621 459.03635 710.18011
613.0 0.001631 458.99585 684.03149
573.0 0.001745 458.95493 661.78455
601.0 0.001664 458.91364 642.69049
560.0 0.001786 458.87195 626.18671
539.0 0.001855 458.82993 611.81091
583.0 0.001715 458.78745 599.21631
592.0 0.001689 458.74463 588.11298
566.0 0.001767 458.70135 578.27112
521.0 0.001919 458.65768 569.51093
540.0 0.001852 458.61374 561.67255
509.0 0.001965 458.56937 554.63361
556.0 0.001799 458.52457 548.28540
538.0 0.001859 458.47937 542.53839
520.0 0.001923 458.43378 537.32184
499.0 0.002004 458.38785 532.56836
512.0 0.001953 458.34152 528.22632
552.0 0.001812 458.29474 524.24701
512.0 0.001953 458.24765 520.59052
516.0 0.001938 458.20016 517.22424
517.0 0.001934 458.15225 514.11566
483.0 0.002070 458.10400 511.24005
506.0 0.001976 458.05536 508.57339
516.0 0.001938 458.00629 475.98209
503.0 0.001988 457.95682 475.04297
516.0 0.001938 457.90695 474.16772
508.0 0.001969 457.85687 473.35080
539.0 0.001855 457.80627 457.85077
582.0 0.001718 457.75528 457.79767
573.0 0.001745 457.70395 457.71951
535.0 0.001869 457.65219 457.66693
511.0 0.001957 457.60010 457.61414
537.0 0.001862 457.54761 457.56100
518.0 0.001931 457.49475 457.49545
490.0 0.002041 457.44150 470.40842
513.0 0.001949 457.38791 471.02060
517.0 0.001934 457.33386 471.68497
519.0 0.001927 457.27945 478.59833
511.0 0.001957 457.22476 479.69672
500.0 0.002000 457.16962 480.89078
492.0 0.002033 457.11407 482.19254
488.0 0.002049 457.05817 483.61392
529.0 0.001890 457.00198 485.17038
514.0 0.001946 456.94525 486.87943
510.0 0.001961 456.88828 488.75967
507.0 0.001972 456.83087 490.83582
474.0 0.002110 456.77313 493.13412
540.0 0.001852 456.71494 495.68808
514.0 0.001946 456.65640 498.53690
519.0 0.001927 456.59760 501.72485
512.0 0.001953 456.53833 505.31033
502.0 0.001992 456.47873 509.35938
541.0 0.001848 456.41864 513.95728
541.0 0.001848 456.35834 519.20898
511.0 0.001957 456.29761 525.24036
560.0 0.001786 456.23651 532.22009
533.0 0.001876 456.17508 540.35522
571.0 0.001751 456.11319 549.92407
573.0 0.001745 456.05103 561.29340
629.0 0.001590 455.98846 574.94855
643.0 0.001555 455.92557 591.59534
706.0 0.001416 455.86227 612.28448
741.0 0.001350 455.79861 638.84930
770.0 0.001299 455.73459 674.77441
871.0 0.001148 455.67023 726.63306
897.0 0.001115 455.60550 805.80225
1018.0 0.000982 455.54044 929.11597
1206.0 0.000829 455.47495 1117.35339
1397.0 0.000716 455.40918 1388.97180
1664.0 0.000601 455.34296 1767.38586
2124.0 0.000471 455.27652 2298.24316
2770.0 0.000361 455.20959 3000.38013
3744.0 0.0002671 455.14233 3933.74512
5439.0 0.0001839 455.07474 5088.36328
7231.0 0.0001383 455.00684 6333.90283
8217.0 0.0001217 454.93854 7316.03711
7434.0 0.0001345 454.86981 7566.81543
6577.0 0.0001520 454.80084 6944.13818
5935.0 0.0001685 454.73154 5988.02051
5319.0 0.0001880 454.66183 5102.18408
4161.0 0.0002403 454.59180 4201.92627
2955.0 0.0003384 454.52145 3193.61792
2050.0 0.000488 454.45071 2275.26489
1483.0 0.000674 454.37967 1610.37158
1082.0 0.000924 454.30823 1202.25586
852.0 0.001174 454.23645 972.13782
739.0 0.001353 454.16434 847.22607
676.0 0.001479 454.09192 771.87213
650.0 0.001538 454.01910 723.16663
623.0 0.001605 453.94589 687.13019
587.0 0.001704 453.87250 661.08282
580.0 0.001724 453.79865 640.69342
555.0 0.001802 453.72455 625.29089
541.0 0.001848 453.65002 613.87494
537.0 0.001862 453.57520 605.80652
571.0 0.001751 453.50000 600.69330
573.0 0.001745 453.42456 598.37000
613.0 0.001631 453.34872 598.88965
648.0 0.001543 453.27255 602.62476
647.0 0.001546 453.19611 610.52710
660.0 0.001515 453.11932 624.67078
726.0 0.001377 453.04218 648.88837
796.0 0.001256 452.96469 689.19531
840.0 0.001190 452.88690 753.54364
901.0 0.001110 452.80875 849.88739
1035.0 0.000966 452.73032 984.76538
1256.0 0.000796 452.65155 1174.73547
1510.0 0.000662 452.57248 1439.95129
1867.0 0.000536 452.49307 1784.27600
2277.0 0.000439 452.41327 2218.05103
2749.0 0.000364 452.33319 2693.37183
3217.0 0.0003108 452.25290 3089.37061
3409.0 0.0002933 452.17221 3226.46509
3082.0 0.0003245 452.09116 3031.06152
2725.0 0.000367 452.00989 2684.80566
2515.0 0.000398 451.92822 2365.63428
2169.0 0.000461 451.84628 2064.24414
1825.0 0.000548 451.76404 1716.28198
1483.0 0.000674 451.68143 1408.01099
1250.0 0.000800 451.59854 1206.52771
1055.0 0.000948 451.51535 1131.10938
1063.0 0.000941 451.43188 1166.27026
1230.0 0.000813 451.34805 1298.79651
1492.0 0.000670 451.26392 1505.47729
1895.0 0.000528 451.17944 1760.35339
2176.0 0.000460 451.09482 1997.96997
2175.0 0.000460 451.00977 2120.14087
2031.0 0.000492 450.92450 2049.69092
1777.0 0.000563 450.83884 1858.08630
1708.0 0.000585 450.75287 1668.15710
1544.0 0.000648 450.66672 1504.55676
1304.0 0.000767 450.58017 1331.06482
1119.0 0.000894 450.49338 1164.89282
973.0 0.001028 450.40625 1060.37817
971.0 0.001030 450.31882 1042.56238
1063.0 0.000941 450.23117 1116.79968
1182.0 0.000846 450.14313 1272.49194
1484.0 0.000674 450.05487 1498.93457
1793.0 0.000558 449.96631 1775.70630
2073.0 0.000482 449.87747 2036.32690
2141.0 0.000467 449.78833 2179.33179
1969.0 0.000508 449.69885 2114.33838
1766.0 0.000566 449.60919 1906.33386
1592.0 0.000628 449.51920 1688.50061
1411.0 0.000709 449.42896 1493.75110
1203.0 0.000831 449.33832 1277.60742
973.0 0.001028 449.24756 1043.90735
810.0 0.001235 449.15646 846.14227
698.0 0.001433 449.06503 708.99042
626.0 0.001597 448.97336 625.70239
598.0 0.001672 448.88141 578.43036
547.0 0.001828 448.78918 551.02954
527.0 0.001898 448.69666 533.48004
536.0 0.001866 448.60394 516.31311
520.0 0.001923 448.51093 506.92786
496.0 0.002016 448.41766 499.48090
473.0 0.002114 448.32407 493.43607
449.0 0.002227 448.23026 486.13593
459.0 0.002179 448.13611 482.05389
461.0 0.002169 448.04178 478.59970
442.0 0.002262 447.94714 475.64227
450.0 0.002222 447.85229 473.08673
471.0 0.002123 447.75711 470.85812
450.0 0.002222 447.66174 468.89905
435.0 0.002299 447.56607 467.16574
424.0 0.002358 447.47009 465.62103
440.0 0.002273 447.37399 464.23706
476.0 0.002101 447.27750 462.98959
452.0 0.002212 447.18085 459.24850
420.0 0.002381 447.08389 458.33798
457.0 0.002188 446.98672 457.50778
453.0 0.002208 446.88931 456.74774
458.0 0.002183 446.79163 461.57367
450.0 0.002222 446.69363 461.14206
460.0 0.002174 446.59549 460.77075
490.0 0.002041 446.49707 460.45493
460.0 0.002174 446.39847 460.19131
466.0 0.002146 446.29953 462.80743
487.0 0.002053 446.20038 462.75113
468.0 0.002137 446.10095 466.93710
452.0 0.002212 446.00131 467.14841
501.0 0.001996 445.90158 467.42139
442.0 0.002262 445.80148 464.06723
447.0 0.002237 445.70114 466.69397
482.0 0.002075 445.60056 469.39322
482.0 0.002075 445.49979 470.23761
484.0 0.002066 445.39877 469.74435
472.0 0.002119 445.29752 470.81366
428.0 0.002336 445.19608 472.95599
445.0 0.002247 445.09436 474.24670
486.0 0.002058 444.99237 475.64655
459.0 0.002179 444.89026 477.16656
463.0 0.002160 444.78793 478.82086
476.0 0.002101 444.68530 480.62524
493.0 0.002028 444.58252 482.59631
476.0 0.002101 444.47946 484.75592
453.0 0.002208 444.37625 487.12680
442.0 0.002262 444.27277 489.73770
453.0 0.002208 444.16907 492.62198
465.0 0.002151 444.06522 495.81619
465.0 0.002151 443.96106 499.36826
481.0 0.002079 443.85678 503.33105
481.0 0.002079 443.75223 507.77206
490.0 0.002041 443.64746 512.77258
505.0 0.001980 443.54257 518.42682
519.0 0.001927 443.43738 524.86047
523.0 0.001912 443.33209 532.22131
503.0 0.001988 443.22656 540.70459
487.0 0.002053 443.12079 550.55859
506.0 0.001976 443.01483 562.09729
557.0 0.001795 442.90857 575.75592
568.0 0.001761 442.80228 592.11249
579.0 0.001727 442.69577 612.02826
615.0 0.001626 442.58908 636.88892
689.0 0.001451 442.48212 669.16003
725.0 0.001379 442.37503 717.87903
761.0 0.001314 442.26773 782.58722
940.0 0.001064 442.16016 880.34412
1145.0 0.000873 442.05243 1028.91248
1303.0 0.000767 441.94464 1248.29675
1530.0 0.000654 441.83652 1561.29614
2029.0 0.000493 441.72824 2000.40112
2700.0 0.000370 441.61987 2605.93140
3609.0 0.0002771 441.51120 3386.96167
4928.0 0.0002029 441.40240 4319.26709
5923.0 0.0001688 441.29343 5245.75000
6261.0 0.0001597 441.18430 5905.04004
6042.0 0.0001655 441.07495 6055.13428
6049.0 0.0001653 440.96548 5883.87939
6025.0 0.0001660 440.85583 5805.57813
6358.0 0.0001573 440.74588 5946.43066
6539.0 0.0001529 440.63586 6120.30225
6516.0 0.0001535 440.52573 6107.55664
5956.0 0.0001679 440.41534 5835.98730
5466.0 0.0001829 440.30481 5341.84570
5166.0 0.0001936 440.19415 4885.60840
4963.0 0.0002015 440.08331 4622.15576
4692.0 0.0002131 439.97229 4411.99170
4113.0 0.0002431 439.86115 4011.26196
3472.0 0.0002880 439.74976 3383.89771
2730.0 0.000366 439.63824 2748.75781
2286.0 0.000437 439.52661 2260.23535
1944.0 0.000514 439.41479 1904.34949
1689.0 0.000592 439.30283 1593.65417
1323.0 0.000756 439.19064 1304.23669
1014.0 0.000986 439.07843 1069.02869
854.0 0.001171 438.96597 907.99084
777.0 0.001287 438.85349 803.08844
723.0 0.001383 438.74066 739.57983
622.0 0.001608 438.62781 700.59192
626.0 0.001597 438.51474 675.26654
574.0 0.001742 438.40170 660.21979
601.0 0.001664 438.28833 648.87445
603.0 0.001658 438.17490 642.17511
606.0 0.001650 438.06131 639.70941
611.0 0.001637 437.94760 641.50287
638.0 0.001567 437.83374 648.09033
671.0 0.001490 437.71973 660.86609
707.0 0.001414 437.60556 682.81165
782.0 0.001279 437.49136 719.71594
789.0 0.001267 437.37698 780.48370
891.0 0.001122 437.26242 878.72394
1076.0 0.000929 437.14780 1030.87036
1316.0 0.000760 437.03296 1253.57922
1609.0 0.000622 436.91803 1571.89404
2091.0 0.000478 436.80298 2013.84851
2878.0 0.0003475 436.68787 2579.24390
3696.0 0.0002706 436.57257 3236.50879
4467.0 0.0002239 436.45712 3843.65552
4596.0 0.0002176 436.34158 4203.15381
4054.0 0.0002467 436.22589 4111.50098
3622.0 0.0002761 436.11020 3687.05176
3320.0 0.0003012 435.99429 3233.32617
3057.0 0.0003271 435.87827 2858.73975
2537.0 0.000394 435.76218 2457.26221
1890.0 0.000529 435.64597 1979.43494
1401.0 0.000714 435.52966 1515.85986
1087.0 0.000920 435.41321 1161.78845
872.0 0.001147 435.29663 929.24188
733.0 0.001364 435.17993 794.57288
672.0 0.001488 435.06317 724.24261
612.0 0.001634 434.94635 687.37537
612.0 0.001634 434.82932 668.98535
595.0 0.001681 434.71225 663.23907
653.0 0.001531 434.59512 667.88708
712.0 0.001404 434.47778 688.21704
773.0 0.001294 434.36041 726.71484
816.0 0.001225 434.24295 788.48969
998.0 0.001002 434.12543 879.33533
1092.0 0.000916 434.00775 1011.54590
1279.0 0.000782 433.89005 1199.03003
1559.0 0.000641 433.77219 1438.62122
1766.0 0.000566 433.65417 1720.27771
2044.0 0.000489 433.53616 2008.96118
2397.0 0.000417 433.41809 2254.37256
2473.0 0.000404 433.29993 2473.75659
2814.0 0.000355 433.18161 2780.55542
3505.0 0.0002853 433.06326 3222.26343
4324.0 0.0002313 432.94479 3718.65381
4833.0 0.0002069 432.82626 4119.50195
4529.0 0.0002208 432.70758 4214.99365
3947.0 0.0002534 432.58899 3923.62085
3554.0 0.0002814 432.47021 3427.84766
3230.0 0.0003096 432.35135 2988.13647
2853.0 0.0003505 432.23245 2635.39478
2344.0 0.000427 432.11346 2254.84546
1789.0 0.000559 431.99438 1811.28198
1392.0 0.000718 431.87527 1401.10095
1089.0 0.000918 431.75607 1100.28906
928.0 0.001078 431.63678 916.56573
806.0 0.001241 431.51749 822.11078
762.0 0.001312 431.39810 774.27411
733.0 0.001364 431.27863 757.45074
743.0 0.001346 431.15906 740.71039
685.0 0.001460 431.03949 711.77576
652.0 0.001534 430.91986 671.77075
604.0 0.001656 430.80017 639.35913
570.0 0.001754 430.68039 612.83368
508.0 0.001969 430.56052 586.55731
468.0 0.002137 430.44061 557.99677
457.0 0.002188 430.32071 531.28821
463.0 0.002160 430.20074 510.26605
463.0 0.002160 430.08078 495.34274
437.0 0.002288 429.96063 485.18976
439.0 0.002278 429.84052 478.13565
423.0 0.002364 429.72034 472.88455
419.0 0.002387 429.60007 468.68781
413.0 0.002421 429.47980 465.16684
420.0 0.002381 429.35950 462.13324
450.0 0.002222 429.23914 459.48114
432.0 0.002315 429.11877 457.13657
414.0 0.002415 428.99832 455.04745
407.0 0.002457 428.87787 453.17200
441.0 0.002268 428.75729 451.47778
443.0 0.002257 428.63675 449.94003
396.0 0.002525 428.51614 446.55148
389.0 0.002571 428.39554 445.35602
425.0 0.002353 428.27493 444.25696
423.0 0.002364 428.15417 443.24231
404.0 0.002475 428.03345 441.29358
451.0 0.002217 427.91272 440.46719
421.0 0.002375 427.79190 433.07907
445.0 0.002247 427.67114 432.66428
453.0 0.002208 427.55029 432.27359
436.0 0.002294 427.42947 431.90488
418.0 0.002392 427.30856 431.55530
395.0 0.002532 427.18765 428.01077
391.0 0.002558 427.06683 427.84052
387.0 0.002584 426.94589 427.67453
424.0 0.002358 426.82492 427.51239
410.0 0.002439 426.70392 427.35361
415.0 0.002410 426.58298 427.19785
426.0 0.002347 426.46188 427.04471
418.0 0.002392 426.34088 426.89417
417.0 0.002398 426.21991 426.42172
397.0 0.002519 426.09891 426.29028
401.0 0.002494 425.97778 426.15958
446.0 0.002242 425.85678 426.02957
421.0 0.002375 425.73566 425.90021
416.0 0.002404 425.61462 425.61392
414.0 0.002415 425.49359 425.49271
389.0 0.002571 425.37250 425.37173
405.0 0.002469 425.25146 425.25064
436.0 0.002294 425.13028 425.12952
399.0 0.002506 425.00931 425.00851
402.0 0.002488 424.88812 424.88733
388.0 0.002577 424.76712 424.76624
383.0 0.002611 424.64603 424.64523
393.0 0.002545 424.52493 424.52414
407.0 0.002457 424.40390 424.40311
377.0 0.002653 424.28287 424.28201
374.0 0.002674 424.16180 424.16101
409.0 0.002445 424.04071 424.03998
413.0 0.002421 423.91971 423.91888
396.0 0.002525 423.79871 423.79797
408.0 0.002451 423.67770 423.67694
399.0 0.002506 423.55667 423.55591
401.0 0.002494 423.43579 426.00989
413.0 0.002421 423.31476 425.98822
409.0 0.002445 423.19385 425.97250
421.0 0.002375 423.07291 425.96310
435.0 0.002299 422.95203 425.96042
431.0 0.002320 422.83118 427.25778
418.0 0.002392 422.71024 427.32077
401.0 0.002494 422.58945 427.39554
405.0 0.002469 422.46857 427.48300
394.0 0.002538 422.34784 427.58444
409.0 0.002445 422.22708 427.70090
436.0 0.002294 422.10632 427.83414
398.0 0.002513 421.98563 436.44321
389.0 0.002571 421.86496 436.93900
417.0 0.002398 421.74432 437.47562
442.0 0.002262 421.62372 438.05707
437.0 0.002288 421.50314 438.68765
413.0 0.002421 421.38257 443.61157
413.0 0.002421 421.26205 444.51804
407.0 0.002457 421.14157 445.49899
399.0 0.002506 421.02121 446.56238
414.0 0.002415 420.90076 447.71716
408.0 0.002451 420.78040 448.97223
424.0 0.002358 420.66006 450.33975
419.0 0.002387 420.53986 451.83197
437.0 0.002288 420.41956 453.46439
436.0 0.002294 420.29941 458.34756
421.0 0.002375 420.17932 460.43469
470.0 0.002128 420.05914 462.73080
418.0 0.002392 419.93915 465.26309
399.0 0.002506 419.81909 468.06656
411.0 0.002433 419.69916 472.73068
417.0 0.002398 419.57922 477.07242
427.0 0.002342 419.45941 481.06247
434.0 0.002304 419.33960 485.54956
408.0 0.002451 419.21991 490.62683
453.0 0.002208 419.10019 496.41022
518.0 0.001931 418.98053 503.44565
441.0 0.002268 418.86096 511.13632
483.0 0.002070 418.74146 520.12042
473.0 0.002114 418.62201 530.75391
472.0 0.002119 418.50256 543.56787
495.0 0.002020 418.38321 559.43597
516.0 0.001938 418.26395 579.97424
567.0 0.001764 418.14474 608.10333
626.0 0.001597 418.02567 648.84741
689.0 0.001451 417.90656 710.02875
747.0 0.001339 417.78754 802.57001
915.0 0.001093 417.66849 939.47424
1103.0 0.000907 417.54971 1133.10217
1492.0 0.000670 417.43085 1398.83484
1879.0 0.000532 417.31210 1739.78894
2267.0 0.000441 417.19342 2117.38208
2647.0 0.000378 417.07483 2462.93604
2723.0 0.000367 416.95633 2660.12500
2599.0 0.000385 416.83789 2634.24414
2492.0 0.000401 416.71948 2476.28076
2438.0 0.000410 416.60114 2351.79932
2501.0 0.000400 416.48291 2336.67212
2566.0 0.000390 416.36478 2411.82959
2639.0 0.000379 416.24673 2565.43091
2956.0 0.0003383 416.12866 2867.53979
3535.0 0.0002829 416.01080 3423.95337
4555.0 0.0002195 415.89294 4289.09277
5811.0 0.0001721 415.77530 5362.45068
6940.0 0.0001441 415.65762 6421.41602
7235.0 0.0001382 415.54007 7097.75488
6516.0 0.0001535 415.42252 7037.27930
5740.0 0.0001742 415.30508 6373.71777
5301.0 0.0001886 415.18774 5612.94287
5063.0 0.0001975 415.07062 5035.68506
4502.0 0.0002221 414.95346 4544.54785
3747.0 0.0002669 414.83643 3932.62109
2995.0 0.0003339 414.71942 3228.84546
2580.0 0.000388 414.60260 2656.04224
2440.0 0.000410 414.48584 2344.42090
2354.0 0.000425 414.36908 2316.97998
2602.0 0.000384 414.25256 2511.57446
2949.0 0.0003391 414.13602 2812.20215
3101.0 0.0003225 414.01968 3077.84106
3144.0 0.0003181 413.90344 3146.06519
2919.0 0.0003426 413.78720 2989.67627
2693.0 0.000371 413.67111 2766.29126
2609.0 0.000383 413.55508 2611.79980
2512.0 0.000398 413.43930 2514.88452
2343.0 0.000427 413.32349 2369.01099
2076.0 0.000482 413.20776 2102.80664
1637.0 0.000611 413.09219 1766.88562
1358.0 0.000736 412.97675 1460.53137
1220.0 0.000820 412.86136 1237.03320
997.0 0.001003 412.74609 1087.86682
918.0 0.001089 412.63098 972.73102
810.0 0.001235 412.51590 863.75763
689.0 0.001451 412.40097 764.35803
584.0 0.001712 412.28619 685.61047
558.0 0.001792 412.17145 629.63782
520.0 0.001923 412.05679 592.48584
492.0 0.002033 411.94235 568.37659
479.0 0.002088 411.82803 552.36560
445.0 0.002247 411.71375 541.43396
459.0 0.002179 411.59961 534.22382
503.0 0.001988 411.48560 530.50879
484.0 0.002066 411.37167 530.80090
509.0 0.001965 411.25787 536.11377
511.0 0.001957 411.14423 547.60980
531.0 0.001883 411.03067 568.33636
559.0 0.001789 410.91718 595.31451
629.0 0.001590 410.80396 625.37646
677.0 0.001477 410.69073 657.55457
696.0 0.001437 410.57767 680.74182
674.0 0.001484 410.46469 682.33057
657.0 0.001522 410.35193 664.72516
674.0 0.001484 410.23920 642.58014
650.0 0.001538 410.12674 627.77490
642.0 0.001558 410.01431 617.34399
661.0 0.001513 409.90201 607.48029
640.0 0.001563 409.78970 592.25098
642.0 0.001558 409.67773 580.99268
642.0 0.001558 409.56573 580.14984
648.0 0.001543 409.45404 594.18298
725.0 0.001379 409.34241 620.86920
782.0 0.001279 409.23083 683.00421
830.0 0.001205 409.11945 786.53992
984.0 0.001016 409.00815 940.61255
1253.0 0.000798 408.89709 1154.74768
1631.0 0.000613 408.78613 1445.80383
2137.0 0.000468 408.67529 1787.50232
2644.0 0.000378 408.56458 2119.02075
2802.0 0.000357 408.45395 2344.85596
2551.0 0.000392 408.34357 2356.98511
2287.0 0.000437 408.23325 2177.27759
2093.0 0.000478 408.12311 1951.43347
2021.0 0.000495 408.01306 1774.28369
1858.0 0.000538 407.90323 1629.18762
1551.0 0.000645 407.79352 1454.38159
1245.0 0.000803 407.68396 1226.83838
1002.0 0.000998 407.57446 999.46686
776.0 0.001289 407.46521 819.60742
710.0 0.001408 407.35611 696.34271
584.0 0.001712 407.24707 622.03888
540.0 0.001852 407.13824 580.71796
505.0 0.001980 407.02951 557.95325
499.0 0.002004 406.92099 545.30200
532.0 0.001880 406.81253 538.52124
478.0 0.002092 406.70435 535.39642
481.0 0.002079 406.59622 536.01636
472.0 0.002119 406.48825 539.85107
553.0 0.001808 406.38040 547.23102
512.0 0.001953 406.27274 559.11914
632.0 0.001582 406.16534 577.49719
626.0 0.001597 406.05792 606.00171
651.0 0.001536 405.95074 650.65253
732.0 0.001366 405.84375 720.48059
946.0 0.001057 405.73688 827.42688
1119.0 0.000894 405.63022 983.94495
1347.0 0.000742 405.52359 1202.32434
1634.0 0.000612 405.41714 1486.67346
1933.0 0.000517 405.31091 1813.79248
2300.0 0.000435 405.20486 2136.44092
2458.0 0.000407 405.09888 2379.22168
2560.0 0.000391 404.99319 2506.36694
2603.0 0.000384 404.88751 2590.98682
2743.0 0.000365 404.78214 2697.32446
2890.0 0.0003460 404.67685 2788.03955
2916.0 0.0003429 404.57178 2796.53491
2824.0 0.000354 404.46683 2717.32666
2830.0 0.000353 404.36200 2659.77881
3041.0 0.0003288 404.25735 2687.19653
3134.0 0.0003191 404.15292 2733.28711
2896.0 0.0003453 404.04865 2698.94751
2633.0 0.000380 403.94449 2540.35400
2472.0 0.000405 403.84055 2358.61963
2447.0 0.000409 403.73676 2279.41846
2561.0 0.000390 403.63315 2325.70117
2696.0 0.000371 403.52966 2442.24243
2734.0 0.000366 403.42645 2515.72290
2574.0 0.000389 403.32339 2462.80786
2211.0 0.000452 403.22040 2265.31470
1905.0 0.000525 403.11761 1983.62341
1693.0 0.000591 403.01505 1736.99927
1589.0 0.000629 402.91266 1564.39282
1464.0 0.000683 402.81036 1427.27393
1222.0 0.000818 402.70834 1269.15186
966.0 0.001035 402.60645 1079.98450
811.0 0.001233 402.50470 897.58130
710.0 0.001408 402.40314 754.10974
613.0 0.001631 402.30185 655.29395
593.0 0.001686 402.20056 591.69537
552.0 0.001812 402.09961 553.70190
508.0 0.001969 401.99878 529.84735
481.0 0.002079 401.89813 513.73199
450.0 0.002222 401.79758 502.02628
460.0 0.002174 401.69730 493.04620
451.0 0.002217 401.59720 485.83057
438.0 0.002283 401.49728 479.81491
445.0 0.002247 401.39752 474.75616
469.0 0.002132 401.29791 470.69876
465.0 0.002151 401.19861 467.65039
448.0 0.002232 401.09933 465.49612
478.0 0.002092 401.00031 464.11618
507.0 0.001972 400.90152 463.48291
480.0 0.002083 400.80283 463.73346
510.0 0.001961 400.70441 466.40402
513.0 0.001949 400.60611 469.13251
553.0 0.001808 400.50797 473.61835
589.0 0.001698 400.41010 480.67328
595.0 0.001681 400.31241 491.88818
629.0 0.001590 400.21484 510.12604
636.0 0.001572 400.11749 540.75061
712.0 0.001404 400.02036 589.23065
798.0 0.001253 399.92334 664.80682
910.0 0.001099 399.82657 774.86902
1053.0 0.000950 399.73001 920.00256
1216.0 0.000822 399.63358 1103.40063
1287.0 0.000777 399.53738 1310.41724
1464.0 0.000683 399.44138 1467.95447
1525.0 0.000656 399.34549 1526.00635
1483.0 0.000674 399.24997 1458.77637
1307.0 0.000765 399.15451 1330.79736
1169.0 0.000855 399.05920 1223.84668
1151.0 0.000869 398.96414 1144.65930
1054.0 0.000949 398.86929 1068.20422
956.0 0.001046 398.77466 960.25482
831.0 0.001203 398.68018 830.25476
681.0 0.001468 398.58588 709.28992
607.0 0.001647 398.49182 617.21600
541.0 0.001848 398.39789 555.95367
503.0 0.001988 398.30423 517.98016
487.0 0.002053 398.21072 496.61414
458.0 0.002183 398.11749 484.11469
434.0 0.002304 398.02432 474.39679
440.0 0.002273 397.93140 469.41391
442.0 0.002262 397.83878 466.15814
431.0 0.002320 397.74625 464.64117
420.0 0.002381 397.65399 463.67706
416.0 0.002404 397.56195 462.85440
440.0 0.002273 397.46991 463.58047
443.0 0.002257 397.37820 465.04303
433.0 0.002309 397.28677 467.47250
443.0 0.002257 397.19543 470.43692
427.0 0.002342 397.10440 475.21643
445.0 0.002247 397.01349 480.10977
463.0 0.002160 396.92285 485.95703
448.0 0.002232 396.83234 493.12421
460.0 0.002174 396.74203 501.97577
499.0 0.002004 396.65198 513.63672
508.0 0.001969 396.56207 528.32001
508.0 0.001969 396.47241 548.55817
547.0 0.001828 396.38293 577.85687
623.0 0.001605 396.29367 621.52161
693.0 0.001443 396.20456 686.84271
787.0 0.001271 396.11572 781.68652
903.0 0.001107 396.02713 910.51276
1099.0 0.000910 395.93869 1073.58582
1303.0 0.000767 395.85052 1262.84827
1483.0 0.000674 395.76245 1443.20886
1572.0 0.000636 395.67468 1565.17566
1592.0 0.000628 395.58694 1599.77832
1527.0 0.000655 395.49960 1579.85449
1706.0 0.000586 395.41245 1595.06445
1880.0 0.000532 395.32547 1710.50281
2113.0 0.000473 395.23865 1952.18933
2621.0 0.000382 395.15213 2335.98267
3115.0 0.0003210 395.06577 2878.89941
3903.0 0.0002562 394.97961 3602.07300
4833.0 0.0002069 394.89365 4493.59131
5835.0 0.0001714 394.80789 5382.46436
6467.0 0.0001546 394.72244 5953.65234
6193.0 0.0001615 394.63715 5958.39795
5315.0 0.0001881 394.55203 5433.89844
4644.0 0.0002153 394.46713 4784.68896
4351.0 0.0002298 394.38242 4300.23291
4077.0 0.0002453 394.29800 3948.12280
3529.0 0.0002834 394.21384 3551.49731
2925.0 0.0003419 394.12979 2984.62134
2211.0 0.000452 394.04596 2332.13477
1617.0 0.000618 393.96228 1756.76001
1249.0 0.000801 393.87897 1332.97571
998.0 0.001002 393.79572 1058.56873
885.0 0.001130 393.71280 899.36859
785.0 0.001274 393.63007 817.18329
705.0 0.001418 393.54752 784.79187
714.0 0.001401 393.46527 787.39362
774.0 0.001292 393.38312 817.96875
897.0 0.001115 393.30121 872.81921
943.0 0.001060 393.21957 943.29633
1002.0 0.000998 393.13803 1013.63019
1038.0 0.000963 393.05682 1071.36768
1076.0 0.000929 392.97580 1115.74829
1167.0 0.000857 392.89499 1162.08630
1291.0 0.000775 392.81442 1221.09473
1413.0 0.000708 392.73401 1291.56750
1458.0 0.000686 392.65393 1355.16260
1474.0 0.000678 392.57391 1375.54309
1357.0 0.000737 392.49420 1325.36609
1194.0 0.000838 392.41470 1213.97412
1111.0 0.000900 392.33542 1090.11609
1027.0 0.000974 392.25638 991.81256
997.0 0.001003 392.17749 919.63837
854.0 0.001171 392.09885 852.49390
720.0 0.001389 392.02045 772.54706
625.0 0.001600 391.94226 685.61035
544.0 0.001838 391.86423 609.22253
492.0 0.002033 391.78650 551.65643
469.0 0.002132 391.70898 512.51526
449.0 0.002227 391.63168 487.44583
430.0 0.002326 391.55453 471.47855
409.0 0.002445 391.47766 460.77621
410.0 0.002439 391.40106 452.99545
407.0 0.002457 391.32455 446.92905
449.0 0.002227 391.24838 440.68051
429.0 0.002331 391.17233 436.58090
417.0 0.002398 391.09659 433.73386
387.0 0.002584 391.02100 430.76480
389.0 0.002571 390.94565 428.19601
402.0 0.002488 390.87054 425.30295
387.0 0.002584 390.79565 423.36716
425.0 0.002353 390.72098 421.67032
402.0 0.002488 390.64655 420.50052
376.0 0.002660 390.57227 419.20636
408.0 0.002451 390.49829 418.07791
404.0 0.002475 390.42447 409.21588
379.0 0.002639 390.35098 408.66650
399.0 0.002506 390.27762 408.23950
382.0 0.002618 390.20450 407.93408
379.0 0.002639 390.13159 407.75284
388.0 0.002577 390.05890 403.71811
371.0 0.002695 389.98645 403.95441
405.0 0.002469 389.91418 405.87729
362.0 0.002762 389.84222 406.50427
369.0 0.002710 389.77045 407.35150
386.0 0.002591 389.69882 408.47562
377.0 0.002653 389.62753 409.96576
342.0 0.002924 389.55637 412.07303
386.0 0.002591 389.48550 415.58572
404.0 0.002475 389.41483 419.81830
407.0 0.002457 389.34439 426.40143
425.0 0.002353 389.27417 436.91336
460.0 0.002174 389.20419 453.65793
450.0 0.002222 389.13443 479.37143
482.0 0.002075 389.06482 515.61499
549.0 0.001821 388.99545 563.14191
646.0 0.001548 388.92642 618.62671
708.0 0.001412 388.85754 672.33008
721.0 0.001387 388.78885 707.65424
640.0 0.001563 388.72037 710.37665
609.0 0.001642 388.65219 683.41766
601.0 0.001664 388.58417 647.21155
621.0 0.001610 388.51642 620.79126
603.0 0.001658 388.44888 603.69373
555.0 0.001802 388.38159 586.03271
560.0 0.001786 388.31445 559.26697
532.0 0.001880 388.24759 524.91998
488.0 0.002049 388.18094 493.22034
455.0 0.002198 388.11450 469.48001
415.0 0.002410 388.04831 454.85785
393.0 0.002545 387.98233 448.34747
410.0 0.002439 387.91660 448.66928
472.0 0.002119 387.85107 455.52509
474.0 0.002110 387.78577 470.17557
495.0 0.002020 387.72070 495.36902
534.0 0.001873 387.65585 534.36066
589.0 0.001698 387.59125 588.63904
680.0 0.001471 387.52676 656.50220
813.0 0.001230 387.46265 731.39478
907.0 0.001103 387.39868 796.01599
904.0 0.001106 387.33496 827.76910
864.0 0.001157 387.27142 815.27643
817.0 0.001224 387.20819 774.05243
830.0 0.001205 387.14514 734.21924
785.0 0.001274 387.08228 710.17712
827.0 0.001209 387.01965 696.30072
764.0 0.001309 386.95724 680.07886
680.0 0.001471 386.89505 656.70349
691.0 0.001447 386.83319 638.14624
748.0 0.001337 386.77145 646.26984
773.0 0.001294 386.70999 687.27332
885.0 0.001130 386.64874 772.10236
1050.0 0.000952 386.58765 899.51752
1212.0 0.000825 386.52686 1059.18445
1479.0 0.000676 386.46622 1225.64404
1491.0 0.000671 386.40588 1351.34448
1555.0 0.000643 386.34570 1381.64282
1373.0 0.000728 386.28580 1311.84302
1302.0 0.000768 386.22617 1198.65466
1154.0 0.000867 386.16666 1104.39246
1087.0 0.000920 386.10739 1043.70581
1046.0 0.000956 386.04834 992.01483
990.0 0.001010 385.98950 916.78497
814.0 0.001229 385.93091 811.88629
702.0 0.001425 385.87262 702.15259
639.0 0.001565 385.81439 610.64203
546.0 0.001832 385.75656 544.76050
512.0 0.001953 385.69882 501.96518
465.0 0.002151 385.64139 475.94235
449.0 0.002227 385.58411 460.33145
422.0 0.002370 385.52710 450.58374
418.0 0.002392 385.47031 444.07758
421.0 0.002375 385.41370 447.79401
409.0 0.002445 385.35739 444.83279
406.0 0.002463 385.30124 442.83801
395.0 0.002532 385.24530 441.62213
410.0 0.002439 385.18964 441.06787
412.0 0.002427 385.13416 440.86203
403.0 0.002481 385.07895 445.83710
417.0 0.002398 385.02393 447.11050
445.0 0.002247 384.96912 448.91602
436.0 0.002294 384.91452 451.27267
404.0 0.002475 384.86014 454.22266
419.0 0.002387 384.80603 457.82663
405.0 0.002469 384.75214 462.17386
421.0 0.002375 384.69836 467.38565
445.0 0.002247 384.64493 473.61969
478.0 0.002092 384.59167 481.09821
511.0 0.001957 384.53864 490.11490
527.0 0.001898 384.48587 501.09753
543.0 0.001842 384.43323 514.69659
546.0 0.001832 384.38083 534.04102
607.0 0.001647 384.32870 557.09766
666.0 0.001502 384.27679 588.88617
762.0 0.001312 384.22507 637.36090
911.0 0.001098 384.17352 712.95996
1028.0 0.000973 384.12225 832.20789
1258.0 0.000795 384.07126 1018.48450
1492.0 0.000670 384.02045 1284.95166
1796.0 0.000557 383.96979 1635.37915
2068.0 0.000484 383.91940 2049.38086
2470.0 0.000405 383.86923 2467.40454
2853.0 0.0003505 383.81921 2775.53101
2990.0 0.0003344 383.76950 2868.59570
2821.0 0.000354 383.71997 2747.79614
2499.0 0.000400 383.67065 2558.23853
2486.0 0.000402 383.62164 2438.35083
2315.0 0.000432 383.57272 2411.31055
2600.0 0.000385 383.52405 2398.88110
2420.0 0.000413 383.47559 2293.73267
2210.0 0.000452 383.42737 2061.75488
1760.0 0.000568 383.37939 1767.17798
1496.0 0.000668 383.33160 1506.85608
1468.0 0.000681 383.28412 1328.08679
1281.0 0.000781 383.23669 1228.02856
1246.0 0.000803 383.18958 1178.92310
1202.0 0.000832 383.14267 1160.24219
1205.0 0.000830 383.09595 1175.10474
1264.0 0.000791 383.04944 1259.61780
1482.0 0.000675 383.00320 1454.13245
1839.0 0.000544 382.95712 1809.35669
2530.0 0.000395 382.91132 2365.12061
3525.0 0.0002837 382.86566 3126.87329
4810.0 0.0002079 382.82025 4037.37402
6075.0 0.0001646 382.77505 4966.28516
6512.0 0.0001536 382.73004 5649.88184
6023.0 0.0001660 382.68533 5823.77734
5228.0 0.0001913 382.64069 5453.45264
4707.0 0.0002124 382.59637 4844.15332
4464.0 0.0002240 382.55225 4329.11572
4446.0 0.0002249 382.50833 4008.57275
4121.0 0.0002427 382.46463 3766.21484
3474.0 0.0002879 382.42105 3416.37158
2765.0 0.000362 382.37790 2890.58472
2148.0 0.000466 382.33478 2301.05957
1707.0 0.000586 382.29187 1787.98962
1390.0 0.000719 382.24930 1413.86182
1190.0 0.000840 382.20685 1182.54883
1073.0 0.000932 382.16458 1070.98828
1093.0 0.000915 382.12259 1056.22998
1167.0 0.000857 382.08078 1122.48132
1328.0 0.000753 382.03918 1257.89441
1613.0 0.000620 381.99780 1447.13831
1881.0 0.000532 381.95660 1663.91199
2074.0 0.000482 381.91568 1858.66748
2150.0 0.000465 381.87491 1968.36548
2085.0 0.000480 381.83435 1973.21753
2035.0 0.000491 381.79401 1930.79773
2091.0 0.000478 381.75388 1924.33008
2158.0 0.000463 381.71399 1984.82263
2255.0 0.000443 381.67426 2067.17700
2231.0 0.000448 381.63470 2085.87354
1985.0 0.000504 381.59546 1978.54883
1722.0 0.000581 381.55630 1771.34961
1528.0 0.000654 381.51746 1556.07690
1450.0 0.000690 381.47882 1399.73425
1332.0 0.000751 381.44031 1309.30579
1298.0 0.000770 381.40207 1270.71460
1213.0 0.000824 381.36401 1254.06506
1214.0 0.000824 381.32614 1256.88013
1225.0 0.000816 381.28842 1298.95984
1389.0 0.000720 381.25104 1390.71191
1527.0 0.000655 381.21381 1516.18640
1649.0 0.000606 381.17676 1639.89844
1672.0 0.000598 381.13992 1710.44934
1645.0 0.000608 381.10324 1716.79309
1729.0 0.000578 381.06689 1714.44629
1829.0 0.000547 381.03061 1778.39600
2059.0 0.000486 380.99463 1940.52148
2317.0 0.000432 380.95877 2182.86084
2413.0 0.000414 380.92325 2451.79590
2547.0 0.000393 380.88776 2667.19165
2746.0 0.000364 380.85251 2786.24390
2616.0 0.000382 380.81750 2822.69653
2504.0 0.000399 380.78275 2827.00952
2636.0 0.000379 380.74811 2806.01636
2430.0 0.000412 380.71371 2724.70801
2356.0 0.000424 380.67950 2569.91992
2239.0 0.000447 380.64554 2389.63452
2098.0 0.000477 380.61169 2232.90210
2028.0 0.000493 380.57803 2156.41895
2071.0 0.000483 380.54468 2144.33862
2177.0 0.000459 380.51141 2153.53076
2183.0 0.000458 380.47833 2141.90845
2079.0 0.000481 380.44559 2080.47778
1915.0 0.000522 380.41290 1947.21130
1756.0 0.000569 380.38058 1772.68542
1584.0 0.000631 380.34821 1610.13135
1491.0 0.000671 380.31622 1494.15491
1424.0 0.000702 380.28442 1419.66956
1360.0 0.000735 380.25278 1360.55737
1248.0 0.000801 380.22131 1293.26514
1149.0 0.000870 380.19000 1219.67517
1106.0 0.000904 380.15897 1168.42566
1130.0 0.000885 380.12808 1162.44458
1163.0 0.000860 380.09744 1205.18018
1204.0 0.000831 380.06699 1291.12622
1306.0 0.000766 380.03665 1410.93237
1469.0 0.000681 380.00656 1538.49756
1620.0 0.000617 379.97668 1656.85156
1809.0 0.000553 379.94693 1773.90479
1995.0 0.000501 379.91745 1897.96692
2079.0 0.000481 379.88812 2007.33594
2041.0 0.000490 379.85895 2035.95593
1865.0 0.000536 379.83005 1932.89148
1643.0 0.000609 379.80121 1745.13989
1512.0 0.000661 379.77274 1558.22339
1421.0 0.000704 379.74426 1415.93213
1348.0 0.000742 379.71619 1318.43970
1252.0 0.000799 379.68817 1228.22229
1063.0 0.000941 379.66028 1108.28271
880.0 0.001136 379.63272 969.97406
827.0 0.001209 379.60532 846.84198
781.0 0.001280 379.57800 756.07513
725.0 0.001379 379.55093 702.28186
767.0 0.001304 379.52405 684.87219
787.0 0.001271 379.49731 704.05762
911.0 0.001098 379.47089 763.30157
993.0 0.001007 379.44455 876.43829
1175.0 0.000851 379.41843 1053.89526
1384.0 0.000723 379.39246 1298.33521
1536.0 0.000651 379.36661 1587.60400
1746.0 0.000573 379.34109 1878.71960
1980.0 0.000505 379.31570 2118.49829
2207.0 0.000453 379.29044 2223.10815
2319.0 0.000431 379.26538 2137.47705
2090.0 0.000478 379.24060 1953.26965
1924.0 0.000520 379.21588 1787.94653
1691.0 0.000591 379.19141 1687.85925
1602.0 0.000624 379.16711 1636.94946
1588.0 0.000630 379.14291 1581.40613
1572.0 0.000636 379.11899 1453.52429
1322.0 0.000756 379.09525 1259.76123
1103.0 0.000907 379.07162 1055.16785
964.0 0.001037 379.04825 883.63593
826.0 0.001211 379.02493 758.90857
733.0 0.001364 379.00189 678.55640
619.0 0.001616 378.97897 627.26984
606.0 0.001650 378.95630 587.22968
551.0 0.001815 378.93378 553.38922
528.0 0.001894 378.91138 524.24469
489.0 0.002045 378.88922 501.66333
484.0 0.002066 378.86722 487.19272
493.0 0.002028 378.84546 481.08554
473.0 0.002114 378.82382 482.87341
499.0 0.002004 378.80222 494.65164
505.0 0.001980 378.78101 515.06860
552.0 0.001812 378.75977 541.32343
571.0 0.001751 378.73886 568.67780
574.0 0.001742 378.71802 591.15106
583.0 0.001715 378.69751 599.78619
570.0 0.001754 378.67706 587.53735
542.0 0.001845 378.65674 564.98358
515.0 0.001942 378.63666 543.41248
509.0 0.001965 378.61667 528.21295
512.0 0.001953 378.59692 518.69202
545.0 0.001835 378.57730 507.61548
521.0 0.001919 378.55789 492.19965
472.0 0.002119 378.53867 471.73712
462.0 0.002165 378.51959 450.77020
432.0 0.002315 378.50064 433.25732
399.0 0.002506 378.48190 420.20685
407.0 0.002457 378.46326 410.29962
419.0 0.002387 378.44482 404.54388
402.0 0.002488 378.42661 400.79730
390.0 0.002564 378.40848 398.23175
380.0 0.002632 378.39056 396.34137
371.0 0.002695 378.37277 394.85559
398.0 0.002513 378.35519 393.63812
385.0 0.002597 378.33777 392.61621
369.0 0.002710 378.32050 391.74692
396.0 0.002525 378.30338 391.00171
377.0 0.002653 378.28644 390.66235
367.0 0.002725 378.26959 390.12137
393.0 0.002545 378.25299 389.65857
410.0 0.002439 378.23648 389.26535
420.0 0.002381 378.22025 388.93634
398.0 0.002513 378.20410 385.62793
384.0 0.002604 378.18805 385.52750
381.0 0.002625 378.17224 385.63318
422.0 0.002370 378.15659 385.64688
370.0 0.002703 378.14108 385.72406
384.0 0.002604 378.12567 385.89078
379.0 0.002639 378.11050 384.63083
426.0 0.002347 378.09540 385.10858
378.0 0.002646 378.08057 385.54733
445.0 0.002247 378.06580 386.62350
414.0 0.002415 378.05121 393.34686
398.0 0.002513 378.03680 395.67294
404.0 0.002475 378.02255 398.52249
404.0 0.002475 378.00839 401.64285
440.0 0.002273 377.99445 404.52594
403.0 0.002481 377.98059 406.95389
390.0 0.002564 377.96698 410.76376
405.0 0.002469 377.95349 411.27493
380.0 0.002632 377.94006 412.00125
404.0 0.002475 377.92688 413.85254
382.0 0.002618 377.91379 417.44318
419.0 0.002387 377.90088 423.42334
429.0 0.002331 377.88812 432.69070
463.0 0.002160 377.87558 446.77249
469.0 0.002132 377.86304 467.69101
538.0 0.001859 377.85074 496.54468
582.0 0.001718 377.83859 531.36139
689.0 0.001451 377.82654 568.19934
707.0 0.001414 377.81476 599.82159
669.0 0.001495 377.80295 616.88782
611.0 0.001637 377.79138 613.73267
621.0 0.001610 377.77988 595.74567
603.0 0.001658 377.76862 574.59930
591.0 0.001692 377.75745 558.50629
580.0 0.001724 377.74643 549.17432
600.0 0.001667 377.73557 542.17163
566.0 0.001767 377.72488 531.30566
536.0 0.001866 377.71420 514.55316
523.0 0.001912 377.70383 496.75818
508.0 0.001969 377.69351 480.01126
483.0 0.002070 377.68335 468.85486
441.0 0.002268 377.67337 464.52719
460.0 0.002174 377.66345 467.41562
489.0 0.002045 377.65366 477.84210
488.0 0.002049 377.64401 496.23132
508.0 0.001969 377.63461 523.23163
588.0 0.001701 377.62521 555.49677
603.0 0.001658 377.61603 589.59698
626.0 0.001597 377.60696 620.36688
630.0 0.001587 377.59808 640.78674
632.0 0.001582 377.58920 646.22839
631.0 0.001585 377.58060 643.87994
584.0 0.001712 377.57214 646.26733
621.0 0.001610 377.56366 665.52832
699.0 0.001431 377.55539 698.29590
780.0 0.001282 377.54733 753.48523
808.0 0.001238 377.53931 839.87067
966.0 0.001035 377.53143 976.41168
1147.0 0.000872 377.52368 1191.20227
1515.0 0.000660 377.51608 1507.19727
2044.0 0.000489 377.50864 1922.89063
2670.0 0.000375 377.50134 2387.17432
3337.0 0.0002997 377.49414 2821.34399
3663.0 0.0002730 377.48700 3122.40698
3444.0 0.0002904 377.48004 3164.58862
2918.0 0.0003427 377.47318 2943.06860
2490.0 0.000402 377.46646 2628.07666
2338.0 0.000428 377.45987 2370.88477
2327.0 0.000430 377.45349 2213.44189
2421.0 0.000413 377.44711 2120.45654
2153.0 0.000464 377.44092 2009.39404
1794.0 0.000557 377.43481 1802.80005
1497.0 0.000668 377.42886 1519.95630
1195.0 0.000837 377.42303 1235.98279
903.0 0.001107 377.41730 1000.25299
728.0 0.001374 377.41174 827.71490
702.0 0.001425 377.40631 712.51074
646.0 0.001548 377.40097 640.67743
586.0 0.001706 377.39572 597.39410
541.0 0.001848 377.39059 571.55396
525.0 0.001905 377.38562 556.43036
541.0 0.001848 377.38080 548.73865
578.0 0.001730 377.37604 547.32031
619.0 0.001616 377.37134 553.52155
653.0 0.001531 377.36682 570.24005
703.0 0.001422 377.36243 602.24994
770.0 0.001299 377.35812 656.27350
890.0 0.001124 377.35403 737.74500
961.0 0.001041 377.34995 848.22333
1067.0 0.000937 377.34601 978.74561
1189.0 0.000841 377.34222 1108.57129
1295.0 0.000772 377.33844 1211.41248
1408.0 0.000710 377.33487 1253.26440
1404.0 0.000712 377.33139 1218.28625
1255.0 0.000797 377.32803 1145.33752
1188.0 0.000842 377.32474 1078.52881
1162.0 0.000861 377.32159 1043.26111
1129.0 0.000886 377.31857 1038.28650
1138.0 0.000879 377.31561 1049.91907
1138.0 0.000879 377.31271 1061.94238
1152.0 0.000868 377.31009 1081.69678
1264.0 0.000791 377.30740 1146.42676
1444.0 0.000693 377.30496 1288.95984
1633.0 0.000612 377.30255 1528.07361
1903.0 0.000525 377.30029 1847.73193
2188.0 0.000457 377.29810 2194.52271
2497.0 0.000400 377.29602 2495.23120
2664.0 0.000375 377.29407 2654.30005
2563.0 0.000390 377.29221 2601.29614
2329.0 0.000429 377.29041 2396.81226
2082.0 0.000480 377.28879 2183.51660
1997.0 0.000501 377.28723 2040.81482
1963.0 0.000509 377.28574 1968.22473
1916.0 0.000522 377.28433 1917.78772
1734.0 0.000577 377.28314 1814.81616
1554.0 0.000644 377.28201 1626.76965
1314.0 0.000761 377.28098 1400.34827
1140.0 0.000877 377.27997 1194.66870
965.0 0.001036 377.27914 1051.18164
930.0 0.001075 377.27835 966.51208
848.0 0.001179 377.27774 923.43958
821.0 0.001218 377.27716 899.06659
768.0 0.001302 377.27667 873.87823
722.0 0.001385 377.27637 830.94373
702.0 0.001425 377.27606 778.01288
663.0 0.001508 377.27588 728.27081
603.0 0.001658 377.27576 692.28754
602.0 0.001661 377.27579 670.49811
603.0 0.001658 377.27591 657.15717
572.0 0.001748 377.27606 643.06116
547.0 0.001828 377.27637 621.39087
544.0 0.001838 377.27676 595.22778
502.0 0.001992 377.27728 572.39594
531.0 0.001883 377.27774 558.42773
500.0 0.002000 377.27844 556.07050
544.0 0.001838 377.27921 566.34174
559.0 0.001789 377.28000 588.94836
641.0 0.001560 377.28091 622.17432
670.0 0.001493 377.28192 663.24451
725.0 0.001379 377.28305 710.76172
730.0 0.001370 377.28412 763.37512
810.0 0.001235 377.28546 827.32166
919.0 0.001088 377.28680 920.61707
1066.0 0.000938 377.28830 1064.85132
1306.0 0.000766 377.28979 1268.57458
1617.0 0.000618 377.29135 1515.32458
1958.0 0.000511 377.29303 1763.36011
2176.0 0.000460 377.29483 1954.75232
2151.0 0.000465 377.29672 2023.56177
2002.0 0.000500 377.29865 1942.64648
1766.0 0.000566 377.30066 1776.55811
1646.0 0.000608 377.30273 1625.32996
1638.0 0.000611 377.30493 1538.76929
1662.0 0.000602 377.30719 1518.40125
1672.0 0.000598 377.30951 1538.07751
1637.0 0.000611 377.31195 1558.01575
1586.0 0.000631 377.31445 1561.72961
1548.0 0.000646 377.31696 1570.43591
1611.0 0.000621 377.31961 1605.78052
1727.0 0.000579 377.32236 1658.61292
1778.0 0.000562 377.32516 1688.21838
1818.0 0.000550 377.32800 1673.51819
1663.0 0.000601 377.33096 1608.24170
1462.0 0.000684 377.33401 1502.63586
1328.0 0.000753 377.33710 1386.22546
1243.0 0.000805 377.34021 1290.10779
1124.0 0.000890 377.34348 1218.77380
1082.0 0.000924 377.34680 1153.01965
1052.0 0.000951 377.35016 1077.94763
986.0 0.001014 377.35367 985.88348
861.0 0.001161 377.35721 878.19891
719.0 0.001391 377.36075 769.70923
656.0 0.001524 377.36444 676.45441
561.0 0.001783 377.36816 605.38513
486.0 0.002058 377.37195 555.21417
459.0 0.002179 377.37582 522.06262
451.0 0.002217 377.37979 500.49973
473.0 0.002114 377.38373 487.36899
458.0 0.002183 377.38782 479.20035
452.0 0.002212 377.39191 474.25461
423.0 0.002364 377.39615 471.63541
452.0 0.002212 377.40039 470.97809
427.0 0.002342 377.40475 472.01361
469.0 0.002132 377.40912 475.62357
497.0 0.002012 377.41360 482.32864
466.0 0.002146 377.41809 493.55087
520.0 0.001923 377.42261 511.45825
537.0 0.001862 377.42728 538.88080
633.0 0.001580 377.43201 578.77722
711.0 0.001406 377.43677 633.00037
777.0 0.001287 377.44153 700.57721
857.0 0.001167 377.44644 777.22546
1004.0 0.000996 377.45139 857.45660
1040.0 0.000962 377.45636 934.85248
1106.0 0.000904 377.46136 1010.03455
1137.0 0.000880 377.46646 1097.49402
1272.0 0.000786 377.47162 1211.11975
1391.0 0.000719 377.47681 1348.89929
1559.0 0.000641 377.48215 1494.19165
1706.0 0.000586 377.48743 1619.83472
1737.0 0.000576 377.49280 1710.40906
1726.0 0.000579 377.49820 1771.95313
1762.0 0.000568 377.50366 1816.95911
1738.0 0.000575 377.50922 1823.80920
1728.0 0.000579 377.51480 1761.65540
1702.0 0.000588 377.52048 1637.72766
1568.0 0.000638 377.52615 1495.13916
1383.0 0.000723 377.53189 1359.78357
1243.0 0.000805 377.53766 1252.44983
1197.0 0.000835 377.54352 1177.09497
1142.0 0.000876 377.54944 1104.13818
1054.0 0.000949 377.55533 1014.63916
972.0 0.001029 377.56131 912.05804
870.0 0.001149 377.56732 819.98431
805.0 0.001242 377.57336 755.31018
776.0 0.001289 377.57956 725.93970
730.0 0.001370 377.58569 736.56659
712.0 0.001404 377.59183 775.49207
776.0 0.001289 377.59814 829.91327
848.0 0.001179 377.60440 880.67047
882.0 0.001134 377.61072 906.68951
850.0 0.001176 377.61710 892.76605
835.0 0.001198 377.62354 844.42346
752.0 0.001330 377.63004 789.36426
684.0 0.001462 377.63654 747.13025
675.0 0.001481 377.64307 722.35803
655.0 0.001527 377.64963 708.65900
700.0 0.001429 377.65625 693.68976
664.0 0.001506 377.66287 665.35376
593.0 0.001686 377.66962 623.45514
561.0 0.001783 377.67636 585.05811
542.0 0.001845 377.68314 545.64886
465.0 0.002151 377.68988 515.43335
480.0 0.002083 377.69672 494.62268
460.0 0.002174 377.70361 481.65466
499.0 0.002004 377.71057 474.38995
412.0 0.002427 377.71753 470.92770
487.0 0.002053 377.72446 473.30396
448.0 0.002232 377.73148 474.14740
432.0 0.002315 377.73853 476.32883
491.0 0.002037 377.74557 479.70898
448.0 0.002232 377.75272 484.28049
475.0 0.002105 377.75989 490.12332
484.0 0.002066 377.76706 497.38971
474.0 0.002110 377.77426 506.30423
496.0 0.002016 377.78156 517.19116
572.0 0.001748 377.78873 529.91998
590.0 0.001695 377.79599 546.42609
647.0 0.001546 377.80338 570.76019
685.0 0.001460 377.81070 598.20917
776.0 0.001289 377.81812 635.94360
882.0 0.001134 377.82547 690.66138
1028.0 0.000973 377.83286 772.08063
1130.0 0.000885 377.84033 898.69733
1333.0 0.000750 377.84784 1089.23096
1639.0 0.000610 377.85529 1363.28906
1969.0 0.000508 377.86282 1732.34326
2292.0 0.000436 377.87033 2177.72192
2698.0 0.000371 377.87793 2662.39478
3077.0 0.0003250 377.88547 3116.38940
3359.0 0.0002977 377.89307 3452.27832
3566.0 0.0002804 377.90079 3617.17920
3649.0 0.0002740 377.90836 3644.74292
3706.0 0.0002698 377.91605 3570.39771
3685.0 0.0002714 377.92371 3398.78027
3418.0 0.0002926 377.93149 3169.51855
3026.0 0.0003305 377.93918 2946.03369
2738.0 0.000365 377.94693 2735.94873
2541.0 0.000394 377.95471 2522.66577
2289.0 0.000437 377.96249 2305.99731
2095.0 0.000477 377.97031 2082.81714
1957.0 0.000511 377.97818 1837.73914
1751.0 0.000571 377.98599 1584.34119
1423.0 0.000703 377.99371 1362.65796
1218.0 0.000821 378.00162 1198.41711
1178.0 0.000849 378.00946 1106.55566
1171.0 0.000854 378.01736 1092.90747
1264.0 0.000791 378.02530 1166.72009
1441.0 0.000694 378.03323 1342.75500
1694.0 0.000590 378.04108 1637.39404
2135.0 0.000468 378.04904 2056.38525
2582.0 0.000387 378.05701 2573.41626
2974.0 0.0003362 378.06494 3115.01245
3417.0 0.0002927 378.07285 3566.81250
3572.0 0.0002800 378.08084 3795.66968
3357.0 0.0002979 378.08884 3710.19141
3154.0 0.0003171 378.09677 3388.92407
2819.0 0.000355 378.10480 3025.68872
2657.0 0.000376 378.11279 2757.02344
2557.0 0.000391 378.12082 2612.79370
2433.0 0.000411 378.12885 2546.09790
2400.0 0.000417 378.13687 2469.40039
2265.0 0.000442 378.14490 2299.45410
1987.0 0.000503 378.15298 2034.54871
1764.0 0.000567 378.16095 1752.17981
1566.0 0.000639 378.16898 1527.71863
1443.0 0.000693 378.17709 1403.93628
1516.0 0.000660 378.18506 1397.93860
1685.0 0.000593 378.19312 1506.66162
1770.0 0.000565 378.20120 1705.80933
1925.0 0.000519 378.20923 1946.77563
2180.0 0.000459 378.21729 2163.30737
2207.0 0.000453 378.22534 2282.75171
2078.0 0.000481 378.23334 2253.74780
2011.0 0.000497 378.24142 2106.07520
1926.0 0.000519 378.24945 1931.96289
1787.0 0.000560 378.25751 1796.66760
1673.0 0.000598 378.26556 1713.89502
1670.0 0.000599 378.27350 1664.60229
1585.0 0.000631 378.28159 1610.16785
1540.0 0.000649 378.28970 1515.69812
1323.0 0.000756 378.29767 1378.76685
1207.0 0.000829 378.30579 1234.00659
1115.0 0.000897 378.31378 1115.21716
1026.0 0.000975 378.32172 1050.38684
1067.0 0.000937 378.32974 1043.83752
1126.0 0.000888 378.33780 1089.27454
1205.0 0.000830 378.34570 1180.87000
1313.0 0.000762 378.35376 1286.15564
1442.0 0.000693 378.36172 1367.50964
1422.0 0.000703 378.36969 1384.38452
1326.0 0.000754 378.37762 1325.19092
1153.0 0.000867 378.38553 1220.24915
1072.0 0.000933 378.39349 1116.88489
1014.0 0.000986 378.40146 1047.74548
979.0 0.001021 378.40942 1009.91687
971.0 0.001030 378.41718 988.32153
924.0 0.001082 378.42505 958.23199
851.0 0.001175 378.43301 899.92834
753.0 0.001328 378.44092 817.78259
691.0 0.001447 378.44873 730.08832
644.0 0.001553 378.45660 653.66321
569.0 0.001757 378.46439 593.63983
511.0 0.001957 378.47220 550.75739
510.0 0.001961 378.48001 521.98920
495.0 0.002020 378.48776 503.38367
459.0 0.002179 378.49548 491.82849
457.0 0.002188 378.50327 478.94864
460.0 0.002174 378.51096 477.39471
454.0 0.002203 378.51868 479.86121
486.0 0.002058 378.52640 485.78528
506.0 0.001976 378.53406 493.99652
503.0 0.001988 378.54169 502.48923
517.0 0.001934 378.54935 509.34512
483.0 0.002070 378.55695 511.31360
508.0 0.001969 378.56451 505.01913
524.0 0.001908 378.57214 500.09695
544.0 0.001838 378.57965 496.91809
530.0 0.001887 378.58716 498.06500
507.0 0.001972 378.59473 504.71304
526.0 0.001901 378.60220 517.31049
532.0 0.001880 378.60965 536.35590
551.0 0.001815 378.61710 561.87817
543.0 0.001842 378.62448 595.26093
609.0 0.001642 378.63181 636.42151
699.0 0.001431 378.63925 678.16473
728.0 0.001374 378.64658 721.15784
705.0 0.001418 378.65390 754.27362
712.0 0.001404 378.66113 774.88818
708.0 0.001412 378.66837 792.95844
760.0 0.001316 378.67566 822.08508
873.0 0.001145 378.68283 871.08459
949.0 0.001054 378.69000 936.56390
1063.0 0.000941 378.69714 1003.77374
1119.0 0.000894 378.70425 1056.49548
1064.0 0.000940 378.71130 1073.97827
1001.0 0.000999 378.71838 1053.83350
965.0 0.001036 378.72546 1024.21667
962.0 0.001040 378.73236 1019.78540
1075.0 0.000930 378.73935 1063.68665
1206.0 0.000829 378.74634 1164.23865
1395.0 0.000717 378.75320 1311.79980
1551.0 0.000645 378.76004 1480.15552
1742.0 0.000574 378.76691 1625.26001
1821.0 0.000549 378.77371 1709.51746
1708.0 0.000585 378.78043 1698.40112
1520.0 0.000658 378.78714 1592.82556
1392.0 0.000718 378.79388 1445.09241
1264.0 0.000791 378.80048 1314.69666
1217.0 0.000822 378.80713 1232.02673
1189.0 0.000841 378.81372 1194.99756
1189.0 0.000841 378.82031 1184.42090
1198.0 0.000835 378.82678 1169.86902
1128.0 0.000887 378.83328 1131.47754
1093.0 0.000915 378.83969 1079.44043
1061.0 0.000943 378.84610 1044.26453
1056.0 0.000947 378.85251 1050.58203
1114.0 0.000898 378.85876 1107.17053
1187.0 0.000842 378.86502 1206.83740
1297.0 0.000771 378.87131 1323.62146
1392.0 0.000718 378.87750 1425.60315
1455.0 0.000687 378.88364 1481.13782
1467.0 0.000682 378.88974 1484.09839
1427.0 0.000701 378.89584 1465.53308
1405.0 0.000712 378.90179 1457.97253
1434.0 0.000697 378.90784 1466.80566
1464.0 0.000683 378.91373 1472.61475
1497.0 0.000668 378.91962 1446.01331
1410.0 0.000709 378.92554 1375.70496
1272.0 0.000786 378.93140 1271.19385
1145.0 0.000873 378.93710 1156.57373
1014.0 0.000986 378.94293 1056.90930
993.0 0.001007 378.94846 983.09943
950.0 0.001053 378.95419 931.67749
976.0 0.001025 378.95975 892.49994
971.0 0.001030 378.96530 860.40253
915.0 0.001093 378.97079 840.04095
917.0 0.001091 378.97620 836.28699
910.0 0.001099 378.98163 845.76965
948.0 0.001055 378.98697 857.27289
966.0 0.001035 378.99234 855.33069
845.0 0.001183 378.99753 830.37415
874.0 0.001144 379.00275 787.19019
765.0 0.001307 379.00790 742.54156
735.0 0.001361 379.01294 709.40381
723.0 0.001383 379.01804 691.67694
729.0 0.001372 379.02298 686.64984
747.0 0.001339 379.02789 685.22327
757.0 0.001321 379.03284 680.16644
696.0 0.001437 379.03772 669.68542
695.0 0.001439 379.04248 661.26373
703.0 0.001422 379.04724 664.86987
739.0 0.001353 379.05188 686.71167
757.0 0.001321 379.05655 728.01343
799.0 0.001252 379.06110 783.20911
823.0 0.001215 379.06570 842.71979
897.0 0.001115 379.07013 896.53918
1015.0 0.000985 379.07455 937.09778
1061.0 0.000943 379.07886 968.76611
1152.0 0.000868 379.08319 1008.95654
1225.0 0.000816 379.08743 1061.52661
1244.0 0.000804 379.09164 1119.07446
1235.0 0.000810 379.09573 1165.93066
1173.0 0.000853 379.09982 1190.41821
1155.0 0.000866 379.10376 1195.14941
1125.0 0.000889 379.10773 1187.12927
1121.0 0.000892 379.11166 1173.46191
1139.0 0.000878 379.11551 1146.47632
1112.0 0.000899 379.11926 1099.85657
1057.0 0.000946 379.12299 1036.68762
966.0 0.001035 379.12665 967.01465
893.0 0.001120 379.13025 901.79492
812.0 0.001232 379.13370 850.68225
765.0 0.001307 379.13721 816.29095
738.0 0.001355 379.14063 791.37775
740.0 0.001351 379.14398 770.98212
759.0 0.001318 379.14725 749.09344
720.0 0.001389 379.15051 729.81873
673.0 0.001486 379.15372 720.22003
695.0 0.001439 379.15677 727.88483
733.0 0.001364 379.15976 762.83075
801.0 0.001248 379.16278 824.23065
914.0 0.001094 379.16565 911.65479
1011.0 0.000989 379.16852 1008.74786
1098.0 0.000911 379.17130 1091.14050
1170.0 0.000855 379.17395 1129.37048
1091.0 0.000917 379.17654 1106.75037
1027.0 0.000974 379.17920 1037.21973
965.0 0.001036 379.18167 957.82336
895.0 0.001117 379.18411 893.30731
857.0 0.001167 379.18652 854.97571
914.0 0.001094 379.18881 837.62231
925.0 0.001081 379.19104 825.57666
905.0 0.001105 379.19318 802.99359
803.0 0.001245 379.19534 757.76776
761.0 0.001314 379.19736 698.38086
634.0 0.001577 379.19928 638.34204
610.0 0.001639 379.20120 586.82001
595.0 0.001681 379.20300 547.45569
550.0 0.001818 379.20471 520.34375
509.0 0.001965 379.20645 503.34134
544.0 0.001838 379.20807 495.65039
495.0 0.002020 379.20959 493.56747
531.0 0.001883 379.21109 497.09280
553.0 0.001808 379.21246 506.78720
570.0 0.001754 379.21378 524.55414
549.0 0.001821 379.21503 553.35236
608.0 0.001645 379.21616 595.97943
614.0 0.001629 379.21732 656.86829
714.0 0.001401 379.21832 732.18634
744.0 0.001344 379.21930 816.52368
835.0 0.001198 379.22015 895.93201
887.0 0.001127 379.22095 952.59149
922.0 0.001085 379.22168 970.78778
904.0 0.001106 379.22235 950.97003
916.0 0.001092 379.22296 916.53876
855.0 0.001170 379.22342 895.76825
892.0 0.001121 379.22388 908.85748
861.0 0.001161 379.22421 961.41296
939.0 0.001065 379.22449 1056.08557
1112.0 0.000899 379.22467 1186.18103
1252.0 0.000799 379.22482 1338.64111
1481.0 0.000675 379.22485 1496.46533
1659.0 0.000603 379.22479 1630.18616
1760.0 0.000568 379.22464 1691.68799
1722.0 0.000581 379.22452 1646.03296
1606.0 0.000623 379.22415 1516.94531
1557.0 0.000642 379.22388 1369.35913
1401.0 0.000714 379.22345 1252.41553
1298.0 0.000770 379.22287 1187.97461
1318.0 0.000759 379.22232 1170.53149
1294.0 0.000773 379.22165 1174.37341
1293.0 0.000773 379.22089 1160.80420
1289.0 0.000776 379.22003 1106.26978
1166.0 0.000858 379.21909 1021.04742
1081.0 0.000925 379.21814 932.76691
1006.0 0.000994 379.21704 861.29224
944.0 0.001059 379.21585 819.59021
917.0 0.001091 379.21466 815.90601
964.0 0.001037 379.21323 860.41016
1028.0 0.000973 379.21188 961.48224
1164.0 0.000859 379.21036 1133.16455
1346.0 0.000743 379.20877 1386.07532
1634.0 0.000612 379.20712 1718.90869
1913.0 0.000523 379.20541 2107.70801
2250.0 0.000444 379.20352 2491.14063
2625.0 0.000381 379.20157 2765.47852
2808.0 0.000356 379.19958 2842.47485
2891.0 0.0003459 379.19748 2738.21069
2762.0 0.000362 379.19537 2552.83423
2537.0 0.000394 379.19312 2371.42773
2360.0 0.000424 379.19077 2242.47510
2329.0 0.000429 379.18835 2189.46240
2361.0 0.000424 379.18576 2204.73560
2337.0 0.000428 379.18317 2239.94214
2335.0 0.000428 379.18048 2249.12329
2417.0 0.000414 379.17776 2230.85327
2253.0 0.000444 379.17487 2206.06348
2166.0 0.000462 379.17184 2161.08594
2179.0 0.000459 379.16879 2062.17529
1992.0 0.000502 379.16568 1891.89111
1902.0 0.000526 379.16245 1681.77820
1668.0 0.000600 379.15912 1485.10754
1423.0 0.000703 379.15576 1338.95911
1334.0 0.000750 379.15225 1255.09851
1313.0 0.000762 379.14868 1226.60107
1283.0 0.000779 379.14499 1227.13452
1286.0 0.000778 379.14124 1226.00537
1252.0 0.000799 379.13736 1206.62012
1250.0 0.000800 379.13342 1183.21130
1200.0 0.000833 379.12939 1182.32642
1230.0 0.000813 379.12527 1221.80750
1273.0 0.000786 379.12100 1303.21753
1340.0 0.000746 379.11667 1410.38672
1468.0 0.000681 379.11227 1507.97009
1609.0 0.000622 379.10788 1558.39258
1718.0 0.000582 379.10321 1561.39478
1760.0 0.000568 379.09857 1556.74500
1748.0 0.000572 379.09381 1592.36011
1751.0 0.000571 379.08893 1699.09253
1840.0 0.000543 379.08392 1882.20215
1919.0 0.000521 379.07889 2108.82349
2122.0 0.000471 379.07376 2304.81006
2247.0 0.000445 379.06854 2374.00537
2257.0 0.000443 379.06314 2272.38940
2203.0 0.000454 379.05771 2052.90625
2017.0 0.000496 379.05225 1808.87549
1741.0 0.000574 379.04654 1608.00647
1590.0 0.000629 379.04083 1479.69604
1477.0 0.000677 379.03503 1419.14490
1389.0 0.000720 379.02914 1391.27051
1314.0 0.000761 379.02316 1348.10913
1245.0 0.000803 379.01700 1257.41052
1173.0 0.000853 379.01080 1132.47180
1052.0 0.000951 379.00452 1001.00726
925.0 0.001081 378.99811 885.67877
829.0 0.001206 378.99164 798.22046
743.0 0.001346 378.98505 743.67450
694.0 0.001441 378.97839 722.72028
650.0 0.001538 378.97156 735.79932
710.0 0.001408 378.96472 785.99408
771.0 0.001297 378.95770 873.42645
920.0 0.001087 378.95068 995.67200
1108.0 0.000903 378.94348 1142.59924
1260.0 0.000794 378.93619 1290.09277
1436.0 0.000696 378.92880 1397.15833
1523.0 0.000657 378.92130 1422.07117
1407.0 0.000711 378.91379 1362.29736
1239.0 0.000807 378.90607 1260.11255
1159.0 0.000863 378.89832 1164.13574
1034.0 0.000967 378.89044 1100.12500
1054.0 0.000949 378.88251 1076.76221
1086.0 0.000921 378.87439 1084.70105
1074.0 0.000931 378.86624 1100.87573
1130.0 0.000885 378.85797 1097.81458
1074.0 0.000931 378.84961 1078.78906
1073.0 0.000932 378.84106 1063.72412
1062.0 0.000942 378.83255 1081.59167
1018.0 0.000982 378.82385 1156.16577
1189.0 0.000841 378.81506 1295.80835
1283.0 0.000779 378.80618 1495.85034
1486.0 0.000673 378.79715 1730.79175
1731.0 0.000578 378.78806 1948.95032
2024.0 0.000494 378.77887 2084.30908
2079.0 0.000481 378.76965 2089.09863
1928.0 0.000519 378.76022 1988.27856
1823.0 0.000549 378.75070 1852.14258
1738.0 0.000575 378.74112 1737.13342
1628.0 0.000614 378.73145 1660.88354
1638.0 0.000611 378.72159 1622.22729
1539.0 0.000650 378.71170 1605.29089
1584.0 0.000631 378.70163 1579.45508
1591.0 0.000629 378.69156 1519.49756
1538.0 0.000650 378.68127 1434.66223
1424.0 0.000702 378.67093 1357.44958
1349.0 0.000741 378.66058 1316.54688
1331.0 0.000751 378.64996 1319.60840
1399.0 0.000715 378.63937 1362.35828
1411.0 0.000709 378.62866 1427.00769
1452.0 0.000689 378.61777 1477.59961
1525.0 0.000656 378.60681 1471.15820
1426.0 0.000701 378.59573 1393.92175
1350.0 0.000741 378.58459 1275.16296
1280.0 0.000781 378.57333 1160.35486
1173.0 0.000853 378.56195 1076.22009
1097.0 0.000912 378.55045 1032.88477
1035.0 0.000966 378.53879 1027.96326
1059.0 0.000944 378.52716 1035.01709
1063.0 0.000941 378.51538 1032.94031
1047.0 0.000955 378.50339 1009.96680
1026.0 0.000975 378.49142 974.60919
937.0 0.001067 378.47925 951.74786
881.0 0.001135 378.46704 950.02264
884.0 0.001131 378.45462 968.44910
898.0 0.001114 378.44220 994.48773
921.0 0.001086 378.42969 1000.63269
923.0 0.001083 378.41702 971.58710
887.0 0.001127 378.40424 914.23242
818.0 0.001222 378.39133 849.43262
704.0 0.001420 378.37836 797.62500
754.0 0.001326 378.36526 766.33862
680.0 0.001471 378.35208 755.41644
668.0 0.001497 378.33871 757.01105
664.0 0.001506 378.32532 757.56537
683.0 0.001464 378.31174 745.45612
697.0 0.001435 378.29810 720.67859
737.0 0.001357 378.28442 692.60181
721.0 0.001387 378.27057 670.55139
700.0 0.001429 378.25656 660.15601
719.0 0.001391 378.24246 664.42224
715.0 0.001399 378.22830 686.30896
712.0 0.001404 378.21396 730.37811
775.0 0.001290 378.19958 800.61877
783.0 0.001277 378.18506 895.24194
917.0 0.001091 378.17047 1007.56641
891.0 0.001122 378.15570 1115.37598
1009.0 0.000991 378.14084 1185.36682
1019.0 0.000981 378.12592 1189.29431
1048.0 0.000954 378.11084 1132.12927
1070.0 0.000935 378.09564 1047.26025
1001.0 0.000999 378.08035 968.88647
879.0 0.001138 378.06494 915.71124
847.0 0.001181 378.04950 893.66357
816.0 0.001225 378.03378 894.66937
745.0 0.001342 378.01813 905.18781
760.0 0.001316 378.00220 898.44104
776.0 0.001289 377.98630 873.56110
748.0 0.001337 377.97021 842.04901
734.0 0.001362 377.95407 818.49103
779.0 0.001284 377.93781 810.13959
778.0 0.001285 377.92136 815.83612
774.0 0.001292 377.90488 824.07300
770.0 0.001299 377.88828 829.42413
770.0 0.001299 377.87149 820.11871
727.0 0.001376 377.85464 800.64319
702.0 0.001425 377.83765 777.74274
713.0 0.001403 377.82062 761.30341
687.0 0.001456 377.80338 758.19720
703.0 0.001422 377.78613 770.36664
735.0 0.001361 377.76871 792.38727
729.0 0.001372 377.75119 817.61859
724.0 0.001381 377.73361 835.99988
742.0 0.001348 377.71573 842.96552
773.0 0.001294 377.69791 842.11658
765.0 0.001307 377.68002 847.65662
778.0 0.001285 377.66190 878.57800
853.0 0.001172 377.64371 954.20044
982.0 0.001018 377.62534 1090.46155
1144.0 0.000874 377.60699 1302.24963
1392.0 0.000718 377.58841 1589.33093
1734.0 0.000577 377.56979 1935.01355
2150.0 0.000465 377.55099 2296.70166
2488.0 0.000402 377.53214 2597.91943
2688.0 0.000372 377.51309 2738.70386
2655.0 0.000377 377.49405 2668.35034
2355.0 0.000425 377.47476 2443.58765
2148.0 0.000466 377.45554 2177.97412
1905.0 0.000525 377.43600 1957.72290
1762.0 0.000568 377.41653 1823.16113
1763.0 0.000567 377.39676 1773.91724
1736.0 0.000576 377.37698 1774.14197
1797.0 0.000556 377.35709 1760.68665
1713.0 0.000584 377.33710 1677.24500
1518.0 0.000659 377.31699 1516.75476
1351.0 0.000740 377.29672 1318.82764
1138.0 0.000879 377.27637 1123.49719
972.0 0.001029 377.25583 955.03802
854.0 0.001171 377.23535 822.98077
745.0 0.001342 377.21460 727.38184
706.0 0.001416 377.19373 662.98187
650.0 0.001538 377.17291 622.53589
569.0 0.001757 377.15179 599.02557
553.0 0.001808 377.13062 588.43988
537.0 0.001862 377.10941 587.80426
527.0 0.001898 377.08798 596.22534
552.0 0.001812 377.06650 613.76544
580.0 0.001724 377.04486 640.71179
582.0 0.001718 377.02316 676.66980
637.0 0.001570 377.00128 720.07324
681.0 0.001468 376.97937 767.31793
701.0 0.001427 376.95721 814.27350
717.0 0.001395 376.93509 861.89191
750.0 0.001333 376.91278 920.18402
850.0 0.001176 376.89035 1002.78027
922.0 0.001085 376.86783 1125.54211
1048.0 0.000954 376.84518 1297.47644
1219.0 0.000820 376.82242 1527.19983
1498.0 0.000668 376.79956 1820.05396
1907.0 0.000524 376.77655 2168.76733
2471.0 0.000405 376.75342 2529.36572
2983.0 0.0003352 376.73019 2826.83423
3224.0 0.0003102 376.70688 2960.59058
3106.0 0.0003220 376.68341 2881.15015
2761.0 0.000362 376.65985 2643.75537
2364.0 0.000423 376.63611 2358.22876
2041.0 0.000490 376.61237 2112.63818
1875.0 0.000533 376.58844 1952.93945
1892.0 0.000529 376.56442 1880.85181
1979.0 0.000505 376.54028 1864.39746
2033.0 0.000492 376.51602 1842.48096
1966.0 0.000509 376.49158 1756.01013
1763.0 0.000567 376.46716 1590.03101
1496.0 0.000668 376.44254 1381.05493
1211.0 0.000826 376.41785 1172.83154
1024.0 0.000977 376.39297 989.12262
890.0 0.001124 376.36804 841.71704
747.0 0.001339 376.34293 732.00000
652.0 0.001534 376.31784 655.36176
566.0 0.001767 376.29248 604.00922
524.0 0.001908 376.26709 571.84576
518.0 0.001931 376.24158 551.97137
497.0 0.002012 376.21594 541.78094
467.0 0.002141 376.19022 540.73920
528.0 0.001894 376.16431 547.37354
520.0 0.001923 376.13824 562.21051
547.0 0.001828 376.11221 585.13696
597.0 0.001675 376.08600 614.25476
642.0 0.001558 376.05966 644.97467
702.0 0.001425 376.03320 669.54089
753.0 0.001328 376.00662 678.33459
718.0 0.001393 375.97995 663.80219
624.0 0.001603 375.95319 639.69934
634.0 0.001577 375.92627 612.66144
583.0 0.001715 375.89929 590.51605
576.0 0.001736 375.87210 576.87549
545.0 0.001835 375.84488 572.34314
598.0 0.001672 375.81747 572.26544
583.0 0.001715 375.79001 571.49988
570.0 0.001754 375.76245 562.72089
563.0 0.001776 375.73474 548.71289
516.0 0.001938 375.70688 530.93286
528.0 0.001894 375.67896 513.41229
495.0 0.002020 375.65094 498.76697
483.0 0.002070 375.62271 488.27917
456.0 0.002193 375.59448 482.73932
448.0 0.002232 375.56604 481.71768
467.0 0.002141 375.53751 484.92078
495.0 0.002020 375.50894 492.64749
485.0 0.002062 375.48019 504.31668
504.0 0.001984 375.45135 519.76361
509.0 0.001965 375.42233 538.14124
529.0 0.001890 375.39328 557.77002
573.0 0.001745 375.36401 576.11200
590.0 0.001695 375.33478 591.33002
615.0 0.001626 375.30539 604.73773
642.0 0.001558 375.27582 622.33960
737.0 0.001357 375.24612 652.41644
812.0 0.001232 375.21643 703.45605
842.0 0.001188 375.18649 785.22278
938.0 0.001066 375.15643 906.92737
1059.0 0.000944 375.12634 1068.68042
1191.0 0.000840 375.09613 1267.96973
1379.0 0.000725 375.06583 1488.99683
1582.0 0.000632 375.03534 1700.60461
1803.0 0.000555 375.00476 1851.79846
1963.0 0.000509 374.97403 1893.39612
1921.0 0.000521 374.94321 1823.06702
1807.0 0.000553 374.91238 1692.56409
1675.0 0.000597 374.88132 1562.05737
1585.0 0.000631 374.85019 1481.78772
1560.0 0.000641 374.81897 1469.63977
1589.0 0.000629 374.78763 1528.33801
1642.0 0.000609 374.75610 1643.00220
1794.0 0.000557 374.72446 1785.93958
1974.0 0.000507 374.69281 1932.71008
2102.0 0.000476 374.66104 2079.57642
2238.0 0.000447 374.62912 2226.59521
2351.0 0.000425 374.59702 2363.94775
2357.0 0.000424 374.56485 2462.87158
2308.0 0.000433 374.53259 2500.09961
2330.0 0.000429 374.50024 2464.33008
2285.0 0.000438 374.46774 2349.70044
2241.0 0.000446 374.43515 2178.64648
2144.0 0.000466 374.40240 1999.32800
1993.0 0.000502 374.36957 1853.21875
1921.0 0.000521 374.33661 1753.22046
1784.0 0.000561 374.30356 1687.29541
1670.0 0.000599 374.27036 1633.72144
1515.0 0.000660 374.23712 1571.28186
1458.0 0.000686 374.20374 1483.45496
1410.0 0.000709 374.17020 1361.37305
1282.0 0.000780 374.13663 1215.49829
1129.0 0.000886 374.10287 1068.12109
1075.0 0.000930 374.06903 938.76764
999.0 0.001001 374.03506 838.30145
824.0 0.001214 374.00101 770.26691
752.0 0.001330 373.96683 735.13428
771.0 0.001297 373.93259 729.50885
732.0 0.001366 373.89819 748.60352
759.0 0.001318 373.86365 785.72083
748.0 0.001337 373.82904 831.17688
861.0 0.001161 373.79434 870.72424
871.0 0.001148 373.75946 888.32245
849.0 0.001178 373.72455 876.35474
807.0 0.001239 373.68948 843.42889
770.0 0.001299 373.65430 807.41418
759.0 0.001318 373.61902 782.71039
741.0 0.001350 373.58365 777.21381
784.0 0.001276 373.54807 792.39948
845.0 0.001183 373.51248 823.44226
861.0 0.001161 373.47675 859.15192
870.0 0.001149 373.44092 884.64410
877.0 0.001140 373.40497 889.37720
915.0 0.001093 373.36893 873.47815
917.0 0.001091 373.33276 844.02899
852.0 0.001174 373.29654 809.10455
792.0 0.001263 373.26010 777.68457
755.0 0.001325 373.22360 760.19458
767.0 0.001304 373.18698 763.62506
783.0 0.001277 373.15030 793.60645
820.0 0.001220 373.11346 852.61981
911.0 0.001098 373.07660 941.69495
1026.0 0.000975 373.03952 1055.54028
1207.0 0.000829 373.00241 1188.43860
1404.0 0.000712 372.96512 1324.60266
1553.0 0.000644 372.92776 1436.51196
1668.0 0.000600 372.89029 1489.27698
1593.0 0.000628 372.85269 1461.07996
1465.0 0.000683 372.81503 1369.57495
1313.0 0.000762 372.77725 1256.38342
1154.0 0.000867 372.73932 1157.58252
1082.0 0.000924 372.70132 1089.69788
1087.0 0.000920 372.66318 1063.66748
1154.0 0.000867 372.62500 1070.01843
1238.0 0.000808 372.58667 1091.33569
1266.0 0.000790 372.54825 1106.13562
1231.0 0.000812 372.50964 1103.26709
1187.0 0.000842 372.47104 1092.68213
1180.0 0.000847 372.43225 1094.82190
1151.0 0.000869 372.39337 1125.07324
1226.0 0.000816 372.35437 1188.18225
1289.0 0.000776 372.31531 1276.60767
1346.0 0.000743 372.27615 1372.06506
1358.0 0.000736 372.23685 1449.64917
1393.0 0.000718 372.19745 1486.41235
1359.0 0.000736 372.15790 1468.18774
1388.0 0.000720 372.11829 1395.43250
1285.0 0.000778 372.07864 1293.10059
1206.0 0.000829 372.03879 1196.23792
1146.0 0.000873 371.99887 1124.68115
1075.0 0.000930 371.95883 1081.29614
1030.0 0.000971 371.91867 1059.24194
1045.0 0.000957 371.87848 1045.76099
949.0 0.001054 371.83813 1026.16223
934.0 0.001071 371.79767 986.35248
895.0 0.001117 371.75714 924.61798
829.0 0.001206 371.71649 849.62323
782.0 0.001279 371.67569 775.45294
697.0 0.001435 371.63480 708.08313
663.0 0.001508 371.59384 649.94904
600.0 0.001667 371.55280 601.87683
557.0 0.001795 371.51157 564.59143
499.0 0.002004 371.47028 537.89508
507.0 0.001972 371.42896 519.09540
486.0 0.002058 371.38748 507.23639
495.0 0.002020 371.34583 500.46368
475.0 0.002105 371.30417 496.77292
479.0 0.002088 371.26236 494.27148
505.0 0.001980 371.22043 491.55429
483.0 0.002070 371.17847 487.70404
462.0 0.002165 371.13641 484.96985
473.0 0.002114 371.09421 483.27792
442.0 0.002262 371.05182 483.49521
491.0 0.002037 371.00946 486.25293
513.0 0.001949 370.96695 492.28275
527.0 0.001898 370.92435 502.64441
559.0 0.001789 370.88165 518.95221
615.0 0.001626 370.83884 543.20935
627.0 0.001595 370.79596 578.98669
702.0 0.001425 370.75290 630.03186
800.0 0.001250 370.70978 699.84521
832.0 0.001202 370.66656 790.36786
899.0 0.001112 370.62323 901.98071
944.0 0.001059 370.57986 1029.14783
1038.0 0.000963 370.53629 1160.62671
1219.0 0.000820 370.49271 1284.08215
1350.0 0.000741 370.44901 1391.62219
1426.0 0.000701 370.40518 1474.50977
1470.0 0.000680 370.36133 1518.64575
1543.0 0.000648 370.31729 1516.82153
1562.0 0.000640 370.27316 1484.00830
1533.0 0.000652 370.22900 1446.68994
1470.0 0.000680 370.18460 1420.63330
1423.0 0.000703 370.14026 1404.34595
1378.0 0.000726 370.09576 1394.54602
1329.0 0.000752 370.05115 1382.62061
1354.0 0.000739 370.00647 1360.00684
1304.0 0.000767 369.96167 1317.30164
1276.0 0.000784 369.91675 1254.01733
1264.0 0.000791 369.87177 1184.19543
1217.0 0.000822 369.82666 1127.88989
1087.0 0.000920 369.78152 1100.13611
1130.0 0.000885 369.73624 1107.11609
1197.0 0.000835 369.69089 1153.02893
1264.0 0.000791 369.64542 1231.12524
1381.0 0.000724 369.59979 1331.04541
1527.0 0.000655 369.55417 1433.48206
1572.0 0.000636 369.50845 1512.85974
1608.0 0.000622 369.46252 1546.51587
1574.0 0.000635 369.41660 1526.48560
1475.0 0.000678 369.37057 1465.12097
1407.0 0.000711 369.32446 1386.33203
1397.0 0.000716 369.27820 1324.94934
1255.0 0.000797 369.23190 1303.34277
1349.0 0.000741 369.18546 1333.29175
1471.0 0.000680 369.13898 1411.63159
1495.0 0.000669 369.09235 1521.21912
1664.0 0.000601 369.04565 1635.20032
1733.0 0.000577 368.99893 1723.69836
1834.0 0.000545 368.95197 1755.75916
1701.0 0.000588 368.90497 1710.99182
1571.0 0.000637 368.85791 1600.88440
1460.0 0.000685 368.81076 1460.31567
1263.0 0.000792 368.76352 1327.74792
1219.0 0.000820 368.71613 1225.67957
1163.0 0.000860 368.66867 1163.87183
1183.0 0.000845 368.62115 1138.52649
1204.0 0.000831 368.57352 1133.42261
1185.0 0.000844 368.52585 1124.10522
1143.0 0.000875 368.47806 1088.90784
1054.0 0.000949 368.43015 1022.65222
949.0 0.001054 368.38211 937.39313
826.0 0.001211 368.33411 849.61072
756.0 0.001323 368.28592 770.53741
690.0 0.001449 368.23764 705.59161
672.0 0.001488 368.18927 656.24316
642.0 0.001558 368.14087 619.69202
625.0 0.001600 368.09235 591.22595
566.0 0.001767 368.04373 567.54572
523.0 0.001912 367.99493 546.96362
527.0 0.001898 367.94623 530.78229
508.0 0.001969 367.89734 519.99719
523.0 0.001912 367.84839 515.20044
526.0 0.001901 367.79932 515.61200
498.0 0.002008 367.75012 520.18323
533.0 0.001876 367.70084 526.56763
531.0 0.001883 367.65155 532.28027
538.0 0.001859 367.60214 533.06482
547.0 0.001828 367.55267 529.12628
536.0 0.001866 367.50314 523.19226
556.0 0.001799 367.45346 518.19800
567.0 0.001764 367.40369 515.15527
543.0 0.001842 367.35391 515.44012
581.0 0.001721 367.30396 516.79102
572.0 0.001748 367.25385 517.62305
550.0 0.001818 367.20380 515.69623
545.0 0.001835 367.15366 512.71210
558.0 0.001792 367.10336 508.27069
496.0 0.002016 367.05301 504.28308
522.0 0.001916 367.00256 502.80817
534.0 0.001873 366.95203 506.33542
527.0 0.001898 366.90146 517.16425
580.0 0.001724 366.85077 536.79242
584.0 0.001712 366.79999 568.38831
635.0 0.001575 366.74911 613.98376
677.0 0.001477 366.69821 677.59143
742.0 0.001348 366.64719 758.77441
891.0 0.001122 366.59610 854.01678
966.0 0.001035 366.54495 953.95673
1031.0 0.000970 366.49362 1038.92468
1130.0 0.000885 366.44229 1087.26526
1137.0 0.000880 366.39087 1085.36121
1092.0 0.000916 366.33932 1039.55090
939.0 0.001065 366.28775 974.27930
886.0 0.001129 366.23605 910.59784
889.0 0.001125 366.18430 865.55371
852.0 0.001174 366.13248 842.72168
848.0 0.001179 366.08060 841.02936
929.0 0.001076 366.02856 850.90228
903.0 0.001107 365.97650 857.87756
907.0 0.001103 365.92432 849.92346
894.0 0.001119 365.87204 827.26453
824.0 0.001214 365.81976 798.26141
804.0 0.001244 365.76743 776.53552
745.0 0.001342 365.71490 768.85602
732.0 0.001366 365.66232 780.12231
723.0 0.001383 365.60977 809.00049
811.0 0.001233 365.55707 852.95355
858.0 0.001166 365.50421 900.43445
894.0 0.001119 365.45139 937.74646
909.0 0.001100 365.39850 952.96979
947.0 0.001056 365.34543 942.02887
907.0 0.001103 365.29239 913.18079
878.0 0.001139 365.23923 881.29395
860.0 0.001163 365.18600 860.04486
821.0 0.001218 365.13260 857.80017
800.0 0.001250 365.07922 877.22906
832.0 0.001202 365.02579 912.29218
886.0 0.001129 364.97226 951.97186
947.0 0.001056 364.91855 981.47937
971.0 0.001030 364.86490 990.25104
966.0 0.001035 364.81116 978.72217
977.0 0.001024 364.75729 957.16705
955.0 0.001047 364.70337 934.74976
931.0 0.001074 364.64938 915.50800
913.0 0.001095 364.59531 900.18152
870.0 0.001149 364.54126 891.03070
823.0 0.001215 364.48700 892.83710
858.0 0.001166 364.43274 908.30017
931.0 0.001074 364.37836 935.86926
952.0 0.001050 364.32397 971.86469
957.0 0.001045 364.26947 1007.85223
1037.0 0.000964 364.21490 1032.77063
1024.0 0.000977 364.16028 1033.38074
1006.0 0.000994 364.10553 1005.64752
946.0 0.001057 364.05078 958.34979
920.0 0.001087 363.99591 907.46942
840.0 0.001190 363.94101 863.73444
790.0 0.001266 363.88602 833.61926
819.0 0.001221 363.83090 816.61932
827.0 0.001209 363.77582 808.41266
820.0 0.001220 363.72064 802.19812
813.0 0.001230 363.66541 791.96161
777.0 0.001287 363.61005 774.95197
825.0 0.001212 363.55460 754.33325
777.0 0.001287 363.49921 737.44043
767.0 0.001304 363.44363 731.85864
851.0 0.001175 363.38806 742.04236
873.0 0.001145 363.33234 771.87103
891.0 0.001122 363.27664 824.25183
908.0 0.001101 363.22083 900.04108
1000.0 0.001000 363.16492 999.93304
1124.0 0.000890 363.10901 1120.00354
1219.0 0.000820 363.05301 1249.45544
1348.0 0.000742 362.99695 1370.01672
1481.0 0.000675 362.94083 1461.01086
1514.0 0.000661 362.88461 1510.41443
1472.0 0.000679 362.82834 1520.88831
1598.0 0.000626 362.77197 1508.70776
1656.0 0.000604 362.71561 1487.23987
1627.0 0.000615 362.65921 1470.74524
1528.0 0.000654 362.60263 1475.04297
1528.0 0.000654 362.54605 1513.11487
1560.0 0.000641 362.48941 1589.78931
1656.0 0.000604 362.43268 1698.74121
1699.0 0.000589 362.37589 1824.93787
1825.0 0.000548 362.31912 1949.67810
2001.0 0.000500 362.26221 2056.12378
2163.0 0.000462 362.20526 2126.78174
2183.0 0.000458 362.14822 2145.51318
2193.0 0.000456 362.09113 2102.39990
2050.0 0.000488 362.03397 2005.50671
1889.0 0.000529 361.97678 1884.47156
1793.0 0.000558 361.91962 1773.45789
1663.0 0.000601 361.86224 1692.81665
1638.0 0.000611 361.80484 1645.00977
1594.0 0.000627 361.74738 1622.10681
1604.0 0.000623 361.68994 1610.98254
1583.0 0.000632 361.63235 1598.05579
1585.0 0.000631 361.57477 1563.52893
1545.0 0.000647 361.51703 1492.35730
1390.0 0.000719 361.45932 1385.35864
1271.0 0.000787 361.40152 1260.92224
1175.0 0.000851 361.34369 1140.54309
1056.0 0.000947 361.28580 1033.30273
969.0 0.001032 361.22778 945.11713
914.0 0.001094 361.16977 875.80988
840.0 0.001190 361.11172 825.99695
807.0 0.001239 361.05356 791.50885
748.0 0.001337 360.99539 767.34271
694.0 0.001441 360.93710 749.38568
726.0 0.001377 360.87881 737.89404
699.0 0.001431 360.82050 737.51031
706.0 0.001416 360.76208 750.88086
747.0 0.001339 360.70361 778.23431
802.0 0.001247 360.64508 817.40527
840.0 0.001190 360.58652 862.61072
855.0 0.001170 360.52792 904.43311
846.0 0.001182 360.46924 935.58002
924.0 0.001082 360.41055 955.64240
965.0 0.001036 360.35172 972.50665
972.0 0.001029 360.29285 989.05835
984.0 0.001016 360.23404 1002.47449
1031.0 0.000970 360.17505 1004.19543
999.0 0.001001 360.11609 988.81049
967.0 0.001034 360.05704 960.18903
892.0 0.001121 359.99796 924.44348
831.0 0.001203 359.93884 888.06122
858.0 0.001166 359.87961 854.82983
791.0 0.001264 359.82034 829.18951
745.0 0.001342 359.76111 816.13586
727.0 0.001376 359.70175 815.48108
837.0 0.001195 359.64236 822.56567
827.0 0.001209 359.58301 830.18103
868.0 0.001152 359.52341 832.66760
857.0 0.001167 359.46387 827.10767
801.0 0.001248 359.40430 809.86566
829.0 0.001206 359.34473 778.48151
692.0 0.001445 359.28500 735.28674
649.0 0.001541 359.22525 687.90796
630.0 0.001587 359.16547 644.18201
625.0 0.001600 359.10568 609.83453
613.0 0.001631 359.04584 585.37268
568.0 0.001761 358.98590 572.64636
597.0 0.001675 358.92596 567.64362
559.0 0.001789 358.86588 565.27826
550.0 0.001818 358.80594 560.70605
581.0 0.001721 358.74579 550.42468
582.0 0.001718 358.68567 534.11938
513.0 0.001949 358.62549 514.75079
477.0 0.002096 358.56525 495.40439
458.0 0.002183 358.50494 477.89835
471.0 0.002123 358.44467 465.78479
445.0 0.002247 358.38434 455.70718
422.0 0.002370 358.32394 449.87729
420.0 0.002381 358.26349 447.83963
411.0 0.002433 358.20300 449.47617
426.0 0.002347 358.14252 453.49432
469.0 0.002132 358.08194 465.57333
483.0 0.002070 358.02133 482.23547
493.0 0.002028 357.96066 507.05759
530.0 0.001887 357.89999 542.50610
591.0 0.001692 357.83926 591.64447
634.0 0.001577 357.77850 655.65350
715.0 0.001399 357.71768 735.75439
807.0 0.001239 357.65677 829.29230
889.0 0.001125 357.59595 927.92053
985.0 0.001015 357.53503 1024.91772
1085.0 0.000922 357.47406 1107.73413
1160.0 0.000862 357.41309 1160.64111
1198.0 0.000835 357.35205 1170.94519
1177.0 0.000850 357.29089 1136.49194
1064.0 0.000940 357.22983 1073.01233
991.0 0.001009 357.16870 1001.69019
915.0 0.001093 357.10751 940.17932
870.0 0.001149 357.04626 896.74915
887.0 0.001127 356.98505 871.83112
858.0 0.001166 356.92374 862.93317
904.0 0.001106 356.86240 858.38049
869.0 0.001151 356.80106 849.35699
862.0 0.001160 356.73956 826.29016
879.0 0.001138 356.67816 786.69263
759.0 0.001318 356.61670 737.06531
716.0 0.001397 356.55515 686.85071
653.0 0.001531 356.49368 643.64752
631.0 0.001585 356.43210 614.19647
634.0 0.001577 356.37054 599.98425
617.0 0.001621 356.30890 602.48389
635.0 0.001575 356.24716 618.55597
675.0 0.001481 356.18549 645.46960
664.0 0.001506 356.12375 676.56799
761.0 0.001314 356.06198 704.98505
794.0 0.001259 356.00018 720.17621
767.0 0.001304 355.93835 716.41107
734.0 0.001362 355.87650 694.69989
679.0 0.001473 355.81461 664.74847
651.0 0.001536 355.75269 635.42926
566.0 0.001767 355.69080 611.82104
603.0 0.001658 355.62878 597.23206
586.0 0.001706 355.56680 591.35034
579.0 0.001727 355.50476 592.60602
602.0 0.001661 355.44263 595.97815
589.0 0.001698 355.38058 596.05890
572.0 0.001748 355.31851 588.47528
577.0 0.001733 355.25632 574.62390
566.0 0.001767 355.19412 557.74750
558.0 0.001792 355.13193 542.02570
534.0 0.001873 355.06973 534.99872
512.0 0.001953 355.00745 529.08051
512.0 0.001953 354.94522 531.01367
554.0 0.001805 354.88284 542.66388
583.0 0.001715 354.82056 566.18091
619.0 0.001616 354.75821 604.15472
636.0 0.001572 354.69586 658.77740
725.0 0.001379 354.63342 732.85156
872.0 0.001147 354.57101 827.03796
987.0 0.001013 354.50848 939.85718
1094.0 0.000914 354.44601 1068.39172
1267.0 0.000789 354.38358 1196.64636
1433.0 0.000698 354.32101 1311.89392
1475.0 0.000678 354.25845 1403.05322
1450.0 0.000690 354.19586 1470.88904
1464.0 0.000683 354.13330 1523.63171
1486.0 0.000673 354.07068 1565.63354
1465.0 0.000683 354.00809 1591.93408
1477.0 0.000677 353.94540 1592.34863
1543.0 0.000648 353.88284 1562.96802
1536.0 0.000651 353.82007 1513.02576
1487.0 0.000672 353.75729 1455.79578
1481.0 0.000675 353.69455 1398.87537
1341.0 0.000746 353.63177 1344.36926
1281.0 0.000781 353.56900 1295.36206
1242.0 0.000805 353.50626 1255.70679
1136.0 0.000880 353.44345 1227.60803
1135.0 0.000881 353.38058 1209.30359
1133.0 0.000883 353.31769 1195.26135
1081.0 0.000925 353.25485 1183.58032
1176.0 0.000850 353.19199 1177.98120
1238.0 0.000808 353.12906 1186.86926
1242.0 0.000805 353.06622 1211.93140
1260.0 0.000794 353.00317 1250.92981
1258.0 0.000795 352.94025 1298.83655
1298.0 0.000770 352.87729 1347.16992
1375.0 0.000727 352.81433 1381.22705
1457.0 0.000686 352.75137 1384.66565
1363.0 0.000734 352.68832 1349.35083
1304.0 0.000767 352.62531 1286.02795
1192.0 0.000839 352.56229 1217.26782
1246.0 0.000803 352.49915 1157.10608
1141.0 0.000876 352.43613 1115.38245
1098.0 0.000911 352.37299 1093.45374
1098.0 0.000911 352.30994 1087.92456
1087.0 0.000920 352.24680 1092.10791
1100.0 0.000909 352.18369 1097.07397
1097.0 0.000912 352.12051 1094.43774
1109.0 0.000902 352.05740 1080.60632
1066.0 0.000938 351.99420 1061.09058
1071.0 0.000934 351.93106 1045.44385
1104.0 0.000906 351.86786 1041.29309
1130.0 0.000885 351.80472 1048.11060
1121.0 0.000892 351.74146 1063.97485
1176.0 0.000850 351.67825 1082.42017
1160.0 0.000862 351.61508 1099.82947
1184.0 0.000845 351.55185 1116.67078
1280.0 0.000781 351.48853 1138.49463
1326.0 0.000754 351.42529 1176.97974
1376.0 0.000727 351.36203 1247.80847
1489.0 0.000672 351.29877 1364.96167
1578.0 0.000634 351.23547 1536.73987
1751.0 0.000571 351.17218 1762.35266
1889.0 0.000529 351.10886 2032.05591
2059.0 0.000486 351.04553 2323.11914
2314.0 0.000432 350.98230 2597.48267
2508.0 0.000399 350.91898 2799.40771
2621.0 0.000382 350.85562 2870.99805
2675.0 0.000374 350.79233 2790.55005
2618.0 0.000382 350.72891 2594.25391
2439.0 0.000410 350.66562 2349.50464
2226.0 0.000449 350.60229 2116.53516
1998.0 0.000501 350.53894 1932.79211
1793.0 0.000558 350.47552 1813.92346
1711.0 0.000584 350.41220 1757.64063
1622.0 0.000617 350.34897 1745.31091
1620.0 0.000617 350.28549 1743.81445
1584.0 0.000631 350.22217 1713.93481
1586.0 0.000631 350.15875 1629.92285
1479.0 0.000676 350.09543 1493.21326
1367.0 0.000732 350.03207 1329.74780
1153.0 0.000867 349.96866 1163.32117
1071.0 0.000934 349.90527 1011.35126
886.0 0.001129 349.84189 883.91058
771.0 0.001297 349.77844 782.87311
694.0 0.001441 349.71515 711.04364
677.0 0.001477 349.65170 663.63269
630.0 0.001587 349.58838 636.57324
662.0 0.001511 349.52490 623.76636
661.0 0.001513 349.46155 619.70801
676.0 0.001479 349.39822 620.12323
677.0 0.001477 349.33481 619.33032
642.0 0.001558 349.27139 614.81396
653.0 0.001531 349.20804 603.54749
623.0 0.001605 349.14465 589.60944
605.0 0.001653 349.08130 575.76544
618.0 0.001618 349.01791 566.26233
602.0 0.001661 348.95450 561.89459
625.0 0.001600 348.89117 562.42590
648.0 0.001543 348.82776 566.99304
654.0 0.001529 348.76443 574.93524
690.0 0.001449 348.70108 584.91083
661.0 0.001513 348.63770 597.42664
672.0 0.001488 348.57431 612.56726
690.0 0.001449 348.51102 632.25574
732.0 0.001366 348.44769 662.69855
716.0 0.001397 348.38434 703.63129
792.0 0.001263 348.32098 754.47119
805.0 0.001242 348.25766 810.89557
817.0 0.001224 348.19431 866.47021
922.0 0.001085 348.13107 911.79474
1004.0 0.000996 348.06775 940.57025
1031.0 0.000970 348.00446 955.67432
1069.0 0.000935 347.94119 968.23431
1162.0 0.000861 347.87787 991.29419
1127.0 0.000887 347.81461 1037.03040
1142.0 0.000876 347.75140 1109.02966
1170.0 0.000855 347.68814 1205.20996
1213.0 0.000824 347.62485 1314.57971
1319.0 0.000758 347.56161 1421.22351
1430.0 0.000699 347.49841 1507.69812
1523.0 0.000657 347.43512 1556.86963
1546.0 0.000647 347.37192 1553.87524
1495.0 0.000669 347.30872 1495.82629
1436.0 0.000696 347.24551 1399.56934
1388.0 0.000720 347.18237 1290.03638
1283.0 0.000779 347.11920 1189.28247
1112.0 0.000899 347.05600 1109.86035
992.0 0.001008 346.99286 1055.07886
975.0 0.001026 346.92978 1021.02563
962.0 0.001040 346.86664 999.78790
921.0 0.001086 346.80353 982.93231
898.0 0.001114 346.74042 959.75635
928.0 0.001078 346.67743 921.88739
918.0 0.001089 346.61429 863.89563
836.0 0.001196 346.55127 802.28357
770.0 0.001299 346.48819 740.37610
716.0 0.001397 346.42514 684.52997
653.0 0.001531 346.36215 637.86456
611.0 0.001637 346.29919 601.95361
546.0 0.001832 346.23618 572.69220
505.0 0.001980 346.17319 548.78467
510.0 0.001961 346.11029 528.43567
476.0 0.002101 346.04730 513.30945
463.0 0.002160 345.98441 496.02200
471.0 0.002123 345.92154 484.50061
468.0 0.002137 345.85861 476.15961
460.0 0.002174 345.79575 470.88171
471.0 0.002123 345.73288 468.38333
452.0 0.002212 345.67007 468.13010
484.0 0.002066 345.60727 469.96777
450.0 0.002222 345.54446 471.67688
510.0 0.001961 345.48172 473.32257
467.0 0.002141 345.41898 475.12247
445.0 0.002247 345.35617 478.80215
455.0 0.002198 345.29352 482.44641
512.0 0.001953 345.23077 487.67148
540.0 0.001852 345.16806 494.54791
510.0 0.001961 345.10541 503.20062
502.0 0.001992 345.04279 514.35101
541.0 0.001848 344.98016 529.71356
562.0 0.001779 344.91760 551.81866
583.0 0.001715 344.85495 583.51758
641.0 0.001560 344.79239 627.61658
694.0 0.001441 344.72992 686.53674
738.0 0.001355 344.66739 761.86926
798.0 0.001253 344.60495 853.49438
932.0 0.001073 344.54245 958.39008
1018.0 0.000982 344.47998 1070.38635
1122.0 0.000891 344.41757 1182.18555
1254.0 0.000797 344.35519 1289.26599
1350.0 0.000741 344.29285 1384.91772
1457.0 0.000686 344.23050 1460.07727
1475.0 0.000678 344.16812 1498.98853
1483.0 0.000674 344.10583 1489.76074
1423.0 0.000703 344.04361 1436.52612
1314.0 0.000761 343.98138 1359.01245
1206.0 0.000829 343.91907 1279.39917
1122.0 0.000891 343.85693 1212.97168
1119.0 0.000894 343.79471 1166.31836
1108.0 0.000903 343.73264 1141.90247
1062.0 0.000942 343.67044 1137.94238
1061.0 0.000943 343.60840 1150.62830
1127.0 0.000887 343.54630 1170.64746
1180.0 0.000847 343.48425 1187.35315
1133.0 0.000883 343.42233 1193.70959
1106.0 0.000904 343.36032 1190.81934
1095.0 0.000913 343.29834 1183.61816
1098.0 0.000911 343.23639 1174.39600
1085.0 0.000922 343.17453 1161.62061
1079.0 0.000927 343.11267 1143.21497
993.0 0.001007 343.05084 1121.52075
990.0 0.001010 342.98904 1103.93298
1021.0 0.000979 342.92725 1101.22559
1062.0 0.000942 342.86551 1121.77600
1180.0 0.000847 342.80377 1168.85999
1244.0 0.000804 342.74207 1239.35767
1320.0 0.000758 342.68039 1322.63403
1463.0 0.000684 342.61877 1400.14233
1537.0 0.000651 342.55722 1448.55090
1560.0 0.000641 342.49561 1449.36450
1452.0 0.000689 342.43417 1401.89368
1283.0 0.000779 342.37259 1320.79297
1238.0 0.000808 342.31119 1228.54456
1134.0 0.000882 342.24976 1142.68420
1011.0 0.000989 342.18835 1078.06323
1071.0 0.000934 342.12695 1039.08044
1004.0 0.000996 342.06558 1025.32837
1022.0 0.000978 342.00430 1031.08472
1062.0 0.000942 341.94312 1046.57092
1075.0 0.000930 341.88184 1061.14453
1072.0 0.000933 341.82059 1069.99646
1072.0 0.000933 341.75949 1076.24609
1019.0 0.000981 341.69830 1090.53357
1045.0 0.000957 341.63727 1125.12097
1113.0 0.000898 341.57617 1192.93225
1164.0 0.000859 341.51520 1301.99866
1325.0 0.000755 341.45419 1456.19153
1526.0 0.000655 341.39322 1651.40613
1714.0 0.000583 341.33237 1875.73816
1939.0 0.000516 341.27145 2108.78638
2224.0 0.000450 341.21063 2325.03589
2529.0 0.000395 341.14978 2506.21045
2740.0 0.000365 341.08899 2637.17407
2838.0 0.000352 341.02832 2698.49194
2818.0 0.000355 340.96771 2672.02246
2760.0 0.000362 340.90698 2560.62012
2401.0 0.000416 340.84637 2395.88403
2218.0 0.000451 340.78574 2220.44434
1957.0 0.000511 340.72525 2066.21704
1854.0 0.000539 340.66479 1947.74756
1787.0 0.000560 340.60431 1864.40771
1690.0 0.000592 340.54395 1806.48425
1728.0 0.000579 340.48355 1763.15234
1752.0 0.000571 340.42319 1720.44324
1764.0 0.000567 340.36295 1660.59814
1703.0 0.000587 340.30267 1568.85120
1547.0 0.000646 340.24249 1444.26416
1404.0 0.000712 340.18225 1300.42651
1216.0 0.000822 340.12216 1155.50671
1086.0 0.000921 340.06210 1023.96991
951.0 0.001052 340.00204 914.65942
861.0 0.001161 339.94205 832.09839
826.0 0.001211 339.88205 777.87976
790.0 0.001266 339.82217 751.55103
813.0 0.001230 339.76227 751.16229
820.0 0.001220 339.70245 773.57477
780.0 0.001282 339.64270 814.36279
806.0 0.001241 339.58292 867.38538
882.0 0.001134 339.52319 925.12933
912.0 0.001096 339.46359 973.50067
936.0 0.001068 339.40396 1001.94165
951.0 0.001052 339.34436 1003.15082
1004.0 0.000996 339.28485 980.47235
1011.0 0.000989 339.22540 944.85504
966.0 0.001035 339.16602 906.26074
914.0 0.001094 339.10660 875.56860
894.0 0.001119 339.04727 855.38483
905.0 0.001105 338.98798 846.40863
895.0 0.001117 338.92874 845.77466
765.0 0.001307 338.86954 847.69080
772.0 0.001295 338.81039 843.98352
752.0 0.001330 338.75125 828.74042
827.0 0.001209 338.69220 800.54297
749.0 0.001335 338.63318 763.16235
758.0 0.001319 338.57425 722.23218
725.0 0.001379 338.51532 684.90326
708.0 0.001412 338.45645 654.00647
613.0 0.001631 338.39761 631.23730
620.0 0.001613 338.33884 616.65417
629.0 0.001590 338.28015 608.48816
539.0 0.001855 338.22144 604.69708
595.0 0.001681 338.16287 601.40637
606.0 0.001650 338.10428 596.43762
566.0 0.001767 338.04575 587.12634
549.0 0.001821 337.98734 572.74884
540.0 0.001852 337.92883 554.76624
548.0 0.001825 337.87051 535.96924
520.0 0.001923 337.81216 519.00061
494.0 0.002024 337.75385 505.58273
484.0 0.002066 337.69571 495.79584
505.0 0.001980 337.63748 491.78113
505.0 0.001980 337.57935 491.48535
514.0 0.001946 337.52130 494.34143
509.0 0.001965 337.46332 499.00775
553.0 0.001808 337.40536 504.13138
557.0 0.001795 337.34744 509.41470
576.0 0.001736 337.28961 515.94409
574.0 0.001742 337.23178 525.72308
575.0 0.001739 337.17401 540.92578
622.0 0.001608 337.11633 563.50757
647.0 0.001546 337.05865 594.61078
657.0 0.001522 337.00110 635.81366
698.0 0.001433 336.94357 688.30524
803.0 0.001245 336.88611 751.16791
868.0 0.001152 336.82864 824.85559
891.0 0.001122 336.77124 906.89563
952.0 0.001050 336.71393 991.16064
974.0 0.001027 336.65671 1067.79211
1029.0 0.000972 336.59943 1125.72620
1080.0 0.000926 336.54236 1156.58447
1070.0 0.000935 336.48523 1156.57031
1146.0 0.000873 336.42822 1125.88269
1174.0 0.000852 336.37119 1075.09595
1102.0 0.000907 336.31433 1015.40149
1021.0 0.000979 336.25748 959.05225
923.0 0.001083 336.20059 912.21960
878.0 0.001139 336.14386 883.79309
873.0 0.001145 336.08710 868.88239
812.0 0.001232 336.03052 862.21490
813.0 0.001230 335.97394 856.25958
778.0 0.001285 335.91739 844.15759
787.0 0.001271 335.86090 821.25549
755.0 0.001325 335.80447 785.46973
751.0 0.001332 335.74814 740.74890
730.0 0.001370 335.69183 692.33679
693.0 0.001443 335.63562 645.44672
661.0 0.001513 335.57944 603.77850
643.0 0.001555 335.52332 572.91858
594.0 0.001684 335.46722 552.97009
619.0 0.001616 335.41122 545.19586
532.0 0.001880 335.35532 550.51904
565.0 0.001770 335.29941 569.80304
590.0 0.001695 335.24356 603.91467
674.0 0.001484 335.18784 653.50024
714.0 0.001401 335.13217 718.39130
730.0 0.001370 335.07651 797.09161
793.0 0.001261 335.02094 884.94226
886.0 0.001129 334.96545 974.50751
968.0 0.001033 334.91000 1052.06934
1016.0 0.000984 334.85449 1102.74219
1086.0 0.000921 334.79916 1114.65479
1050.0 0.000952 334.74396 1087.14429
1033.0 0.000968 334.68875 1030.67847
943.0 0.001060 334.63358 963.51642
854.0 0.001171 334.57849 899.35858
776.0 0.001289 334.52347 847.91309
735.0 0.001361 334.46851 813.83807
703.0 0.001422 334.41367 797.53052
717.0 0.001395 334.35883 794.97198
746.0 0.001340 334.30405 798.76086
799.0 0.001252 334.24930 798.32898
760.0 0.001316 334.19467 785.60016
730.0 0.001370 334.14008 756.58685
727.0 0.001376 334.08560 715.21539
712.0 0.001404 334.03113 667.34741
623.0 0.001605 333.97675 619.13342
530.0 0.001887 333.92242 575.03082
502.0 0.001992 333.86816 537.65210
490.0 0.002041 333.81403 508.38324
484.0 0.002066 333.75989 487.60175
484.0 0.002066 333.70578 475.25839
487.0 0.002053 333.65182 471.13394
500.0 0.002000 333.59790 475.60327
484.0 0.002066 333.54404 489.09232
484.0 0.002066 333.49023 512.23248
543.0 0.001842 333.43649 546.41620
597.0 0.001675 333.38284 591.71094
636.0 0.001572 333.32916 647.82159
690.0 0.001449 333.27563 712.72131
745.0 0.001342 333.22217 781.34058
814.0 0.001229 333.16885 846.72021
881.0 0.001135 333.11545 898.35382
906.0 0.001104 333.06219 925.05164
900.0 0.001111 333.00897 920.82013
859.0 0.001164 332.95584 889.17700
845.0 0.001183 332.90280 841.44458
794.0 0.001259 332.84979 790.39417
739.0 0.001353 332.79688 745.46179
698.0 0.001433 332.74405 712.50238
729.0 0.001372 332.69128 692.75476
708.0 0.001412 332.63852 685.71008
702.0 0.001425 332.58582 687.06598
669.0 0.001495 332.53333 690.71515
719.0 0.001391 332.48080 689.12604
707.0 0.001414 332.42834 676.94214
673.0 0.001486 332.37598 653.29565
632.0 0.001582 332.32364 621.87537
611.0 0.001637 332.27142 588.18311
566.0 0.001767 332.21921 557.93475
514.0 0.001946 332.16718 531.87427
528.0 0.001894 332.11517 515.61365
533.0 0.001876 332.06323 506.24179
506.0 0.001976 332.01126 504.65363
496.0 0.002016 331.95947 511.66318
541.0 0.001848 331.90775 526.07422
572.0 0.001748 331.85608 543.77417
631.0 0.001585 331.80447 562.85504
628.0 0.001592 331.75287 579.99512
618.0 0.001618 331.70151 592.63263
641.0 0.001560 331.65012 600.97388
631.0 0.001585 331.59879 605.83850
628.0 0.001592 331.54755 611.75720
636.0 0.001572 331.49637 618.87292
667.0 0.001499 331.44528 627.79218
694.0 0.001441 331.39426 637.54852
683.0 0.001464 331.34335 644.86206
683.0 0.001464 331.29242 647.89648
650.0 0.001538 331.24161 645.33020
696.0 0.001437 331.19086 639.35577
619.0 0.001616 331.14023 632.35687
643.0 0.001555 331.08963 626.94360
631.0 0.001585 331.03912 625.93695
601.0 0.001664 330.98871 631.79120
635.0 0.001575 330.93829 645.72424
672.0 0.001488 330.88803 667.42010
703.0 0.001422 330.83771 694.30157
699.0 0.001431 330.78763 722.44122
705.0 0.001418 330.73755 746.59485
735.0 0.001361 330.68753 761.20172
750.0 0.001333 330.63770 760.98773
725.0 0.001379 330.58783 745.30292
697.0 0.001435 330.53812 716.72766
704.0 0.001420 330.48834 684.12518
673.0 0.001486 330.43872 653.29498
643.0 0.001555 330.38919 628.68378
605.0 0.001653 330.33975 612.40918
582.0 0.001718 330.29031 604.89886
601.0 0.001664 330.24094 604.60394
644.0 0.001553 330.19171 608.59290
642.0 0.001558 330.14258 612.83575
644.0 0.001553 330.09351 612.21930
636.0 0.001572 330.04449 603.96381
595.0 0.001681 329.99548 587.61206
563.0 0.001776 329.94669 567.04517
536.0 0.001866 329.89786 545.53619
556.0 0.001799 329.84915 526.48297
539.0 0.001855 329.80048 511.19058
519.0 0.001927 329.75189 501.29565
537.0 0.001862 329.70352 497.53128
532.0 0.001880 329.65506 500.15421
516.0 0.001938 329.60672 509.14313
566.0 0.001767 329.55847 524.37976
551.0 0.001815 329.51028 545.84521
554.0 0.001805 329.46222 573.60046
585.0 0.001709 329.41422 607.44958
634.0 0.001577 329.36627 646.37201
680.0 0.001471 329.31839 688.07263
717.0 0.001395 329.27060 729.13721
751.0 0.001332 329.22287 764.53625
783.0 0.001277 329.17529 790.00378
852.0 0.001174 329.12772 803.64697
841.0 0.001189 329.08029 805.71021
847.0 0.001181 329.03284 801.85846
872.0 0.001147 328.98550 798.23877
851.0 0.001175 328.93829 798.66156
869.0 0.001151 328.89114 807.98438
846.0 0.001182 328.84406 826.93817
867.0 0.001153 328.79706 854.53461
900.0 0.001111 328.75015 889.96387
942.0 0.001062 328.70331 930.57263
1018.0 0.000982 328.65659 973.72729
1044.0 0.000958 328.60986 1019.58612
1142.0 0.000876 328.56329 1072.08179
1216.0 0.000822 328.51672 1138.61731
1285.0 0.000778 328.47028 1227.31775
1343.0 0.000745 328.42398 1342.52795
1450.0 0.000690 328.37766 1485.12024
1588.0 0.000630 328.33145 1647.99280
1678.0 0.000596 328.28531 1816.05835
1846.0 0.000542 328.23926 1968.96521
2043.0 0.000489 328.19339 2084.81885
2082.0 0.000480 328.14749 2147.70508
2160.0 0.000463 328.10165 2155.01538
2203.0 0.000454 328.05600 2116.79907
2138.0 0.000468 328.01035 2050.00098
2069.0 0.000483 327.96475 1967.81091
1990.0 0.000503 327.91931 1878.60303
1815.0 0.000551 327.87387 1789.52661
1671.0 0.000598 327.82855 1708.90881
1595.0 0.000627 327.78336 1642.37793
1545.0 0.000647 327.73819 1589.21716
1503.0 0.000665 327.69315 1542.37537
1432.0 0.000698 327.64807 1492.56458
1372.0 0.000729 327.60321 1433.24194
1354.0 0.000739 327.55844 1363.47803
1344.0 0.000744 327.51361 1286.31714
1273.0 0.000786 327.46902 1205.78955
1203.0 0.000831 327.42438 1123.56958
1090.0 0.000917 327.37988 1041.64063
1012.0 0.000988 327.33548 962.80896
917.0 0.001091 327.29111 891.94281
868.0 0.001152 327.24692 834.42511
809.0 0.001236 327.20273 792.41077
809.0 0.001236 327.15869 766.46228
799.0 0.001252 327.11465 755.18182
772.0 0.001295 327.07068 755.38226
723.0 0.001383 327.02689 762.68719
782.0 0.001279 326.98309 772.20099
795.0 0.001258 326.93945 778.60358
763.0 0.001311 326.89590 777.60449
813.0 0.001230 326.85239 766.10309
788.0 0.001269 326.80893 746.57043
748.0 0.001337 326.76559 722.81873
758.0 0.001319 326.72232 699.96838
729.0 0.001372 326.67914 682.18658
661.0 0.001513 326.63614 669.72656
694.0 0.001441 326.59302 663.67163
680.0 0.001471 326.55011 663.37360
646.0 0.001548 326.50723 667.89929
685.0 0.001460 326.46451 676.02625
693.0 0.001443 326.42184 686.09003
679.0 0.001473 326.37924 696.29980
682.0 0.001466 326.33673 705.26801
682.0 0.001466 326.29440 713.26038
716.0 0.001397 326.25201 719.98596
726.0 0.001377 326.20969 724.02094
709.0 0.001410 326.16760 723.16107
684.0 0.001462 326.12546 714.05316
657.0 0.001522 326.08350 696.86377
672.0 0.001488 326.04156 674.63379
614.0 0.001629 325.99969 652.24829
603.0 0.001658 325.95792 634.46802
577.0 0.001733 325.91629 624.87170
545.0 0.001835 325.87473 625.76526
587.0 0.001704 325.83328 638.25360
611.0 0.001637 325.79178 662.16583
656.0 0.001524 325.75046 696.09039
687.0 0.001456 325.70923 737.11285
779.0 0.001284 325.66806 781.36780
850.0 0.001176 325.62701 823.87964
930.0 0.001075 325.58600 860.24304
914.0 0.001094 325.54510 886.94629
850.0 0.001176 325.50427 903.98865
904.0 0.001106 325.46353 913.38562
941.0 0.001063 325.42288 920.28448
941.0 0.001063 325.38235 929.13324
965.0 0.001036 325.34192 941.55115
974.0 0.001027 325.30148 956.61279
977.0 0.001024 325.26120 972.08398
987.0 0.001013 325.22095 987.58435
1016.0 0.000984 325.18085 1005.82043
994.0 0.001006 325.14078 1028.50037
1001.0 0.000999 325.10077 1057.75684
1037.0 0.000964 325.06091 1091.12134
1081.0 0.000925 325.02112 1126.31677
1138.0 0.000879 324.98141 1160.27563
1257.0 0.000796 324.94174 1191.21692
1346.0 0.000743 324.90222 1215.37476
1284.0 0.000779 324.86282 1226.48022
1235.0 0.000810 324.82343 1218.69385
1194.0 0.000838 324.78415 1190.57043
1138.0 0.000879 324.74496 1145.76465
1065.0 0.000939 324.70584 1094.83899
1051.0 0.000951 324.66681 1041.44617
970.0 0.001031 324.62793 992.96588
917.0 0.001091 324.58902 949.66815
904.0 0.001106 324.55023 911.42810
874.0 0.001144 324.51154 877.86383
860.0 0.001163 324.47302 850.76263
849.0 0.001178 324.43445 826.99622
776.0 0.001289 324.39609 803.46289
795.0 0.001258 324.35767 777.72009
802.0 0.001247 324.31946 749.05811
697.0 0.001435 324.28122 720.78900
614.0 0.001629 324.24323 694.83740
635.0 0.001575 324.20523 673.63757
587.0 0.001704 324.16733 657.76227
665.0 0.001504 324.12946 647.73145
640.0 0.001563 324.09177 643.19098
607.0 0.001647 324.05417 643.51074
634.0 0.001577 324.01660 648.50800
661.0 0.001513 323.97906 654.87238
679.0 0.001473 323.94162 659.16693
693.0 0.001443 323.90439 658.31903
619.0 0.001616 323.86725 651.51367
620.0 0.001613 323.83002 640.98578
640.0 0.001563 323.79303 631.24323
670.0 0.001493 323.75604 626.20508
612.0 0.001634 323.71915 629.94183
644.0 0.001553 323.68243 644.51733
651.0 0.001536 323.64575 670.48126
698.0 0.001433 323.60904 706.56989
710.0 0.001408 323.57251 750.49121
748.0 0.001337 323.53613 796.56183
849.0 0.001178 323.49979 837.16614
839.0 0.001192 323.46353 863.72522
879.0 0.001138 323.42728 869.35211
873.0 0.001145 323.39117 852.76831
820.0 0.001220 323.35516 819.35870
800.0 0.001250 323.31927 777.64777
758.0 0.001319 323.28351 736.06757
732.0 0.001366 323.24774 700.56342
702.0 0.001425 323.21207 674.24152
627.0 0.001595 323.17648 658.92639
604.0 0.001656 323.14102 652.71155
653.0 0.001531 323.10562 652.94403
673.0 0.001486 323.07028 655.33185
670.0 0.001493 323.03506 655.32574
690.0 0.001449 322.99991 648.46466
654.0 0.001529 322.96487 634.82635
606.0 0.001650 322.92990 616.64844
596.0 0.001678 322.89499 596.64124
575.0 0.001739 322.86020 578.79114
569.0 0.001757 322.82550 565.85455
571.0 0.001751 322.79086 559.25732
563.0 0.001776 322.75635 559.40912
548.0 0.001825 322.72192 565.19061
571.0 0.001751 322.68747 574.80994
617.0 0.001621 322.65326 585.50836
604.0 0.001656 322.61908 594.47931
583.0 0.001715 322.58493 599.41827
582.0 0.001718 322.55093 600.69641
627.0 0.001595 322.51703 599.42267
622.0 0.001608 322.48315 597.21472
584.0 0.001712 322.44946 596.40234
612.0 0.001634 322.41577 598.51007
602.0 0.001661 322.38214 605.19904
620.0 0.001613 322.34863 617.50281
610.0 0.001639 322.31528 635.21808
645.0 0.001550 322.28192 656.10846
678.0 0.001475 322.24869 677.98431
679.0 0.001473 322.21548 696.10919
724.0 0.001381 322.18253 707.06506
690.0 0.001449 322.14948 709.69171
799.0 0.001252 322.11655 704.74176
710.0 0.001408 322.08380 694.58630
690.0 0.001449 322.05103 681.95953
680.0 0.001471 322.01840 669.67621
658.0 0.001520 321.98581 661.22400
627.0 0.001595 321.95334 659.32867
695.0 0.001439 321.92108 665.36078
653.0 0.001531 321.88873 680.09479
683.0 0.001464 321.85654 701.43610
709.0 0.001410 321.82440 725.62067
729.0 0.001372 321.79242 748.30182
766.0 0.001305 321.76047 764.92072
750.0 0.001333 321.72855 772.95148
770.0 0.001299 321.69675 770.40161
778.0 0.001285 321.66510 759.72614
735.0 0.001361 321.63351 745.38580
716.0 0.001397 321.60196 732.54950
716.0 0.001397 321.57050 725.20374
740.0 0.001351 321.53918 725.12048
807.0 0.001239 321.50790 732.40930
806.0 0.001241 321.47684 743.86682
822.0 0.001217 321.44565 754.78986
810.0 0.001235 321.41467 760.03998
756.0 0.001323 321.38376 755.74323
728.0 0.001374 321.35294 741.59070
689.0 0.001451 321.32220 718.94843
666.0 0.001502 321.29150 691.03149
679.0 0.001473 321.26093 661.30652
637.0 0.001570 321.23047 632.81775
590.0 0.001695 321.19998 607.71326
590.0 0.001695 321.16980 586.96411
585.0 0.001709 321.13947 571.38214
589.0 0.001698 321.10934 560.08844
580.0 0.001724 321.07928 551.17151
547.0 0.001828 321.04926 542.54822
529.0 0.001890 321.01938 532.73389
552.0 0.001812 320.98959 521.71106
550.0 0.001818 320.95987 510.50580
503.0 0.001988 320.93018 500.36658
501.0 0.001996 320.90060 492.18909
478.0 0.002092 320.87119 486.41754
486.0 0.002058 320.84183 483.25400
479.0 0.002088 320.81256 482.72345
455.0 0.002198 320.78323 484.61697
486.0 0.002058 320.75415 491.08923
506.0 0.001976 320.72513 501.96259
510.0 0.001961 320.69620 517.84412
493.0 0.002028 320.66730 538.94257
540.0 0.001852 320.63852 564.84540
555.0 0.001802 320.60977 594.38715
596.0 0.001678 320.58118 625.86835
632.0 0.001582 320.55261 657.69128
646.0 0.001548 320.52414 688.96497
657.0 0.001522 320.49582 719.22992
721.0 0.001387 320.46750 747.85797
739.0 0.001353 320.43936 772.57172
770.0 0.001299 320.41125 791.50311
784.0 0.001276 320.38312 801.22736
835.0 0.001198 320.35522 798.88000
794.0 0.001259 320.32733 784.28113
716.0 0.001397 320.29956 760.45227
699.0 0.001431 320.27188 731.10889
694.0 0.001441 320.24426 700.86578
645.0 0.001550 320.21671 672.66516
638.0 0.001567 320.18927 648.29700
627.0 0.001595 320.16196 628.66040
609.0 0.001642 320.13455 613.89349
604.0 0.001656 320.10736 602.72174
589.0 0.001698 320.08029 593.74036
588.0 0.001701 320.05328 584.23560
590.0 0.001695 320.02631 571.85107
573.0 0.001745 319.99942 554.69476
516.0 0.001938 319.97266 533.41370
526.0 0.001901 319.94592 509.09918
493.0 0.002028 319.91931 484.11703
491.0 0.002037 319.89282 460.30768
440.0 0.002273 319.86636 438.89975
459.0 0.002179 319.83997 420.57925
432.0 0.002315 319.81366 405.61212
416.0 0.002404 319.78748 393.53268
419.0 0.002387 319.76138 385.31229
402.0 0.002488 319.73532 379.73755
402.0 0.002488 319.70932 376.81235
404.0 0.002475 319.68356 376.05859
366.0 0.002732 319.65768 377.94852
406.0 0.002463 319.63199 381.95963
414.0 0.002415 319.60632 388.07162
401.0 0.002494 319.58078 396.15140
412.0 0.002427 319.55533 405.94769
400.0 0.002500 319.53000 417.05951
403.0 0.002481 319.50470 428.86169
421.0 0.002375 319.47946 440.14688
434.0 0.002304 319.45425 450.00055
454.0 0.002203 319.42920 456.79224
466.0 0.002146 319.40430 459.04163
479.0 0.002088 319.37933 457.33734
477.0 0.002096 319.35455 452.76212
463.0 0.002160 319.32974 446.81418
456.0 0.002193 319.30515 440.82761
475.0 0.002105 319.28052 435.91876
445.0 0.002247 319.25601 432.65479
459.0 0.002179 319.23169 431.14148
440.0 0.002273 319.20740 430.97217
458.0 0.002183 319.18311 430.93152
474.0 0.002110 319.15894 430.79755
453.0 0.002208 319.13483 429.25073
464.0 0.002155 319.11078 425.38715
470.0 0.002128 319.08685 419.83231
477.0 0.002096 319.06302 412.54269
495.0 0.002020 319.03925 404.38232
410.0 0.002439 319.01556 396.27689
430.0 0.002326 318.99197 388.74329
456.0 0.002193 318.96841 382.48029
409.0 0.002445 318.94492 377.05511
411.0 0.002433 318.92160 372.65378
430.0 0.002326 318.89835 368.81693
399.0 0.002506 318.87503 365.80829
396.0 0.002525 318.85193 363.01102
425.0 0.002353 318.82892 360.43222
420.0 0.002381 318.80597 358.08536
417.0 0.002398 318.78299 356.09274
428.0 0.002336 318.76025 354.51529
387.0 0.002584 318.73746 353.41324
411.0 0.002433 318.71481 352.95764
352.0 0.002841 318.69226 353.17181
390.0 0.002564 318.66965 354.65781
408.0 0.002451 318.64725 356.90860
433.0 0.002309 318.62497 360.56653
394.0 0.002538 318.60266 366.07236
419.0 0.002387 318.58051 373.53000
453.0 0.002208 318.55835 383.61331
464.0 0.002155 318.53632 396.79822
437.0 0.002288 318.51431 413.18286
477.0 0.002096 318.49240 433.50885
476.0 0.002101 318.47064 457.32147
493.0 0.002028 318.44897 483.96875
513.0 0.001949 318.42728 511.99167
535.0 0.001869 318.40570 539.61389
523.0 0.001912 318.38422 564.75403
526.0 0.001901 318.36282 582.78418
552.0 0.001812 318.34143 592.94922
563.0 0.001776 318.32019 593.88269
606.0 0.001650 318.29904 585.80804
634.0 0.001577 318.27783 571.06287
611.0 0.001637 318.25687 552.91345
573.0 0.001745 318.23593 535.06696
539.0 0.001855 318.21500 520.00024
537.0 0.001862 318.19424 509.27475
530.0 0.001887 318.17349 503.48260
530.0 0.001887 318.15280 502.12946
510.0 0.001961 318.13220 504.15329
505.0 0.001980 318.11166 508.26715
510.0 0.001961 318.09122 511.88300
482.0 0.002075 318.07095 514.48114
476.0 0.002101 318.05066 514.98755
505.0 0.001980 318.03043 513.54681
533.0 0.001876 318.01028 511.12961
515.0 0.001942 317.99020 509.05450
508.0 0.001969 317.97018 508.35645
479.0 0.002088 317.95026 509.26630
486.0 0.002058 317.93051 511.24924
504.0 0.001984 317.91071 513.14838
534.0 0.001873 317.89102 513.42865
534.0 0.001873 317.87146 511.36377
526.0 0.001901 317.85190 507.12830
507.0 0.001972 317.83237 501.63013
518.0 0.001931 317.81299 495.89536
469.0 0.002132 317.79367 491.06128
491.0 0.002037 317.77444 488.26208
503.0 0.001988 317.75531 488.89615
465.0 0.002151 317.73618 492.86703
456.0 0.002193 317.71719 500.59631
509.0 0.001965 317.69821 511.38000
499.0 0.002004 317.67929 523.79828
528.0 0.001894 317.66049 535.76575
584.0 0.001712 317.64172 544.75537
571.0 0.001751 317.62314 549.77545
595.0 0.001681 317.60455 549.62140
531.0 0.001883 317.58597 545.59631
499.0 0.002004 317.56750 539.64972
502.0 0.001992 317.54919 533.73541
492.0 0.002033 317.53082 529.46558
497.0 0.002012 317.51266 528.56873
533.0 0.001876 317.49451 530.00146
532.0 0.001880 317.47638 534.10724
530.0 0.001887 317.45837 540.04962
570.0 0.001754 317.44034 547.17810
545.0 0.001835 317.42249 554.60419
560.0 0.001786 317.40472 562.09167
532.0 0.001880 317.38696 569.21399
546.0 0.001832 317.36929 575.32080
582.0 0.001718 317.35168 580.16272
566.0 0.001767 317.33417 583.08374
590.0 0.001695 317.31671 582.99640
634.0 0.001577 317.29932 578.95703
616.0 0.001623 317.28198 571.20221
565.0 0.001770 317.26477 560.37177
542.0 0.001845 317.24759 548.44373
533.0 0.001876 317.23050 537.18329
553.0 0.001808 317.21344 527.92853
546.0 0.001832 317.19647 521.62250
523.0 0.001912 317.17957 518.83636
508.0 0.001969 317.16269 519.58380
524.0 0.001908 317.14597 523.52502
527.0 0.001898 317.12924 528.74927
519.0 0.001927 317.11258 533.53162
535.0 0.001869 317.09604 535.56982
533.0 0.001876 317.07962 533.10315
509.0 0.001965 317.06314 525.81628
508.0 0.001969 317.04684 515.00128
516.0 0.001938 317.03046 503.16922
495.0 0.002020 317.01428 491.88409
513.0 0.001949 316.99808 483.26172
499.0 0.002004 316.98199 478.56723
466.0 0.002146 316.96600 478.56845
466.0 0.002146 316.94998 483.57541
487.0 0.002053 316.93417 493.58176
506.0 0.001976 316.91830 507.66699
525.0 0.001905 316.90256 524.82367
528.0 0.001894 316.88684 543.42358
542.0 0.001845 316.87122 561.72546
579.0 0.001727 316.85568 578.87970
632.0 0.001582 316.84018 594.29620
608.0 0.001645 316.82477 607.98840
575.0 0.001739 316.80942 620.87372
620.0 0.001613 316.79410 632.24908
596.0 0.001678 316.77887 642.38684
611.0 0.001637 316.76364 652.15680
646.0 0.001548 316.74860 663.56055
681.0 0.001468 316.73349 679.11279
703.0 0.001422 316.71857 700.81586
683.0 0.001464 316.70367 729.38098
725.0 0.001379 316.68881 763.81989
756.0 0.001323 316.67395 801.60468
770.0 0.001299 316.65927 837.89075
789.0 0.001267 316.64462 867.03247
789.0 0.001267 316.63004 884.06671
812.0 0.001232 316.61551 885.84918
789.0 0.001267 316.60101 872.89374
758.0 0.001319 316.58661 849.32428
751.0 0.001332 316.57236 820.62024
811.0 0.001233 316.55801 792.09839
765.0 0.001307 316.54379 767.92224
764.0 0.001309 316.52963 750.27875
749.0 0.001335 316.51556 740.19006
733.0 0.001364 316.50153 736.15253
725.0 0.001379 316.48752 735.75031
707.0 0.001414 316.47360 735.41058
712.0 0.001404 316.45978 732.18005
699.0 0.001431 316.44598 723.28778
685.0 0.001460 316.43225 707.45416
680.0 0.001471 316.41861 685.49493
646.0 0.001548 316.40503 659.99487
593.0 0.001686 316.39145 634.13110
614.0 0.001629 316.37796 610.66016
612.0 0.001634 316.36456 591.49097
628.0 0.001592 316.35120 577.62982
608.0 0.001645 316.33792 569.59430
566.0 0.001767 316.32468 567.80988
569.0 0.001757 316.31143 571.72864
591.0 0.001692 316.29831 580.90167
609.0 0.001642 316.28528 595.11670
622.0 0.001608 316.27231 613.66980
663.0 0.001508 316.25931 635.88104
700.0 0.001429 316.24649 661.21167
719.0 0.001391 316.23364 685.84247
726.0 0.001377 316.22086 708.14832
752.0 0.001330 316.20813 726.58850
739.0 0.001353 316.19556 740.31573
750.0 0.001333 316.18292 751.15375
755.0 0.001325 316.17038 761.54462
724.0 0.001381 316.15784 774.01807
734.0 0.001362 316.14548 790.01398
737.0 0.001357 316.13309 807.77460
767.0 0.001304 316.12076 827.05737
828.0 0.001208 316.10852 846.76276
896.0 0.001116 316.09628 866.95172
883.0 0.001133 316.08420 886.47034
900.0 0.001111 316.07202 901.35614
940.0 0.001064 316.06006 907.83539
931.0 0.001074 316.04810 902.95764
844.0 0.001185 316.03616 884.93445
837.0 0.001195 316.02429 856.79877
755.0 0.001325 316.01251 823.18958
712.0 0.001404 316.00073 788.57416
689.0 0.001451 315.98911 756.39008
681.0 0.001468 315.97739 727.66595
626.0 0.001597 315.96585 703.53888
683.0 0.001464 315.95428 684.03784
664.0 0.001506 315.94278 670.08142
574.0 0.001742 315.93137 661.08423
654.0 0.001529 315.92004 656.09369
632.0 0.001582 315.90872 653.50916
617.0 0.001621 315.89746 652.69934
634.0 0.001577 315.88623 650.87726
655.0 0.001527 315.87509 649.35278
630.0 0.001587 315.86398 649.09320
627.0 0.001595 315.85294 652.48492
672.0 0.001488 315.84198 656.36322
635.0 0.001575 315.83099 661.45624
644.0 0.001553 315.82010 666.35632
617.0 0.001621 315.80927 669.83643
659.0 0.001517 315.79843 671.72455
642.0 0.001558 315.78778 672.49628
635.0 0.001575 315.77707 673.20697
686.0 0.001458 315.76645 674.13348
666.0 0.001502 315.75586 674.88214
675.0 0.001481 315.74527 673.25800
680.0 0.001471 315.73486 668.44275
628.0 0.001592 315.72440 660.49408
613.0 0.001631 315.71402 650.81268
604.0 0.001656 315.70364 642.55634
607.0 0.001647 315.69342 634.82196
614.0 0.001629 315.68317 629.54425
600.0 0.001667 315.67300 626.88013
566.0 0.001767 315.66287 626.87488
592.0 0.001689 315.65283 629.74353
611.0 0.001637 315.64276 635.44775
653.0 0.001531 315.63272 643.33087
703.0 0.001422 315.62286 652.05170
719.0 0.001391 315.61298 659.13318
734.0 0.001362 315.60312 662.34503
721.0 0.001387 315.59332 660.40814
689.0 0.001451 315.58365 653.84534
636.0 0.001572 315.57391 644.92047
626.0 0.001597 315.56430 636.09088
622.0 0.001608 315.55466 629.30469
612.0 0.001634 315.54514 625.44733
617.0 0.001621 315.53558 624.23566
639.0 0.001565 315.52612 624.33582
666.0 0.001502 315.51678 623.75299
639.0 0.001565 315.50735 620.51324
651.0 0.001536 315.49808 613.78229
651.0 0.001536 315.48880 603.66302
603.0 0.001658 315.47955 590.25275
591.0 0.001692 315.47034 575.84912
580.0 0.001724 315.46121 560.92914
536.0 0.001866 315.45212 546.63354
478.0 0.002092 315.44312 534.27484
492.0 0.002033 315.43411 524.58173
521.0 0.001919 315.42517 517.87152
567.0 0.001764 315.41623 514.35638
513.0 0.001949 315.40735 512.48114
513.0 0.001949 315.39859 511.50427
556.0 0.001799 315.38977 510.76868
514.0 0.001946 315.38101 509.65671
516.0 0.001938 315.37238 508.53372
550.0 0.001818 315.36374 508.15393
519.0 0.001927 315.35513 510.66873
521.0 0.001919 315.34656 517.30005
562.0 0.001779 315.33801 529.63770
530.0 0.001887 315.32950 549.15790
567.0 0.001764 315.32117 577.86780
629.0 0.001590 315.31277 615.53101
607.0 0.001647 315.30435 663.51117
729.0 0.001372 315.29608 722.06921
843.0 0.001186 315.28784 790.00891
870.0 0.001149 315.27960 865.57532
991.0 0.001009 315.27139 945.73846
1105.0 0.000905 315.26328 1025.80664
1216.0 0.000822 315.25516 1099.98682
1301.0 0.000769 315.24707 1162.34253
1301.0 0.000769 315.23907 1208.57031
1271.0 0.000787 315.23108 1238.21216
1275.0 0.000784 315.22314 1254.48486
1249.0 0.000801 315.21533 1263.33984
1169.0 0.000855 315.20743 1269.67444
1162.0 0.000861 315.19962 1275.98694
1244.0 0.000804 315.19180 1282.73547
1284.0 0.000779 315.18411 1289.06836
1289.0 0.000776 315.17633 1293.81946
1315.0 0.000760 315.16867 1296.83301
1338.0 0.000747 315.16101 1299.94812
1374.0 0.000728 315.15347 1303.75159
1324.0 0.000755 315.14594 1307.43079
1225.0 0.000816 315.13843 1308.51233
1199.0 0.000834 315.13095 1304.43335
1221.0 0.000819 315.12350 1292.01636
1191.0 0.000840 315.11615 1272.73938
1162.0 0.000861 315.10876 1248.86365
1178.0 0.000849 315.10141 1224.51270
1094.0 0.000914 315.09418 1204.45337
1058.0 0.000945 315.08685 1192.49365
1056.0 0.000947 315.07965 1191.71277
1075.0 0.000930 315.07245 1204.58228
1150.0 0.000870 315.06531 1233.94788
1186.0 0.000843 315.05823 1281.55103
1280.0 0.000781 315.05118 1347.38318
1381.0 0.000724 315.04410 1428.54382
1485.0 0.000673 315.03711 1518.82129
1636.0 0.000611 315.03012 1609.40515
1675.0 0.000597 315.02325 1690.89453
1765.0 0.000567 315.01636 1755.02698
1826.0 0.000548 315.00946 1795.67603
1799.0 0.000556 315.00259 1808.75732
1770.0 0.000565 314.99579 1790.43958
1743.0 0.000574 314.98904 1742.63159
1599.0 0.000625 314.98230 1672.90100
1519.0 0.000658 314.97559 1592.68262
1375.0 0.000727 314.96896 1514.33179
1316.0 0.000760 314.96234 1446.73438
1269.0 0.000788 314.95572 1395.42334
1216.0 0.000822 314.94916 1362.48767
1266.0 0.000790 314.94266 1347.59375
1295.0 0.000772 314.93613 1345.34937
1296.0 0.000772 314.92969 1350.68762
1408.0 0.000710 314.92322 1357.72571
1374.0 0.000728 314.91684 1358.86084
1361.0 0.000735 314.91046 1347.12231
1312.0 0.000762 314.90414 1316.75073
1271.0 0.000787 314.89777 1267.35718
1123.0 0.000890 314.89154 1202.60413
1055.0 0.000948 314.88525 1129.68579
1023.0 0.000978 314.87900 1054.87976
948.0 0.001055 314.87289 982.97174
930.0 0.001075 314.86670 916.86322
836.0 0.001196 314.86057 858.11444
725.0 0.001379 314.85443 807.88824
727.0 0.001376 314.84839 765.20691
701.0 0.001427 314.84229 730.20496
655.0 0.001527 314.83630 702.16876
656.0 0.001524 314.83035 679.34564
637.0 0.001570 314.82434 660.10101
621.0 0.001610 314.81845 643.19226
601.0 0.001664 314.81253 628.40082
575.0 0.001739 314.80667 615.84058
577.0 0.001733 314.80087 606.23596
581.0 0.001721 314.79498 600.01331
592.0 0.001689 314.78928 596.96234
608.0 0.001645 314.78339 597.37469
622.0 0.001608 314.77771 600.68579
649.0 0.001541 314.77194 606.17676
622.0 0.001608 314.76630 613.71033
601.0 0.001664 314.76062 623.73737
653.0 0.001531 314.75504 636.46924
676.0 0.001479 314.74945 651.99011
678.0 0.001475 314.74387 669.79651
697.0 0.001435 314.73825 688.63495
711.0 0.001406 314.73267 706.63232
726.0 0.001377 314.72723 721.97656
785.0 0.001274 314.72177 733.79169
796.0 0.001256 314.71631 742.93964
810.0 0.001235 314.71085 751.48462
794.0 0.001259 314.70551 762.20099
766.0 0.001305 314.70013 776.80865
776.0 0.001289 314.69467 795.70496
777.0 0.001287 314.68936 818.25873
774.0 0.001292 314.68411 842.29303
791.0 0.001264 314.67871 864.43701
824.0 0.001214 314.67352 880.66791
822.0 0.001217 314.66824 887.50214
806.0 0.001241 314.66299 883.44666
901.0 0.001110 314.65784 869.51563
883.0 0.001133 314.65268 848.53656
908.0 0.001101 314.64749 824.14471
818.0 0.001222 314.64240 800.09143
788.0 0.001269 314.63727 779.68134
747.0 0.001339 314.63214 765.99695
751.0 0.001332 314.62708 759.61414
733.0 0.001364 314.62207 759.92725
723.0 0.001383 314.61707 767.42908
742.0 0.001348 314.61206 778.70520
763.0 0.001311 314.60703 790.35504
767.0 0.001304 314.60202 798.82355
798.0 0.001253 314.59711 801.77222
770.0 0.001299 314.59216 798.02466
728.0 0.001374 314.58728 788.53741
756.0 0.001323 314.58243 775.11456
736.0 0.001359 314.57755 762.17957
727.0 0.001376 314.57266 751.56024
759.0 0.001318 314.56784 744.68732
745.0 0.001342 314.56305 741.95105
745.0 0.001342 314.55832 741.79742
789.0 0.001267 314.55350 741.74670
776.0 0.001289 314.54877 740.20288
789.0 0.001267 314.54395 734.39661
790.0 0.001266 314.53925 724.96442
766.0 0.001305 314.53455 712.74341
732.0 0.001366 314.52988 699.65253
706.0 0.001416 314.52521 687.85504
712.0 0.001404 314.52057 679.08295
713.0 0.001403 314.51590 676.21063
744.0 0.001344 314.51126 680.35663
754.0 0.001326 314.50671 693.55566
796.0 0.001256 314.50211 715.37854
793.0 0.001261 314.49750 746.05481
761.0 0.001314 314.49295 784.33502
840.0 0.001190 314.48840 828.18738
922.0 0.001085 314.48392 873.52271
929.0 0.001076 314.47943 918.25177
948.0 0.001055 314.47488 958.75812
977.0 0.001024 314.47040 991.89630
965.0 0.001036 314.46594 1015.85760
990.0 0.001010 314.46149 1030.22192
1045.0 0.000957 314.45706 1040.08960
1060.0 0.000943 314.45261 1047.59094
1061.0 0.000943 314.44821 1055.59375
1075.0 0.000930 314.44379 1065.68555
1067.0 0.000937 314.43942 1077.78149
1055.0 0.000948 314.43506 1088.42419
1042.0 0.000960 314.43073 1094.42029
1061.0 0.000943 314.42636 1092.76843
1059.0 0.000944 314.42200 1082.33459
1014.0 0.000986 314.41769 1065.00952
989.0 0.001011 314.41342 1042.54651
982.0 0.001018 314.40909 1016.56946
962.0 0.001040 314.40482 986.69745
938.0 0.001066 314.40057 956.16235
922.0 0.001085 314.39624 924.88538
867.0 0.001153 314.39206 894.52960
837.0 0.001195 314.38776 866.72308
815.0 0.001227 314.38351 842.35559
796.0 0.001256 314.37933 821.28162
811.0 0.001233 314.37512 802.29504
773.0 0.001294 314.37094 782.80334
711.0 0.001406 314.36670 761.31793
720.0 0.001389 314.36252 737.24493
675.0 0.001481 314.35834 711.37262
685.0 0.001460 314.35422 685.44989
652.0 0.001534 314.35007 661.05273
620.0 0.001613 314.34592 639.68939
631.0 0.001585 314.34183 620.30524
596.0 0.001678 314.33762 603.36926
560.0 0.001786 314.33356 588.61206
582.0 0.001718 314.32941 575.80316
574.0 0.001742 314.32532 564.75397
564.0 0.001773 314.32126 554.58984
557.0 0.001795 314.31717 544.76428
533.0 0.001876 314.31305 534.15985
547.0 0.001828 314.30905 522.53052
523.0 0.001912 314.30490 510.19644
516.0 0.001938 314.30090 497.88419
474.0 0.002110 314.29681 486.42545
472.0 0.002119 314.29285 477.32486
450.0 0.002222 314.28873 469.62619
452.0 0.002212 314.28470 464.67633
440.0 0.002273 314.28064 461.64832
413.0 0.002421 314.27667 460.43387
462.0 0.002165 314.27264 461.73199
491.0 0.002037 314.26862 464.93167
488.0 0.002049 314.26465 469.40665
500.0 0.002000 314.26065 474.75363
524.0 0.001908 314.25668 480.49094
497.0 0.002012 314.25266 486.11667
504.0 0.001984 314.24863 491.70151
505.0 0.001980 314.24469 497.56537
474.0 0.002110 314.24072 504.35608
519.0 0.001927 314.23679 512.15192
528.0 0.001894 314.23279 523.26404
518.0 0.001931 314.22882 536.50378
535.0 0.001869 314.22482 551.93091
521.0 0.001919 314.22095 568.40088
544.0 0.001838 314.21695 584.74890
577.0 0.001733 314.21298 598.59381
586.0 0.001706 314.20908 607.67151
599.0 0.001669 314.20511 610.26282
628.0 0.001592 314.20120 606.00568
620.0 0.001613 314.19720 595.91449
604.0 0.001656 314.19324 581.91107
608.0 0.001645 314.18930 566.13977
565.0 0.001770 314.18533 551.76764
555.0 0.001802 314.18143 537.86743
558.0 0.001792 314.17749 527.51282
531.0 0.001883 314.17352 520.62921
547.0 0.001828 314.16965 518.08856
554.0 0.001805 314.16568 519.51398
540.0 0.001852 314.16177 524.38672
589.0 0.001698 314.15784 532.04523
594.0 0.001684 314.15393 541.31543
530.0 0.001887 314.14993 551.42743
600.0 0.001667 314.14609 562.33899
607.0 0.001647 314.14212 574.61328
622.0 0.001608 314.13818 588.89069
656.0 0.001524 314.13425 607.00940
640.0 0.001563 314.13031 629.38580
624.0 0.001603 314.12637 656.51422
639.0 0.001565 314.12244 686.59833
702.0 0.001425 314.11844 718.43890
688.0 0.001453 314.11456 749.78748
737.0 0.001357 314.11063 777.20276
712.0 0.001404 314.10663 797.93579
806.0 0.001241 314.10275 810.02716
825.0 0.001212 314.09872 813.14642
810.0 0.001235 314.09482 808.29163
774.0 0.001292 314.09085 797.45569
802.0 0.001247 314.08688 782.98212
777.0 0.001287 314.08289 766.92426
764.0 0.001309 314.07889 752.11243
723.0 0.001383 314.07498 740.51227
669.0 0.001495 314.07108 733.29065
704.0 0.001420 314.06705 732.54303
692.0 0.001445 314.06305 737.23633
709.0 0.001410 314.05911 746.35358
742.0 0.001348 314.05511 757.26605
773.0 0.001294 314.05112 766.87714
801.0 0.001248 314.04709 772.06525
798.0 0.001253 314.04315 770.38654
820.0 0.001220 314.03909 760.80933
791.0 0.001264 314.03510 743.07202
755.0 0.001325 314.03104 720.75568
732.0 0.001366 314.02707 695.50165
705.0 0.001418 314.02301 669.62030
655.0 0.001527 314.01901 645.66907
664.0 0.001506 314.01492 625.44281
660.0 0.001515 314.01089 611.38373
657.0 0.001522 314.00687 604.23303
656.0 0.001524 314.00278 605.60382
686.0 0.001458 313.99869 614.92560
720.0 0.001389 313.99460 632.38025
707.0 0.001414 313.99054 657.31927
714.0 0.001401 313.98648 688.66937
767.0 0.001304 313.98236 725.22357
815.0 0.001227 313.97824 765.03790
803.0 0.001245 313.97415 807.54114
813.0 0.001230 313.97000 850.32965
853.0 0.001172 313.96594 890.90161
873.0 0.001145 313.96173 926.41846
943.0 0.001060 313.95767 953.09991
951.0 0.001052 313.95352 969.19873
989.0 0.001011 313.94940 974.89075
984.0 0.001016 313.94516 973.00476
957.0 0.001045 313.94095 967.78790
948.0 0.001055 313.93680 962.85400
963.0 0.001038 313.93262 961.39423
919.0 0.001088 313.92844 965.30780
918.0 0.001089 313.92416 975.24536
947.0 0.001056 313.91992 991.40356
915.0 0.001093 313.91574 1012.42120
992.0 0.001008 313.91150 1035.66418
983.0 0.001017 313.90723 1057.42932
906.0 0.001104 313.90295 1072.46729
966.0 0.001035 313.89868 1076.43347
981.0 0.001019 313.89441 1066.13318
992.0 0.001008 313.89014 1041.72961
936.0 0.001068 313.88583 1006.06952
922.0 0.001085 313.88156 963.64429
903.0 0.001107 313.87717 918.66412
885.0 0.001130 313.87286 874.87146
827.0 0.001209 313.86847 834.73938
765.0 0.001307 313.86414 800.04694
735.0 0.001361 313.85971 771.71655
719.0 0.001391 313.85535 750.22827
704.0 0.001420 313.85095 735.29431
737.0 0.001357 313.84659 726.64722
707.0 0.001414 313.84213 722.30139
662.0 0.001511 313.83774 721.15479
643.0 0.001555 313.83325 722.46759
689.0 0.001451 313.82877 726.40363
697.0 0.001435 313.82437 734.16376
741.0 0.001350 313.81982 747.44269
750.0 0.001333 313.81534 768.16357
785.0 0.001274 313.81079 796.48212
796.0 0.001256 313.80634 832.37750
817.0 0.001224 313.80176 875.56592
879.0 0.001138 313.79721 923.48895
939.0 0.001065 313.79260 972.51379
1037.0 0.000964 313.78802 1017.74890
1095.0 0.000913 313.78345 1053.34717
1078.0 0.000928 313.77881 1074.36316
1009.0 0.000991 313.77423 1078.45911
1024.0 0.000977 313.76953 1066.65710
972.0 0.001029 313.76489 1042.58679
963.0 0.001038 313.76028 1012.24231
946.0 0.001057 313.75555 979.55731
939.0 0.001065 313.75082 948.52240
918.0 0.001089 313.74612 921.39917
846.0 0.001182 313.74139 899.48932
828.0 0.001208 313.73666 883.59772
883.0 0.001133 313.73184 874.13690
896.0 0.001116 313.72708 870.30286
897.0 0.001115 313.72232 870.59149
906.0 0.001104 313.71753 872.25751
928.0 0.001078 313.71268 871.90167
885.0 0.001130 313.70776 866.33087
899.0 0.001112 313.70297 853.50916
876.0 0.001142 313.69812 833.24304
800.0 0.001250 313.69321 806.00586
759.0 0.001318 313.68820 774.44763
740.0 0.001351 313.68332 739.80322
699.0 0.001431 313.67841 704.37524
677.0 0.001477 313.67343 670.08563
649.0 0.001541 313.66846 637.72620
600.0 0.001667 313.66342 608.15326
556.0 0.001799 313.65842 582.53223
525.0 0.001905 313.65335 561.00177
542.0 0.001845 313.64838 543.91400
577.0 0.001733 313.64325 530.93896
529.0 0.001890 313.63818 521.65155
500.0 0.002000 313.63306 515.35126
552.0 0.001812 313.62793 511.28113
509.0 0.001965 313.62283 508.74564
544.0 0.001838 313.61758 507.25330
482.0 0.002075 313.61252 506.75613
540.0 0.001852 313.60724 507.54007
491.0 0.002037 313.60199 509.88123
567.0 0.001764 313.59674 514.89301
507.0 0.001972 313.59155 521.67487
508.0 0.001969 313.58621 530.33600
526.0 0.001901 313.58093 540.76355
521.0 0.001919 313.57562 552.53369
541.0 0.001848 313.57025 565.09045
595.0 0.001681 313.56491 577.72382
565.0 0.001770 313.55960 589.34509
582.0 0.001718 313.55414 598.83856
621.0 0.001610 313.54874 605.34271
603.0 0.001658 313.54327 608.84302
602.0 0.001661 313.53778 610.00507
602.0 0.001661 313.53232 610.09869
636.0 0.001572 313.52686 610.43622
618.0 0.001618 313.52130 611.36322
606.0 0.001650 313.51578 613.33282
644.0 0.001553 313.51022 615.58765
635.0 0.001575 313.50464 617.46472
605.0 0.001653 313.49899 618.26428
631.0 0.001585 313.49335 617.37531
640.0 0.001563 313.48776 613.99127
628.0 0.001592 313.48203 610.32831
602.0 0.001661 313.47635 606.13037
588.0 0.001701 313.47061 601.90210
593.0 0.001686 313.46484 598.06555
605.0 0.001653 313.45920 594.88318
585.0 0.001709 313.45331 593.03302
584.0 0.001712 313.44751 592.74713
581.0 0.001721 313.44165 593.92468
571.0 0.001751 313.43585 596.46576
590.0 0.001695 313.42999 599.14526
588.0 0.001701 313.42404 601.00836
582.0 0.001718 313.41809 601.17474
589.0 0.001698 313.41217 598.53882
603.0 0.001658 313.40622 594.78436
610.0 0.001639 313.40021 589.40436
603.0 0.001658 313.39420 584.86017
602.0 0.001661 313.38821 582.17157
582.0 0.001718 313.38217 582.58844
594.0 0.001684 313.37613 586.98584
593.0 0.001686 313.36996 595.88928
638.0 0.001567 313.36383 609.48096
655.0 0.001527 313.35770 627.41663
680.0 0.001471 313.35147 648.22473
700.0 0.001429 313.34531 670.51556
684.0 0.001462 313.33905 692.02393
684.0 0.001462 313.33282 710.88989
730.0 0.001370 313.32651 725.65948
743.0 0.001346 313.32025 735.87238
778.0 0.001285 313.31390 743.02051
732.0 0.001366 313.30762 747.79724
736.0 0.001359 313.30121 751.64600
748.0 0.001337 313.29480 754.42395
737.0 0.001357 313.28839 756.69489
732.0 0.001366 313.28195 758.88434
796.0 0.001256 313.27545 762.02655
790.0 0.001266 313.26895 767.91760
805.0 0.001242 313.26248 776.89935
778.0 0.001285 313.25598 790.10968
843.0 0.001186 313.24933 806.79919
852.0 0.001174 313.24274 825.56110
851.0 0.001175 313.23615 843.08862
851.0 0.001175 313.22949 858.62256
900.0 0.001111 313.22275 868.78033
886.0 0.001129 313.21609 871.57404
857.0 0.001167 313.20935 866.25940
840.0 0.001190 313.20261 853.14764
829.0 0.001206 313.19580 833.47192
806.0 0.001241 313.18900 809.04510
800.0 0.001250 313.18216 781.27026
725.0 0.001379 313.17538 752.31348
728.0 0.001374 313.16843 723.70752
689.0 0.001451 313.16147 697.33496
677.0 0.001477 313.15460 673.92657
635.0 0.001575 313.14761 654.54016
651.0 0.001536 313.14063 638.62677
650.0 0.001538 313.13358 627.44861
649.0 0.001541 313.12665 617.89380
645.0 0.001550 313.11951 609.13171
603.0 0.001658 313.11240 600.22919
619.0 0.001616 313.10526 589.79199
617.0 0.001621 313.09811 577.77911
590.0 0.001695 313.09097 564.22327
580.0 0.001724 313.08374 550.12537
569.0 0.001757 313.07654 536.51282
560.0 0.001786 313.06924 524.23633
544.0 0.001838 313.06195 513.48853
521.0 0.001919 313.05469 505.07178
500.0 0.002000 313.04724 499.38556
493.0 0.002028 313.03992 496.79471
474.0 0.002110 313.03250 497.70816
462.0 0.002165 313.02512 501.83112
473.0 0.002114 313.01764 508.49692
471.0 0.002123 313.01016 517.35370
495.0 0.002020 313.00269 527.75024
519.0 0.001927 312.99509 538.51410
492.0 0.002033 312.98755 548.29803
494.0 0.002024 312.97992 556.02258
510.0 0.001961 312.97232 560.75085
526.0 0.001901 312.96460 562.46954
524.0 0.001908 312.95700 561.88385
526.0 0.001901 312.94928 560.58569
536.0 0.001866 312.94159 559.72400
531.0 0.001883 312.93381 560.55078
551.0 0.001815 312.92596 563.83301
548.0 0.001825 312.91818 569.93353
574.0 0.001742 312.91034 577.99902
613.0 0.001631 312.90240 588.07483
628.0 0.001592 312.89447 598.69324
613.0 0.001631 312.88657 608.29370
657.0 0.001522 312.87863 615.26086
622.0 0.001608 312.87064 618.24573
582.0 0.001718 312.86258 616.26471
607.0 0.001647 312.85455 609.49890
588.0 0.001701 312.84644 598.80084
542.0 0.001845 312.83835 585.63556
529.0 0.001890 312.83020 571.51416
538.0 0.001859 312.82211 558.62555
557.0 0.001795 312.81384 548.03796
512.0 0.001953 312.80560 540.72522
529.0 0.001890 312.79733 537.24640
517.0 0.001934 312.78918 537.60010
534.0 0.001873 312.78079 541.96924
567.0 0.001764 312.77243 549.74841
592.0 0.001689 312.76407 560.21558
612.0 0.001634 312.75565 572.51025
590.0 0.001695 312.74725 585.73553
653.0 0.001531 312.73874 598.96045
664.0 0.001506 312.73026 611.47253
678.0 0.001475 312.72174 622.69409
666.0 0.001502 312.71323 631.78448
670.0 0.001493 312.70462 638.68115
610.0 0.001639 312.69601 643.51056
668.0 0.001497 312.68741 646.80389
691.0 0.001447 312.67868 649.67236
689.0 0.001451 312.67004 653.28711
675.0 0.001481 312.66125 658.64581
661.0 0.001513 312.65247 666.13727
650.0 0.001538 312.64374 675.58478
688.0 0.001453 312.63489 686.47430
696.0 0.001437 312.62607 698.18640
714.0 0.001401 312.61719 710.32971
731.0 0.001368 312.60828 722.80493
717.0 0.001395 312.59930 735.77594
721.0 0.001387 312.59033 748.99725
747.0 0.001339 312.58139 763.08722
773.0 0.001294 312.57236 777.31110
793.0 0.001261 312.56326 790.68610
789.0 0.001267 312.55417 802.28571
792.0 0.001263 312.54507 811.33002
830.0 0.001205 312.53592 818.10022
868.0 0.001152 312.52673 820.80896
851.0 0.001175 312.51761 820.76807
825.0 0.001212 312.50833 817.24683
837.0 0.001195 312.49902 809.83344
811.0 0.001233 312.48972 798.58252
783.0 0.001277 312.48038 784.34900
743.0 0.001346 312.47104 768.64160
767.0 0.001304 312.46167 753.54089
775.0 0.001290 312.45221 741.15173
762.0 0.001312 312.44281 732.38000
685.0 0.001460 312.43326 729.04285
679.0 0.001473 312.42377 731.43317
713.0 0.001403 312.41425 738.65417
718.0 0.001393 312.40466 750.98535
759.0 0.001318 312.39505 767.09979
754.0 0.001326 312.38541 786.14862
743.0 0.001346 312.37576 806.88666
792.0 0.001263 312.36606 828.63348
812.0 0.001232 312.35635 850.77014
869.0 0.001151 312.34659 871.80341
888.0 0.001126 312.33682 890.51459
912.0 0.001096 312.32700 905.38031
928.0 0.001078 312.31711 915.04742
906.0 0.001104 312.30731 918.78943
975.0 0.001026 312.29736 916.77692
910.0 0.001099 312.28745 910.27203
908.0 0.001101 312.27747 900.63507
892.0 0.001121 312.26743 889.49841
876.0 0.001142 312.25742 878.49884
879.0 0.001138 312.24738 868.43799
852.0 0.001174 312.23727 859.74170
849.0 0.001178 312.22717 852.52795
810.0 0.001235 312.21698 846.34985
857.0 0.001167 312.20682 841.02612
911.0 0.001098 312.19666 836.06091
883.0 0.001133 312.18637 830.68604
862.0 0.001160 312.17615 823.71375
891.0 0.001122 312.16577 814.04730
800.0 0.001250 312.15546 800.80377
799.0 0.001252 312.14511 783.72919
766.0 0.001305 312.13474 763.19336
710.0 0.001408 312.12424 740.21942
704.0 0.001420 312.11386 715.97217
707.0 0.001414 312.10330 691.49677
639.0 0.001565 312.09283 667.42871
614.0 0.001629 312.08228 645.07703
609.0 0.001642 312.07175 624.46277
603.0 0.001658 312.06110 605.76080
602.0 0.001661 312.05048 588.44012
588.0 0.001701 312.03992 572.41370
595.0 0.001681 312.02917 557.34583
565.0 0.001770 312.01840 543.00543
536.0 0.001866 312.00769 529.12390
522.0 0.001916 311.99686 515.51202
503.0 0.001988 311.98605 501.82178
487.0 0.002053 311.97519 488.48544
488.0 0.002049 311.96439 475.18234
456.0 0.002193 311.95340 462.00610
462.0 0.002165 311.94247 449.80692
448.0 0.002232 311.93155 438.78830
450.0 0.002222 311.92047 428.56076
412.0 0.002427 311.90952 419.93079
408.0 0.002451 311.89850 412.80798
437.0 0.002288 311.88739 407.23764
424.0 0.002358 311.87628 403.26450
423.0 0.002364 311.86511 400.59555
427.0 0.002342 311.85397 399.20306
409.0 0.002445 311.84274 398.92273
402.0 0.002488 311.83154 399.53540
413.0 0.002421 311.82028 400.81995
418.0 0.002392 311.80899 402.48969
463.0 0.002160 311.79764 404.14059
475.0 0.002105 311.78635 405.52246
433.0 0.002309 311.77490 405.99066
416.0 0.002404 311.76352 405.82758
405.0 0.002469 311.75201 404.86362
389.0 0.002571 311.74054 402.99646
410.0 0.002439 311.72913 400.41873
421.0 0.002375 311.71756 397.51797
436.0 0.002294 311.70599 394.93942
427.0 0.002342 311.69446 392.74283
401.0 0.002494 311.68283 391.15558
420.0 0.002381 311.67117 390.32718
405.0 0.002469 311.65948 390.60843
409.0 0.002445 311.64783 391.48618
413.0 0.002421 311.63608 393.25211
397.0 0.002519 311.62436 395.46985
402.0 0.002488 311.61255 398.61761
410.0 0.002439 311.60074 402.24191
411.0 0.002433 311.58893 405.99701
409.0 0.002445 311.57706 409.87711
401.0 0.002494 311.56512 413.66971
412.0 0.002427 311.55316 417.03098
461.0 0.002169 311.54126 419.87421
449.0 0.002227 311.52921 422.27832
447.0 0.002237 311.51724 424.27472
444.0 0.002252 311.50519 426.74951
469.0 0.002132 311.49313 429.80322
452.0 0.002212 311.48096 433.91699
465.0 0.002151 311.46890 439.49286
463.0 0.002160 311.45673 447.15039
469.0 0.002132 311.44458 456.59848
472.0 0.002119 311.43240 469.21106
504.0 0.001984 311.42010 485.22849
552.0 0.001812 311.40778 504.90222
583.0 0.001715 311.39560 528.84900
593.0 0.001686 311.38327 557.01599
563.0 0.001776 311.37085 589.55396
619.0 0.001616 311.35852 626.12274
669.0 0.001495 311.34613 665.93420
673.0 0.001486 311.33368 708.23486
727.0 0.001376 311.32123 750.72797
769.0 0.001300 311.30869 791.96698
820.0 0.001220 311.29620 829.48413
853.0 0.001172 311.28369 861.04132
850.0 0.001176 311.27109 885.79559
865.0 0.001156 311.25848 903.84137
899.0 0.001112 311.24591 917.37054
913.0 0.001095 311.23322 928.33612
916.0 0.001092 311.22055 938.65643
934.0 0.001071 311.20789 948.81915
954.0 0.001048 311.19510 960.61896
982.0 0.001018 311.18240 972.17358
1014.0 0.000986 311.16959 982.33203
1024.0 0.000977 311.15677 990.14050
984.0 0.001016 311.14398 994.41663
962.0 0.001040 311.13110 995.10181
981.0 0.001019 311.11826 992.45044
959.0 0.001043 311.10529 986.09113
880.0 0.001136 311.09238 976.21552
914.0 0.001094 311.07935 963.18738
929.0 0.001076 311.06641 946.50836
866.0 0.001155 311.05341 926.72656
899.0 0.001112 311.04037 904.95197
848.0 0.001179 311.02734 882.31244
846.0 0.001182 311.01416 860.60852
826.0 0.001211 311.00101 840.21692
830.0 0.001205 310.98792 822.03949
845.0 0.001183 310.97476 805.77838
781.0 0.001280 310.96161 790.04388
785.0 0.001274 310.94836 774.11499
732.0 0.001366 310.93515 757.38910
788.0 0.001269 310.92184 739.37177
726.0 0.001377 310.90854 720.58234
716.0 0.001397 310.89526 701.56085
676.0 0.001479 310.88190 683.00824
626.0 0.001597 310.86853 665.51202
604.0 0.001656 310.85519 649.30652
606.0 0.001650 310.84174 634.53296
596.0 0.001678 310.82834 621.00226
581.0 0.001721 310.81488 608.64441
614.0 0.001629 310.80139 597.52734
598.0 0.001672 310.78787 587.87018
588.0 0.001701 310.77429 580.12805
566.0 0.001767 310.76077 574.80359
599.0 0.001669 310.74719 572.49237
577.0 0.001733 310.73361 573.37781
556.0 0.001799 310.71997 577.20184
560.0 0.001786 310.70636 584.24890
579.0 0.001727 310.69266 594.23608
579.0 0.001727 310.67896 606.92639
625.0 0.001600 310.66522 621.78101
647.0 0.001546 310.65152 638.19592
678.0 0.001475 310.63770 655.50354
662.0 0.001511 310.62393 673.18890
647.0 0.001546 310.61020 691.03339
667.0 0.001499 310.59637 708.10278
647.0 0.001546 310.58246 723.95111
653.0 0.001531 310.56863 737.61145
694.0 0.001441 310.55475 748.03632
715.0 0.001399 310.54083 754.32727
731.0 0.001368 310.52686 755.82489
756.0 0.001323 310.51288 752.37567
784.0 0.001276 310.49887 744.51379
762.0 0.001312 310.48486 732.52673
740.0 0.001351 310.47089 717.48303
746.0 0.001340 310.45679 700.57202
680.0 0.001471 310.44275 683.04944
657.0 0.001522 310.42868 666.09772
618.0 0.001618 310.41458 650.63208
647.0 0.001546 310.40045 637.10596
618.0 0.001618 310.38632 626.33514
643.0 0.001555 310.37219 618.71228
604.0 0.001656 310.35797 613.45105
614.0 0.001629 310.34375 610.42316
664.0 0.001506 310.32950 609.00922
617.0 0.001621 310.31525 608.46564
622.0 0.001608 310.30103 608.10950
639.0 0.001565 310.28671 607.49377
643.0 0.001555 310.27237 606.42340
677.0 0.001477 310.25806 604.87195
657.0 0.001522 310.24371 603.15271
712.0 0.001404 310.22937 601.51813
700.0 0.001429 310.21500 600.26361
637.0 0.001570 310.20062 599.58105
626.0 0.001597 310.18613 599.38397
594.0 0.001684 310.17178 599.25055
627.0 0.001595 310.15726 598.47748
660.0 0.001515 310.14282 596.28290
653.0 0.001531 310.12836 592.26685
652.0 0.001534 310.11383 586.04309
657.0 0.001522 310.09927 578.07629
658.0 0.001520 310.08475 569.04889
641.0 0.001560 310.07013 559.73401
647.0 0.001546 310.05560 550.85156
621.0 0.001610 310.04105 542.84204
593.0 0.001686 310.02643 536.08112
596.0 0.001678 310.01175 530.88959
613.0 0.001631 309.99716 527.50806
568.0 0.001761 309.98242 526.13275
580.0 0.001724 309.96774 526.99347
578.0 0.001730 309.95309 530.09583
597.0 0.001675 309.93839 535.27631
604.0 0.001656 309.92365 542.20441
619.0 0.001616 309.90891 550.46429
620.0 0.001613 309.89410 559.73047
565.0 0.001770 309.87939 570.04303
600.0 0.001667 309.86456 580.88629
637.0 0.001570 309.84976 592.68945
646.0 0.001548 309.83496 605.53473
643.0 0.001555 309.82010 619.48737
609.0 0.001642 309.80527 634.34747
662.0 0.001511 309.79037 649.82495
711.0 0.001406 309.77548 665.40155
700.0 0.001429 309.76062 680.45752
726.0 0.001377 309.74570 694.19244
772.0 0.001295 309.73077 705.91797
754.0 0.001326 309.71582 715.12421
727.0 0.001376 309.70093 721.59430
731.0 0.001368 309.68591 724.88330
756.0 0.001323 309.67096 727.02277
769.0 0.001300 309.65598 728.23993
763.0 0.001311 309.64096 729.48279
819.0 0.001221 309.62592 731.59448
827.0 0.001209 309.61090 734.38843
831.0 0.001203 309.59586 737.71472
854.0 0.001171 309.58087 740.81891
869.0 0.001151 309.56577 743.06329
811.0 0.001233 309.55066 744.19366
804.0 0.001244 309.53564 743.12787
797.0 0.001255 309.52054 740.98608
749.0 0.001335 309.50540 737.23395
786.0 0.001272 309.49026 732.20563
738.0 0.001355 309.47519 725.79431
743.0 0.001346 309.45999 718.26483
730.0 0.001370 309.44482 710.04688
684.0 0.001462 309.42972 701.56104
672.0 0.001488 309.41449 694.25562
640.0 0.001563 309.39923 688.35876
709.0 0.001410 309.38409 684.13666
671.0 0.001490 309.36893 681.76520
665.0 0.001504 309.35364 680.72046
684.0 0.001462 309.33847 680.07092
678.0 0.001475 309.32324 678.89819
680.0 0.001471 309.30801 676.36279
649.0 0.001541 309.29276 671.83868
670.0 0.001493 309.27750 665.57507
695.0 0.001439 309.26221 657.97571
741.0 0.001350 309.24692 649.55573
672.0 0.001488 309.23163 641.30023
689.0 0.001451 309.21640 633.96204
596.0 0.001678 309.20102 628.31610
661.0 0.001513 309.18576 625.02557
646.0 0.001548 309.17047 624.83368
618.0 0.001618 309.15515 627.43146
625.0 0.001600 309.13977 632.98175
656.0 0.001524 309.12448 641.19366
648.0 0.001543 309.10910 651.42896
683.0 0.001464 309.09378 662.51923
664.0 0.001506 309.07840 673.03156
664.0 0.001506 309.06305 681.46533
647.0 0.001546 309.04767 686.53235
650.0 0.001538 309.03226 687.55957
661.0 0.001513 309.01688 684.80621
650.0 0.001538 309.00153 679.03619
648.0 0.001543 308.98608 671.34717
676.0 0.001479 308.97073 662.79913
690.0 0.001449 308.95532 654.19196
683.0 0.001464 308.93997 645.65302
655.0 0.001527 308.92450 637.76001
659.0 0.001517 308.90912 630.09180
653.0 0.001531 308.89362 622.92267
622.0 0.001608 308.87823 616.20184
599.0 0.001669 308.86282 610.61389
620.0 0.001613 308.84744 606.65710
632.0 0.001582 308.83194 604.33911
644.0 0.001553 308.81650 603.54633
601.0 0.001664 308.80109 604.46674
572.0 0.001748 308.78561 606.49805
604.0 0.001656 308.77020 609.24310
616.0 0.001623 308.75476 612.98865
646.0 0.001548 308.73929 617.45502
611.0 0.001637 308.72382 622.53839
638.0 0.001567 308.70847 627.87115
651.0 0.001536 308.69293 632.65192
645.0 0.001550 308.67749 636.05542
631.0 0.001585 308.66205 636.72083
658.0 0.001520 308.64658 633.63953
670.0 0.001493 308.63110 626.18640
655.0 0.001527 308.61572 614.51129
661.0 0.001513 308.60025 599.32050
619.0 0.001616 308.58481 582.06787
613.0 0.001631 308.56927 563.54498
582.0 0.001718 308.55389 545.30255
560.0 0.001786 308.53845 528.10944
554.0 0.001805 308.52298 512.66388
516.0 0.001938 308.50751 499.35211
468.0 0.002137 308.49210 488.62048
451.0 0.002217 308.47656 480.61432
506.0 0.001976 308.46115 474.94275
409.0 0.002445 308.44577 471.15201
480.0 0.002083 308.43027 468.99075
452.0 0.002212 308.41483 467.61404
430.0 0.002326 308.39938 466.43900
459.0 0.002179 308.38394 464.64444
450.0 0.002222 308.36856 462.37958
505.0 0.001980 308.35315 459.40384
497.0 0.002012 308.33765 455.86966
434.0 0.002304 308.32230 451.94632
475.0 0.002105 308.30688 448.41714
472.0 0.002119 308.29144 445.44095
423.0 0.002364 308.27603 443.57907
448.0 0.002232 308.26062 443.06033
445.0 0.002247 308.24521 444.23535
446.0 0.002242 308.22983 447.09085
432.0 0.002315 308.21445 451.56171
440.0 0.002273 308.19913 457.50113
452.0 0.002212 308.18372 464.40030
462.0 0.002165 308.16827 471.61526
467.0 0.002141 308.15298 478.49890
485.0 0.002062 308.13763 484.06085
469.0 0.002132 308.12225 487.83688
461.0 0.002169 308.10696 489.25827
488.0 0.002049 308.09161 488.28867
509.0 0.001965 308.07632 485.45999
490.0 0.002041 308.06094 481.43085
473.0 0.002114 308.04568 476.86505
458.0 0.002183 308.03036 472.79208
470.0 0.002128 308.01508 469.78726
455.0 0.002198 307.99979 468.04266
455.0 0.002198 307.98447 468.04327
453.0 0.002208 307.96924 469.87024
443.0 0.002257 307.95395 473.92282
435.0 0.002299 307.93875 480.04248
454.0 0.002203 307.92349 487.78137
464.0 0.002155 307.90826 497.30032
455.0 0.002198 307.89304 507.73755
478.0 0.002092 307.87781 518.32239
496.0 0.002016 307.86261 528.15717
535.0 0.001869 307.84744 536.39313
561.0 0.001783 307.83228 542.36810
535.0 0.001869 307.81711 545.65570
553.0 0.001808 307.80200 545.53375
527.0 0.001898 307.78687 542.67120
544.0 0.001838 307.77170 536.96985
516.0 0.001938 307.75659 528.68634
489.0 0.002045 307.74152 518.70563
497.0 0.002012 307.72635 507.48441
479.0 0.002088 307.71127 496.15176
468.0 0.002137 307.69629 485.61047
467.0 0.002141 307.68121 476.24976
445.0 0.002247 307.66620 468.48062
397.0 0.002519 307.65109 462.85269
452.0 0.002212 307.63608 459.43262
423.0 0.002364 307.62115 458.22580
416.0 0.002404 307.60623 459.13284
445.0 0.002247 307.59119 461.96317
462.0 0.002165 307.57629 466.46487
480.0 0.002083 307.56131 472.31714
433.0 0.002309 307.54648 478.88510
519.0 0.001927 307.53149 486.34985
475.0 0.002105 307.51663 494.05685
463.0 0.002160 307.50183 501.66922
482.0 0.002075 307.48694 509.11755
548.0 0.001825 307.47211 516.31714
499.0 0.002004 307.45731 522.78998
559.0 0.001789 307.44254 528.34216
525.0 0.001905 307.42773 532.66010
515.0 0.001942 307.41299 534.97833
549.0 0.001821 307.39825 535.12036
568.0 0.001761 307.38354 532.98016
505.0 0.001980 307.36884 528.86188
517.0 0.001934 307.35413 523.41028
514.0 0.001946 307.33951 517.50146
533.0 0.001876 307.32486 512.05762
506.0 0.001976 307.31024 507.89740
483.0 0.002070 307.29562 505.23975
522.0 0.001916 307.28101 505.76212
498.0 0.002008 307.26648 508.59766
490.0 0.002041 307.25192 513.96600
524.0 0.001908 307.23743 521.74677
522.0 0.001916 307.22293 531.35382
535.0 0.001869 307.20847 542.24054
568.0 0.001761 307.19397 553.30450
573.0 0.001745 307.17960 563.68091
550.0 0.001818 307.16516 572.21899
536.0 0.001866 307.15079 578.40717
557.0 0.001795 307.13641 581.23358
585.0 0.001709 307.12207 580.34259
579.0 0.001727 307.10776 575.75262
560.0 0.001786 307.09348 567.94220
536.0 0.001866 307.07922 557.71204
536.0 0.001866 307.06494 546.33539
523.0 0.001912 307.05078 534.46503
493.0 0.002028 307.03656 523.69507
531.0 0.001883 307.02243 514.81586
503.0 0.001988 307.00824 508.17780
488.0 0.002049 306.99417 504.48486
516.0 0.001938 306.98004 503.88699
522.0 0.001916 306.96600 506.58301
533.0 0.001876 306.95193 512.58850
526.0 0.001901 306.93793 521.86163
565.0 0.001770 306.92392 533.80713
547.0 0.001828 306.90997 549.23230
552.0 0.001812 306.89612 567.13104
569.0 0.001757 306.88223 587.59668
548.0 0.001825 306.86832 610.30206
593.0 0.001686 306.85449 635.03406
661.0 0.001513 306.84061 661.47766
750.0 0.001333 306.82690 689.24725
738.0 0.001355 306.81314 717.82391
730.0 0.001370 306.79941 746.05206
797.0 0.001255 306.78571 772.83960
776.0 0.001289 306.77209 796.74097
838.0 0.001193 306.75848 816.61035
849.0 0.001178 306.74478 831.44495
798.0 0.001253 306.73126 841.07361
806.0 0.001241 306.71762 845.77295
781.0 0.001280 306.70416 846.25037
803.0 0.001245 306.69077 843.36243
810.0 0.001235 306.67725 837.66089
827.0 0.001209 306.66385 829.71210
754.0 0.001326 306.65051 819.66443
772.0 0.001295 306.63708 807.86896
759.0 0.001318 306.62378 794.74005
745.0 0.001342 306.61057 780.84705
764.0 0.001309 306.59735 767.00482
743.0 0.001346 306.58405 753.94000
762.0 0.001312 306.57086 742.51447
744.0 0.001344 306.55777 732.53754
759.0 0.001318 306.54468 724.17914
739.0 0.001353 306.53159 717.17157
721.0 0.001387 306.51852 711.10028
705.0 0.001418 306.50552 705.68274
710.0 0.001408 306.49265 700.64215
675.0 0.001481 306.47968 695.97162
667.0 0.001499 306.46671 691.68896
676.0 0.001479 306.45389 687.65216
682.0 0.001466 306.44107 683.85425
668.0 0.001497 306.42828 679.59143
647.0 0.001546 306.41556 674.51001
611.0 0.001637 306.40280 667.65289
618.0 0.001618 306.39020 658.62268
640.0 0.001563 306.37750 647.28186
623.0 0.001605 306.36499 633.41779
609.0 0.001642 306.35239 617.51636
590.0 0.001695 306.33994 600.40881
571.0 0.001751 306.32745 582.99841
569.0 0.001757 306.31500 565.94330
572.0 0.001748 306.30261 550.15253
549.0 0.001821 306.29028 536.20026
535.0 0.001869 306.27795 524.55316
526.0 0.001901 306.26563 515.39117
511.0 0.001957 306.25345 508.73059
509.0 0.001965 306.24130 504.17325
517.0 0.001934 306.22913 501.71857
472.0 0.002119 306.21701 500.77020
474.0 0.002110 306.20493 500.50064
497.0 0.002012 306.19296 500.32291
470.0 0.002128 306.18103 499.87830
460.0 0.002174 306.16904 498.52393
493.0 0.002028 306.15717 496.14917
494.0 0.002024 306.14532 492.59033
495.0 0.002020 306.13351 488.19064
502.0 0.001992 306.12177 483.33371
457.0 0.002188 306.11008 478.55005
462.0 0.002165 306.09839 474.46518
435.0 0.002299 306.08679 471.43997
449.0 0.002227 306.07520 470.00677
445.0 0.002247 306.06375 470.51105
465.0 0.002151 306.05225 473.15063
484.0 0.002066 306.04080 477.97592
451.0 0.002217 306.02942 484.98636
477.0 0.002096 306.01804 493.96857
504.0 0.001984 306.00674 504.42816
500.0 0.002000 305.99548 515.95959
547.0 0.001828 305.98428 527.79810
537.0 0.001862 305.97321 539.58594
534.0 0.001873 305.96207 550.33173
583.0 0.001715 305.95102 559.47144
594.0 0.001684 305.94000 566.66492
599.0 0.001669 305.92905 571.60858
613.0 0.001631 305.91818 574.60022
592.0 0.001689 305.90732 576.11700
571.0 0.001751 305.89655 576.61530
567.0 0.001764 305.88580 577.22839
553.0 0.001808 305.87506 578.34503
581.0 0.001721 305.86441 580.30981
571.0 0.001751 305.85388 583.48108
561.0 0.001783 305.84329 587.42975
601.0 0.001664 305.83276 591.86047
599.0 0.001669 305.82230 596.20032
646.0 0.001548 305.81192 599.93622
664.0 0.001506 305.80161 602.62524
670.0 0.001493 305.79135 604.19336
673.0 0.001486 305.78113 604.77264
654.0 0.001529 305.77094 605.01501
610.0 0.001639 305.76080 604.43591
618.0 0.001618 305.75073 603.59967
594.0 0.001684 305.74075 602.83008
622.0 0.001608 305.73080 602.73926
646.0 0.001548 305.72089 602.50885
606.0 0.001650 305.71109 602.73651
580.0 0.001724 305.70129 603.82477
604.0 0.001656 305.69156 605.39868
615.0 0.001626 305.68188 607.83923
602.0 0.001661 305.67230 610.57922
612.0 0.001634 305.66266 613.25848
647.0 0.001546 305.65314 615.33759
662.0 0.001511 305.64374 616.51324
663.0 0.001508 305.63434 616.57513
628.0 0.001592 305.62503 615.47260
634.0 0.001577 305.61575 613.29700
638.0 0.001567 305.60657 610.23993
652.0 0.001534 305.59738 606.51947
648.0 0.001543 305.58832 602.72870
642.0 0.001558 305.57925 598.12909
614.0 0.001629 305.57031 593.22467
619.0 0.001616 305.56137 587.94171
602.0 0.001661 305.55252 582.85474
579.0 0.001727 305.54373 577.66870
538.0 0.001859 305.53500 573.03235
557.0 0.001795 305.52634 569.13855
562.0 0.001779 305.51764 566.58728
555.0 0.001802 305.50912 565.43768
552.0 0.001812 305.50067 565.71155
536.0 0.001866 305.49228 567.31409
532.0 0.001880 305.48392 570.13593
560.0 0.001786 305.47559 573.99847
548.0 0.001825 305.46744 578.05853
589.0 0.001698 305.45923 582.96173
562.0 0.001779 305.45111 588.12531
546.0 0.001832 305.44305 593.04022
533.0 0.001876 305.43512 597.92352
621.0 0.001610 305.42715 602.46112
577.0 0.001733 305.41934 605.76361
588.0 0.001701 305.41153 608.16724
547.0 0.001828 305.40384 609.95795
637.0 0.001570 305.39618 611.33691
580.0 0.001724 305.38867 612.99139
620.0 0.001613 305.38110 614.93420
592.0 0.001689 305.37369 617.64233
597.0 0.001675 305.36630 620.96478
640.0 0.001563 305.35898 624.79022
671.0 0.001490 305.35178 629.15027
672.0 0.001488 305.34457 633.73804
659.0 0.001517 305.33746 638.67102
620.0 0.001613 305.33044 644.16400
647.0 0.001546 305.32349 650.26849
669.0 0.001495 305.31659 656.69293
665.0 0.001504 305.30975 663.21625
638.0 0.001567 305.30292 669.12952
672.0 0.001488 305.29626 673.81238
644.0 0.001553 305.28961 676.49103
681.0 0.001468 305.28311 676.77466
666.0 0.001502 305.27664 674.18079
640.0 0.001563 305.27020 668.77222
645.0 0.001550 305.26389 661.35498
623.0 0.001605 305.25766 651.41046
594.0 0.001684 305.25140 640.40424
582.0 0.001718 305.24533 628.61725
576.0 0.001736 305.23929 616.67932
578.0 0.001730 305.23334 605.05841
565.0 0.001770 305.22742 594.50854
583.0 0.001715 305.22162 585.29645
565.0 0.001770 305.21591 577.80652
547.0 0.001828 305.21024 572.31665
549.0 0.001821 305.20456 568.94836
543.0 0.001842 305.19907 567.36322
520.0 0.001923 305.19363 567.25684
516.0 0.001938 305.18823 568.05963
586.0 0.001706 305.18298 569.10126
597.0 0.001675 305.17773 569.58539
581.0 0.001721 305.17258 569.04889
563.0 0.001776 305.16748 566.97272
566.0 0.001767 305.16248 563.08435
576.0 0.001736 305.15756 557.69519
570.0 0.001754 305.15274 550.91553
514.0 0.001946 305.14798 543.21179
494.0 0.002024 305.14337 534.99591
535.0 0.001869 305.13873 526.75275
526.0 0.001901 305.13425 518.83185
501.0 0.001996 305.12982 511.53616
463.0 0.002160 305.12543 505.15887
483.0 0.002070 305.12109 499.92896
500.0 0.002000 305.11691 495.97632
515.0 0.001942 305.11279 493.42960
478.0 0.002092 305.10867 492.16458
512.0 0.001953 305.10474 492.11798
527.0 0.001898 305.10092 493.12711
526.0 0.001901 305.09708 494.98938
465.0 0.002151 305.09329 497.61230
535.0 0.001869 305.08966 500.82437
537.0 0.001862 305.08615 504.53198
547.0 0.001828 305.08267 508.79269
538.0 0.001859 305.07928 513.45959
559.0 0.001789 305.07599 519.16479
512.0 0.001953 305.07275 525.83179
523.0 0.001912 305.06961 533.97632
507.0 0.001972 305.06653 543.79138
530.0 0.001887 305.06357 555.54108
585.0 0.001709 305.06070 569.36658
582.0 0.001718 305.05786 585.38538
561.0 0.001783 305.05518 603.60791
585.0 0.001709 305.05255 623.84583
619.0 0.001616 305.05002 646.00269
654.0 0.001529 305.04749 669.67871
680.0 0.001471 305.04514 694.08124
723.0 0.001383 305.04285 719.03369
762.0 0.001312 305.04068 743.18219
777.0 0.001287 305.03851 765.42194
780.0 0.001282 305.03650 784.43079
818.0 0.001222 305.03455 799.14551
850.0 0.001176 305.03268 808.51428
840.0 0.001190 305.03091 812.23041
820.0 0.001220 305.02924 810.11749
796.0 0.001256 305.02768 802.58899
790.0 0.001266 305.02612 790.87201
807.0 0.001239 305.02472 776.44440
804.0 0.001244 305.02341 760.97699
730.0 0.001370 305.02219 746.07080
728.0 0.001374 305.02106 732.91791
716.0 0.001397 305.01999 722.58173
681.0 0.001468 305.01904 715.41876
719.0 0.001391 305.01813 712.07544
717.0 0.001395 305.01736 712.02698
659.0 0.001517 305.01672 714.70538
683.0 0.001464 305.01608 719.56525
737.0 0.001357 305.01556 725.23492
740.0 0.001351 305.01520 730.53693
744.0 0.001344 305.01486 734.18311
750.0 0.001333 305.01459 735.15643
761.0 0.001314 305.01447 732.78143
719.0 0.001391 305.01443 726.93689
766.0 0.001305 305.01447 717.67920
688.0 0.001453 305.01465 705.54755
674.0 0.001484 305.01489 691.22168
623.0 0.001605 305.01520 675.63611
672.0 0.001488 305.01563 659.75964
665.0 0.001504 305.01614 644.47241
658.0 0.001520 305.01672 630.49615
631.0 0.001585 305.01746 618.17206
596.0 0.001678 305.01825 607.88849
565.0 0.001770 305.01920 599.58472
601.0 0.001664 305.02020 593.12970
544.0 0.001838 305.02124 587.98059
565.0 0.001770 305.02249 583.94128
553.0 0.001808 305.02374 580.48157
576.0 0.001736 305.02509 577.12744
548.0 0.001825 305.02658 573.57404
559.0 0.001789 305.02817 569.51654
575.0 0.001739 305.02988 565.50305
564.0 0.001773 305.03165 561.53479
569.0 0.001757 305.03360 558.32959
561.0 0.001783 305.03552 555.83252
545.0 0.001835 305.03763 554.55304
562.0 0.001779 305.03979 554.80988
558.0 0.001792 305.04202 556.70563
576.0 0.001736 305.04440 560.42828
539.0 0.001855 305.04694 565.75391
528.0 0.001894 305.04941 573.13403
562.0 0.001779 305.05215 581.96002
578.0 0.001730 305.05490 591.94910
595.0 0.001681 305.05780 602.59442
606.0 0.001650 305.06082 613.57092
621.0 0.001610 305.06387 624.10828
641.0 0.001560 305.06699 633.59161
680.0 0.001471 305.07034 641.35736
691.0 0.001447 305.07370 646.51160
648.0 0.001543 305.07724 649.29889
640.0 0.001563 305.08081 649.30182
650.0 0.001538 305.08441 647.28070
644.0 0.001553 305.08829 643.77509
612.0 0.001634 305.09219 639.49884
619.0 0.001616 305.09616 635.42126
664.0 0.001506 305.10028 632.34967
657.0 0.001522 305.10452 630.08527
651.0 0.001536 305.10880 629.05121
649.0 0.001541 305.11325 629.41821
648.0 0.001543 305.11780 631.22430
663.0 0.001508 305.12241 634.55493
684.0 0.001462 305.12717 639.43347
672.0 0.001488 305.13199 645.90967
691.0 0.001447 305.13696 653.76984
658.0 0.001520 305.14206 662.79108
654.0 0.001529 305.14722 672.40778
691.0 0.001447 305.15247 681.81177
662.0 0.001511 305.15787 690.36359
703.0 0.001422 305.16336 697.00916
695.0 0.001439 305.16888 700.74066
645.0 0.001550 305.17462 701.45465
657.0 0.001522 305.18042 698.66559
671.0 0.001490 305.18631 692.41461
680.0 0.001471 305.19241 683.30798
712.0 0.001404 305.19852 671.97717
712.0 0.001404 305.20474 659.32129
659.0 0.001517 305.21109 645.71722
615.0 0.001626 305.21756 631.97815
661.0 0.001513 305.22415 618.36786
637.0 0.001570 305.23080 605.22150
604.0 0.001656 305.23764 592.68195
588.0 0.001701 305.24454 580.95648
599.0 0.001669 305.25150 570.12616
564.0 0.001773 305.25864 560.24280
559.0 0.001789 305.26587 551.29877
590.0 0.001695 305.27322 543.32111
532.0 0.001880 305.28073 536.31073
492.0 0.002033 305.28827 529.57281
475.0 0.002105 305.29593 522.87476
458.0 0.002183 305.30371 516.06024
477.0 0.002096 305.31168 508.74170
531.0 0.001883 305.31964 500.70663
499.0 0.002004 305.32779 492.10080
515.0 0.001942 305.33603 483.01584
480.0 0.002083 305.34433 474.16974
460.0 0.002174 305.35281 464.85141
473.0 0.002114 305.36142 455.86447
467.0 0.002141 305.37015 447.34827
434.0 0.002304 305.37900 439.24554
398.0 0.002513 305.38794 431.72198
412.0 0.002427 305.39694 424.62082
412.0 0.002427 305.40607 418.10788
381.0 0.002625 305.41534 411.93842
407.0 0.002457 305.42477 406.28564
399.0 0.002506 305.43423 401.08490
404.0 0.002475 305.44385 396.37900
373.0 0.002681 305.45364 391.92520
367.0 0.002725 305.46347 388.25345
361.0 0.002770 305.47345 385.10931
363.0 0.002755 305.48346 382.48795
356.0 0.002809 305.49371 379.71683
372.0 0.002688 305.50406 378.12735
368.0 0.002717 305.51447 377.01434
341.0 0.002933 305.52505 376.33459
353.0 0.002833 305.53568 376.24347
379.0 0.002639 305.54651 376.22275
373.0 0.002681 305.55740 376.41058
358.0 0.002793 305.56842 376.69226
360.0 0.002778 305.57962 377.18222
367.0 0.002725 305.59082 377.84171
378.0 0.002646 305.60217 378.61539
360.0 0.002778 305.61371 379.72836
372.0 0.002688 305.62531 381.17908
342.0 0.002924 305.63708 383.13025
360.0 0.002778 305.64896 385.71909
385.0 0.002597 305.66086 388.52341
386.0 0.002591 305.67300 392.55142
373.0 0.002681 305.68521 397.41391
398.0 0.002513 305.69754 403.19324
417.0 0.002398 305.70996 409.75754
379.0 0.002639 305.72263 417.15588
417.0 0.002398 305.73529 425.30960
437.0 0.002288 305.74817 433.94135
431.0 0.002320 305.76105 442.91547
465.0 0.002151 305.77411 451.99545
437.0 0.002288 305.78729 461.14041
469.0 0.002132 305.80060 469.77783
476.0 0.002101 305.81409 477.92386
476.0 0.002101 305.82761 485.46222
511.0 0.001957 305.84134 492.36203
458.0 0.002183 305.85513 498.68442
512.0 0.001953 305.86902 504.53384
491.0 0.002037 305.88306 509.90967
538.0 0.001859 305.89728 514.84906
521.0 0.001919 305.91147 519.50281
532.0 0.001880 305.92590 523.17511
571.0 0.001751 305.94046 525.82574
552.0 0.001812 305.95508 527.19025
574.0 0.001742 305.96991 527.12396
546.0 0.001832 305.98477 525.56903
538.0 0.001859 305.99982 522.73389
556.0 0.001799 306.01505 518.96631
512.0 0.001953 306.03030 514.68878
522.0 0.001916 306.04572 510.39557
498.0 0.002008 306.06122 506.23340
499.0 0.002004 306.07693 502.64725
541.0 0.001848 306.09265 499.98529
522.0 0.001916 306.10858 498.26089
514.0 0.001946 306.12460 497.69385
516.0 0.001938 306.14078 498.36758
519.0 0.001927 306.15710 500.32343
506.0 0.001976 306.17352 503.56027
516.0 0.001938 306.19003 507.94766
518.0 0.001931 306.20670 513.30664
519.0 0.001927 306.22354 519.46960
519.0 0.001927 306.24042 525.78113
544.0 0.001838 306.25748 531.69678
542.0 0.001845 306.27472 537.22430
558.0 0.001792 306.29190 541.80109
535.0 0.001869 306.30942 545.26691
544.0 0.001838 306.32697 547.58862
564.0 0.001773 306.34460 549.06909
549.0 0.001821 306.36249 549.99237
560.0 0.001786 306.38043 550.75354
578.0 0.001730 306.39847 551.83167
545.0 0.001835 306.41669 553.47003
583.0 0.001715 306.43503 556.00702
608.0 0.001645 306.45352 559.76324
596.0 0.001678 306.47202 565.00519
568.0 0.001761 306.49072 571.83228
560.0 0.001786 306.50964 580.34674
595.0 0.001681 306.52859 590.32397
604.0 0.001656 306.54773 602.31268
612.0 0.001634 306.56696 615.21893
622.0 0.001608 306.58630 629.43652
638.0 0.001567 306.60583 644.08881
639.0 0.001565 306.62543 658.32654
635.0 0.001575 306.64517 671.25555
645.0 0.001550 306.66510 682.00317
674.0 0.001484 306.68506 689.51013
681.0 0.001468 306.70517 693.39276
665.0 0.001504 306.72546 693.43225
681.0 0.001468 306.74594 690.02661
649.0 0.001541 306.76645 683.35669
669.0 0.001495 306.78708 674.56165
653.0 0.001531 306.80789 664.20587
662.0 0.001511 306.82889 653.04089
641.0 0.001560 306.84995 641.68347
572.0 0.001748 306.87115 630.70050
656.0 0.001524 306.89240 620.56476
578.0 0.001730 306.91391 611.64380
619.0 0.001616 306.93552 604.25433
585.0 0.001709 306.95724 598.58612
546.0 0.001832 306.97913 594.93958
611.0 0.001637 307.00107 593.31000
605.0 0.001653 307.02319 593.58478
580.0 0.001724 307.04541 595.25610
591.0 0.001692 307.06787 598.63666
573.0 0.001745 307.09036 603.07257
591.0 0.001692 307.11301 608.14441
566.0 0.001767 307.13580 613.55396
613.0 0.001631 307.15869 619.26971
588.0 0.001701 307.18173 625.33215
632.0 0.001582 307.20493 632.15021
639.0 0.001565 307.22824 639.84216
693.0 0.001443 307.25174 648.62378
638.0 0.001567 307.27530 658.78497
654.0 0.001529 307.29907 670.27533
684.0 0.001462 307.32294 682.96283
700.0 0.001429 307.34680 696.63910
736.0 0.001359 307.37103 711.09698
750.0 0.001333 307.39526 726.10516
722.0 0.001385 307.41959 741.47888
803.0 0.001245 307.44415 757.00507
815.0 0.001227 307.46875 772.36951
759.0 0.001318 307.49359 786.97015
796.0 0.001256 307.51855 800.41553
838.0 0.001193 307.54361 811.81812
862.0 0.001160 307.56882 820.43616
847.0 0.001181 307.59406 825.74304
833.0 0.001200 307.61960 827.41443
815.0 0.001227 307.64523 825.47412
800.0 0.001250 307.67096 820.17493
802.0 0.001247 307.69687 811.79315
782.0 0.001279 307.72281 800.83759
771.0 0.001297 307.74896 787.78564
758.0 0.001319 307.77524 773.27234
756.0 0.001323 307.80167 757.83112
782.0 0.001279 307.82825 742.05365
738.0 0.001355 307.85492 726.47351
729.0 0.001372 307.88171 711.51208
713.0 0.001403 307.90869 697.62811
714.0 0.001401 307.93579 685.13477
733.0 0.001364 307.96301 674.26251
684.0 0.001462 307.99039 665.08643
640.0 0.001563 308.01785 657.48657
647.0 0.001546 308.04547 651.22882
650.0 0.001538 308.07324 645.92303
642.0 0.001558 308.10120 641.16479
631.0 0.001585 308.12924 636.59174
619.0 0.001616 308.15747 631.93463
634.0 0.001577 308.18570 627.07874
625.0 0.001600 308.21420 621.95166
591.0 0.001692 308.24280 616.72406
573.0 0.001745 308.27155 611.60120
567.0 0.001764 308.30035 606.40265
599.0 0.001669 308.32941 601.47736
618.0 0.001618 308.35855 597.00537
585.0 0.001709 308.38785 593.21704
585.0 0.001709 308.41721 590.27844
600.0 0.001667 308.44684 588.27679
571.0 0.001751 308.47644 587.27069
578.0 0.001730 308.50632 587.23340
649.0 0.001541 308.53625 588.09015
622.0 0.001608 308.56635 589.70538
578.0 0.001730 308.59662 591.93701
630.0 0.001587 308.62695 594.61841
575.0 0.001739 308.65747 597.61383
568.0 0.001761 308.68814 600.72284
588.0 0.001701 308.71890 603.76526
631.0 0.001585 308.74979 606.77130
587.0 0.001704 308.78088 609.59985
575.0 0.001739 308.81207 612.28546
633.0 0.001580 308.84344 614.70154
609.0 0.001642 308.87482 617.01337
582.0 0.001718 308.90652 619.33771
602.0 0.001661 308.93823 620.86536
631.0 0.001585 308.97018 621.68628
603.0 0.001658 309.00217 621.63135
619.0 0.001616 309.03433 620.63232
640.0 0.001563 309.06662 618.80536
618.0 0.001618 309.09903 616.17517
597.0 0.001675 309.13162 612.79205
621.0 0.001610 309.16440 609.34583
614.0 0.001629 309.19717 605.47205
606.0 0.001650 309.23016 601.36847
614.0 0.001629 309.26324 596.91357
593.0 0.001686 309.29657 592.04193
599.0 0.001669 309.32999 586.68976
598.0 0.001672 309.36349 580.90485
588.0 0.001701 309.39713 574.81335
564.0 0.001773 309.43097 568.50787
566.0 0.001767 309.46490 562.20642
552.0 0.001812 309.49896 556.12988
501.0 0.001996 309.53317 550.45593
535.0 0.001869 309.56757 545.20966
532.0 0.001880 309.60211 540.50317
531.0 0.001883 309.63672 536.01978
526.0 0.001901 309.67151 531.77551
508.0 0.001969 309.70639 527.71051
489.0 0.002045 309.74146 523.71796
504.0 0.001984 309.77667 519.76062
493.0 0.002028 309.81198 516.11993
490.0 0.002041 309.84747 512.79608
484.0 0.002066 309.88306 509.93008
539.0 0.001855 309.91876 507.48648
553.0 0.001808 309.95474 505.71753
514.0 0.001946 309.99075 504.63214
493.0 0.002028 310.02686 504.32266
490.0 0.002041 310.06314 504.91968
495.0 0.002020 310.09952 506.27737
503.0 0.001988 310.13614 508.31479
492.0 0.002033 310.17282 511.16708
484.0 0.002066 310.20972 514.43335
514.0 0.001946 310.24667 518.16339
513.0 0.001949 310.28378 522.03693
534.0 0.001873 310.32098 525.78516
495.0 0.002020 310.35849 529.17291
535.0 0.001869 310.39600 532.03564
547.0 0.001828 310.43359 534.21887
513.0 0.001949 310.47147 535.63025
575.0 0.001739 310.50928 536.10547
514.0 0.001946 310.54749 535.48022
531.0 0.001883 310.58566 533.43677
518.0 0.001931 310.62396 530.52649
546.0 0.001832 310.66251 526.34027
503.0 0.001988 310.70108 521.33881
479.0 0.002088 310.73987 515.88068
509.0 0.001965 310.77878 509.79346
486.0 0.002058 310.81775 503.67279
524.0 0.001908 310.85703 497.89508
461.0 0.002169 310.89627 492.79938
496.0 0.002016 310.93576 488.52493
497.0 0.002012 310.97534 485.10840
479.0 0.002088 311.01495 482.57837
493.0 0.002028 311.05493 480.84659
486.0 0.002058 311.09485 479.71695
477.0 0.002096 311.13504 479.03342
458.0 0.002183 311.17523 478.53641
437.0 0.002288 311.21564 477.97754
469.0 0.002132 311.25616 477.11331
478.0 0.002092 311.29681 475.71378
451.0 0.002217 311.33771 473.58640
464.0 0.002155 311.37860 470.39935
461.0 0.002169 311.41971 466.43271
443.0 0.002257 311.46088 461.43356
431.0 0.002320 311.50229 455.73819
439.0 0.002278 311.54379 449.42584
443.0 0.002257 311.58539 442.74207
447.0 0.002237 311.62704 436.02103
445.0 0.002247 311.66907 429.25867
439.0 0.002278 311.71106 422.84409
423.0 0.002364 311.75320 417.00104
407.0 0.002457 311.79553 411.86264
420.0 0.002381 311.83795 407.34735
396.0 0.002525 311.88055 403.89432
392.0 0.002551 311.92322 401.33765
386.0 0.002591 311.96609 399.65976
396.0 0.002525 312.00916 398.77408
397.0 0.002519 312.05215 398.56836
375.0 0.002667 312.09534 398.89828
400.0 0.002500 312.13873 399.59277
386.0 0.002591 312.18231 400.01666
428.0 0.002336 312.22595 400.89523
401.0 0.002494 312.26968 401.60495
424.0 0.002358 312.31363 402.00137
432.0 0.002315 312.35773 401.95758
407.0 0.002457 312.40192 401.60361
405.0 0.002469 312.44623 400.89700
386.0 0.002591 312.49063 399.93350
410.0 0.002439 312.53519 398.75839
415.0 0.002410 312.57993 397.74023
428.0 0.002336 312.62479 396.89304
410.0 0.002439 312.66977 396.55753
411.0 0.002433 312.71487 396.88928
394.0 0.002538 312.76016 397.78809
384.0 0.002604 312.80551 399.63959
410.0 0.002439 312.85107 402.41156
385.0 0.002597 312.89670 406.12851
402.0 0.002488 312.94247 410.77118
431.0 0.002320 312.98840 416.30164
423.0 0.002364 313.03442 422.60281
430.0 0.002326 313.08060 429.48856
449.0 0.002227 313.12686 436.52353
474.0 0.002110 313.17328 443.89728
447.0 0.002237 313.21988 451.06244
449.0 0.002227 313.26657 457.64731
453.0 0.002208 313.31345 463.27484
521.0 0.001919 313.36044 467.64670
487.0 0.002053 313.40744 470.79294
497.0 0.002012 313.45474 472.41608
486.0 0.002058 313.50198 472.87009
477.0 0.002096 313.54950 472.40945
508.0 0.001969 313.59717 471.56116
490.0 0.002041 313.64487 470.53195
445.0 0.002247 313.69275 469.79620
448.0 0.002232 313.74081 469.72186
482.0 0.002075 313.78894 470.82086
493.0 0.002028 313.83719 472.97913
486.0 0.002058 313.88559 476.47891
484.0 0.002066 313.93414 481.36255
492.0 0.002033 313.98273 487.75623
498.0 0.002008 314.03156 495.51508
531.0 0.001883 314.08054 504.46524
551.0 0.001815 314.12946 514.15607
536.0 0.001866 314.17868 524.70398
537.0 0.001862 314.22800 535.31580
539.0 0.001855 314.27740 545.58197
561.0 0.001783 314.32697 554.94910
599.0 0.001669 314.37659 562.92438
596.0 0.001678 314.42648 569.11578
582.0 0.001718 314.47641 573.39124
584.0 0.001712 314.52649 575.48230
571.0 0.001751 314.57666 575.95032
578.0 0.001730 314.62692 574.79364
564.0 0.001773 314.67740 572.37598
552.0 0.001812 314.72797 568.76666
550.0 0.001818 314.77869 564.29553
547.0 0.001828 314.82956 559.35339
560.0 0.001786 314.88040 554.48944
563.0 0.001776 314.93158 549.51807
559.0 0.001789 314.98273 545.11639
565.0 0.001770 315.03409 541.25433
601.0 0.001664 315.08551 538.54584
533.0 0.001876 315.13708 537.07111
542.0 0.001845 315.18878 536.70239
578.0 0.001730 315.24060 537.77844
578.0 0.001730 315.29257 540.30389
565.0 0.001770 315.34470 544.30933
583.0 0.001715 315.39682 549.64130
554.0 0.001805 315.44913 556.15454
553.0 0.001808 315.50159 563.67926
592.0 0.001689 315.55423 572.16461
585.0 0.001709 315.60687 581.31305
545.0 0.001835 315.65970 591.24829
577.0 0.001733 315.71262 601.84821
582.0 0.001718 315.76572 612.62372
657.0 0.001522 315.81888 623.44989
635.0 0.001575 315.87225 633.93317
689.0 0.001451 315.92557 643.87250
679.0 0.001473 315.97919 652.91193
669.0 0.001495 316.03281 660.49927
686.0 0.001458 316.08670 666.18286
706.0 0.001416 316.14056 669.69855
721.0 0.001387 316.19452 670.72083
730.0 0.001370 316.24869 669.21869
688.0 0.001453 316.30301 665.36389
669.0 0.001495 316.35742 659.61749
664.0 0.001506 316.41196 652.54675
668.0 0.001497 316.46655 644.88800
619.0 0.001616 316.52127 637.14966
624.0 0.001603 316.57620 630.23163
600.0 0.001667 316.63123 624.41376
604.0 0.001656 316.68631 619.99036
607.0 0.001647 316.74152 617.07184
603.0 0.001658 316.79691 615.67688
591.0 0.001692 316.85236 615.54681
631.0 0.001585 316.90796 616.29144
674.0 0.001484 316.96368 617.80206
671.0 0.001490 317.01938 619.36298
679.0 0.001473 317.07541 620.62213
673.0 0.001486 317.13138 620.74164
636.0 0.001572 317.18768 619.59247
631.0 0.001585 317.24390 616.75708
652.0 0.001534 317.30032 612.02173
631.0 0.001585 317.35681 605.37915
591.0 0.001692 317.41345 596.98425
583.0 0.001715 317.47018 587.09351
589.0 0.001698 317.52704 576.06647
579.0 0.001727 317.58401 564.36078
547.0 0.001828 317.64117 552.51318
538.0 0.001859 317.69830 540.69299
574.0 0.001742 317.75565 529.52405
543.0 0.001842 317.81311 519.23755
520.0 0.001923 317.87057 510.04684
490.0 0.002041 317.92834 502.03687
513.0 0.001949 317.98602 495.23746
478.0 0.002092 318.04401 489.53967
472.0 0.002119 318.10193 485.08887
483.0 0.002070 318.15994 481.34552
492.0 0.002033 318.21829 478.20169
503.0 0.001988 318.27658 475.35678
537.0 0.001862 318.33508 472.67267
502.0 0.001992 318.39359 470.06891
485.0 0.002062 318.45218 467.12384
524.0 0.001908 318.51102 463.96875
510.0 0.001961 318.56989 460.70065
452.0 0.002212 318.62891 457.46057
424.0 0.002358 318.68802 454.43704
449.0 0.002227 318.74716 451.94968
474.0 0.002110 318.80652 449.88031
460.0 0.002174 318.86597 448.49536
435.0 0.002299 318.92551 447.87265
412.0 0.002427 318.98520 448.10355
456.0 0.002193 319.04483 449.05652
446.0 0.002242 319.10477 450.73462
403.0 0.002481 319.16470 453.00269
455.0 0.002198 319.22482 455.70596
431.0 0.002320 319.28503 458.62332
485.0 0.002062 319.34525 461.58856
456.0 0.002193 319.40561 464.43262
467.0 0.002141 319.46613 466.70615
474.0 0.002110 319.52679 468.45911
470.0 0.002128 319.58746 469.56461
464.0 0.002155 319.64819 470.01013
487.0 0.002053 319.70920 469.93124
482.0 0.002075 319.77017 469.48755
491.0 0.002037 319.83136 468.71390
491.0 0.002037 319.89255 467.82639
443.0 0.002257 319.95383 467.02493
461.0 0.002169 320.01535 466.44232
478.0 0.002092 320.07684 466.26511
463.0 0.002160 320.13849 466.76065
477.0 0.002096 320.20023 467.95981
469.0 0.002132 320.26199 470.00516
454.0 0.002203 320.32401 473.02597
465.0 0.002151 320.38596 477.06656
455.0 0.002198 320.44821 482.14694
459.0 0.002179 320.51041 488.23032
473.0 0.002114 320.57263 495.21991
492.0 0.002033 320.63519 503.00296
518.0 0.001931 320.69769 511.38940
522.0 0.001916 320.76044 520.06421
536.0 0.001866 320.82312 528.60602
520.0 0.001923 320.88589 537.01135
524.0 0.001908 320.94888 544.80896
546.0 0.001832 321.01181 551.65942
559.0 0.001789 321.07504 557.28351
590.0 0.001695 321.13824 561.44482
587.0 0.001704 321.20151 564.04993
589.0 0.001698 321.26489 565.07367
545.0 0.001835 321.32840 564.70166
555.0 0.001802 321.39209 562.94562
560.0 0.001786 321.45581 560.17255
564.0 0.001773 321.51947 556.72577
546.0 0.001832 321.58344 552.97107
563.0 0.001776 321.64737 549.28833
581.0 0.001721 321.71149 546.01013
552.0 0.001812 321.77567 543.28619
555.0 0.001802 321.83994 541.41327
555.0 0.001802 321.90430 540.57489
558.0 0.001792 321.96866 540.92902
519.0 0.001927 322.03326 542.59827
514.0 0.001946 322.09793 545.70862
551.0 0.001815 322.16251 549.85492
520.0 0.001923 322.22742 555.65009
584.0 0.001712 322.29230 562.65649
563.0 0.001776 322.35727 570.67151
601.0 0.001664 322.42233 579.41656
588.0 0.001701 322.48749 588.49609
606.0 0.001650 322.55280 597.76569
624.0 0.001603 322.61807 606.78119
648.0 0.001543 322.68353 615.14258
693.0 0.001443 322.74908 622.78149
657.0 0.001522 322.81458 629.44818
661.0 0.001513 322.88037 635.04816
717.0 0.001395 322.94608 639.50421
704.0 0.001420 323.01199 642.94836
651.0 0.001536 323.07794 645.52832
669.0 0.001495 323.14395 647.28723
637.0 0.001570 323.21005 648.49164
684.0 0.001462 323.27628 648.84100
666.0 0.001502 323.34256 648.45026
657.0 0.001522 323.40897 647.33997
674.0 0.001484 323.47534 645.56708
666.0 0.001502 323.54193 643.13324
671.0 0.001490 323.60846 640.39856
649.0 0.001541 323.67526 637.34009
653.0 0.001531 323.74203 634.07416
666.0 0.001502 323.80881 630.75055
648.0 0.001543 323.87585 627.40491
633.0 0.001580 323.94278 624.04169
655.0 0.001527 324.00995 621.32220
651.0 0.001536 324.07715 618.27600
629.0 0.001590 324.14435 615.50153
637.0 0.001570 324.21173 612.83759
654.0 0.001529 324.27917 610.24237
650.0 0.001538 324.34668 607.57166
645.0 0.001550 324.41428 604.65790
628.0 0.001592 324.48184 601.93188
650.0 0.001538 324.54965 598.99316
634.0 0.001577 324.61737 595.64020
600.0 0.001667 324.68527 592.28070
602.0 0.001661 324.75323 588.87872
592.0 0.001689 324.82129 585.52667
578.0 0.001730 324.88943 582.12970
545.0 0.001835 324.95764 578.73328
564.0 0.001773 325.02588 575.31750
565.0 0.001770 325.09421 571.87225
564.0 0.001773 325.16254 568.30145
571.0 0.001751 325.23108 564.58722
562.0 0.001779 325.29959 560.70020
575.0 0.001739 325.36826 556.56165
586.0 0.001706 325.43692 552.22205
570.0 0.001754 325.50562 547.67920
501.0 0.001996 325.57452 543.15271
525.0 0.001905 325.64337 538.49152
515.0 0.001942 325.71240 533.95844
510.0 0.001961 325.78146 529.68524
491.0 0.002037 325.85043 525.59564
543.0 0.001842 325.91971 521.67725
489.0 0.002045 325.98895 518.36646
519.0 0.001927 326.05835 515.42303
495.0 0.002020 326.12766 513.19714
491.0 0.002037 326.19705 511.51401
476.0 0.002101 326.26663 510.39001
485.0 0.002062 326.33615 509.96338
576.0 0.001736 326.40588 510.24698
483.0 0.002070 326.47562 511.28482
516.0 0.001938 326.54532 512.88196
512.0 0.001953 326.61517 515.02325
516.0 0.001938 326.68506 517.58203
525.0 0.001905 326.75507 520.48376
497.0 0.002012 326.82510 523.60358
497.0 0.002012 326.89517 527.18237
527.0 0.001898 326.96539 530.53345
517.0 0.001934 327.03555 533.96411
514.0 0.001946 327.10587 537.57983
498.0 0.002008 327.17621 541.29034
503.0 0.001988 327.24649 545.69281
562.0 0.001779 327.31705 550.23926
549.0 0.001821 327.38757 555.21442
550.0 0.001818 327.45813 560.68335
540.0 0.001852 327.52881 566.51630
577.0 0.001733 327.59937 572.68842
573.0 0.001745 327.67017 579.14825
540.0 0.001852 327.74094 585.80872
586.0 0.001706 327.81189 592.63031
600.0 0.001667 327.88287 599.47937
593.0 0.001686 327.95377 606.24829
604.0 0.001656 328.02484 612.78137
615.0 0.001626 328.09583 618.87750
631.0 0.001585 328.16705 624.35278
655.0 0.001527 328.23831 628.92645
652.0 0.001534 328.30945 632.47083
645.0 0.001550 328.38080 634.89056
654.0 0.001529 328.45212 635.99774
648.0 0.001543 328.52359 636.20575
652.0 0.001534 328.59506 635.06879
647.0 0.001546 328.66641 632.83575
617.0 0.001621 328.73807 629.56293
562.0 0.001779 328.80972 625.35980
553.0 0.001808 328.88141 620.32953
587.0 0.001704 328.95313 614.63672
600.0 0.001667 329.02478 608.35657
594.0 0.001684 329.09662 601.64258
573.0 0.001745 329.16849 594.66858
541.0 0.001848 329.24039 587.59094
550.0 0.001818 329.31238 580.61823
614.0 0.001629 329.38434 573.92688
582.0 0.001718 329.45639 567.65869
583.0 0.001715 329.52850 561.98248
547.0 0.001828 329.60062 556.91998
585.0 0.001709 329.67285 552.50085
564.0 0.001773 329.74500 548.70233
567.0 0.001764 329.81729 545.44006
593.0 0.001686 329.88956 542.63806
574.0 0.001742 329.96201 540.19775
529.0 0.001890 330.03436 537.95276
521.0 0.001919 330.10678 535.97961
486.0 0.002058 330.17932 534.11493
553.0 0.001808 330.25180 532.23236
503.0 0.001988 330.32437 530.07861
564.0 0.001773 330.39703 527.87103
481.0 0.002079 330.46964 525.39874
526.0 0.001901 330.54233 522.53839
542.0 0.001845 330.61505 519.40808
524.0 0.001908 330.68784 515.84717
496.0 0.002016 330.76062 511.99289
470.0 0.002128 330.83337 507.96582
484.0 0.002066 330.90631 503.93857
500.0 0.002000 330.97919 500.02908
498.0 0.002008 331.05219 496.43896
503.0 0.001988 331.12524 493.35596
523.0 0.001912 331.19812 490.94040
502.0 0.001992 331.27121 489.21158
482.0 0.002075 331.34430 488.28558
457.0 0.002188 331.41748 488.19006
460.0 0.002174 331.49057 488.94238
455.0 0.002198 331.56372 490.52325
486.0 0.002058 331.63705 492.88678
500.0 0.002000 331.71027 495.90121
504.0 0.001984 331.78357 499.63736
470.0 0.002128 331.85687 503.64383
473.0 0.002114 331.93015 507.75781
531.0 0.001883 332.00357 511.95184
512.0 0.001953 332.07700 515.95172
520.0 0.001923 332.15042 519.55225
525.0 0.001905 332.22391 522.62122
524.0 0.001908 332.29736 525.06836
530.0 0.001887 332.37094 526.84845
518.0 0.001931 332.44437 528.06720
527.0 0.001898 332.51807 528.54181
524.0 0.001908 332.59167 528.68365
516.0 0.001938 332.66522 528.23322
525.0 0.001905 332.73889 527.56854
519.0 0.001927 332.81259 526.81683
513.0 0.001949 332.88629 526.19067
518.0 0.001931 332.96011 525.92303
522.0 0.001916 333.03372 526.07092
553.0 0.001808 333.10754 526.85645
535.0 0.001869 333.18127 528.42773
533.0 0.001876 333.25522 530.92993
536.0 0.001866 333.32898 534.47278
570.0 0.001754 333.40286 539.12933
543.0 0.001842 333.47672 544.94928
541.0 0.001848 333.55060 551.90845
588.0 0.001701 333.62457 560.03741
625.0 0.001600 333.69855 569.12415
633.0 0.001580 333.77243 579.13635
590.0 0.001695 333.84644 590.00378
602.0 0.001661 333.92044 601.83295
594.0 0.001684 333.99448 614.17065
639.0 0.001565 334.06851 627.16290
657.0 0.001522 334.14249 640.80511
665.0 0.001504 334.21664 655.09991
692.0 0.001445 334.29068 670.06647
759.0 0.001318 334.36481 685.91119
779.0 0.001284 334.43890 702.46674
749.0 0.001335 334.51297 719.89374
695.0 0.001439 334.58713 738.44922
795.0 0.001258 334.66132 757.60028
809.0 0.001236 334.73553 777.41193
845.0 0.001183 334.80969 797.54144
777.0 0.001287 334.88382 817.57166
893.0 0.001120 334.95810 836.84552
887.0 0.001127 335.03226 854.97009
838.0 0.001193 335.10654 871.27228
881.0 0.001135 335.18073 885.19556
949.0 0.001054 335.25491 896.35321
989.0 0.001011 335.32928 904.44745
940.0 0.001064 335.40344 909.23438
951.0 0.001052 335.47784 910.78363
883.0 0.001133 335.55209 909.08075
925.0 0.001081 335.62631 904.10291
930.0 0.001075 335.70065 896.11145
902.0 0.001109 335.77496 885.91711
948.0 0.001055 335.84933 873.67670
926.0 0.001080 335.92361 860.30804
866.0 0.001155 335.99786 846.37573
888.0 0.001126 336.07224 832.47864
889.0 0.001125 336.14655 819.75671
842.0 0.001188 336.22092 808.44482
802.0 0.001247 336.29532 799.21252
788.0 0.001269 336.36954 791.89563
788.0 0.001269 336.44394 786.87207
772.0 0.001295 336.51828 783.92572
801.0 0.001248 336.59262 782.81354
793.0 0.001261 336.66702 783.53485
806.0 0.001241 336.74127 785.25458
802.0 0.001247 336.81570 787.68549
778.0 0.001285 336.89001 790.39783
794.0 0.001259 336.96442 793.04877
812.0 0.001232 337.03873 795.37866
822.0 0.001217 337.11301 797.24768
819.0 0.001221 337.18750 798.53180
847.0 0.001181 337.26175 799.25159
851.0 0.001175 337.33612 799.50208
820.0 0.001220 337.41046 799.13422
799.0 0.001252 337.48474 798.32861
814.0 0.001229 337.55911 797.06073
799.0 0.001252 337.63348 795.49170
811.0 0.001233 337.70786 793.69604
813.0 0.001230 337.78223 791.77100
798.0 0.001253 337.85648 789.61719
766.0 0.001305 337.93079 787.31122
733.0 0.001364 338.00504 784.49512
796.0 0.001256 338.07944 781.00000
803.0 0.001245 338.15369 776.72754
720.0 0.001389 338.22791 771.37720
754.0 0.001326 338.30225 764.72394
776.0 0.001289 338.37646 756.97986
764.0 0.001309 338.45078 747.94653
760.0 0.001316 338.52499 737.82629
772.0 0.001295 338.59921 726.58386
787.0 0.001271 338.67352 714.42999
694.0 0.001441 338.74765 701.62323
689.0 0.001451 338.82199 688.40820
684.0 0.001462 338.89615 675.15503
653.0 0.001531 338.97031 662.19238
635.0 0.001575 339.04453 649.68134
634.0 0.001577 339.11862 638.15424
645.0 0.001550 339.19284 627.73499
569.0 0.001757 339.26703 618.45557
576.0 0.001736 339.34106 610.46326
567.0 0.001764 339.41522 603.66986
566.0 0.001767 339.48926 598.03345
567.0 0.001764 339.56342 593.39404
576.0 0.001736 339.63751 589.35950
535.0 0.001869 339.71146 586.11072
567.0 0.001764 339.78555 583.26324
545.0 0.001835 339.85953 580.41541
545.0 0.001835 339.93359 577.41321
577.0 0.001733 340.00760 573.93579
575.0 0.001739 340.08154 570.20691
554.0 0.001805 340.15549 566.15900
545.0 0.001835 340.22940 561.46643
577.0 0.001733 340.30341 556.33679
597.0 0.001675 340.37729 550.85364
571.0 0.001751 340.45102 544.99030
524.0 0.001908 340.52502 539.19611
527.0 0.001898 340.59891 533.40515
542.0 0.001845 340.67273 527.83789
543.0 0.001842 340.74655 522.63702
555.0 0.001802 340.82022 518.10352
537.0 0.001862 340.89401 514.32898
527.0 0.001898 340.96774 511.48807
519.0 0.001927 341.04153 509.74530
515.0 0.001942 341.11523 509.07748
526.0 0.001901 341.18881 509.59845
527.0 0.001898 341.26251 511.23596
531.0 0.001883 341.33606 514.15448
521.0 0.001919 341.40979 518.21368
517.0 0.001934 341.48334 523.31036
533.0 0.001876 341.55679 529.36017
516.0 0.001938 341.63040 536.09412
514.0 0.001946 341.70383 543.27991
529.0 0.001890 341.77744 550.81281
511.0 0.001957 341.85092 558.36072
519.0 0.001927 341.92422 565.62476
544.0 0.001838 341.99768 572.50952
577.0 0.001733 342.07104 578.61328
550.0 0.001818 342.14444 583.81268
573.0 0.001745 342.21777 588.17328
569.0 0.001757 342.29102 591.69928
602.0 0.001661 342.36432 594.45123
604.0 0.001656 342.43759 596.57843
569.0 0.001757 342.51077 598.15485
598.0 0.001672 342.58405 599.35956
579.0 0.001727 342.65707 600.35486
554.0 0.001805 342.73026 601.30627
593.0 0.001686 342.80328 602.31659
625.0 0.001600 342.87643 603.62518
612.0 0.001634 342.94946 605.26135
651.0 0.001536 343.02237 607.32959
612.0 0.001634 343.09549 609.87164
651.0 0.001536 343.16837 612.86743
601.0 0.001664 343.24133 616.28229
606.0 0.001650 343.31415 620.04468
547.0 0.001828 343.38702 624.06708
613.0 0.001631 343.45990 628.29279
626.0 0.001597 343.53268 632.50708
646.0 0.001548 343.60544 636.63678
648.0 0.001543 343.67822 640.52124
632.0 0.001582 343.75079 643.90436
616.0 0.001623 343.82349 646.61261
622.0 0.001608 343.89609 648.42749
628.0 0.001592 343.96875 649.27448
630.0 0.001587 344.04129 649.19055
603.0 0.001658 344.11374 648.19098
612.0 0.001634 344.18628 646.44385
641.0 0.001560 344.25873 644.17993
635.0 0.001575 344.33124 641.67517
605.0 0.001653 344.40353 639.18195
606.0 0.001650 344.47586 637.08344
660.0 0.001515 344.54828 635.60730
651.0 0.001536 344.62045 634.96417
606.0 0.001650 344.69284 635.30579
617.0 0.001621 344.76505 636.72614
634.0 0.001577 344.83707 639.28186
658.0 0.001520 344.90933 642.87177
635.0 0.001575 344.98138 647.40594
641.0 0.001560 345.05347 652.72510
688.0 0.001453 345.12552 658.62366
658.0 0.001520 345.19742 664.78314
652.0 0.001534 345.26941 671.03320
689.0 0.001451 345.34128 677.28210
696.0 0.001437 345.41324 683.09027
694.0 0.001441 345.48511 688.40082
680.0 0.001471 345.55682 693.20258
666.0 0.001502 345.62860 696.99237
688.0 0.001453 345.70032 700.06543
692.0 0.001445 345.77203 702.28424
670.0 0.001493 345.84372 703.58478
659.0 0.001517 345.91522 703.96301
659.0 0.001517 345.98685 703.46893
646.0 0.001548 346.05838 702.22491
680.0 0.001471 346.12991 700.43530
724.0 0.001381 346.20135 698.34332
679.0 0.001473 346.27264 696.24408
682.0 0.001466 346.34418 694.24689
688.0 0.001453 346.41544 692.67957
702.0 0.001425 346.48672 691.85681
685.0 0.001460 346.55801 691.63098
698.0 0.001433 346.62915 692.93481
656.0 0.001524 346.70038 695.64178
689.0 0.001451 346.77148 699.78198
708.0 0.001412 346.84262 705.40070
717.0 0.001395 346.91370 712.40430
675.0 0.001481 346.98462 720.37201
698.0 0.001433 347.05557 729.56073
762.0 0.001312 347.12653 739.76886
717.0 0.001395 347.19745 750.43835
778.0 0.001285 347.26834 761.27502
787.0 0.001271 347.33905 771.87836
777.0 0.001287 347.40988 782.11023
803.0 0.001245 347.48059 791.38824
842.0 0.001188 347.55130 799.46082
768.0 0.001302 347.62192 805.98053
858.0 0.001166 347.69247 810.71600
858.0 0.001166 347.76306 813.49799
854.0 0.001171 347.83359 814.25073
843.0 0.001186 347.90405 813.02264
829.0 0.001206 347.97458 810.05792
812.0 0.001232 348.04486 805.46729
819.0 0.001221 348.11520 799.53802
846.0 0.001182 348.18555 792.68896
819.0 0.001221 348.25589 785.65137
795.0 0.001258 348.32608 778.25232
762.0 0.001312 348.39624 771.04486
751.0 0.001332 348.46640 764.14148
747.0 0.001339 348.53650 757.72394
727.0 0.001376 348.60663 751.76154
737.0 0.001357 348.67661 746.15314
706.0 0.001416 348.74658 741.05310
698.0 0.001433 348.81662 736.39325
677.0 0.001477 348.88641 731.96826
700.0 0.001429 348.95624 727.63245
701.0 0.001427 349.02615 723.09570
708.0 0.001412 349.09583 718.33142
727.0 0.001376 349.16568 713.08020
713.0 0.001403 349.23535 707.21216
699.0 0.001431 349.30502 700.61322
693.0 0.001443 349.37463 693.25513
694.0 0.001441 349.44415 684.83942
697.0 0.001435 349.51376 676.05096
723.0 0.001383 349.58316 666.70959
709.0 0.001410 349.65265 656.95178
706.0 0.001416 349.72205 646.98468
704.0 0.001420 349.79138 637.02130
663.0 0.001508 349.86078 627.05768
623.0 0.001605 349.93002 617.72931
634.0 0.001577 349.99936 608.95996
604.0 0.001656 350.06854 601.06805
563.0 0.001776 350.13763 593.98364
582.0 0.001718 350.20682 587.81812
562.0 0.001779 350.27588 582.61499
577.0 0.001733 350.34497 578.31567
576.0 0.001736 350.41400 575.00153
575.0 0.001739 350.48294 572.42816
581.0 0.001721 350.55188 570.57837
561.0 0.001783 350.62079 569.35010
564.0 0.001773 350.68970 568.58051
571.0 0.001751 350.75854 568.19287
523.0 0.001912 350.82721 568.03656
518.0 0.001931 350.89600 567.84991
567.0 0.001764 350.96466 567.58038
587.0 0.001704 351.03342 566.80786
561.0 0.001783 351.10208 565.70337
559.0 0.001789 351.17062 564.04034
535.0 0.001869 351.23920 561.74927
612.0 0.001634 351.30771 558.82184
561.0 0.001783 351.37622 555.28625
578.0 0.001730 351.44464 551.12646
543.0 0.001842 351.51303 546.65997
569.0 0.001757 351.58148 541.89764
566.0 0.001767 351.64984 536.99347
554.0 0.001805 351.71814 532.05914
529.0 0.001890 351.78650 527.21063
527.0 0.001898 351.85458 522.54083
530.0 0.001887 351.92294 518.14563
525.0 0.001905 351.99100 514.00037
513.0 0.001949 352.05923 510.18515
481.0 0.002079 352.12735 506.71896
492.0 0.002033 352.19547 503.64063
524.0 0.001908 352.26352 500.89584
504.0 0.001984 352.33142 498.46744
524.0 0.001908 352.39948 496.35837
504.0 0.001984 352.46744 494.51880
481.0 0.002079 352.53528 492.98547
468.0 0.002137 352.60324 491.62784
461.0 0.002169 352.67102 490.40805
458.0 0.002183 352.73892 489.25955
499.0 0.002004 352.80673 488.08817
498.0 0.002008 352.87445 486.94943
476.0 0.002101 352.94226 485.75397
436.0 0.002294 353.00995 484.28345
463.0 0.002160 353.07764 482.99280
494.0 0.002024 353.14536 481.66876
490.0 0.002041 353.21289 480.33347
500.0 0.002000 353.28055 478.98999
485.0 0.002062 353.34802 477.74915
484.0 0.002066 353.41571 476.60666
455.0 0.002198 353.48318 475.59396
439.0 0.002278 353.55069 474.61902
456.0 0.002193 353.61819 473.94458
452.0 0.002212 353.68564 473.55304
456.0 0.002193 353.75308 473.21860
492.0 0.002033 353.82053 473.00745
479.0 0.002088 353.88785 472.91656
480.0 0.002083 353.95532 472.90955
462.0 0.002165 354.02261 472.96017
485.0 0.002062 354.08997 472.84747
513.0 0.001949 354.15726 472.77463
485.0 0.002062 354.22446 472.56412
478.0 0.002092 354.29178 472.14392
464.0 0.002155 354.35907 471.50113
448.0 0.002232 354.42636 470.63458
473.0 0.002114 354.49359 469.52640
468.0 0.002137 354.56067 468.21475
481.0 0.002079 354.62790 466.78070
485.0 0.002062 354.69510 465.19031
464.0 0.002155 354.76224 463.74908
437.0 0.002288 354.82941 462.21945
435.0 0.002299 354.89645 461.07379
419.0 0.002387 354.96368 460.15674
425.0 0.002353 355.03070 459.57648
457.0 0.002188 355.09781 459.34079
447.0 0.002237 355.16495 459.42282
450.0 0.002222 355.23193 459.95068
426.0 0.002347 355.29904 460.86752
446.0 0.002242 355.36606 462.16486
428.0 0.002336 355.43317 463.89273
464.0 0.002155 355.50021 465.93790
409.0 0.002445 355.56714 468.19272
429.0 0.002331 355.63422 471.11771
430.0 0.002326 355.70120 473.79068
458.0 0.002183 355.76828 476.52896
471.0 0.002123 355.83527 479.39386
442.0 0.002262 355.90222 482.25729
482.0 0.002075 355.96927 485.25177
492.0 0.002033 356.03622 487.79559
486.0 0.002058 356.10333 490.46704
531.0 0.001883 356.17029 493.06128
485.0 0.002062 356.23730 495.59430
460.0 0.002174 356.30432 498.17618
479.0 0.002088 356.37122 500.84790
497.0 0.002012 356.43832 503.57706
532.0 0.001880 356.50537 506.64246
495.0 0.002020 356.57233 509.97214
475.0 0.002105 356.63940 513.40564
484.0 0.002066 356.70642 517.34869
480.0 0.002083 356.77350 521.58405
502.0 0.001992 356.84055 526.06927
518.0 0.001931 356.90756 530.81671
522.0 0.001916 356.97461 535.51489
544.0 0.001838 357.04169 540.41956
549.0 0.001821 357.10892 545.36450
524.0 0.001908 357.17593 550.21002
553.0 0.001808 357.24301 554.92010
603.0 0.001658 357.31024 559.42383
598.0 0.001672 357.37729 563.64221
594.0 0.001684 357.44455 567.72888
584.0 0.001712 357.51181 571.16046
595.0 0.001681 357.57889 574.12128
622.0 0.001608 357.64621 576.46552
649.0 0.001541 357.71338 578.08490
619.0 0.001616 357.78073 579.18121
596.0 0.001678 357.84802 579.66895
608.0 0.001645 357.91531 579.65356
619.0 0.001616 357.98267 579.21411
613.0 0.001631 358.05002 578.43085
592.0 0.001689 358.11755 577.44220
599.0 0.001669 358.18488 576.13647
599.0 0.001669 358.25232 574.90997
585.0 0.001709 358.31982 573.52063
593.0 0.001686 358.38733 572.10565
575.0 0.001739 358.45496 570.91870
582.0 0.001718 358.52255 569.43481
609.0 0.001642 358.59015 568.23804
557.0 0.001795 358.65784 567.27161
576.0 0.001736 358.72546 566.54974
557.0 0.001795 358.79330 566.21307
564.0 0.001773 358.86105 566.09119
535.0 0.001869 358.92883 566.34296
555.0 0.001802 358.99677 567.03821
552.0 0.001812 359.06464 568.12573
563.0 0.001776 359.13266 569.48871
601.0 0.001664 359.20068 571.33014
556.0 0.001799 359.26865 573.44470
631.0 0.001585 359.33676 575.88696
594.0 0.001684 359.40491 578.57715
576.0 0.001736 359.47321 581.42889
604.0 0.001656 359.54147 584.36108
586.0 0.001706 359.60971 587.40259
600.0 0.001667 359.67807 590.29254
605.0 0.001653 359.74655 593.31464
619.0 0.001616 359.81506 596.04645
602.0 0.001661 359.88361 598.34485
611.0 0.001637 359.95218 600.23560
620.0 0.001613 360.02081 601.49017
609.0 0.001642 360.08960 601.89777
594.0 0.001684 360.15845 601.38031
631.0 0.001585 360.22729 599.72272
620.0 0.001613 360.29617 597.10474
610.0 0.001639 360.36526 593.51514
574.0 0.001742 360.43430 589.10034
591.0 0.001692 360.50351 583.69385
536.0 0.001866 360.57269 577.71069
570.0 0.001754 360.64194 571.32172
550.0 0.001818 360.71136 564.59509
542.0 0.001845 360.78088 557.82935
557.0 0.001795 360.85037 551.13660
522.0 0.001916 360.92004 544.82080
527.0 0.001898 360.98969 538.98578
511.0 0.001957 361.05954 533.79779
482.0 0.002075 361.12936 529.27637
480.0 0.002083 361.19940 525.56079
491.0 0.002037 361.26950 522.72662
510.0 0.001961 361.33960 520.81561
499.0 0.002004 361.40988 519.75464
497.0 0.002012 361.48019 519.69562
484.0 0.002066 361.55069 520.53113
505.0 0.001980 361.62125 522.18542
537.0 0.001862 361.69177 524.58752
515.0 0.001942 361.76263 527.40479
486.0 0.002058 361.83340 530.88660
486.0 0.002058 361.90445 534.82660
517.0 0.001934 361.97546 538.93103
510.0 0.001961 362.04663 543.10962
507.0 0.001972 362.11792 547.23450
520.0 0.001923 362.18930 551.30475
527.0 0.001898 362.26083 555.19751
533.0 0.001876 362.33249 558.85175
532.0 0.001880 362.40417 562.24255
566.0 0.001767 362.47610 565.20691
547.0 0.001828 362.54813 567.72913
557.0 0.001795 362.62021 569.74890
598.0 0.001672 362.69260 571.35278
588.0 0.001701 362.76486 572.45215
574.0 0.001742 362.83737 573.03552
599.0 0.001669 362.90997 573.11212
580.0 0.001724 362.98279 572.68268
590.0 0.001695 363.05573 571.79932
550.0 0.001818 363.12866 570.46472
566.0 0.001767 363.20200 568.92072
557.0 0.001795 363.27527 567.27863
560.0 0.001786 363.34875 565.71063
558.0 0.001792 363.42242 564.38861
556.0 0.001799 363.49609 563.47784
568.0 0.001761 363.57007 563.17590
533.0 0.001876 363.64413 563.46362
577.0 0.001733 363.71841 564.46790
551.0 0.001815 363.79282 566.21484
557.0 0.001795 363.86728 568.69171
568.0 0.001761 363.94202 571.86871
551.0 0.001815 364.01688 575.69122
612.0 0.001634 364.09198 580.00275
553.0 0.001808 364.16714 584.86908
607.0 0.001647 364.24246 589.84271
577.0 0.001733 364.31812 594.93719
548.0 0.001825 364.39377 600.03174
607.0 0.001647 364.46973 604.88837
655.0 0.001527 364.54581 609.33984
663.0 0.001508 364.62198 613.29877
630.0 0.001587 364.69849 616.56805
614.0 0.001629 364.77518 619.05359
664.0 0.001506 364.85202 620.65454
680.0 0.001471 364.92905 621.35461
630.0 0.001587 365.00616 621.18591
634.0 0.001577 365.08362 620.21582
602.0 0.001661 365.16119 618.54053
639.0 0.001565 365.23904 616.45056
631.0 0.001585 365.31705 614.09753
594.0 0.001684 365.39523 611.57007
591.0 0.001692 365.47369 609.05695
594.0 0.001684 365.55228 606.68713
591.0 0.001692 365.63123 604.51666
593.0 0.001686 365.71030 602.70227
599.0 0.001669 365.78949 601.07312
604.0 0.001656 365.86905 599.66162
594.0 0.001684 365.94876 598.51202
597.0 0.001675 366.02872 597.41418
635.0 0.001575 366.10895 596.41986
610.0 0.001639 366.18930 595.47815
607.0 0.001647 366.27002 594.63403
589.0 0.001698 366.35083 593.90033
587.0 0.001704 366.43201 593.45404
607.0 0.001647 366.51343 593.23364
610.0 0.001639 366.59494 593.38885
616.0 0.001623 366.67691 594.06232
624.0 0.001603 366.75897 595.32117
634.0 0.001577 366.84143 597.25293
637.0 0.001570 366.92404 599.93420
617.0 0.001621 367.00681 603.44489
602.0 0.001661 367.09006 607.85608
606.0 0.001650 367.17340 613.23315
645.0 0.001550 367.25720 619.65112
631.0 0.001585 367.34109 627.14056
643.0 0.001555 367.42526 635.71222
649.0 0.001541 367.50986 645.37299
662.0 0.001511 367.59457 656.05713
651.0 0.001536 367.67969 667.65070
678.0 0.001475 367.76511 679.91760
702.0 0.001425 367.85062 692.64355
764.0 0.001309 367.93665 705.56348
764.0 0.001309 368.02289 718.28174
726.0 0.001377 368.10944 730.45642
748.0 0.001337 368.19620 741.56531
751.0 0.001332 368.28329 751.21259
815.0 0.001227 368.37085 759.07440
855.0 0.001170 368.45850 764.74652
855.0 0.001170 368.54663 768.07220
841.0 0.001189 368.63510 768.97308
821.0 0.001218 368.72369 767.50403
846.0 0.001182 368.81274 764.10944
818.0 0.001222 368.90201 758.55219
835.0 0.001198 368.99182 751.41663
816.0 0.001225 369.08191 743.37756
793.0 0.001261 369.17215 734.28082
788.0 0.001269 369.26288 724.78101
784.0 0.001276 369.35391 715.29120
766.0 0.001305 369.44534 706.14587
694.0 0.001441 369.53702 697.67798
680.0 0.001471 369.62906 690.15332
673.0 0.001486 369.72162 683.75842
650.0 0.001538 369.81433 678.65802
672.0 0.001488 369.90759 674.92474
681.0 0.001468 370.00113 672.59552
675.0 0.001481 370.09500 671.64282
664.0 0.001506 370.18930 672.16028
657.0 0.001522 370.28394 673.70709
674.0 0.001484 370.37909 676.30957
684.0 0.001462 370.47443 679.79681
682.0 0.001466 370.57016 683.97906
657.0 0.001522 370.66653 688.67084
673.0 0.001486 370.76303 693.67200
721.0 0.001387 370.86011 698.66107
715.0 0.001399 370.95746 703.66595
705.0 0.001418 371.05521 708.43140
701.0 0.001427 371.15350 712.91693
729.0 0.001372 371.25214 716.93225
741.0 0.001350 371.35126 720.52209
752.0 0.001330 371.45071 723.53137
742.0 0.001348 371.55057 726.42871
738.0 0.001355 371.65100 728.89307
732.0 0.001366 371.75171 731.12531
768.0 0.001302 371.85306 733.20624
739.0 0.001353 371.95462 734.87695
738.0 0.001355 372.05667 736.25360
734.0 0.001362 372.15927 737.35724
744.0 0.001344 372.26221 738.08838
776.0 0.001289 372.36575 738.40405
796.0 0.001256 372.46976 737.97217
770.0 0.001299 372.57394 737.01385
776.0 0.001289 372.67889 735.34082
783.0 0.001277 372.78421 732.73584
792.0 0.001263 372.89008 729.35284
785.0 0.001274 372.99640 725.15692
782.0 0.001279 373.10312 720.23004
752.0 0.001330 373.21039 714.80878
719.0 0.001391 373.31818 708.93323
726.0 0.001377 373.42645 702.85901
762.0 0.001312 373.53531 696.90619
732.0 0.001366 373.64444 691.33313
649.0 0.001541 373.75433 686.12659
709.0 0.001410 373.86453 681.64380
656.0 0.001524 373.97540 677.94427
661.0 0.001513 374.08682 675.10944
605.0 0.001653 374.19858 673.11768
664.0 0.001506 374.31113 672.09155
690.0 0.001449 374.42401 671.87506
644.0 0.001553 374.53760 672.58142
642.0 0.001558 374.65161 673.81934
658.0 0.001520 374.76614 675.63275
652.0 0.001534 374.88138 677.89856
701.0 0.001427 374.99701 680.63574
710.0 0.001408 375.11337 683.31909
713.0 0.001403 375.23022 686.06927
736.0 0.001359 375.34760 688.63690
716.0 0.001397 375.46567 690.93921
720.0 0.001389 375.58414 692.48438
744.0 0.001344 375.70343 693.53564
739.0 0.001353 375.82318 693.66809
742.0 0.001348 375.94342 692.91772
698.0 0.001433 376.06454 691.30084
713.0 0.001403 376.18613 688.74878
709.0 0.001410 376.30838 685.41760
721.0 0.001387 376.43118 681.43402
688.0 0.001453 376.55450 676.95752
669.0 0.001495 376.67868 672.13867
665.0 0.001504 376.80334 667.19031
684.0 0.001462 376.92874 662.19458
711.0 0.001406 377.05478 657.34033
676.0 0.001479 377.18121 652.76019
647.0 0.001546 377.30862 648.54980
630.0 0.001587 377.43646 644.80402
605.0 0.001653 377.56522 641.56573
624.0 0.001603 377.69455 638.86163
612.0 0.001634 377.82440 636.67963
595.0 0.001681 377.95499 634.97430
588.0 0.001701 378.08630 633.71704
586.0 0.001706 378.21841 632.85132
592.0 0.001689 378.35114 632.16284
600.0 0.001667 378.48444 631.63019
593.0 0.001686 378.61859 631.25140
648.0 0.001543 378.75336 630.99481
632.0 0.001582 378.88892 630.62360
603.0 0.001658 379.02527 630.31433
608.0 0.001645 379.16208 629.98199
658.0 0.001520 379.29990 629.62836
605.0 0.001653 379.43829 629.26471
602.0 0.001661 379.57755 628.94525
608.0 0.001645 379.71756 628.63611
621.0 0.001610 379.85809 628.50214
573.0 0.001745 379.99966 628.55676
633.0 0.001580 380.14185 628.81592
604.0 0.001656 380.28491 629.33716
622.0 0.001608 380.42868 630.09607
587.0 0.001704 380.57309 631.19281
601.0 0.001664 380.71854 632.45636
625.0 0.001600 380.86462 634.02344
594.0 0.001684 381.01172 635.86517
642.0 0.001558 381.15945 637.81256
633.0 0.001580 381.30780 639.82349
602.0 0.001661 381.45731 641.83990
666.0 0.001502 381.60745 643.74530
661.0 0.001513 381.75858 645.47900
584.0 0.001712 381.91046 646.98645
636.0 0.001572 382.06299 648.15222
669.0 0.001495 382.21674 648.94116
657.0 0.001522 382.37103 649.30566
679.0 0.001473 382.52646 649.21027
667.0 0.001499 382.68259 648.58929
674.0 0.001484 382.83942 647.38757
653.0 0.001531 382.99750 645.69647
660.0 0.001515 383.15610 643.57269
717.0 0.001395 383.31589 640.91345
651.0 0.001536 383.47659 637.84912
606.0 0.001650 383.63776 634.53265
623.0 0.001605 383.80029 631.08728
617.0 0.001621 383.96350 627.61108
614.0 0.001629 384.12787 624.23419
617.0 0.001621 384.29303 620.98291
597.0 0.001675 384.45898 618.00220
611.0 0.001637 384.62604 615.40778
615.0 0.001626 384.79404 613.16296
599.0 0.001669 384.96304 611.27203
585.0 0.001709 385.13297 609.76080
580.0 0.001724 385.30365 608.58435
575.0 0.001739 385.47556 607.65808
589.0 0.001698 385.64841 606.91803
600.0 0.001667 385.82230 606.28961
597.0 0.001675 385.99716 605.70129
587.0 0.001704 386.17276 605.07819
607.0 0.001647 386.34970 604.34985
578.0 0.001730 386.52740 603.46692
546.0 0.001832 386.70648 602.37061
583.0 0.001715 386.88632 601.05402
599.0 0.001669 387.06705 599.46674
623.0 0.001605 387.24918 597.53027
629.0 0.001590 387.43207 595.51050
585.0 0.001709 387.61633 593.36304
597.0 0.001675 387.80139 591.13184
594.0 0.001684 387.98746 588.89923
604.0 0.001656 388.17496 586.73175
576.0 0.001736 388.36322 584.78491
559.0 . . .
loop_
_refln_index_h
_refln_index_k
_refln_index_l
_pd_refln_wavelength_id
_refln_observed_status
_refln_F_squared_meas
_refln_F_squared_calc
_refln_phase_calc
_refln_d_spacing
_gsas_i100_meas
0 2 0 1 o 30660.871 30908.822 0.00 6.66014 8.82
0 2 0 2 o 30654.752 30908.822 0.00 6.66014 4.39
1 1 1 1 o 20732.033 20266.014 0.00 6.06625 19.34
1 1 1 2 o 20385.063 20266.014 0.00 6.06625 9.44
2 0 0 1 o 2232.128 3282.514 180.00 4.84116 0.06
2 0 0 2 o 2386.164 3282.514 180.00 4.84116 0.04
0 0 2 1 o 46073.74 49633.32 0.00 4.79544 5.08
0 0 2 2 o 47437.95 49633.32 0.00 4.79544 2.63
1 2 1 1 o 3016.781 3079.082 0.00 4.76285 0.72
1 2 1 2 o 2977.636 3079.082 0.00 4.76285 0.35
2 1 0 1 o 157497.06 163217.45 180.00 4.54997 37.36
2 1 0 2 o 161693.25 163217.45 180.00 4.54997 19.18
1 0 2 1 o 225246.16 235115.55 0.00 4.29726 48.55
1 0 2 2 o 228571.27 235115.55 0.00 4.29726 24.57
2 1 1 1 o 101930.45 103277.40 0.00 4.11083 40.62
2 1 1 2 o 102348.79 103277.40 0.00 4.11083 20.30
1 1 2 1 o 112972.44 112583.96 0.00 4.08970 44.63
1 1 2 2 o 114429.27 112583.96 0.00 4.08970 22.53
0 3 1 1 o 500375.4 508276.9 180.00 4.02926 100.00
0 3 1 2 o 507500.8 508276.9 180.00 4.02926 50.57
2 2 0 1 o 78881.28 78107.90 180.00 3.91594 14.24
2 2 0 2 o 80626.58 78107.90 180.00 3.91594 7.27
0 2 2 1 o 51710.09 48973.90 0.00 3.89163 9.28
0 2 2 2 o 52994.67 48973.90 0.00 3.89163 4.75
1 3 1 1 o 91361.09 83365.11 180.00 3.72000 31.62
1 3 1 2 o 93284.84 83365.11 180.00 3.72000 16.10
2 2 1 1 o 208526.50 204507.78 180.00 3.62539 65.25
2 2 1 2 o 205439.81 204507.78 180.00 3.62539 31.91
1 2 2 1 o 340.118 150.756 0.00 3.61087 0.12
1 2 2 2 o 1335.272 150.756 0.00 3.61087 0.24
2 0 2 1 o 172359.56 167403.30 180.00 3.40694 24.84
2 0 2 2 o 164724.39 167403.30 180.00 3.40694 11.77
0 4 0 1 o 131157.94 125178.45 180.00 3.33007 9.68
0 4 0 2 o 130515.11 125178.45 180.00 3.33007 4.79
2 1 2 1 o 20408.420 20278.271 180.00 3.30068 5.37
2 3 0 1 o 43852.08 45956.01 180.00 3.27224 5.43
2 1 2 2 o 19957.699 20278.271 180.00 3.30068 2.61
2 3 0 2 o 42861.94 45956.01 180.00 3.27224 2.63
0 1 3 1 o 158380.06 151275.13 180.00 3.10868 17.73
0 1 3 2 o 157269.17 151275.13 180.00 3.10868 8.75
2 3 1 1 o 57526.96 55480.42 0.00 3.09695 13.04
2 3 1 2 o 57237.36 55480.42 0.00 3.09695 6.45
1 3 2 1 o 27365.488 26608.840 0.00 3.08788 6.18
1 3 2 2 o 26782.668 26608.840 0.00 3.08788 3.00
2 2 2 1 o 65958.59 62500.93 180.00 3.03313 14.00
2 2 2 2 o 62904.57 62500.93 180.00 3.03313 6.59
1 4 1 1 o 17759.602 16934.199 180.00 2.99188 3.92
1 4 1 2 o 17923.125 16934.199 180.00 2.99188 1.97
3 1 1 1 o 61316.38 58086.43 0.00 2.98129 12.90
3 1 1 2 o 59423.32 58086.43 0.00 2.98129 6.19
1 1 3 1 o 2734.468 3220.347 0.00 2.95986 0.48
1 1 3 2 o 1849.636 3220.347 0.00 2.95986 0.13
3 2 1 1 o 40395.94 40533.41 180.00 2.77973 7.31
3 2 1 2 o 41123.86 40533.41 180.00 2.77973 3.71
1 2 3 1 o 136194.42 136738.53 0.00 2.76233 24.13
1 2 3 2 o 132623.36 136738.53 0.00 2.76233 11.64
2 4 0 1 o 95339.14 95914.17 180.00 2.74365 8.55
2 4 0 2 o 92975.46 95914.17 180.00 2.74365 4.13
0 4 2 1 o 23094.121 24120.375 0.00 2.73524 2.14
0 4 2 2 o 21385.275 24120.375 0.00 2.73524 0.98
2 3 2 1 o 4060.263 4133.988 180.00 2.70292 0.72
2 3 2 2 o 4639.560 4133.988 180.00 2.70292 0.41
3 0 2 1 o 103775.49 91647.33 0.00 2.67751 8.40
3 0 2 2 o 98042.09 91647.33 0.00 2.67751 3.91
2 4 1 1 o 35077.87 33060.855 0.00 2.63784 5.66
1 4 2 1 o 29105.121 27928.043 180.00 2.63223 4.47
2 4 1 2 o 34610.496 33060.855 0.00 2.63784 2.77
1 4 2 2 o 29792.662 27928.043 180.00 2.63223 2.29
3 1 2 1 o 37788.62 35419.98 180.00 2.62500 5.60
3 1 2 2 o 37369.46 35419.98 180.00 2.62500 2.75
2 1 3 1 o 39020.59 37751.90 0.00 2.61581 5.86
2 1 3 2 o 36649.39 37751.90 0.00 2.61581 2.70
0 3 3 1 o 177.237 207.339 180.00 2.59442 0.01
0 3 3 2 o 218.396 207.339 180.00 2.59442 0.01
0 5 1 1 o 62311.51 58091.19 180.00 2.56687 4.61
0 5 1 2 o 57396.29 58091.19 180.00 2.56687 2.07
3 3 1 1 o 25678.846 25511.916 180.00 2.51898 3.63
3 3 1 2 o 26826.131 25511.916 180.00 2.51898 1.90
1 3 3 1 o 159199.48 154249.06 180.00 2.50601 22.42
1 3 3 2 o 151848.00 154249.06 180.00 2.50601 10.54
3 2 2 1 o 10047.024 10363.729 180.00 2.48427 1.19
1 5 1 1 o 4952.903 4987.181 180.00 2.48116 0.70
3 2 2 2 o 10473.625 10363.729 180.00 2.48427 0.63
2 2 3 1 o 20265.236 20102.844 0.00 2.47648 2.59
1 5 1 2 o 4986.848 4987.181 180.00 2.48116 0.35
2 2 3 2 o 18714.715 20102.844 0.00 2.47648 1.16
4 0 0 1 o 36272.74 41001.79 180.00 2.42058 1.07
4 0 0 2 o 36928.26 41001.79 180.00 2.42058 0.54
0 0 4 1 o 59377.42 53854.61 180.00 2.39772 1.86
0 0 4 2 o 63008.13 53854.61 180.00 2.39772 0.99
4 1 0 1 o 8731.081 7694.186 180.00 2.38158 0.56
2 4 2 1 o 33343.480 29866.154 180.00 2.38143 3.96
4 1 0 2 o 8098.498 7694.186 180.00 2.38158 0.26
2 4 2 2 o 31220.344 29866.154 180.00 2.38143 1.81
2 5 0 1 o 166495.63 158157.27 0.00 2.33400 10.04
2 5 0 2 o 163511.75 158157.27 0.00 2.33400 4.89
1 0 4 1 o 43766.01 42317.08 0.00 2.32742 2.36
1 0 4 2 o 44137.46 42317.08 0.00 2.32742 1.19
4 1 1 1 o 205299.47 192172.41 180.00 2.31138 23.77
4 1 1 2 o 196850.47 192172.41 180.00 2.31138 11.24
3 3 2 1 o 39176.60 36118.98 180.00 2.29288 4.93
1 1 4 1 o 7007.197 6558.333 0.00 2.29268 0.72
3 3 2 2 o 37938.23 36118.98 180.00 2.29288 2.36
1 1 4 2 o 6815.413 6558.333 0.00 2.29268 0.34
2 3 3 1 o 33131.496 31873.799 0.00 2.28674 3.65
2 3 3 2 o 31879.043 31873.799 0.00 2.28674 1.73
4 2 0 1 o 74936.21 75386.05 0.00 2.27499 3.99
4 2 0 2 o 74942.27 75386.05 0.00 2.27499 1.98
2 5 1 1 o 43798.46 44802.41 0.00 2.26781 4.98
1 5 2 1 o 48796.68 51318.48 180.00 2.26425 5.06
2 5 1 2 o 42427.60 44802.41 0.00 2.26781 2.38
1 5 2 2 o 49943.69 51318.48 180.00 2.26425 2.60
0 2 4 1 o 77361.86 78533.48 0.00 2.25598 4.24
3 4 1 1 o 5327.227 5405.604 0.00 2.25274 0.58
0 2 4 2 o 76652.57 78533.48 0.00 2.25598 2.08
3 4 1 2 o 5202.324 5405.604 0.00 2.25274 0.28
1 4 3 1 o 21681.322 22353.297 180.00 2.24345 2.39
3 1 3 1 o 50800.73 51045.12 0.00 2.23898 4.96
1 4 3 2 o 22202.588 22353.297 180.00 2.24345 1.22
3 1 3 2 o 50829.78 51045.12 0.00 2.23898 2.47
0 6 0 1 o 275731.66 268184.16 0.00 2.22005 7.72
0 6 0 2 o 279296.13 268184.16 0.00 2.22005 3.90
4 2 1 1 o 6651.164 6323.008 180.00 2.21356 0.74
4 2 1 2 o 6646.371 6323.008 180.00 2.21356 0.37
1 2 4 1 o 7718.446 7960.540 0.00 2.19713 0.77
1 2 4 2 o 8060.184 7960.540 0.00 2.19713 0.40
4 0 2 1 o 605.823 382.834 180.00 2.16090 0.07
4 0 2 2 o 327.618 382.834 180.00 2.16090 0.03
3 2 3 1 o 10528.684 9303.472 180.00 2.14972 0.76
2 0 4 1 o 10975.937 9711.419 180.00 2.14863 0.42
3 2 3 2 o 10270.080 9303.472 180.00 2.14972 0.36
2 0 4 2 o 10753.203 9711.419 180.00 2.14863 0.20
4 1 2 1 o 6162.310 6172.989 180.00 2.13301 0.72
4 1 2 2 o 6083.654 6172.989 180.00 2.13301 0.35
4 3 0 1 o 608.224 597.000 180.00 2.12528 0.03
2 1 4 1 o 130504.48 123091.62 0.00 2.12121 12.92
4 3 0 2 o 622.485 597.000 180.00 2.12528 0.01
2 1 4 2 o 125904.82 123091.62 0.00 2.12121 6.16
1 6 1 1 o 44.661 48.213 180.00 2.11083 0.01
1 6 1 2 o 66.366 48.213 180.00 2.11083 0.01
2 5 2 1 o 36965.13 32169.982 0.00 2.09863 3.95
2 5 2 2 o 35726.41 32169.982 0.00 2.09863 1.89
3 4 2 1 o 106217.98 105242.11 180.00 2.08667 9.69
2 4 3 1 o 7101.100 7329.182 180.00 2.08204 0.67
3 4 2 2 o 101626.73 105242.11 180.00 2.08667 4.56
2 4 3 2 o 6618.163 7329.182 180.00 2.08204 0.30
4 3 1 1 o 11276.914 12995.608 0.00 2.07494 1.04
4 3 1 2 o 10661.742 12995.608 0.00 2.07494 0.48
1 3 4 1 o 7039.312 7220.264 0.00 2.06138 0.67
1 3 4 2 o 7514.357 7220.264 0.00 2.06138 0.36
4 2 2 1 o 76042.40 73005.11 0.00 2.05542 7.01
4 2 2 2 o 75674.07 73005.11 0.00 2.05542 3.47
0 5 3 1 o 55197.77 54183.98 180.00 2.04661 2.69
2 2 4 1 o 31377.357 31332.738 180.00 2.04485 2.80
0 5 3 2 o 51636.52 54183.98 180.00 2.04661 1.24
2 2 4 2 o 29319.145 31332.738 180.00 2.04485 1.28
3 3 3 1 o 19116.977 17436.100 180.00 2.02208 1.53
2 6 0 1 o 62310.60 59948.30 180.00 2.01798 2.95
3 3 3 2 o 17834.160 17436.100 180.00 2.02208 0.69
0 6 2 1 o 93453.22 92718.04 0.00 2.01463 4.27
2 6 0 2 o 60735.19 59948.30 180.00 2.01798 1.43
0 6 2 2 o 95743.61 92718.04 0.00 2.01463 2.18
3 5 1 1 o 673.823 642.969 180.00 2.00896 0.08
3 5 1 2 o 620.256 642.969 180.00 2.00896 0.04
1 5 3 1 o 22355.166 23460.020 180.00 2.00236 1.91
1 5 3 2 o 21840.377 23460.020 180.00 2.00236 0.92
2 6 1 1 o 105515.77 99349.74 0.00 1.97474 9.47
1 6 2 1 o 94753.95 91168.58 0.00 1.97238 8.37
2 6 1 2 o 102948.23 99349.74 0.00 1.97474 4.58
1 6 2 2 o 94790.09 91168.58 0.00 1.97238 4.17
4 4 0 1 o 365728.6 374277.8 0.00 1.95797 14.82
4 4 0 2 o 368948.3 374277.8 0.00 1.95797 7.45
0 4 4 1 o 200738.67 201561.05 0.00 1.94581 7.74
4 3 2 1 o 6337.310 6447.131 180.00 1.94301 0.63
0 4 4 2 o 199375.75 201561.05 0.00 1.94581 3.82
4 3 2 2 o 6419.275 6447.131 180.00 1.94301 0.32
2 3 4 1 o 48887.86 48978.19 0.00 1.93407 4.12
2 3 4 2 o 46125.36 48978.19 0.00 1.93407 1.92
3 0 4 1 o 472.250 564.020 180.00 1.92470 0.03
3 0 4 2 o 534.312 564.020 180.00 1.92470 0.02
4 4 1 1 o 3431.194 3393.031 0.00 1.91840 0.30
4 4 1 2 o 3414.290 3393.031 0.00 1.91840 0.15
4 1 3 1 o 13513.783 14272.786 180.00 1.90988 1.07
3 1 4 2 o 25542.854 25042.521 180.00 1.90492 1.03
1 4 4 1 o 1636.313 1714.243 0.00 1.90767 0.15
0 1 5 1 o 146562.55 144884.13 180.00 1.89859 5.39
4 1 3 2 o 14120.282 14272.786 180.00 1.90988 0.56
3 1 4 1 o 24781.936 25042.521 180.00 1.90492 2.01
1 4 4 2 o 1703.386 1714.243 0.00 1.90767 0.08
0 1 5 2 o 145141.47 144884.13 180.00 1.89859 2.65
3 5 2 1 o 53268.45 53714.91 0.00 1.88851 3.98
2 5 3 1 o 32379.451 32291.832 0.00 1.88508 2.42
3 5 2 2 o 54319.88 53714.91 0.00 1.88851 2.03
2 5 3 2 o 34419.871 32291.832 0.00 1.88508 1.30
5 1 1 1 o 851.582 823.790 180.00 1.87918 0.02
3 4 3 1 o 23797.830 21360.473 0.00 1.87640 1.89
5 1 1 2 o 853.779 823.790 180.00 1.87918 0.01
3 4 3 2 o 23733.879 21360.473 0.00 1.87640 0.94
0 7 1 1 o 41902.55 38788.44 0.00 1.86651 1.75
1 1 5 1 o 29943.281 28318.939 180.00 1.86311 2.12
0 7 1 2 o 39990.79 38788.44 0.00 1.86651 0.82
2 6 2 1 o 25121.064 25135.307 180.00 1.86000 1.77
1 1 5 2 o 28010.830 28318.939 180.00 1.86311 0.97
2 6 2 2 o 24285.322 25135.307 180.00 1.86000 0.84
4 2 3 1 o 4254.366 4430.877 0.00 1.85358 0.34
3 2 4 1 o 43874.24 43426.21 180.00 1.84904 3.23
4 2 3 2 o 4481.862 4430.877 0.00 1.85358 0.18
3 2 4 2 o 47601.58 43426.21 180.00 1.84904 1.77
1 7 1 1 o 29696.406 31064.553 0.00 1.83277 2.26
1 7 1 2 o 30162.473 31064.553 0.00 1.83277 1.15
5 2 1 1 o 76523.52 73567.72 180.00 1.82547 5.59
5 2 1 2 o 84278.00 73567.72 180.00 1.82547 3.10
4 4 2 1 o 141686.14 139881.31 0.00 1.81270 10.30
1 2 5 1 o 24964.168 23804.064 180.00 1.81073 2.02
4 4 2 2 o 147416.13 139881.31 0.00 1.81270 5.36
1 2 5 2 o 25348.984 23804.064 180.00 1.81073 1.02
2 4 4 1 o 67112.69 62899.51 180.00 1.80544 5.14
2 4 4 2 o 66465.54 62899.51 180.00 1.80544 2.53
3 6 1 1 o 50031.57 48487.77 0.00 1.79672 3.89
5 0 2 1 o 17218.527 16665.980 180.00 1.79559 0.55
3 6 1 2 o 48956.13 48487.77 0.00 1.79672 1.89
1 6 3 1 o 92846.65 91775.66 180.00 1.79199 6.90
4 5 0 1 o 2717.809 2680.090 0.00 1.79152 0.08
5 0 2 2 o 17000.236 16665.980 180.00 1.79559 0.27
1 6 3 2 o 93927.35 91775.66 180.00 1.79199 3.48
4 5 0 2 o 2723.438 2680.090 0.00 1.79152 0.04
5 1 2 1 o 69046.13 70228.85 180.00 1.77950 4.43
5 1 2 2 o 68653.55 70228.85 180.00 1.77950 2.19
2 7 0 1 o 8794.645 9513.046 180.00 1.77100 0.35
4 3 3 1 o 105114.44 110449.43 180.00 1.76988 6.70
2 1 5 1 o 16889.355 17129.779 0.00 1.76753 1.09
2 7 0 2 o 9470.141 9513.046 180.00 1.77100 0.19
3 3 4 1 o 1922.391 1914.321 180.00 1.76592 0.12
4 3 3 2 o 111423.08 110449.43 180.00 1.76988 3.58
2 1 5 2 o 17466.236 17129.779 0.00 1.76753 0.57
3 3 4 2 o 1954.890 1914.321 180.00 1.76592 0.06
4 5 1 1 o 26361.783 25692.750 180.00 1.76106 1.75
0 3 5 1 o 82818.98 80547.49 0.00 1.76088 2.75
4 5 1 2 o 26120.260 25692.750 180.00 1.76106 0.86
0 3 5 2 o 81644.10 80547.49 0.00 1.76088 1.35
1 5 4 1 o 32605.572 35174.59 180.00 1.75274 2.17
1 5 4 2 o 32656.967 35174.59 180.00 1.75274 1.08
5 3 1 1 o 4758.195 4783.828 0.00 1.74536 0.27
2 7 1 1 o 49807.69 55378.23 0.00 1.74156 3.16
5 3 1 2 o 4367.656 4783.828 0.00 1.74536 0.12
1 7 2 1 o 126.467 137.089 0.00 1.73994 0.01
2 7 1 2 o 48375.23 55378.23 0.00 1.74156 1.52
1 7 2 2 o 122.272 137.089 0.00 1.73994 0.00
5 2 2 1 o 15057.343 17026.049 0.00 1.73369 0.92
1 3 5 1 o 8410.791 9504.675 180.00 1.73246 0.48
5 2 2 2 o 14649.323 17026.049 0.00 1.73369 0.44
3 5 3 1 o 7580.669 9011.697 0.00 1.72839 0.54
1 3 5 2 o 8235.252 9504.675 180.00 1.73246 0.23
3 5 3 2 o 8110.688 9011.697 0.00 1.72839 0.29
2 2 5 1 o 176263.81 186750.95 0.00 1.72261 10.71
2 2 5 2 o 184521.25 186750.95 0.00 1.72261 5.63
3 6 2 1 o 11766.259 14255.646 0.00 1.70900 0.65
2 6 3 1 o 12548.153 14770.779 180.00 1.70646 0.74
3 6 2 2 o 13173.246 14255.646 0.00 1.70900 0.37
4 0 4 1 o 387035.9 397577.8 0.00 1.70347 11.83
2 6 3 2 o 14738.586 14770.779 180.00 1.70646 0.45
4 0 4 2 o 412176.4 397577.8 0.00 1.70347 6.33
4 1 4 1 o 17410.689 17297.223 0.00 1.68971 1.17
4 1 4 2 o 17323.887 17297.223 0.00 1.68971 0.58
4 5 2 1 o 5756.950 5783.630 0.00 1.67823 0.41
4 5 2 2 o 5893.013 5783.630 0.00 1.67823 0.21
2 5 4 1 o 126222.86 124345.48 180.00 1.67246 7.36
4 4 3 1 o 318.469 308.450 180.00 1.66971 0.02
2 5 4 2 o 126500.40 124345.48 180.00 1.67246 3.67
3 4 4 1 o 76328.78 76319.83 180.00 1.66639 4.38
4 4 3 2 o 308.637 308.450 180.00 1.66971 0.01
0 8 0 1 o 315678.25 313855.09 0.00 1.66503 4.99
5 3 2 1 o 26382.988 26086.248 180.00 1.66462 1.54
3 4 4 2 o 79081.00 76319.83 180.00 1.66639 2.27
2 7 2 1 o 572.889 541.864 0.00 1.66132 0.05
0 8 0 2 o 328785.59 313855.09 0.00 1.66503 2.60
5 3 2 2 o 27455.203 26086.248 180.00 1.66462 0.80
2 7 2 2 o 569.043 541.864 0.00 1.66132 0.02
2 3 5 1 o 34924.617 35780.04 0.00 1.65481 1.97
2 3 5 2 o 36081.33 35780.04 0.00 1.65481 1.02
4 2 4 1 o 12252.107 12072.707 0.00 1.65034 0.72
5 4 1 1 o 11541.411 11270.620 0.00 1.64907 0.65
4 2 4 2 o 12227.427 12072.707 0.00 1.65034 0.36
5 4 1 2 o 11606.386 11270.620 0.00 1.64907 0.33
5 1 3 1 o 94478.58 89675.28 180.00 1.64365 5.55
5 1 3 2 o 96800.98 89675.28 180.00 1.64365 2.84
1 4 5 1 o 259.273 247.489 0.00 1.63818 0.01
3 1 5 1 o 26599.123 26424.801 0.00 1.63644 1.54
4 6 0 1 o 5288.802 5292.033 180.00 1.63612 0.15
0 7 3 1 o 140090.75 141869.17 180.00 1.63516 4.03
1 4 5 2 o 244.373 247.489 0.00 1.63818 0.01
3 1 5 2 o 25864.871 26424.801 0.00 1.63644 0.74
4 6 0 2 o 5171.982 5292.033 180.00 1.63612 0.07
0 7 3 2 o 137997.61 141869.17 180.00 1.63516 1.97
0 6 4 1 o 9492.371 9813.304 180.00 1.62900 0.28
0 6 4 2 o 9306.762 9813.304 180.00 1.62900 0.13
1 8 1 1 o 30921.047 30676.457 0.00 1.61744 1.79
3 7 1 1 o 73026.56 72835.81 0.00 1.61576 4.17
6 0 0 1 o 71657.21 70694.52 180.00 1.61372 0.90
1 8 1 2 o 31127.482 30676.457 0.00 1.61744 0.90
4 6 1 1 o 1084.233 1069.810 0.00 1.61282 0.05
1 7 3 1 o 19362.627 19066.563 0.00 1.61233 1.03
3 7 1 2 o 74315.61 72835.81 0.00 1.61576 2.12
6 0 0 2 o 72861.60 70694.52 180.00 1.61372 0.46
4 6 1 2 o 1103.955 1069.810 0.00 1.61282 0.03
1 7 3 2 o 19701.867 19066.563 0.00 1.61233 0.52
5 2 3 1 o 64938.29 63022.34 180.00 1.60735 3.20
1 6 4 1 o 46280.21 45043.86 0.00 1.60643 2.49
5 2 3 2 o 63841.09 63022.34 180.00 1.60735 1.56
1 6 4 2 o 45544.32 45043.86 0.00 1.60643 1.21
6 1 0 1 o 172640.50 170858.42 0.00 1.60201 4.75
3 2 5 1 o 2586.969 2545.522 180.00 1.60060 0.20
0 0 6 1 o 59862.52 58217.72 180.00 1.59848 0.84
6 1 0 2 o 175579.72 170858.42 0.00 1.60201 2.41
3 2 5 2 o 2620.850 2545.522 180.00 1.60060 0.10
0 0 6 2 o 59233.33 58217.72 180.00 1.59848 0.41
4 3 4 1 o 8529.537 7937.634 0.00 1.59044 0.53
3 6 3 1 o 6371.393 5728.472 0.00 1.58762 0.25
4 3 4 2 o 9402.463 7937.634 0.00 1.59044 0.29
3 6 3 2 o 6053.080 5728.472 0.00 1.58762 0.11
5 4 2 1 o 65381.06 63383.93 0.00 1.58047 3.34
6 1 1 1 o 12792.735 12446.384 0.00 1.58012 0.60
1 0 6 1 o 4799.247 4595.180 180.00 1.57713 0.14
5 4 2 2 o 65748.63 63383.93 0.00 1.58047 1.67
6 1 1 2 o 12829.774 12446.384 0.00 1.58012 0.30
2 8 0 1 o 3677.557 3701.734 180.00 1.57451 0.05
1 0 6 2 o 4412.536 4595.180 180.00 1.57713 0.06
0 8 2 1 o 26543.018 27396.205 0.00 1.57292 0.59
2 4 5 1 o 39601.23 41080.88 180.00 1.57207 2.01
2 8 0 2 o 3627.304 3701.734 180.00 1.57451 0.03
0 8 2 2 o 26459.703 27396.205 0.00 1.57292 0.29
6 2 0 1 o 44570.68 46137.04 180.00 1.56834 1.14
2 4 5 2 o 39789.82 41080.88 180.00 1.57207 1.00
1 1 6 1 o 23294.633 23690.830 180.00 1.56619 1.11
6 2 0 2 o 45049.60 46137.04 180.00 1.56834 0.57
4 5 3 1 o 44620.65 45262.59 180.00 1.56285 2.24
1 1 6 2 o 23452.031 23690.830 180.00 1.56619 0.56
3 5 4 1 o 9206.959 9072.377 0.00 1.56013 0.44
4 5 3 2 o 47153.48 45262.59 180.00 1.56285 1.19
0 5 5 1 o 3744.967 3510.238 180.00 1.55665 0.09
3 5 4 2 o 9615.436 9072.377 0.00 1.56013 0.23
0 2 6 1 o 29624.137 28898.174 0.00 1.55434 0.71
2 8 1 1 o 67696.41 66196.27 180.00 1.55371 3.46
0 5 5 2 o 3596.232 3510.238 180.00 1.55665 0.04
1 8 2 1 o 29722.303 29011.541 0.00 1.55257 1.44
5 3 3 1 o 20175.057 19639.600 0.00 1.55185 1.09
3 7 2 1 o 7.570 7.145 0.00 1.55108 0.00
0 2 6 2 o 29106.260 28898.174 0.00 1.55434 0.35
2 8 1 2 o 66198.60 66196.27 180.00 1.55371 1.67
2 7 3 1 o 31862.336 31949.396 0.00 1.54918 1.62
1 8 2 2 o 28964.908 29011.541 0.00 1.55257 0.69
4 6 2 1 o 22070.154 22083.559 0.00 1.54847 1.14
5 3 3 2 o 19668.699 19639.600 0.00 1.55185 0.53
6 2 1 1 o 99703.68 99487.20 0.00 1.54778 4.84
3 7 2 2 o 7.227 7.145 0.00 1.55108 0.00
5 5 1 1 o 2521.069 2515.236 180.00 1.54589 0.16
3 3 5 1 o 22040.945 22005.361 0.00 1.54578 0.98
2 7 3 2 o 32013.709 31949.396 0.00 1.54918 0.81
4 6 2 2 o 22171.824 22083.559 0.00 1.54847 0.57
6 2 1 2 o 100168.80 99487.20 0.00 1.54778 2.42
2 6 4 1 o 32986.066 32758.078 180.00 1.54394 1.63
5 5 1 2 o 2541.719 2515.236 180.00 1.54589 0.08
3 3 5 2 o 22157.412 22005.361 0.00 1.54578 0.49
2 6 4 2 o 32046.152 32758.078 180.00 1.54394 0.78
1 5 5 1 o 34922.730 36575.23 180.00 1.53691 1.78
1 2 6 1 o 45420.41 46596.71 0.00 1.53469 2.13
1 5 5 2 o 35313.86 36575.23 180.00 1.53691 0.90
1 2 6 2 o 45635.07 46596.71 0.00 1.53469 1.07
6 0 2 1 o 60641.41 61063.27 180.00 1.52944 1.46
6 0 2 2 o 61492.99 61063.27 180.00 1.52944 0.74
6 1 2 1 o 452.038 460.852 0.00 1.51946 0.01
2 0 6 1 o 35171.79 36246.52 180.00 1.51788 0.88
6 3 0 1 o 60360.40 61129.39 0.00 1.51666 1.53
4 4 4 1 o 46048.00 46577.29 180.00 1.51656 2.33
6 1 2 2 o 460.409 460.852 0.00 1.51946 0.00
2 0 6 2 o 36954.82 36246.52 180.00 1.51788 0.46
6 3 0 2 o 63834.20 61129.39 0.00 1.51666 0.81
4 4 4 2 o 48698.79 46577.29 180.00 1.51656 1.24
2 1 6 1 o 42058.15 40000.59 0.00 1.50812 1.88
5 0 4 1 o 497.096 487.117 0.00 1.50650 0.01
2 1 6 2 o 39950.73 40000.59 0.00 1.50812 0.88
5 0 4 2 o 487.901 487.117 0.00 1.50650 0.01
6 3 1 1 o 79032.93 77791.95 0.00 1.49804 3.58
5 1 4 1 o 13581.225 13604.472 180.00 1.49696 0.59
4 7 0 1 o 5808.299 5883.901 180.00 1.49598 0.17
2 8 2 1 o 77635.20 78509.53 180.00 1.49594 4.00
6 3 1 2 o 77005.45 77791.95 0.00 1.49804 1.73
4 1 5 1 o 8949.790 9063.315 0.00 1.49388 0.39
5 1 4 2 o 13374.495 13604.472 180.00 1.49696 0.29
4 7 0 2 o 5735.755 5883.901 180.00 1.49598 0.08
2 8 2 2 o 76818.99 78509.53 180.00 1.49594 1.96
6 2 2 1 o 21542.318 21653.014 180.00 1.49064 0.90
4 1 5 2 o 9048.589 9063.315 0.00 1.49388 0.20
5 5 2 1 o 99851.90 99009.94 0.00 1.48896 4.48
6 2 2 2 o 22021.471 21653.014 180.00 1.49064 0.46
1 3 6 1 o 11814.015 11571.673 180.00 1.48616 0.55
5 5 2 2 o 101601.62 99009.94 0.00 1.48896 2.28
5 4 3 1 o 26094.180 24606.070 0.00 1.48300 1.19
1 3 6 2 o 12334.819 11571.673 180.00 1.48616 0.29
2 5 5 1 o 31441.656 29506.643 0.00 1.48193 1.47
2 2 6 1 o 10606.988 10475.066 180.00 1.47993 0.46
5 4 3 2 o 24464.617 24606.070 0.00 1.48300 0.55
2 5 5 2 o 28925.578 29506.643 0.00 1.48193 0.67
4 7 1 1 o 287440.94 292938.34 180.00 1.47811 13.13
3 4 5 1 o 198.020 201.199 180.00 1.47770 0.01
2 2 6 2 o 10396.587 10475.066 180.00 1.47993 0.23
4 7 1 2 o 290630.78 292938.34 180.00 1.47811 6.62
3 4 5 2 o 200.476 201.199 180.00 1.47770 0.00
1 7 4 1 o 17.063 16.943 0.00 1.47318 0.00
4 2 5 1 o 4325.012 3694.344 0.00 1.46647 0.19
5 2 4 2 o 21746.975 18716.012 0.00 1.46938 0.47
1 7 4 2 o 18.309 16.943 0.00 1.47318 0.00
5 2 4 1 o 20765.949 18716.012 0.00 1.46938 0.90
4 2 5 2 o 3939.529 3694.344 0.00 1.46647 0.08
0 9 1 1 o 93430.45 87564.84 180.00 1.46272 2.15
3 8 1 1 o 11838.349 11149.545 180.00 1.46242 0.51
1 8 3 1 o 38773.93 38280.73 0.00 1.45987 1.67
0 9 1 2 o 88013.95 87564.84 180.00 1.46272 1.00
3 8 1 2 o 11197.334 11149.545 180.00 1.46242 0.24
3 7 3 1 o 110382.97 109904.31 0.00 1.45863 4.66
4 6 3 1 o 3.934 3.960 180.00 1.45647 0.00
1 8 3 2 o 38040.50 38280.73 0.00 1.45987 0.81
3 7 3 2 o 109460.78 109904.31 0.00 1.45863 2.29
3 6 4 1 o 958.344 958.987 180.00 1.45426 0.05
4 6 3 2 o 3.838 3.960 180.00 1.45647 0.00
6 4 0 1 o 16242.963 17056.078 180.00 1.45219 0.36
3 6 4 2 o 899.571 958.987 180.00 1.45426 0.02
6 4 0 2 o 16696.219 17056.078 180.00 1.45219 0.19
1 9 1 1 o 3836.511 3805.061 180.00 1.44631 0.15
6 3 2 1 o 437.786 429.577 180.00 1.44606 0.04
1 9 1 2 o 3708.767 3805.061 180.00 1.44631 0.07
5 6 1 1 o 37310.24 38455.43 0.00 1.44271 1.68
6 3 2 2 o 404.500 429.577 180.00 1.44606 0.02
0 4 6 1 o 240175.05 248560.67 0.00 1.44106 5.39
5 6 1 2 o 36576.82 38455.43 0.00 1.44271 0.82
0 4 6 2 o 233866.92 248560.67 0.00 1.44106 2.60
2 3 6 1 o 3495.317 3671.314 0.00 1.43627 0.11
6 4 1 1 o 27919.117 29800.096 180.00 1.43583 1.19
1 6 5 1 o 14207.002 15300.538 0.00 1.43540 0.73
4 5 4 1 o 12523.491 13373.344 180.00 1.43516 0.59
2 3 6 2 o 3658.803 3671.314 0.00 1.43627 0.06
3 0 6 1 o 144064.89 144189.39 180.00 1.43242 2.91
6 4 1 2 o 29798.268 29800.096 180.00 1.43583 0.64
6 1 3 1 o 42492.96 42484.80 0.00 1.43225 1.75
1 6 5 2 o 15314.014 15300.538 0.00 1.43540 0.39
4 5 4 2 o 13373.425 13373.344 180.00 1.43516 0.31
3 0 6 2 o 141223.30 144189.39 180.00 1.43242 1.41
6 1 3 2 o 41498.58 42484.80 0.00 1.43225 0.84
4 7 2 1 o 6168.750 6442.077 0.00 1.42810 0.34
5 3 4 1 o 178.549 182.936 180.00 1.42662 0.00
1 4 6 1 o 116589.19 119928.82 0.00 1.42536 4.77
4 7 2 2 o 6351.089 6442.077 0.00 1.42810 0.17
2 7 4 1 o 0.579 0.794 180.00 1.42454 0.00
3 1 6 1 o 19037.875 19132.078 0.00 1.42421 0.77
4 3 5 1 o 244271.16 244837.17 180.00 1.42396 9.94
5 3 4 2 o 182.889 182.936 180.00 1.42662 0.00
1 4 6 2 o 120225.54 119928.82 0.00 1.42536 2.46
2 7 4 2 o 1.136 0.794 180.00 1.42454 0.00
3 1 6 2 o 19579.088 19132.078 0.00 1.42421 0.40
4 3 5 2 o 251844.72 244837.17 180.00 1.42396 5.13
2 9 0 1 o 154201.47 154129.59 180.00 1.41537 3.28
3 8 2 1 o 7840.871 7728.975 0.00 1.41394 0.31
2 8 3 1 o 17052.941 16968.012 0.00 1.41250 0.71
2 9 0 2 o 154572.39 154129.59 180.00 1.41537 1.64
3 8 2 2 o 7793.754 7728.975 0.00 1.41394 0.15
2 8 3 2 o 16880.514 16968.012 0.00 1.41250 0.35
6 2 3 1 o 19334.223 19488.119 180.00 1.40804 0.76
5 5 3 1 o 181.005 170.904 0.00 1.40661 0.02
6 2 3 2 o 21453.186 19488.119 180.00 1.40804 0.43
5 5 3 2 o 229.266 170.904 0.00 1.40661 0.01
3 5 5 1 o 11811.464 11140.355 0.00 1.40209 0.42
3 2 6 1 o 12679.241 12596.404 180.00 1.40040 0.50
2 9 1 1 o 43374.59 43206.74 0.00 1.40020 1.84
1 9 2 1 o 68899.26 68623.76 0.00 1.39936 2.83
3 5 5 2 o 11230.115 11140.355 0.00 1.40209 0.20
3 2 6 2 o 12608.088 12596.404 180.00 1.40040 0.25
2 9 1 2 o 43262.00 43206.74 0.00 1.40020 0.91
5 6 2 1 o 3908.073 3870.094 180.00 1.39610 0.15
1 9 2 2 o 69643.01 68623.76 0.00 1.39936 1.43
5 6 2 2 o 3914.706 3870.094 180.00 1.39610 0.07
2 6 5 1 o 98132.23 103598.74 180.00 1.39030 3.91
6 4 2 1 o 17802.609 18755.832 180.00 1.38986 0.64
2 6 5 2 o 98674.39 103598.74 180.00 1.39030 1.96
6 4 2 2 o 18064.969 18755.832 180.00 1.38986 0.33
2 4 6 1 o 480.501 509.891 0.00 1.38117 0.05
6 5 0 1 o 180035.31 182981.28 180.00 1.38025 3.58
2 4 6 2 o 538.217 509.891 0.00 1.38117 0.03
6 5 0 2 o 188510.72 182981.28 180.00 1.38025 1.88
5 4 4 1 o 30798.482 28672.975 0.00 1.37258 1.12
4 8 0 1 o 2737.291 2460.772 0.00 1.37182 0.08
6 3 3 1 o 26886.670 25295.453 0.00 1.37028 1.06
4 4 5 1 o 3172.147 2977.322 180.00 1.37021 0.13
5 4 4 2 o 29616.771 28672.975 0.00 1.37258 0.53
4 8 0 2 o 2514.889 2460.772 0.00 1.37182 0.04
0 8 4 1 o 3722.644 3722.304 0.00 1.36762 0.11
6 3 3 2 o 25137.633 25295.453 0.00 1.37028 0.49
4 4 5 2 o 2956.925 2977.322 180.00 1.37021 0.06
6 5 1 1 o 50320.81 50541.32 0.00 1.36617 1.93
0 8 4 2 o 3843.792 3722.304 0.00 1.36762 0.06
3 3 6 1 o 4286.146 4129.865 0.00 1.36323 0.16
0 1 7 1 o 12083.171 11583.613 180.00 1.36293 0.23
6 5 1 2 o 52832.85 50541.32 0.00 1.36617 1.02
7 1 1 1 o 20.846 15.848 180.00 1.36185 0.00
3 3 6 2 o 4334.733 4129.865 0.00 1.36323 0.08
0 1 7 2 o 12088.188 11583.613 180.00 1.36293 0.11
7 1 1 2 o 17.869 15.848 180.00 1.36185 0.00
4 8 1 1 o 7309.426 7132.975 180.00 1.35800 0.31
2 9 2 1 o 13365.408 12985.099 180.00 1.35747 0.55
1 5 6 1 o 41189.44 39875.79 0.00 1.35714 1.54
5 1 5 1 o 11272.161 10808.823 180.00 1.35570 0.39
4 7 3 1 o 17.361 15.018 0.00 1.35497 0.00
4 8 1 2 o 7444.745 7132.975 180.00 1.35800 0.16
1 8 4 1 o 31823.438 30782.252 0.00 1.35418 1.20
2 9 2 2 o 13450.337 12985.099 180.00 1.35747 0.27
1 5 6 2 o 41075.63 39875.79 0.00 1.35714 0.76
3 7 4 1 o 349.810 339.826 0.00 1.35319 0.02
5 1 5 2 o 10881.549 10808.823 180.00 1.35570 0.18
4 7 3 2 o 15.066 15.018 0.00 1.35497 0.00
4 6 4 1 o 112042.38 111970.91 0.00 1.35146 4.04
0 7 5 1 o 281779.00 281014.34 180.00 1.35092 5.32
1 8 4 2 o 30877.781 30782.252 0.00 1.35418 0.57
3 7 4 2 o 343.595 339.826 0.00 1.35319 0.01
1 1 7 1 o 105531.97 104707.34 180.00 1.34963 3.80
4 6 4 2 o 112566.25 111970.91 0.00 1.35146 2.02
0 7 5 2 o 283936.81 281014.34 180.00 1.35092 2.67
1 1 7 2 o 107767.58 104707.34 180.00 1.34963 1.94
5 7 1 1 o 13435.533 13076.582 180.00 1.34387 0.45
0 9 3 1 o 19739.176 19111.193 180.00 1.34309 0.38
3 8 3 1 o 39203.87 37915.98 180.00 1.34286 1.51
7 2 1 1 o 8244.985 8083.643 0.00 1.34099 0.28
5 7 1 2 o 13214.995 13076.582 180.00 1.34387 0.22
0 9 3 2 o 18990.563 19111.193 180.00 1.34309 0.18
3 8 3 2 o 37479.93 37915.98 180.00 1.34286 0.71
6 0 4 1 o 1597.530 1634.609 180.00 1.33876 0.02
1 7 5 1 o 38352.45 40126.76 180.00 1.33796 1.43
7 2 1 2 o 7706.387 8083.643 0.00 1.34099 0.13
6 0 4 2 o 1560.879 1634.609 180.00 1.33876 0.01
5 2 5 1 o 355.132 364.801 0.00 1.33511 0.01
1 7 5 2 o 38861.04 40126.76 180.00 1.33796 0.72
4 0 6 1 o 115312.00 116694.13 0.00 1.33388 1.97
3 9 1 1 o 1729.336 1736.976 0.00 1.33228 0.10
6 1 4 1 o 48924.39 49097.12 180.00 1.33205 1.64
0 10 0 1 o 29292.176 29402.516 180.00 1.33203 0.27
5 2 5 2 o 363.810 364.801 0.00 1.33511 0.00
4 0 6 2 o 116152.81 116694.13 0.00 1.33388 0.99
1 9 3 1 o 25051.594 25126.053 180.00 1.33035 0.93
1 2 7 1 o 27777.146 27691.131 180.00 1.32931 0.81
7 0 2 1 o 140074.58 139591.73 180.00 1.32901 2.43
3 9 1 2 o 1745.988 1736.976 0.00 1.33228 0.05
6 1 4 2 o 49215.76 49097.12 180.00 1.33205 0.82
0 10 0 2 o 29474.369 29402.516 180.00 1.33203 0.14
5 6 3 1 o 27536.256 27671.842 0.00 1.32755 0.89
4 1 6 1 o 0.197 0.497 180.00 1.32724 0.00
1 9 3 2 o 24933.605 25126.053 180.00 1.33035 0.46
6 5 2 1 o 1815.391 1829.406 180.00 1.32640 0.04
1 2 7 2 o 27370.688 27691.131 180.00 1.32931 0.39
7 0 2 2 o 137202.30 139591.73 180.00 1.32901 1.18
5 6 3 2 o 26911.014 27671.842 0.00 1.32755 0.43
4 1 6 2 o -0.751 0.497 180.00 1.32724 0.00
3 6 5 1 o 60.698 66.809 0.00 1.32374 0.01
6 5 2 2 o 1805.370 1829.406 180.00 1.32640 0.02
7 1 2 1 o 29222.842 29569.236 0.00 1.32244 1.07
6 4 3 1 o 10961.894 11073.879 0.00 1.32218 0.42
3 6 5 2 o 64.220 66.809 0.00 1.32374 0.00
7 1 2 2 o 29363.488 29569.236 0.00 1.32244 0.54
6 4 3 2 o 11028.390 11073.879 0.00 1.32218 0.21
4 8 2 1 o 2389.167 2394.460 0.00 1.31892 0.05
2 5 6 1 o 75187.62 75394.39 180.00 1.31883 2.66
2 8 4 1 o 10787.702 10704.664 180.00 1.31611 0.32
3 4 6 1 o 1584.010 1567.113 0.00 1.31585 0.06
4 8 2 2 o 2410.180 2394.460 0.00 1.31892 0.03
2 5 6 2 o 76235.75 75394.39 180.00 1.31883 1.35
2 8 4 2 o 10777.200 10704.664 180.00 1.31611 0.16
3 4 6 2 o 1580.512 1567.113 0.00 1.31585 0.03
6 2 4 1 o 25914.246 25705.738 180.00 1.31250 0.88
2 1 7 1 o 2662.895 2644.423 0.00 1.31193 0.08
5 5 4 1 o 13276.761 13199.119 0.00 1.31135 0.43
4 5 5 1 o 31325.410 31085.184 180.00 1.30928 1.06
6 2 4 2 o 25907.484 25705.738 180.00 1.31250 0.44
0 3 7 1 o 3415.958 3385.386 180.00 1.30921 0.06
2 1 7 2 o 2670.214 2644.423 0.00 1.31193 0.04
7 3 1 1 o 22644.842 22441.330 0.00 1.30825 0.68
5 5 4 2 o 13317.248 13199.119 0.00 1.31135 0.21
4 2 6 1 o 127.588 127.046 0.00 1.30791 0.00
1 10 1 1 o 476.193 475.759 0.00 1.30728 0.01
4 5 5 2 o 30939.510 31085.184 180.00 1.30928 0.52
0 3 7 2 o 3368.616 3385.386 180.00 1.30921 0.03
5 7 2 1 o 5300.205 5328.743 180.00 1.30596 0.22
6 6 0 1 o 89914.94 89851.69 180.00 1.30531 1.61
7 3 1 2 o 22528.957 22441.330 0.00 1.30825 0.33
4 2 6 2 o 127.709 127.046 0.00 1.30791 0.00
1 10 1 2 o 481.086 475.759 0.00 1.30728 0.00
7 2 2 1 o 20.024 18.467 180.00 1.30331 0.00
5 3 5 1 o 46815.80 45498.48 180.00 1.30279 1.70
5 7 2 2 o 5498.173 5328.743 180.00 1.30596 0.11
6 6 0 2 o 91744.97 89851.69 180.00 1.30531 0.82
2 7 5 1 o 7710.747 7573.525 0.00 1.30121 0.26
7 2 2 2 o 20.013 18.467 180.00 1.30331 0.00
5 3 5 2 o 46982.21 45498.48 180.00 1.30279 0.85
2 7 5 2 o 7598.679 7573.525 0.00 1.30121 0.13
1 3 7 1 o 5037.986 5118.389 0.00 1.29740 0.18
0 6 6 1 o 1851.733 1884.275 180.00 1.29721 0.03
3 9 2 1 o 27001.773 28252.596 180.00 1.29531 0.88
1 3 7 2 o 4935.814 5118.389 0.00 1.29740 0.09
2 9 3 1 o 17438.471 18008.387 0.00 1.29420 0.57
0 6 6 2 o 1836.190 1884.275 180.00 1.29721 0.01
6 6 1 1 o 52563.83 53648.80 180.00 1.29339 1.81
2 2 7 1 o 9112.331 9304.025 0.00 1.29325 0.35
3 9 2 2 o 28206.086 28252.596 180.00 1.29531 0.46
2 9 3 2 o 18427.430 18008.387 0.00 1.29420 0.30
6 6 1 2 o 56700.67 53648.80 180.00 1.29339 0.99
2 2 7 2 o 9974.241 9304.025 0.00 1.29325 0.19
1 6 6 1 o 1300.426 1181.196 0.00 1.28572 0.04
2 10 0 1 o 47594.05 43676.11 180.00 1.28430 0.83
0 10 2 1 o 7096.843 6253.363 0.00 1.28344 0.12
1 6 6 2 o 1426.136 1181.196 0.00 1.28572 0.02
6 3 4 1 o 9579.430 7705.295 180.00 1.28176 0.29
2 10 0 2 o 59198.77 43676.11 180.00 1.28430 0.54
0 10 2 2 o 9117.378 6253.363 0.00 1.28344 0.08
6 3 4 2 o 12467.157 7705.295 180.00 1.28176 0.20
4 3 6 1 o 320.984 113.440 180.00 1.27748 0.02
4 3 6 2 o 199.863 113.440 180.00 1.27748 0.01
7 3 2 1 o 5399.178 4713.527 0.00 1.27320 0.18
2 10 1 1 o 19595.033 17371.969 180.00 1.27294 0.72
1 10 2 1 o 38375.50 34997.551 180.00 1.27231 1.37
7 3 2 2 o 4953.153 4713.527 0.00 1.27320 0.08
2 10 1 2 o 18111.287 17371.969 180.00 1.27294 0.33
4 7 4 1 o 1082.716 1051.650 180.00 1.26920 0.05
1 10 2 2 o 35724.75 34997.551 180.00 1.27231 0.63
6 5 3 1 o 24662.406 24338.699 0.00 1.26719 0.80
7 4 1 1 o 8117.544 8038.804 180.00 1.26620 0.29
4 7 4 2 o 1062.265 1051.650 180.00 1.26920 0.02
6 5 3 2 o 24108.568 24338.699 0.00 1.26719 0.39
2 3 7 1 o 9733.330 9844.063 0.00 1.26381 0.33
7 1 3 1 o 13704.904 13872.496 180.00 1.26374 0.47
7 4 1 2 o 7868.498 8038.804 180.00 1.26620 0.14
4 9 0 1 o 2816.530 2877.464 180.00 1.26270 0.04
3 5 6 1 o 14316.102 14580.102 180.00 1.26161 0.42
5 4 5 1 o 3035.202 3092.244 180.00 1.26125 0.11
2 3 7 2 o 9753.853 9844.063 0.00 1.26381 0.16
4 8 3 1 o 2369.612 2391.830 0.00 1.26066 0.09
7 1 3 2 o 13759.806 13872.496 180.00 1.26374 0.23
4 9 0 2 o 2909.771 2877.464 180.00 1.26270 0.02
6 6 2 1 o 31705.746 31281.393 180.00 1.25949 1.01
3 8 4 1 o 2658.070 2608.911 180.00 1.25923 0.10
3 5 6 2 o 14843.421 14580.102 180.00 1.26161 0.22
5 4 5 2 o 3154.492 3092.244 180.00 1.26125 0.06
4 8 3 2 o 2421.086 2391.830 0.00 1.26066 0.05
6 6 2 2 o 31310.020 31281.393 180.00 1.25949 0.49
1 4 7 1 o 19149.451 19131.850 0.00 1.25636 0.62
3 1 7 2 o 272.887 283.906 180.00 1.25557 0.01
3 8 4 2 o 2610.509 2608.911 180.00 1.25923 0.05
4 9 1 1 o 8675.813 9029.662 180.00 1.25190 0.28
5 8 1 1 o 26060.650 27211.678 180.00 1.25171 0.84
3 1 7 1 o 284.240 283.906 180.00 1.25557 0.01
2 6 6 2 o 15200.710 16264.424 180.00 1.25301 0.24
1 4 7 2 o 18722.283 19131.850 0.00 1.25636 0.30
5 7 3 1 o 82057.55 87973.99 180.00 1.24933 2.68
2 6 6 1 o 15870.284 16264.424 180.00 1.25301 0.51
1 9 4 1 o 5013.965 5281.498 0.00 1.24890 0.13
4 9 1 2 o 8494.491 9029.662 180.00 1.25190 0.14
5 8 1 2 o 25683.074 27211.678 180.00 1.25171 0.41
7 2 3 1 o 21649.717 22246.473 0.00 1.24701 0.67
1 8 5 1 o 135.989 137.866 180.00 1.24693 0.00
5 6 4 1 o 473.793 481.830 0.00 1.24658 0.01
5 7 3 2 o 86301.61 87973.99 180.00 1.24933 1.42
3 7 5 1 o 8141.857 8285.098 0.00 1.24616 0.26
1 9 4 2 o 5230.744 5281.498 0.00 1.24890 0.07
4 6 5 1 o 3543.947 3505.558 180.00 1.24481 0.12
7 2 3 2 o 22724.459 22246.473 0.00 1.24701 0.36
1 8 5 2 o 139.454 137.866 180.00 1.24693 0.00
5 6 4 2 o 489.953 481.830 0.00 1.24658 0.01
3 7 5 2 o 8460.752 8285.098 0.00 1.24616 0.14
6 4 4 1 o 55329.80 55059.47 180.00 1.24214 1.76
4 6 5 2 o 3486.310 3505.558 180.00 1.24481 0.06
2 10 2 1 o 37539.88 38587.73 180.00 1.24058 1.25
3 9 3 1 o 465.303 486.290 180.00 1.24000 0.02
3 2 7 1 o 67579.45 70304.60 0.00 1.23916 2.20
6 4 4 2 o 52931.32 55059.47 180.00 1.24214 0.83
4 4 6 1 o 5748.071 6013.723 180.00 1.23824 0.14
2 10 2 2 o 36210.01 38587.73 180.00 1.24058 0.60
3 9 3 2 o 444.037 486.290 180.00 1.24000 0.01
3 2 7 2 o 66514.33 70304.60 0.00 1.23916 1.07
4 4 6 2 o 5797.376 6013.723 180.00 1.23824 0.07
7 4 2 1 o 40588.94 42301.73 0.00 1.23434 1.22
5 0 6 1 o 91546.89 95242.59 0.00 1.23274 1.40
7 4 2 2 o 41151.58 42301.73 0.00 1.23434 0.62
6 7 0 1 o 476.849 486.367 180.00 1.23075 0.01
5 0 6 2 o 97409.40 95242.59 0.00 1.23274 0.75
6 1 5 1 o 34382.086 33557.297 0.00 1.22958 1.05
6 7 0 2 o 512.728 486.367 180.00 1.23075 0.01
5 1 6 1 o 40643.73 39434.18 0.00 1.22750 1.27
6 1 5 2 o 34363.180 33557.297 0.00 1.22958 0.52
2 4 7 1 o 17.579 17.395 180.00 1.22578 0.00
5 1 6 2 o 40809.19 39434.18 0.00 1.22750 0.64
2 4 7 2 o 17.624 17.395 180.00 1.22578 0.00
3 10 1 1 o 10334.829 9997.742 180.00 1.22126 0.39
4 9 2 1 o 919.418 889.255 180.00 1.22108 0.03
5 8 2 1 o 499.856 489.665 180.00 1.22091 0.01
6 7 1 1 o 7727.903 7543.198 0.00 1.22074 0.23
7 3 3 1 o 138991.97 135808.52 0.00 1.22056 4.27
1 10 3 1 o 19612.309 19478.543 0.00 1.21977 0.70
2 9 4 1 o 95793.63 96797.84 0.00 1.21885 3.02
0 5 7 1 o 3972.613 4037.261 180.00 1.21843 0.06
3 10 1 2 o 9773.621 9997.742 180.00 1.22126 0.18
4 9 2 2 o 865.600 889.255 180.00 1.22108 0.02
5 8 2 2 o 480.113 489.665 180.00 1.22091 0.01
6 7 1 2 o 7333.386 7543.198 0.00 1.22074 0.11
7 5 1 1 o 1.418 6.643 180.00 1.21765 0.00
7 3 3 2 o 131218.09 135808.52 0.00 1.22056 1.98
2 8 5 1 o 69749.38 72954.70 0.00 1.21702 2.08
1 10 3 2 o 18383.217 19478.543 0.00 1.21977 0.33
2 9 4 2 o 91268.22 96797.84 0.00 1.21885 1.42
0 5 7 2 o 3826.283 4037.261 180.00 1.21843 0.03
7 5 1 2 o -0.099 6.643 180.00 1.21765 0.00
1 7 6 1 o 296.469 307.843 180.00 1.21429 0.01
6 2 5 1 o 107520.20 111182.26 180.00 1.21416 3.17
2 8 5 2 o 70690.18 72954.70 0.00 1.21702 1.05
5 5 5 1 o 29466.596 30517.525 180.00 1.21325 0.95
3 3 7 1 o 195615.14 202300.86 0.00 1.21319 5.88
5 2 6 1 o 16231.046 16949.723 0.00 1.21216 0.49
1 7 6 2 o 295.190 307.843 180.00 1.21429 0.00
6 2 5 2 o 107061.98 111182.26 180.00 1.21416 1.57
8 0 0 1 o 240203.05 247986.64 0.00 1.21029 1.74
5 5 5 2 o 29475.789 30517.525 180.00 1.21325 0.47
3 3 7 2 o 195755.50 202300.86 0.00 1.21319 2.93
5 2 6 2 o 16280.262 16949.723 0.00 1.21216 0.24
1 5 7 1 o 9437.523 9815.415 180.00 1.20889 0.26
6 6 3 1 o 12989.307 13619.466 0.00 1.20846 0.40
8 0 0 2 o 237331.86 247986.64 0.00 1.21029 0.85
1 5 7 2 o 9703.683 9815.415 180.00 1.20889 0.13
6 6 3 2 o 13604.030 13619.466 0.00 1.20846 0.21
8 1 0 1 o 24238.689 24171.510 0.00 1.20532 0.40
3 6 6 1 o 66657.67 65701.43 180.00 1.20362 1.93
8 1 0 2 o 23931.807 24171.510 0.00 1.20532 0.19
0 11 1 1 o 179409.67 182895.69 180.00 1.20140 2.79
3 6 6 2 o 64787.10 65701.43 180.00 1.20362 0.93
0 0 8 1 o 66746.66 68382.08 0.00 1.19886 0.51
0 11 1 2 o 178910.33 182895.69 180.00 1.20140 1.38
7 0 4 1 o 66387.05 67610.76 180.00 1.19812 0.95
6 5 4 1 o 63888.03 61623.08 0.00 1.19621 1.78
8 1 1 1 o 678.711 644.611 180.00 1.19592 0.02
0 0 8 2 o 71748.59 68382.08 0.00 1.19886 0.27
7 0 4 2 o 71449.62 67610.76 180.00 1.19812 0.52
7 1 4 1 o 2232.555 2181.679 0.00 1.19330 0.06
6 5 4 2 o 63031.36 61623.08 0.00 1.19621 0.87
8 1 1 2 o 656.401 644.611 180.00 1.19592 0.01
4 5 6 1 o 428.454 425.664 180.00 1.19273 0.01
3 10 2 1 o 88730.23 88131.76 180.00 1.19260 2.65
1 11 1 1 o 18030.008 18029.418 180.00 1.19225 0.53
6 7 2 1 o 3892.555 3904.407 0.00 1.19211 0.15
2 10 3 1 o 6026.183 6079.235 0.00 1.19173 0.20
8 2 0 1 o 5690.771 5794.049 0.00 1.19079 0.08
4 8 4 1 o 113201.79 115565.28 0.00 1.19071 3.44
7 1 4 2 o 2136.381 2181.679 0.00 1.19330 0.03
4 5 6 2 o 418.510 425.664 180.00 1.19273 0.00
1 0 8 1 o 93.049 99.751 0.00 1.18977 0.00
6 3 5 1 o 62.503 63.338 0.00 1.18970 0.00
3 10 2 2 o 85914.89 88131.76 180.00 1.19260 1.27
1 11 1 2 o 17577.695 18029.418 180.00 1.19225 0.26
7 5 2 1 o 22066.893 22650.641 180.00 1.18924 0.63
6 7 2 2 o 3770.729 3904.407 0.00 1.19211 0.07
2 10 3 2 o 5905.576 6079.235 0.00 1.19173 0.10
8 2 0 2 o 5662.444 5794.049 0.00 1.19079 0.04
5 3 6 1 o 7363.167 7545.079 0.00 1.18781 0.21
4 8 4 2 o 112694.59 115565.28 0.00 1.19071 1.71
4 1 7 1 o 754.103 768.845 180.00 1.18762 0.02
1 0 8 2 o 95.365 99.751 0.00 1.18977 0.00
6 3 5 2 o 62.824 63.338 0.00 1.18970 0.00
2 7 6 1 o 1919.608 1951.829 0.00 1.18661 0.07
7 5 2 2 o 22434.285 22650.641 180.00 1.18924 0.32
7 4 3 1 o 6622.248 6677.886 180.00 1.18620 0.20
1 1 8 1 o 26053.570 26023.283 180.00 1.18506 0.73
5 3 6 2 o 7550.513 7545.079 0.00 1.18781 0.11
4 1 7 2 o 768.557 768.845 180.00 1.18762 0.01
2 7 6 2 o 1935.919 1951.829 0.00 1.18661 0.03
7 4 3 2 o 6658.458 6677.886 180.00 1.18620 0.10
1 1 8 2 o 26369.770 26023.283 180.00 1.18506 0.37
8 2 1 1 o 7501.300 7429.077 0.00 1.18171 0.21
2 5 7 1 o 4941.914 4904.290 0.00 1.18158 0.14
5 7 4 1 o 139.942 140.063 0.00 1.18115 0.01
0 2 8 1 o 73.226 73.404 0.00 1.17990 0.00
4 7 5 1 o 51529.27 51250.68 0.00 1.17964 1.50
3 4 7 1 o 9610.276 9491.488 180.00 1.17943 0.27
7 2 4 1 o 5350.115 5235.969 180.00 1.17919 0.15
8 2 1 2 o 7692.021 7429.077 0.00 1.18171 0.11
2 5 7 2 o 5102.921 4904.290 0.00 1.18158 0.07
5 7 4 2 o 151.743 140.063 0.00 1.18115 0.00
0 2 8 2 o 79.319 73.404 0.00 1.17990 0.00
4 7 5 2 o 54146.84 51250.68 0.00 1.17964 0.79
3 4 7 2 o 9968.154 9491.488 180.00 1.17943 0.14
7 2 4 2 o 5461.711 5235.969 180.00 1.17919 0.08
2 11 0 1 o 43366.04 43858.91 0.00 1.17474 0.67
4 9 3 1 o 31925.912 32386.334 180.00 1.17441 0.91
5 8 3 1 o 43239.68 43899.30 180.00 1.17426 1.23
4 2 7 1 o 145.698 148.967 180.00 1.17370 0.01
8 0 2 1 o 60029.82 60899.30 0.00 1.17349 0.84
3 9 4 1 o 9930.596 10065.562 180.00 1.17326 0.29
2 11 0 2 o 44324.23 43858.91 0.00 1.17474 0.34
0 9 5 1 o 32.876 31.939 0.00 1.17177 0.00
3 8 5 1 o 410.057 402.772 0.00 1.17162 0.01
4 9 3 2 o 33072.664 32386.334 180.00 1.17441 0.47
5 8 3 2 o 45079.56 43899.30 180.00 1.17426 0.64
1 2 8 1 o 46678.00 45221.01 0.00 1.17123 1.31
4 2 7 2 o 159.248 148.967 180.00 1.17370 0.00
8 0 2 2 o 64164.76 60899.30 0.00 1.17349 0.45
3 9 4 2 o 10673.101 10065.562 180.00 1.17326 0.16
8 1 2 1 o 108.243 91.010 180.00 1.16896 0.01
0 9 5 2 o 36.789 31.939 0.00 1.17177 0.00
3 8 5 2 o 427.561 402.772 0.00 1.17162 0.01
1 2 8 2 o 47350.88 45221.01 0.00 1.17123 0.66
8 3 0 1 o 16874.926 16496.877 0.00 1.16769 0.28
5 9 1 1 o 2250.929 2249.234 0.00 1.16717 0.09
4 10 0 1 o 243886.77 244969.56 0.00 1.16700 3.56
8 1 2 2 o 83.867 91.010 180.00 1.16896 0.00
2 11 1 1 o 18409.443 18956.461 0.00 1.16603 0.52
1 11 2 1 o 14500.640 15115.921 180.00 1.16554 0.42
7 6 1 1 o 4963.416 5205.264 180.00 1.16527 0.14
8 3 0 2 o 15434.845 16496.877 0.00 1.16769 0.13
0 10 4 1 o 192074.34 203659.45 0.00 1.16441 2.81
5 9 1 2 o 2082.281 2249.234 0.00 1.16717 0.04
4 10 0 2 o 231463.73 244969.56 0.00 1.16700 1.66
2 0 8 1 o 20.326 29.732 0.00 1.16371 0.00
1 9 5 1 o 7410.373 7751.728 180.00 1.16329 0.19
2 11 1 2 o 18073.510 18956.461 0.00 1.16603 0.26
1 11 2 2 o 14423.922 15115.921 180.00 1.16554 0.21
7 6 1 2 o 4964.973 5205.264 180.00 1.16527 0.07
0 10 4 2 o 193747.80 203659.45 0.00 1.16441 1.41
5 6 5 1 o 83.432 84.912 180.00 1.16141 0.00
2 0 8 2 o 21.758 29.732 0.00 1.16371 0.00
1 9 5 2 o 7469.802 7751.728 180.00 1.16329 0.10
2 1 8 1 o 13264.460 13646.586 180.00 1.15929 0.34
8 3 1 1 o 159505.67 164279.09 180.00 1.15913 4.36
6 8 0 1 o 37288.98 38279.71 180.00 1.15879 0.50
5 6 5 2 o 84.118 84.912 180.00 1.16141 0.00
4 10 1 1 o 401.658 412.233 180.00 1.15846 0.01
6 4 5 1 o 24440.557 24839.244 0.00 1.15781 0.68
1 6 7 1 o 17640.453 17822.543 0.00 1.15759 0.42
7 3 4 1 o 3846.461 3828.732 0.00 1.15675 0.12
2 1 8 2 o 13744.586 13646.586 180.00 1.15929 0.18
8 3 1 2 o 165726.72 164279.09 180.00 1.15913 2.28
5 4 6 1 o 875.315 866.936 0.00 1.15607 0.02
1 10 4 1 o 5.685 5.624 180.00 1.15608 0.00
6 8 0 2 o 38622.29 38279.71 180.00 1.15879 0.26
8 2 2 1 o 24720.664 24504.449 0.00 1.15569 0.69
4 10 1 2 o 415.798 412.233 180.00 1.15846 0.01
6 4 5 2 o 24974.549 24839.244 0.00 1.15781 0.35
1 6 7 2 o 17901.402 17822.543 0.00 1.15759 0.21
7 3 4 2 o 3873.240 3828.732 0.00 1.15675 0.06
5 4 6 2 o 880.421 866.936 0.00 1.15607 0.01
1 10 4 2 o 5.722 5.624 180.00 1.15608 0.00
0 8 6 1 o 14998.053 14722.832 180.00 1.15311 0.26
8 2 2 2 o 24863.691 24504.449 0.00 1.15569 0.35
4 3 7 1 o 11396.291 11448.533 180.00 1.15156 0.31
6 8 1 1 o 48319.80 48616.70 0.00 1.15042 1.36
0 8 6 2 o 14640.570 14722.832 180.00 1.15311 0.13
1 3 8 1 o 6620.488 6578.322 180.00 1.14923 0.18
3 10 3 1 o 458.243 456.796 180.00 1.14901 0.01
4 3 7 2 o 11542.337 11448.533 180.00 1.15156 0.16
6 7 3 1 o 38236.46 37936.93 0.00 1.14858 1.07
6 8 1 2 o 48593.14 48616.70 0.00 1.15042 0.68
6 6 4 1 o 6154.314 6183.741 180.00 1.14644 0.17
1 3 8 2 o 6549.049 6578.322 180.00 1.14923 0.09
2 2 8 1 o 874.443 877.467 180.00 1.14634 0.02
3 10 3 2 o 456.331 456.796 180.00 1.14901 0.00
7 5 3 1 o 26373.588 26379.553 0.00 1.14600 0.78
6 7 3 2 o 38077.84 37936.93 0.00 1.14858 0.53
1 8 6 1 o 4134.115 4071.410 0.00 1.14502 0.12
3 7 6 1 o 12.953 12.799 0.00 1.14442 0.00
6 6 4 2 o 6278.873 6183.741 180.00 1.14644 0.09
2 2 8 2 o 888.464 877.467 180.00 1.14634 0.01
4 6 6 1 o 61750.13 60928.15 0.00 1.14337 1.69
7 5 3 2 o 26720.027 26379.553 0.00 1.14600 0.39
1 8 6 2 o 4107.156 4071.410 0.00 1.14502 0.06
5 9 2 1 o 58724.32 58242.71 180.00 1.14207 1.60
3 7 6 2 o 12.883 12.799 0.00 1.14442 0.00
2 11 2 1 o 1085.084 1074.376 0.00 1.14100 0.03
4 6 6 2 o 61594.07 60928.15 0.00 1.14337 0.84
7 6 2 1 o 45308.50 44879.40 180.00 1.14030 1.18
3 5 7 1 o 57652.46 57139.27 0.00 1.13990 1.64
5 9 2 2 o 58729.92 58242.71 180.00 1.14207 0.80
2 9 5 1 o 16187.423 16006.778 0.00 1.13889 0.45
2 11 2 2 o 1094.600 1074.376 0.00 1.14100 0.01
8 4 0 1 o 9428.765 9130.551 180.00 1.13749 0.12
7 6 2 2 o 46349.13 44879.40 180.00 1.14030 0.61
3 5 7 2 o 59347.60 57139.27 0.00 1.13990 0.85
2 9 5 2 o 16181.121 16006.778 0.00 1.13889 0.23
6 0 6 1 o 2595.421 2640.226 180.00 1.13565 0.04
8 4 0 2 o 8545.437 9130.551 180.00 1.13749 0.05
8 3 2 1 o 819.194 924.090 180.00 1.13454 0.04
4 10 2 1 o 47439.23 51391.62 0.00 1.13391 1.27
2 6 7 1 o 1136.426 1231.161 180.00 1.13354 0.03
6 0 6 2 o 2491.261 2640.226 180.00 1.13565 0.02
0 11 3 1 o 1442.385 1495.346 180.00 1.13242 0.02
2 10 4 1 o 7688.108 7886.289 180.00 1.13212 0.20
8 3 2 2 o 892.177 924.090 180.00 1.13454 0.02
6 1 6 1 o 45609.46 46654.29 180.00 1.13154 1.28
4 10 2 2 o 50327.55 51391.62 0.00 1.13391 0.68
2 6 7 2 o 1204.763 1231.161 180.00 1.13354 0.02
0 11 3 2 o 1504.842 1495.346 180.00 1.13242 0.01
8 4 1 1 o 2278.300 2258.928 180.00 1.12958 0.06
2 10 4 2 o 8012.194 7886.289 180.00 1.13212 0.10
6 1 6 2 o 48382.75 46654.29 180.00 1.13154 0.68
0 4 8 1 o 38139.59 36515.28 180.00 1.12799 0.58
8 1 3 1 o 36021.14 34789.398 180.00 1.12783 0.91
7 4 4 1 o 412.837 401.836 0.00 1.12737 0.01
8 4 1 2 o 2299.128 2258.928 180.00 1.12958 0.03
6 8 2 1 o 39089.97 38710.14 180.00 1.12637 1.11
3 11 1 1 o 14710.787 14652.499 180.00 1.12592 0.42
2 3 8 1 o 4007.937 3999.058 180.00 1.12569 0.10
0 4 8 2 o 36599.21 36515.28 180.00 1.12799 0.28
8 1 3 2 o 34874.828 34789.398 180.00 1.12783 0.43
1 11 3 1 o 48266.41 48082.54 180.00 1.12475 1.28
7 4 4 2 o 403.598 401.836 0.00 1.12737 0.00
3 0 8 1 o 134544.38 133942.23 180.00 1.12383 1.73
6 8 2 2 o 38817.14 38710.14 180.00 1.12637 0.55
3 11 1 2 o 14605.208 14652.499 180.00 1.12592 0.21
2 3 8 2 o 3973.712 3999.058 180.00 1.12569 0.05
4 4 7 1 o 0.131 0.142 0.00 1.12257 0.00
1 11 3 2 o 47253.28 48082.54 180.00 1.12475 0.62
2 8 6 1 o 20559.627 20986.289 180.00 1.12173 0.61
3 0 8 2 o 132350.47 133942.23 180.00 1.12383 0.85
1 4 8 1 o 94308.09 94428.39 0.00 1.12041 2.43
6 5 5 1 o 6149.906 6151.787 0.00 1.12035 0.15
3 1 8 1 o 21633.930 21485.729 0.00 1.11985 0.58
4 4 7 2 o 0.148 0.142 0.00 1.12257 0.00
6 2 6 1 o 19217.170 18992.348 180.00 1.11949 0.53
2 8 6 2 o 21378.621 20986.289 180.00 1.12173 0.32
5 5 6 1 o 38086.62 37392.92 180.00 1.11877 1.00
7 1 5 1 o 38213.46 37326.29 0.00 1.11796 1.08
1 4 8 2 o 96319.00 94428.39 0.00 1.12041 1.24
5 1 7 1 o 5509.090 5171.447 180.00 1.11455 0.17
6 5 5 2 o 6266.342 6151.787 0.00 1.12035 0.08
4 9 4 2 o 6214.394 5833.583 0.00 1.11724 0.09
5 8 4 2 o 2429.239 2290.157 0.00 1.11711 0.03
4 9 4 1 o 5948.762 5833.583 0.00 1.11724 0.18
5 8 4 1 o 2327.826 2290.157 0.00 1.11711 0.06
3 1 8 2 o 21854.996 21485.729 0.00 1.11985 0.29
6 2 6 2 o 19329.770 18992.348 180.00 1.11949 0.27
8 2 3 2 o 1548.284 1392.950 180.00 1.11589 0.02
4 8 5 2 o 2962.294 2640.147 0.00 1.11583 0.04
5 5 6 2 o 38307.40 37392.92 180.00 1.11877 0.50
8 2 3 1 o 1428.745 1392.950 180.00 1.11589 0.04
4 8 5 1 o 2715.643 2640.147 0.00 1.11583 0.07
7 1 5 2 o 38951.18 37326.29 0.00 1.11796 0.55
0 7 7 1 o 10948.063 9473.359 180.00 1.11189 0.15
5 1 7 2 o 6123.743 5171.447 180.00 1.11455 0.09
7 7 1 1 o 14236.528 12502.933 180.00 1.11130 0.35
0 12 0 1 o 7121.467 6431.169 0.00 1.11002 0.04
0 7 7 2 o 10469.751 9473.359 180.00 1.11189 0.07
7 7 1 2 o 13590.755 12502.933 180.00 1.11130 0.16
3 2 8 1 o 9521.382 8688.572 180.00 1.10817 0.24
5 7 5 1 o 3058.391 2842.074 180.00 1.10795 0.06
0 12 0 2 o 6916.701 6431.169 0.00 1.11002 0.02
8 4 2 1 o 6413.195 5946.484 0.00 1.10678 0.16
7 2 5 1 o 1394.292 1299.805 180.00 1.10633 0.04
3 2 8 2 o 8886.115 8688.572 180.00 1.10817 0.11
5 7 5 2 o 2876.046 2842.074 180.00 1.10795 0.03
1 7 7 1 o 135478.47 135385.89 180.00 1.10463 3.54
8 4 2 2 o 5916.114 5946.484 0.00 1.10678 0.07
5 9 3 1 o 9356.063 9438.379 180.00 1.10362 0.31
7 2 5 2 o 1289.460 1299.805 180.00 1.10633 0.02
3 11 2 1 o 7632.586 7692.084 0.00 1.10334 0.20
5 2 7 1 o 83693.88 84548.18 0.00 1.10303 2.20
2 11 3 1 o 29007.564 29387.834 0.00 1.10266 0.80
7 6 3 1 o 12185.985 12386.325 180.00 1.10202 0.32
8 5 0 1 o 23728.729 24146.047 180.00 1.10191 0.33
1 7 7 2 o 133252.09 135385.89 180.00 1.10463 1.73
3 9 5 1 o 20208.391 20499.309 0.00 1.10143 0.55
5 9 3 2 o 9327.604 9438.379 180.00 1.10362 0.15
3 11 2 2 o 7634.588 7692.084 0.00 1.10334 0.10
5 2 7 2 o 83926.52 84548.18 0.00 1.10303 1.10
6 3 6 1 o 18613.246 18765.547 180.00 1.10023 0.53
2 11 3 2 o 29139.980 29387.834 0.00 1.10266 0.40
7 6 3 2 o 12230.107 12386.325 180.00 1.10202 0.16
8 5 0 2 o 23806.232 24146.047 180.00 1.10191 0.17
3 9 5 2 o 20214.408 20499.309 0.00 1.10143 0.28
2 4 8 1 o 18144.074 18435.354 180.00 1.09856 0.56
6 3 6 2 o 18447.160 18765.547 180.00 1.10023 0.26
8 3 3 1 o 534.220 544.264 180.00 1.09682 0.01
3 6 7 1 o 33916.676 34769.930 180.00 1.09659 0.94
4 10 3 1 o 119.149 122.383 0.00 1.09625 0.00
2 4 8 2 o 17919.580 18435.354 180.00 1.09856 0.28
1 12 1 1 o 24136.480 24623.449 180.00 1.09558 0.67
3 10 4 1 o 42386.27 42930.19 180.00 1.09530 1.10
6 7 4 1 o 7443.265 7463.296 180.00 1.09493 0.25
8 5 1 1 o 44637.05 44433.11 180.00 1.09471 1.15
8 3 3 2 o 554.509 544.264 180.00 1.09682 0.01
3 6 7 2 o 35824.52 34769.930 180.00 1.09659 0.50
4 10 3 2 o 127.633 122.383 0.00 1.09625 0.00
1 12 1 2 o 26349.100 24623.449 180.00 1.09558 0.37
7 5 4 1 o 6169.351 5723.018 180.00 1.09270 0.16
3 10 4 2 o 46370.06 42930.19 180.00 1.09530 0.62
4 7 6 1 o 131.691 111.197 0.00 1.09226 0.01
6 7 4 2 o 8411.452 7463.296 180.00 1.09493 0.14
8 5 1 2 o 49329.27 44433.11 180.00 1.09471 0.65
6 9 0 1 o 119272.88 102931.70 0.00 1.09075 1.65
5 10 1 1 o 6979.441 5890.127 180.00 1.09034 0.21
7 5 4 2 o 6743.854 5723.018 180.00 1.09270 0.09
7 7 2 1 o 9.344 5.940 180.00 1.08958 0.00
4 7 6 2 o 148.497 111.197 0.00 1.09226 0.00
3 3 8 1 o 5192.267 4413.738 0.00 1.08947 0.14
6 8 3 1 o 12772.433 10835.035 180.00 1.08943 0.35
4 5 7 1 o 5763.983 5050.298 180.00 1.08833 0.15
6 9 0 2 o 116544.52 102931.70 0.00 1.09075 0.80
7 3 5 1 o 955.640 902.916 0.00 1.08773 0.01
5 10 1 2 o 6603.580 5890.127 180.00 1.09034 0.10
1 10 5 1 o 11907.275 10624.170 180.00 1.08718 0.41
7 7 2 2 o 7.576 5.940 180.00 1.08958 0.00
3 3 8 2 o 4782.363 4413.738 0.00 1.08947 0.06
6 8 3 2 o 11748.590 10835.035 180.00 1.08943 0.16
1 5 8 1 o 45075.39 41660.29 0.00 1.08636 1.17
3 8 6 1 o 56919.53 52536.39 180.00 1.08588 1.48
4 5 7 2 o 5489.758 5050.298 180.00 1.08833 0.07
7 3 5 2 o 946.285 902.916 0.00 1.08773 0.01
5 3 7 1 o 70493.71 65025.63 180.00 1.08459 1.70
1 10 5 2 o 11848.208 10624.170 180.00 1.08718 0.20
6 9 1 1 o 29599.141 27893.459 0.00 1.08376 0.76
1 5 8 2 o 44145.65 41660.29 0.00 1.08636 0.57
2 7 7 1 o 3231.776 3057.576 0.00 1.08368 0.08
3 8 6 2 o 54663.98 52536.39 180.00 1.08588 0.70
4 11 0 1 o 4231.540 4064.028 0.00 1.08298 0.07
2 12 0 1 o 54172.84 52658.16 180.00 1.08195 0.79
5 3 7 2 o 66629.60 65025.63 180.00 1.08459 0.79
0 12 2 1 o 38957.60 37713.91 0.00 1.08143 0.57
6 9 1 2 o 28730.795 27893.459 0.00 1.08376 0.37
2 7 7 2 o 3147.169 3057.576 0.00 1.08368 0.04
8 0 4 1 o 21249.232 20743.195 180.00 1.08045 0.27
4 11 0 2 o 4170.359 4064.028 0.00 1.08298 0.03
2 12 0 2 o 53032.81 52658.16 180.00 1.08195 0.39
1 9 6 1 o 21840.566 21708.674 180.00 1.07924 0.55
6 6 5 1 o 54373.63 54045.20 0.00 1.07915 1.38
0 12 2 2 o 38040.86 37713.91 0.00 1.08143 0.28
8 0 4 2 o 21194.199 20743.195 180.00 1.08045 0.13
5 6 6 1 o 44011.91 43081.80 0.00 1.07774 1.10
8 1 4 1 o 963.699 950.549 180.00 1.07691 0.01
1 9 6 2 o 22259.990 21708.674 180.00 1.07924 0.28
6 6 5 2 o 55486.18 54045.20 0.00 1.07915 0.71
4 11 1 1 o 4172.813 4049.121 0.00 1.07614 0.11
2 12 1 1 o 57102.92 54662.51 0.00 1.07513 1.49
5 6 6 2 o 45045.29 43081.80 0.00 1.07774 0.57
6 4 6 1 o 13882.396 13286.048 180.00 1.07486 0.33
1 12 2 1 o 1820.425 1728.250 0.00 1.07475 0.05
4 0 8 1 o 8071.117 7771.337 180.00 1.07431 0.09
8 1 4 2 o 973.512 950.549 180.00 1.07691 0.01
1 11 4 1 o 3426.426 3285.114 180.00 1.07423 0.09
8 5 2 1 o 6.147 3.926 0.00 1.07392 0.00
4 11 1 2 o 4136.013 4049.121 0.00 1.07614 0.06
2 12 1 2 o 54922.70 54662.51 0.00 1.07513 0.71
6 4 6 2 o 13346.837 13286.048 180.00 1.07486 0.15
1 12 2 2 o 1737.299 1728.250 0.00 1.07475 0.02
8 4 3 1 o 70.680 70.606 0.00 1.07168 0.00
4 0 8 2 o 7780.673 7771.337 180.00 1.07431 0.04
1 11 4 2 o 3285.722 3285.114 180.00 1.07423 0.04
8 5 2 2 o 3.547 3.926 0.00 1.07392 0.00
4 1 8 1 o 244.653 253.034 0.00 1.07084 0.01
5 10 2 1 o 47865.10 49595.91 0.00 1.06980 1.25
8 4 3 2 o 68.253 70.606 0.00 1.07168 0.00
3 11 3 1 o 7675.694 8116.233 180.00 1.06855 0.17
4 1 8 2 o 217.830 253.034 0.00 1.07084 0.01
2 10 5 1 o 11742.682 12604.294 0.00 1.06718 0.30
5 10 2 2 o 46168.70 49595.91 0.00 1.06980 0.59
8 2 4 1 o 29071.344 31001.662 0.00 1.06651 0.69
2 5 8 1 o 15883.430 16875.867 0.00 1.06641 0.36
3 11 3 2 o 7620.407 8116.233 180.00 1.06855 0.09
9 1 1 1 o 1962.203 2158.593 0.00 1.06568 0.06
3 4 8 1 o 1016.894 1095.347 0.00 1.06483 0.02
2 10 5 2 o 11731.602 12604.294 0.00 1.06718 0.15
8 2 4 2 o 29503.559 31001.662 0.00 1.06651 0.35
2 5 8 2 o 16157.651 16875.867 0.00 1.06641 0.18
6 9 2 1 o 2935.791 3041.314 0.00 1.06358 0.06
7 4 5 1 o 1001.007 1037.848 0.00 1.06320 0.03
9 1 1 2 o 2087.704 2158.593 0.00 1.06568 0.03
8 6 0 1 o 99342.37 101176.20 0.00 1.06264 1.19
0 1 9 1 o 23630.939 24000.107 0.00 1.06226 0.28
3 4 8 2 o 1078.750 1095.347 0.00 1.06483 0.01
6 9 2 2 o 2987.928 3041.314 0.00 1.06358 0.03
4 2 8 1 o 7405.648 7578.067 0.00 1.06060 0.19
7 4 5 2 o 1009.979 1037.848 0.00 1.06320 0.02
5 4 7 1 o 15807.228 16189.806 180.00 1.06027 0.39
8 6 0 2 o 98833.13 101176.20 0.00 1.06264 0.59
2 9 6 1 o 41840.59 42830.36 0.00 1.05967 1.04
0 1 9 2 o 23457.602 24000.107 0.00 1.06226 0.14
4 2 8 2 o 7510.305 7578.067 0.00 1.06060 0.09
5 4 7 2 o 16044.281 16189.806 180.00 1.06027 0.20
7 8 1 1 o 4434.104 4476.713 0.00 1.05747 0.11
2 9 6 2 o 42329.66 42830.36 0.00 1.05967 0.53
4 11 2 1 o 1042.491 1067.127 180.00 1.05637 0.04
8 6 1 1 o 4344.810 4421.055 180.00 1.05617 0.11
7 7 3 1 o 42808.38 43653.74 180.00 1.05604 1.11
1 1 9 1 o 40370.54 41174.46 180.00 1.05592 0.97
5 9 4 1 o 13675.124 13967.174 180.00 1.05577 0.34
9 2 1 1 o 31842.268 32604.035 0.00 1.05559 0.79
2 12 2 1 o 9280.088 9467.368 180.00 1.05542 0.19
2 11 4 1 o 15751.957 16139.631 180.00 1.05493 0.38
0 6 8 1 o 20501.854 21021.482 0.00 1.05488 0.25
7 8 1 2 o 4366.972 4476.713 0.00 1.05747 0.05
4 9 5 1 o 34612.375 35451.62 180.00 1.05469 0.85
5 8 5 1 o 4732.945 4864.590 0.00 1.05458 0.14
7 6 4 1 o 30652.398 31299.547 180.00 1.05437 0.74
4 11 2 2 o 1043.210 1067.127 180.00 1.05637 0.02
8 6 1 2 o 4358.425 4421.055 180.00 1.05617 0.05
7 7 3 2 o 43015.46 43653.74 180.00 1.05604 0.56
1 1 9 2 o 40594.77 41174.46 180.00 1.05592 0.49
5 9 4 2 o 13763.117 13967.174 180.00 1.05577 0.17
9 2 1 2 o 32070.730 32604.035 0.00 1.05559 0.40
2 12 2 2 o 9332.561 9467.368 180.00 1.05542 0.10
2 11 4 2 o 15816.425 16139.631 180.00 1.05493 0.19
0 6 8 2 o 20580.189 21021.482 0.00 1.05488 0.12
4 9 5 2 o 34695.191 35451.62 180.00 1.05469 0.43
5 8 5 2 o 4741.688 4864.590 0.00 1.05458 0.07
7 6 4 2 o 30657.389 31299.547 180.00 1.05437 0.37
1 8 7 1 o 38707.66 39531.66 180.00 1.05172 0.98
3 7 7 1 o 12905.455 13133.079 180.00 1.05126 0.33
4 6 7 1 o 11.362 11.527 180.00 1.05044 0.00
8 3 4 1 o 7.624 10.808 0.00 1.04981 0.00
9 0 2 1 o 25214.291 25880.078 0.00 1.04972 0.30
4 10 4 1 o 14657.396 15130.049 180.00 1.04931 0.36
1 8 7 2 o 38164.89 39531.66 180.00 1.05172 0.48
1 6 8 1 o 1344.565 1398.957 0.00 1.04867 0.03
3 7 7 2 o 12623.931 13133.079 180.00 1.05126 0.16
4 6 7 2 o 11.178 11.527 180.00 1.05044 0.00
8 3 4 2 o 8.543 10.808 0.00 1.04981 0.00
9 0 2 2 o 25504.385 25880.078 0.00 1.04972 0.15
4 10 4 2 o 15090.138 15130.049 180.00 1.04931 0.19
9 1 2 1 o 45396.52 45223.98 0.00 1.04648 1.09
1 2 9 1 o 19388.217 19138.592 180.00 1.04611 0.55
1 6 8 2 o 1415.795 1398.957 0.00 1.04867 0.02
7 0 6 1 o 5408.167 5334.591 0.00 1.04596 0.07
6 5 6 1 o 59557.14 57300.25 0.00 1.04469 1.54
4 3 8 1 o 1785.720 1680.675 0.00 1.04418 0.06
9 1 2 2 o 47085.61 45223.98 0.00 1.04648 0.57
1 2 9 2 o 20009.932 19138.592 180.00 1.04611 0.28
3 12 1 1 o 7631.778 7378.710 0.00 1.04344 0.18
7 0 6 2 o 5540.331 5334.591 0.00 1.04596 0.03
6 8 4 1 o 3516.902 3406.280 180.00 1.04333 0.08
7 1 6 1 o 7085.416 6830.093 180.00 1.04275 0.17
1 12 3 1 o 32864.730 31728.260 180.00 1.04252 0.80
6 5 6 2 o 59657.07 57300.25 0.00 1.04469 0.77
8 5 3 1 o 12879.327 12427.434 180.00 1.04176 0.31
4 3 8 2 o 1766.996 1680.675 0.00 1.04418 0.03
6 1 7 1 o 8034.510 7822.923 0.00 1.04125 0.21
4 8 6 1 o 35365.86 34793.219 0.00 1.04102 0.84
3 12 1 2 o 7453.974 7378.710 0.00 1.04344 0.09
6 8 4 2 o 3426.069 3406.280 180.00 1.04333 0.04
7 1 6 2 o 6711.227 6830.093 180.00 1.04275 0.08
1 12 3 2 o 30977.580 31728.260 180.00 1.04252 0.37
9 3 1 1 o 16781.689 17499.318 180.00 1.03940 0.45
8 5 3 2 o 11956.772 12427.434 180.00 1.04176 0.14
7 8 2 1 o 33362.168 34596.301 180.00 1.03870 0.80
6 1 7 2 o 7520.208 7822.923 0.00 1.04125 0.10
4 8 6 2 o 33691.789 34793.219 0.00 1.04102 0.39
5 10 3 1 o 1833.550 1865.964 180.00 1.03800 0.03
2 1 9 1 o 437.287 444.341 0.00 1.03758 0.01
8 6 2 1 o 45555.91 46349.43 0.00 1.03747 1.13
9 2 2 1 o 745.662 758.749 0.00 1.03692 0.02
9 3 1 2 o 17164.178 17499.318 180.00 1.03940 0.23
0 3 9 1 o 75843.19 77958.20 180.00 1.03623 0.91
3 10 5 1 o 798.671 836.102 180.00 1.03618 0.03
7 8 2 2 o 33622.566 34596.301 180.00 1.03870 0.40
6 7 5 1 o 30696.398 31777.508 0.00 1.03586 0.73
3 5 8 1 o 25279.215 26370.863 180.00 1.03547 0.61
5 10 3 2 o 1811.910 1865.964 180.00 1.03800 0.02
2 1 9 2 o 426.690 444.341 0.00 1.03758 0.00
8 6 2 2 o 44225.63 46349.43 0.00 1.03747 0.55
5 7 6 1 o 156.351 163.497 0.00 1.03461 0.00
9 2 2 2 o 726.423 758.749 0.00 1.03692 0.01
7 5 5 1 o 1750.058 1783.004 0.00 1.03397 0.02
0 3 9 2 o 75758.37 77958.20 180.00 1.03623 0.45
3 10 5 2 o 799.792 836.102 180.00 1.03618 0.02
2 8 7 1 o 946.837 973.471 0.00 1.03358 0.02
6 7 5 2 o 31103.934 31777.508 0.00 1.03586 0.37
7 2 6 1 o 27330.412 27911.699 180.00 1.03329 0.64
3 5 8 2 o 25950.270 26370.863 180.00 1.03547 0.32
6 9 3 1 o 14430.345 14533.212 0.00 1.03232 0.35
5 7 6 2 o 163.127 163.497 0.00 1.03461 0.00
6 2 7 1 o 1380.936 1376.300 180.00 1.03183 0.03
7 5 5 2 o 1795.166 1783.004 0.00 1.03397 0.01
5 5 7 1 o 13906.959 13727.173 180.00 1.03127 0.29
2 8 7 2 o 991.934 973.471 0.00 1.03358 0.01
7 2 6 2 o 28424.699 27911.699 180.00 1.03329 0.34
2 6 8 1 o 2023.114 1982.479 180.00 1.03069 0.06
1 3 9 1 o 14057.701 13859.589 180.00 1.03034 0.37
6 9 3 2 o 14537.093 14533.212 0.00 1.03232 0.18
6 2 7 2 o 1366.986 1376.300 180.00 1.03183 0.02
3 9 6 1 o 18326.844 18447.701 0.00 1.02929 0.46
5 5 7 2 o 13666.092 13727.173 180.00 1.03127 0.14
2 2 9 1 o 71732.70 71768.84 180.00 1.02826 1.70
2 6 8 2 o 1983.360 1982.479 180.00 1.03069 0.03
1 3 9 2 o 13894.009 13859.589 180.00 1.03034 0.18
8 4 4 1 o 118232.25 117939.21 0.00 1.02771 2.84
6 10 0 1 o 3849.470 3844.743 180.00 1.02727 0.04
3 9 6 2 o 18412.025 18447.701 0.00 1.02929 0.23
2 2 9 2 o 71487.61 71768.84 180.00 1.02826 0.84
4 11 3 1 o 48308.12 48496.12 180.00 1.02572 1.18
3 12 2 2 o 6335.402 6435.939 180.00 1.02540 0.08
3 12 2 1 o 6408.723 6435.939 180.00 1.02540 0.16
8 4 4 2 o 117361.71 117939.21 0.00 1.02771 1.41
3 11 4 2 o 1990.493 2017.288 0.00 1.02495 0.02
4 4 8 1 o 12034.952 12167.050 0.00 1.02243 0.23
3 11 4 1 o 2005.131 2017.288 0.00 1.02495 0.05
2 12 3 2 o 9592.766 9713.090 180.00 1.02485 0.11
2 12 3 1 o 9650.363 9713.090 180.00 1.02485 0.23
6 10 0 2 o 3817.667 3844.743 180.00 1.02727 0.02
9 3 2 1 o 8155.417 8222.182 0.00 1.02156 0.18
0 11 5 2 o 24962.195 25149.025 0.00 1.02396 0.16
6 10 1 1 o 6523.001 6569.955 0.00 1.02143 0.16
0 11 5 1 o 24775.365 25149.025 0.00 1.02396 0.31
8 7 0 1 o 4035.883 4062.055 180.00 1.02123 0.07
5 11 1 1 o 739.123 738.789 0.00 1.02088 0.01
0 10 6 2 o 60002.79 59877.59 0.00 1.02330 0.35
0 10 6 1 o 58918.14 59877.59 0.00 1.02330 0.69
4 11 3 2 o 47706.96 48496.12 180.00 1.02572 0.58
8 1 5 1 o 82464.16 82016.48 180.00 1.02056 1.98
4 4 8 2 o 12299.084 12167.050 0.00 1.02243 0.12
5 0 8 1 o 77647.84 76363.45 0.00 1.01933 0.92
9 3 2 2 o 8346.279 8222.182 0.00 1.02156 0.09
6 10 1 2 o 6669.164 6569.955 0.00 1.02143 0.08
0 13 1 1 o 1103.472 1086.211 0.00 1.01884 0.02
8 7 0 2 o 4137.761 4062.055 180.00 1.02123 0.04
5 11 1 2 o 742.926 738.789 0.00 1.02088 0.01
1 11 5 1 o 8173.948 8108.071 180.00 1.01828 0.21
7 3 6 1 o 3316.070 3293.554 180.00 1.01809 0.09
8 1 5 2 o 82517.38 82016.48 180.00 1.02056 0.99
9 4 1 1 o 7369.374 7328.558 180.00 1.01793 0.18
1 10 6 1 o 74975.13 74565.28 0.00 1.01764 1.87
5 0 8 2 o 76996.43 76363.45 0.00 1.01933 0.45
6 3 7 1 o 1519.975 1509.253 0.00 1.01669 0.03
9 1 3 1 o 2502.341 2476.593 180.00 1.01666 0.08
5 1 8 1 o 23153.094 23048.879 0.00 1.01635 0.53
0 13 1 2 o 1091.464 1086.211 0.00 1.01884 0.01
1 11 5 2 o 8056.062 8108.071 180.00 1.01828 0.10
7 3 6 2 o 3256.482 3293.554 180.00 1.01809 0.04
8 7 1 1 o 5839.575 5912.878 0.00 1.01549 0.14
9 4 1 2 o 7228.136 7328.558 180.00 1.01793 0.09
1 10 6 2 o 73152.42 74565.28 0.00 1.01764 0.90
6 3 7 2 o 1447.995 1509.253 0.00 1.01669 0.02
9 1 3 2 o 2320.082 2476.593 180.00 1.01666 0.04
7 7 4 1 o 165.015 177.733 0.00 1.01389 0.00
5 1 8 2 o 21700.455 23048.879 0.00 1.01635 0.24
2 3 9 1 o 204.411 226.907 180.00 1.01327 0.01
1 13 1 1 o 2302.646 2506.802 0.00 1.01324 0.05
8 7 1 2 o 5308.656 5912.878 0.00 1.01549 0.06
8 2 5 1 o 8911.798 10131.040 180.00 1.01170 0.20
7 7 4 2 o 152.575 177.733 0.00 1.01389 0.00
6 6 6 1 o 1484.005 1656.003 180.00 1.01104 0.03
2 3 9 2 o 201.434 226.907 180.00 1.01327 0.00
1 13 1 2 o 2281.717 2506.802 0.00 1.01324 0.02
4 7 7 1 o 590.717 642.264 180.00 1.01039 0.01
7 8 3 1 o 14165.691 14796.698 0.00 1.00952 0.35
1 4 9 1 o 475.272 489.336 0.00 1.00942 0.01
8 2 5 2 o 9870.708 10131.040 180.00 1.01170 0.12
3 1 9 1 o 11824.440 12032.881 0.00 1.00901 0.29
4 12 0 1 o 25664.566 26041.803 0.00 1.00899 0.30
1 7 8 1 o 87.246 87.831 180.00 1.00882 0.00
6 6 6 2 o 1663.055 1656.003 180.00 1.01104 0.02
8 6 3 1 o 867.858 858.266 0.00 1.00839 0.02
4 7 7 2 o 659.163 642.264 180.00 1.01039 0.01
9 2 3 1 o 52959.64 51556.83 0.00 1.00789 1.22
5 2 8 1 o 12466.878 12062.871 0.00 1.00759 0.30
0 12 4 1 o 6740.333 6568.340 0.00 1.00731 0.06
7 8 3 2 o 15362.465 14796.698 0.00 1.00952 0.19
1 4 9 2 o 503.561 489.336 0.00 1.00942 0.00
3 1 9 2 o 12462.113 12032.881 0.00 1.00901 0.16
4 12 0 2 o 26866.031 26041.803 0.00 1.00899 0.16
1 7 8 2 o 90.376 87.831 180.00 1.00882 0.00
8 6 3 2 o 880.889 858.266 0.00 1.00839 0.01
0 9 7 1 o 1977.787 1937.003 180.00 1.00544 0.02
9 2 3 2 o 52646.86 51556.83 0.00 1.00789 0.61
3 8 7 1 o 18647.609 18271.502 0.00 1.00534 0.44
5 2 8 2 o 12302.399 12062.871 0.00 1.00759 0.15
7 9 1 1 o 14764.890 14442.013 0.00 1.00500 0.42
0 12 4 2 o 6655.686 6568.340 0.00 1.00731 0.03
6 10 2 1 o 12242.786 12060.321 180.00 1.00448 0.29
5 11 2 1 o 19022.242 18879.203 0.00 1.00396 0.48
4 12 1 1 o 2601.567 2613.808 0.00 1.00345 0.07
0 9 7 2 o 1909.708 1937.003 180.00 1.00544 0.01
3 8 7 2 o 17984.027 18271.502 0.00 1.00534 0.21
3 6 8 1 o 78329.91 79841.91 180.00 1.00268 1.87
7 9 1 2 o 14101.788 14442.013 0.00 1.00500 0.20
5 9 5 1 o 4969.612 5049.425 180.00 1.00252 0.09
2 13 0 1 o 52806.34 53978.11 0.00 1.00243 0.68
6 10 2 2 o 11793.220 12060.321 180.00 1.00448 0.14
1 12 4 1 o 5641.092 5771.391 0.00 1.00191 0.14
2 11 5 1 o 12920.523 13218.249 0.00 1.00180 0.31
5 11 2 2 o 18434.441 18879.203 0.00 1.00396 0.23
7 6 5 1 o 1044.698 1074.061 0.00 1.00132 0.03
8 5 4 1 o 2652.425 2699.066 0.00 1.00124 0.05
2 10 6 1 o 5611.482 5751.793 180.00 1.00118 0.14
9 4 2 1 o 2454.680 2513.113 180.00 1.00116 0.06
4 12 1 2 o 2550.820 2613.808 0.00 1.00345 0.03
3 2 9 1 o 92.647 92.666 0.00 1.00044 0.00
3 6 8 2 o 78286.49 79841.91 180.00 1.00268 0.93
1 9 7 1 o 7967.495 8120.236 180.00 1.00006 0.20
5 9 5 2 o 4980.243 5049.425 180.00 1.00252 0.05
2 13 0 2 o 53061.69 53978.11 0.00 1.00243 0.34
1 12 4 2 o 5725.955 5771.391 0.00 1.00191 0.07
2 11 5 2 o 13139.229 13218.249 0.00 1.00180 0.16
5 6 7 1 o 46049.19 45995.15 180.00 0.99887 1.15
7 6 5 2 o 1075.662 1074.061 0.00 1.00132 0.02
8 7 2 1 o 1934.219 1929.911 0.00 0.99883 0.07
8 5 4 2 o 2703.692 2699.066 0.00 1.00124 0.02
2 10 6 2 o 5769.447 5751.793 180.00 1.00118 0.07
9 4 2 2 o 2521.108 2513.113 180.00 1.00116 0.03
3 2 9 2 o 92.672 92.666 0.00 1.00044 0.00
7 4 6 1 o 82941.34 82391.34 180.00 0.99789 1.95
5 10 4 1 o 29944.039 29741.359 0.00 0.99790 0.74
1 9 7 2 o 8177.127 8120.236 180.00 1.00006 0.11
8 3 5 1 o 20700.945 20566.980 0.00 0.99741 0.48
3 12 3 1 o 35847.72 35598.03 0.00 0.99729 0.93
2 13 1 1 o 26149.043 25959.264 0.00 0.99700 0.66
4 10 5 1 o 75.625 75.219 0.00 0.99698 0.00
1 13 2 1 o 18006.906 17866.105 180.00 0.99670 0.44
6 4 7 1 o 53.395 52.410 180.00 0.99658 0.00
5 6 7 2 o 46396.15 45995.15 180.00 0.99887 0.58
8 7 2 2 o 1952.468 1929.911 0.00 0.99883 0.03
4 5 8 1 o 126.843 126.301 0.00 0.99635 0.00
7 4 6 2 o 82381.96 82391.34 180.00 0.99789 0.97
5 10 4 2 o 29739.289 29741.359 0.00 0.99790 0.37
8 3 5 2 o 20473.033 20566.980 0.00 0.99741 0.24
3 12 3 2 o 35404.21 35598.03 0.00 0.99729 0.46
2 13 1 2 o 25816.227 25959.264 0.00 0.99700 0.32
4 10 5 2 o 74.915 75.219 0.00 0.99698 0.00
1 13 2 2 o 17786.877 17866.105 180.00 0.99670 0.22
6 4 7 2 o 51.925 52.410 180.00 0.99658 0.00
4 5 8 2 o 126.074 126.301 0.00 0.99635 0.00
9 3 3 1 o 16465.918 16514.191 180.00 0.99376 0.35
5 3 8 1 o 4960.955 4978.696 0.00 0.99348 0.11
2 4 9 1 o 19201.805 19288.703 0.00 0.99336 0.46
6 9 4 1 o 42599.18 42913.48 180.00 0.99284 0.97
2 7 8 1 o 267.474 270.220 180.00 0.99278 0.01
9 5 1 1 o 8328.551 8418.601 180.00 0.99219 0.24
6 8 5 1 o 58870.29 59292.09 180.00 0.99185 1.43
9 3 3 2 o 16447.916 16514.191 180.00 0.99376 0.17
5 3 8 2 o 4957.131 4978.696 0.00 0.99348 0.05
2 4 9 2 o 19185.352 19288.703 0.00 0.99336 0.23
4 9 6 1 o 7.139 7.191 0.00 0.99085 0.00
5 8 6 1 o 33186.301 33400.520 0.00 0.99076 0.79
6 9 4 2 o 42464.32 42913.48 180.00 0.99284 0.48
2 7 8 2 o 266.103 270.220 180.00 0.99278 0.00
9 5 1 2 o 8200.091 8418.601 180.00 0.99219 0.12
0 5 9 1 o 5913.001 6066.595 180.00 0.98943 0.07
6 8 5 2 o 57852.80 59292.09 180.00 0.99185 0.70
7 9 2 1 o 13518.211 13840.498 0.00 0.98885 0.32
4 9 6 2 o 6.986 7.191 0.00 0.99085 0.00
5 8 6 2 o 32671.215 33400.520 0.00 0.99076 0.39
4 12 2 1 o 32209.912 32935.926 0.00 0.98737 0.85
0 5 9 2 o 5942.837 6066.595 180.00 0.98943 0.04
4 11 4 1 o 113.237 119.338 0.00 0.98697 0.01
3 3 9 1 o 33920.238 34513.016 0.00 0.98662 0.74
7 9 2 2 o 13592.110 13840.498 0.00 0.98885 0.16
2 12 4 1 o 23543.371 24030.227 180.00 0.98619 0.64
4 12 2 2 o 32151.561 32935.926 0.00 0.98737 0.43
4 11 4 2 o 112.060 119.338 0.00 0.98697 0.00
2 9 7 1 o 4029.018 4123.157 0.00 0.98443 0.10
1 5 9 1 o 16523.506 16888.545 180.00 0.98430 0.39
3 3 9 2 o 33847.918 34513.016 0.00 0.98662 0.37
2 12 4 2 o 23641.689 24030.227 180.00 0.98619 0.32
2 9 7 2 o 4215.126 4123.157 0.00 0.98443 0.05
1 5 9 2 o 17326.449 16888.545 180.00 0.98430 0.21
9 0 4 1 o 25545.559 24651.678 0.00 0.98154 0.31
2 13 2 1 o 6009.269 5751.399 0.00 0.98122 0.17
9 0 4 2 o 25711.516 24651.678 0.00 0.98154 0.16
8 8 0 1 o 91251.94 87549.08 0.00 0.97899 1.10
9 1 4 1 o 6565.264 6318.056 0.00 0.97889 0.14
2 13 2 2 o 6025.186 5751.399 0.00 0.98122 0.08
8 4 5 1 o 3186.093 3052.376 0.00 0.97840 0.08
6 10 3 1 o 784.252 757.329 180.00 0.97802 0.02
5 11 3 1 o 4306.909 4137.589 0.00 0.97754 0.12
9 5 2 1 o 56195.87 54517.95 180.00 0.97664 1.30
8 8 0 2 o 90271.28 87549.08 0.00 0.97899 0.54
9 1 4 2 o 6495.006 6318.056 0.00 0.97889 0.07
3 11 5 1 o 17213.219 16733.090 0.00 0.97602 0.41
8 4 5 2 o 3146.519 3052.376 0.00 0.97840 0.04
0 13 3 1 o 48624.92 47165.98 180.00 0.97575 0.62
6 10 3 2 o 778.666 757.329 180.00 0.97802 0.01
3 10 6 1 o 1604.770 1551.598 0.00 0.97545 0.04
6 7 6 1 o 1660.226 1573.615 0.00 0.97518 0.06
5 11 3 2 o 4297.781 4137.589 0.00 0.97754 0.06
9 4 3 1 o 11943.350 11532.796 180.00 0.97495 0.28
5 4 8 1 o 1100.794 1059.446 0.00 0.97469 0.03
9 5 2 2 o 56253.84 54517.95 180.00 0.97664 0.65
8 8 1 1 o 6524.947 6320.921 0.00 0.97392 0.17
3 11 5 2 o 17226.834 16733.090 0.00 0.97602 0.21
7 5 6 1 o 9413.361 9135.872 0.00 0.97361 0.23
0 13 3 2 o 48644.25 47165.98 180.00 0.97575 0.31
3 10 6 2 o 1602.929 1551.598 0.00 0.97545 0.02
0 8 8 1 o 20826.092 20124.654 0.00 0.97291 0.27
8 7 3 1 o 53418.73 51763.65 180.00 0.97280 1.28
6 7 6 2 o 1652.648 1573.615 0.00 0.97518 0.03
4 1 9 1 o 32688.961 31669.025 180.00 0.97272 0.78
9 4 3 2 o 11892.186 11532.796 180.00 0.97495 0.14
7 8 4 1 o 25442.408 24664.410 180.00 0.97251 0.61
6 5 7 1 o 1942.127 1888.412 0.00 0.97238 0.04
5 4 8 2 o 1095.064 1059.446 0.00 0.97469 0.01
3 13 1 1 o 6986.158 6798.616 0.00 0.97158 0.15
8 8 1 2 o 6547.262 6320.921 0.00 0.97392 0.08
8 6 4 1 o 662.093 644.208 180.00 0.97150 0.01
7 5 6 2 o 9485.050 9135.872 0.00 0.97361 0.11
9 2 4 1 o 6404.299 6155.699 0.00 0.97105 0.15
7 1 7 1 o 61884.45 59557.77 0.00 0.97082 1.37
1 13 3 1 o 4559.238 4367.687 0.00 0.97083 0.12
0 8 8 2 o 21069.611 20124.654 0.00 0.97291 0.14
8 7 3 2 o 54001.36 51763.65 180.00 0.97280 0.65
4 1 9 2 o 33056.633 31669.025 180.00 0.97272 0.39
7 8 4 2 o 25748.328 24664.410 180.00 0.97251 0.31
6 5 7 2 o 1964.851 1888.412 0.00 0.97238 0.02
4 8 7 1 o 89.514 84.781 0.00 0.96943 0.00
2 5 9 1 o 38.764 37.174 0.00 0.96939 0.00
3 13 1 2 o 7079.347 6798.616 0.00 0.97158 0.07
8 6 4 2 o 670.655 644.208 180.00 0.97150 0.01
9 2 4 2 o 6480.553 6155.699 0.00 0.97105 0.08
6 11 0 1 o 16672.059 15917.189 180.00 0.96856 0.19
7 1 7 2 o 62304.13 59557.77 0.00 0.97082 0.69
1 13 3 2 o 4594.600 4367.687 0.00 0.97083 0.06
10 0 0 1 o 699.705 664.289 180.00 0.96823 0.00
3 4 9 1 o 1487.282 1419.811 180.00 0.96820 0.04
1 8 8 1 o 1971.631 1901.053 0.00 0.96803 0.05
3 7 8 1 o 57.974 56.779 0.00 0.96767 0.00
4 8 7 2 o 85.115 84.781 0.00 0.96943 0.00
4 6 8 1 o 2519.204 2511.289 180.00 0.96704 0.06
2 5 9 2 o 37.268 37.174 0.00 0.96939 0.00
7 7 5 1 o 33790.223 33779.402 0.00 0.96645 0.87
6 11 0 2 o 15927.394 15917.189 180.00 0.96856 0.09
10 0 0 2 o 664.055 664.289 180.00 0.96823 0.00
3 4 9 2 o 1419.048 1419.811 180.00 0.96820 0.02
10 1 0 1 o 32596.484 32649.324 180.00 0.96568 0.36
1 8 8 2 o 1897.179 1901.053 0.00 0.96803 0.02
3 7 8 2 o 56.428 56.779 0.00 0.96767 0.00
4 2 9 1 o 1889.052 1907.761 180.00 0.96503 0.04
8 0 6 1 o 10859.117 10978.540 180.00 0.96491 0.13
4 6 8 2 o 2483.157 2511.289 180.00 0.96704 0.03
5 7 7 1 o -0.106 0.068 0.00 0.96425 0.00
7 7 5 2 o 33553.203 33779.402 0.00 0.96645 0.43
6 11 1 1 o 36243.64 36198.48 0.00 0.96366 0.89
7 9 3 1 o 8126.862 8108.439 0.00 0.96357 0.16
10 1 0 2 o 32871.637 32649.324 180.00 0.96568 0.18
9 6 1 1 o 20754.523 20573.896 180.00 0.96323 0.52
7 2 7 1 o 14247.751 14122.360 180.00 0.96318 0.33
4 2 9 2 o 1935.628 1907.761 180.00 0.96503 0.02
8 0 6 2 o 11150.125 10978.540 180.00 0.96491 0.07
8 1 6 1 o 13554.103 13283.526 180.00 0.96239 0.38
6 0 8 1 o 3782.728 3724.443 180.00 0.96235 0.04
4 12 3 1 o 44.072 43.591 180.00 0.96220 0.00
5 7 7 2 o 0.526 0.068 0.00 0.96425 0.00
3 12 4 1 o 8223.254 8000.345 180.00 0.96157 0.20
6 11 1 2 o 37478.56 36198.48 0.00 0.96366 0.46
0 0 10 1 o 41997.34 40152.25 0.00 0.95909 0.22
7 9 3 2 o 8351.518 8108.439 0.00 0.96357 0.08
9 6 1 2 o 21545.422 20573.896 180.00 0.96323 0.27
10 1 1 1 o 48945.67 46780.86 0.00 0.96083 1.19
7 2 7 2 o 14750.655 14122.360 180.00 0.96318 0.17
10 1 1 2 o 49030.74 46780.86 0.00 0.96083 0.60
9 3 4 1 o 2719.757 2601.137 0.00 0.95840 0.06
1 11 6 1 o 8055.691 7665.188 0.00 0.96048 0.21
5 12 1 1 o 12002.179 11571.272 0.00 0.95821 0.27
10 2 0 1 o 43154.09 41384.84 180.00 0.95816 0.54
1 11 6 2 o 7976.878 7665.188 0.00 0.96048 0.10
8 1 6 2 o 14104.249 13283.526 180.00 0.96239 0.20
6 0 8 2 o 3898.182 3724.443 180.00 0.96235 0.02
3 9 7 1 o 30948.137 29517.994 0.00 0.95993 0.71
6 1 8 1 o 27288.322 25803.137 0.00 0.95985 0.72
4 12 3 2 o 44.926 43.591 180.00 0.96220 0.00
3 9 7 2 o 30134.291 29517.994 0.00 0.95993 0.34
6 1 8 2 o 26355.951 25803.137 0.00 0.95985 0.35
8 8 2 1 o 32834.586 31194.504 0.00 0.95920 0.81
3 12 4 2 o 8403.176 8000.345 180.00 0.96157 0.10
3 13 2 1 o 16654.350 16618.973 0.00 0.95696 0.43
8 8 2 2 o 31148.111 31194.504 0.00 0.95920 0.38
0 0 10 2 o 39982.34 40152.25 0.00 0.95909 0.10
2 13 3 1 o 13147.606 13290.162 0.00 0.95651 0.32
1 12 5 1 o 6.612 6.759 0.00 0.95606 0.00
9 3 4 2 o 2546.529 2601.137 0.00 0.95840 0.03
1 6 9 1 o 6680.347 6855.253 0.00 0.95601 0.19
5 12 1 2 o 11322.513 11571.272 0.00 0.95821 0.12
10 2 0 2 o 40307.56 41384.84 180.00 0.95816 0.25
8 5 5 1 o 2390.008 2459.124 180.00 0.95548 0.06
8 2 6 1 o 12366.935 12768.239 0.00 0.95494 0.28
7 10 1 1 o 269.445 276.759 0.00 0.95470 0.01
3 13 2 2 o 16028.603 16618.973 0.00 0.95696 0.20
1 0 10 1 o 47277.55 49069.93 0.00 0.95442 0.57
2 13 3 2 o 12824.420 13290.162 0.00 0.95651 0.16
2 8 8 1 o 168.944 185.639 0.00 0.95384 0.01
1 12 5 2 o 6.539 6.759 0.00 0.95606 0.00
1 6 9 2 o 6607.075 6855.253 0.00 0.95601 0.09
10 2 1 1 o 32761.158 33654.723 180.00 0.95341 0.75
8 5 5 2 o 2404.330 2459.124 180.00 0.95548 0.03
4 3 9 1 o 52469.59 53308.81 0.00 0.95261 1.24
8 2 6 2 o 12575.346 12768.239 0.00 0.95494 0.14
5 10 5 1 o 305.522 314.027 180.00 0.95257 0.01
6 2 8 1 o 85.170 85.910 180.00 0.95246 0.00
7 10 1 2 o 273.685 276.759 0.00 0.95470 0.00
9 5 3 1 o 1867.391 1884.948 180.00 0.95227 0.03
1 0 10 2 o 48348.31 49069.93 0.00 0.95442 0.29
5 5 8 1 o 34639.129 35129.89 180.00 0.95202 0.80
1 1 10 1 o 1681.889 1705.143 0.00 0.95198 0.04
2 8 8 2 o 179.184 185.639 0.00 0.95384 0.01
0 14 0 1 o 152460.97 154313.75 0.00 0.95145 0.93
10 2 1 2 o 33429.555 33654.723 180.00 0.95341 0.39
7 3 7 1 o 3344.541 3351.272 180.00 0.95083 0.06
1 10 7 1 o 5.402 4.954 0.00 0.95046 0.01
4 3 9 2 o 53427.06 53308.81 0.00 0.95261 0.64
5 10 5 2 o 315.215 314.027 180.00 0.95257 0.01
6 2 8 2 o 85.993 85.910 180.00 0.95246 0.00
9 5 3 2 o 1884.906 1884.948 180.00 0.95227 0.01
5 5 8 2 o 35020.367 35129.89 180.00 0.95202 0.41
1 1 10 2 o 1698.999 1705.143 0.00 0.95198 0.02
6 11 2 1 o 6061.481 6117.126 180.00 0.94939 0.18
0 2 10 1 o 6628.740 6688.873 180.00 0.94930 0.08
0 14 0 2 o 152600.16 154313.75 0.00 0.95145 0.47
10 0 2 1 o 6508.184 6577.242 180.00 0.94908 0.07
9 6 2 1 o 9290.521 9406.942 0.00 0.94898 0.21
7 3 7 2 o 3304.622 3351.272 180.00 0.95083 0.03
6 9 5 1 o 7374.325 7543.941 0.00 0.94817 0.19
1 10 7 2 o -0.658 4.954 0.00 0.95046 0.00
5 9 6 1 o 26596.031 27086.377 0.00 0.94721 0.64
6 11 2 2 o 5998.515 6117.126 180.00 0.94939 0.09
0 2 10 2 o 6591.578 6688.873 180.00 0.94930 0.04
10 0 2 2 o 6516.976 6577.242 180.00 0.94908 0.03
10 1 2 1 o 7776.539 7859.779 180.00 0.94668 0.22
9 6 2 2 o 9331.923 9406.942 0.00 0.94898 0.11
2 11 6 1 o 18842.617 18999.250 180.00 0.94660 0.51
7 6 6 1 o 16.820 16.774 180.00 0.94620 0.00
10 3 0 1 o 6428.746 6390.227 180.00 0.94600 0.07
3 5 9 1 o 13992.597 13898.656 0.00 0.94598 0.30
6 9 5 2 o 7633.613 7543.941 0.00 0.94817 0.10
6 6 7 1 o 442.724 430.190 0.00 0.94508 0.01
5 9 6 2 o 27970.266 27086.377 0.00 0.94721 0.34
1 2 10 1 o 16956.488 16396.959 0.00 0.94477 0.41
10 1 2 2 o 8203.231 7859.779 180.00 0.94668 0.11
2 11 6 2 o 19780.873 18999.250 180.00 0.94660 0.27
6 10 4 1 o 30447.346 29347.480 180.00 0.94426 0.75
5 12 2 1 o 4254.434 4097.786 0.00 0.94417 0.11
7 6 6 2 o 17.823 16.774 180.00 0.94620 0.00
5 11 4 1 o 4921.642 4736.100 0.00 0.94383 0.13
10 3 0 2 o 6598.734 6390.227 180.00 0.94600 0.03
3 5 9 2 o 14360.793 13898.656 0.00 0.94598 0.15
4 13 0 1 o 44.682 37.855 180.00 0.94358 0.00
4 11 5 1 o 125668.38 121212.03 180.00 0.94305 3.19
8 3 6 1 o 7623.724 7290.531 180.00 0.94290 0.23
6 6 7 2 o 445.453 430.190 0.00 0.94508 0.01
4 10 6 1 o 14818.709 14279.777 180.00 0.94254 0.39
1 2 10 2 o 16983.979 16396.959 0.00 0.94477 0.20
2 12 5 1 o 80481.34 77703.83 180.00 0.94237 2.03
2 6 9 1 o 40565.09 39168.66 0.00 0.94233 0.99
1 14 1 1 o 8279.600 7908.660 0.00 0.94231 0.28
6 10 4 2 o 30336.734 29347.480 180.00 0.94426 0.37
5 12 2 2 o 4235.564 4097.786 0.00 0.94417 0.05
5 11 4 2 o 4884.477 4736.100 0.00 0.94383 0.06
9 4 4 1 o 1474.660 1432.320 0.00 0.94149 0.03
10 3 1 1 o 924.948 903.388 0.00 0.94143 0.02
4 13 0 2 o 42.968 37.855 180.00 0.94358 0.00
7 10 2 1 o 29223.672 28547.928 0.00 0.94082 0.71
2 0 10 1 o 2.236 0.661 0.00 0.94080 0.00
4 11 5 2 o 124123.30 121212.03 180.00 0.94305 1.57
8 3 6 2 o 7499.335 7290.531 180.00 0.94290 0.11
6 3 8 1 o 12228.199 11916.149 0.00 0.94051 0.35
4 10 6 2 o 14578.617 14279.777 180.00 0.94254 0.19
2 12 5 2 o 79136.71 77703.83 180.00 0.94237 1.00
2 6 9 2 o 39874.75 39168.66 0.00 0.94233 0.48
1 14 1 2 o 8094.004 7908.660 0.00 0.94231 0.14
10 2 2 1 o 16651.777 16437.814 180.00 0.93959 0.39
8 7 4 1 o 1940.603 1905.562 180.00 0.93956 0.07
9 4 4 2 o 1444.831 1432.320 0.00 0.94149 0.02
10 3 1 2 o 909.384 903.388 0.00 0.94143 0.01
4 13 1 1 o 85379.95 84751.03 180.00 0.93905 2.15
7 10 2 2 o 28532.922 28547.928 0.00 0.94082 0.34
2 0 10 2 o 0.609 0.661 0.00 0.94080 0.00
2 1 10 1 o 53974.64 54043.56 180.00 0.93847 1.33
6 3 8 2 o 11814.470 11916.149 0.00 0.94051 0.17
6 8 6 1 o 3555.797 3583.887 180.00 0.93820 0.09
1 13 4 1 o 4712.717 4793.623 180.00 0.93778 0.12
10 2 2 2 o 16083.528 16437.814 180.00 0.93959 0.19
8 7 4 2 o 1846.402 1905.562 180.00 0.93956 0.03
2 10 7 1 o 22.005 22.317 0.00 0.93701 0.00
8 9 0 1 o 15905.400 16225.333 0.00 0.93691 0.21
4 13 1 2 o 83612.39 84751.03 180.00 0.93905 1.05
2 1 10 2 o 54261.17 54043.56 180.00 0.93847 0.67
8 8 3 1 o 726.292 722.331 180.00 0.93608 0.02
4 4 9 1 o 406.084 403.155 0.00 0.93600 0.01
9 1 5 1 o 2797.239 2783.912 180.00 0.93599 0.04
6 8 6 2 o 3620.064 3583.887 180.00 0.93820 0.05
4 7 8 1 o 1749.049 1724.030 180.00 0.93552 0.06
1 13 4 2 o 4840.680 4793.623 180.00 0.93778 0.06
2 10 7 2 o 22.130 22.317 0.00 0.93701 0.00
8 9 0 2 o 15952.527 16225.333 0.00 0.93691 0.11
7 4 7 1 o 2747.282 2812.119 0.00 0.93431 0.06
3 13 3 1 o 54502.43 56204.10 0.00 0.93399 1.43
8 8 3 2 o 701.791 722.331 180.00 0.93608 0.01
4 4 9 2 o 391.387 403.155 0.00 0.93600 0.00
9 1 5 2 o 2731.394 2783.912 180.00 0.93599 0.02
2 14 0 1 o 16943.748 17487.213 180.00 0.93359 0.23
0 14 2 1 o 52654.21 54198.43 0.00 0.93326 0.70
4 7 8 2 o 1659.113 1724.030 180.00 0.93552 0.03
1 3 10 1 o 1190.583 1225.492 0.00 0.93310 0.03
8 9 1 1 o 32402.453 33207.914 180.00 0.93247 0.77
9 7 1 1 o 4948.682 5113.007 0.00 0.93207 0.14
7 4 7 2 o 2736.661 2812.119 0.00 0.93431 0.03
3 13 3 2 o 54480.03 56204.10 0.00 0.93399 0.72
2 2 10 1 o 37.420 39.404 180.00 0.93156 0.00
3 8 8 1 o 53232.08 54841.25 180.00 0.93150 1.28
5 1 9 1 o 3845.375 3932.223 180.00 0.93134 0.07
2 14 0 2 o 16948.852 17487.213 180.00 0.93359 0.11
7 9 4 1 o 3682.712 3793.594 0.00 0.93123 0.09
0 14 2 2 o 52659.79 54198.43 0.00 0.93326 0.35
1 3 10 2 o 1190.990 1225.492 0.00 0.93310 0.02
7 8 5 1 o 44.542 45.204 180.00 0.93042 0.00
8 9 1 2 o 32514.113 33207.914 180.00 0.93247 0.39
4 12 4 1 o 1656.125 1679.172 0.00 0.93000 0.03
9 7 1 2 o 4982.577 5113.007 0.00 0.93207 0.07
0 7 9 1 o 57822.57 59099.16 0.00 0.92978 0.70
10 4 0 1 o 48524.38 49565.34 180.00 0.92973 0.56
8 6 5 1 o 5570.446 5702.474 0.00 0.92953 0.14
2 2 10 2 o 37.796 39.404 180.00 0.93156 0.00
3 8 8 2 o 53529.75 54841.25 180.00 0.93150 0.65
2 14 1 1 o 1221.054 1253.209 180.00 0.92920 0.03
9 2 5 1 o 89.250 89.796 180.00 0.92914 0.00
5 1 9 2 o 3860.063 3932.223 180.00 0.93134 0.03
1 14 2 1 o 49080.53 50299.39 0.00 0.92895 1.25
7 9 4 2 o 3700.560 3793.594 0.00 0.93123 0.05
4 9 7 1 o 7230.984 7403.369 180.00 0.92852 0.19
5 8 7 1 o 28088.943 28658.791 0.00 0.92845 0.65
7 8 5 2 o 44.714 45.204 180.00 0.93042 0.00
10 3 2 1 o 5045.675 5152.779 180.00 0.92811 0.15
4 12 4 2 o 1668.680 1679.172 0.00 0.93000 0.01
0 7 9 2 o 58775.36 59099.16 0.00 0.92978 0.36
10 4 0 2 o 49352.04 49565.34 180.00 0.92973 0.29
1 9 8 1 o 23443.787 23481.975 180.00 0.92730 0.56
8 6 5 2 o 5698.532 5702.474 0.00 0.92953 0.07
6 11 3 1 o 10743.361 10698.570 0.00 0.92695 0.27
2 14 1 2 o 1259.466 1253.209 180.00 0.92920 0.02
9 2 5 2 o 89.918 89.796 180.00 0.92914 0.00
8 4 6 1 o 55717.78 55381.12 0.00 0.92679 1.35
1 14 2 2 o 50655.67 50299.39 0.00 0.92895 0.65
9 6 3 1 o 26271.527 26082.305 180.00 0.92658 0.62
5 6 8 1 o 52694.00 52291.11 0.00 0.92635 1.31
4 9 7 2 o 7460.194 7403.369 180.00 0.92852 0.10
5 8 7 2 o 28841.105 28658.791 0.00 0.92845 0.34
10 3 2 2 o 5177.408 5152.779 180.00 0.92811 0.08
4 13 2 1 o 1037.754 1032.731 0.00 0.92583 0.03
1 7 9 1 o 31617.033 31564.135 180.00 0.92552 0.74
10 4 1 1 o 11509.586 11490.105 0.00 0.92539 0.29
1 9 8 2 o 23586.689 23481.975 180.00 0.92730 0.29
2 13 4 1 o 40044.15 39747.87 180.00 0.92486 1.08
3 11 6 1 o 4800.600 4758.099 180.00 0.92476 0.12
6 11 3 2 o 10811.523 10698.570 0.00 0.92695 0.14
5 2 9 1 o 1653.347 1640.174 0.00 0.92458 0.03
6 4 8 1 o 462.289 453.954 180.00 0.92452 0.02
8 4 6 2 o 56114.09 55381.12 0.00 0.92679 0.68
10 1 3 1 o 8835.034 8709.489 0.00 0.92443 0.21
9 6 3 2 o 26484.809 26082.305 180.00 0.92658 0.31
5 6 8 2 o 53194.14 52291.11 0.00 0.92635 0.66
4 13 2 2 o 1048.356 1032.731 0.00 0.92583 0.02
1 7 9 2 o 31771.844 31564.135 180.00 0.92552 0.37
10 4 1 2 o 11551.964 11490.105 0.00 0.92539 0.15
2 13 4 2 o 39877.70 39747.87 180.00 0.92486 0.54
3 11 6 2 o 4775.932 4758.099 180.00 0.92476 0.06
5 2 9 2 o 1646.044 1640.174 0.00 0.92458 0.01
6 4 8 2 o 457.814 453.954 180.00 0.92452 0.01
10 1 3 2 o 8771.042 8709.489 0.00 0.92443 0.11
5 12 3 1 o 44000.81 43663.56 0.00 0.92210 1.12
0 4 10 1 o 31950.273 31659.354 180.00 0.92163 0.34
9 5 4 1 o 15024.125 14978.503 180.00 0.92102 0.37
3 12 5 1 o 628.071 629.212 180.00 0.92082 0.02
3 6 9 1 o 99.074 100.204 0.00 0.92078 0.01
2 3 10 1 o 14261.888 14464.593 180.00 0.92037 0.36
5 12 3 2 o 42673.97 43663.56 0.00 0.92210 0.54
8 9 2 1 o 9.235 11.071 180.00 0.91953 0.00
0 4 10 2 o 30998.025 31659.354 180.00 0.92163 0.16
3 0 10 1 o 4756.245 4872.379 180.00 0.91935 0.06
9 7 2 1 o 159.997 163.585 0.00 0.91914 0.00
7 10 3 1 o 2319.616 2378.051 0.00 0.91897 0.06
9 5 4 2 o 14643.421 14978.503 180.00 0.92102 0.18
3 12 5 2 o 613.735 629.212 180.00 0.92082 0.01
3 6 9 2 o 90.618 100.204 0.00 0.92078 0.00
2 3 10 2 o 13999.350 14464.593 180.00 0.92037 0.18
9 3 5 1 o 15840.410 16452.986 180.00 0.91804 0.43
10 2 3 1 o 7075.790 7375.695 0.00 0.91782 0.17
1 4 10 1 o 4601.750 4871.052 0.00 0.91748 0.10
8 9 2 2 o 5.614 11.071 180.00 0.91953 0.00
3 1 10 1 o 1803.120 1959.276 180.00 0.91717 0.04
3 0 10 2 o 4487.299 4872.379 180.00 0.91935 0.03
9 7 2 2 o 150.231 163.585 0.00 0.91914 0.00
7 10 3 2 o 2143.550 2378.051 0.00 0.91897 0.03
7 7 6 1 o 662.816 752.438 180.00 0.91662 0.02
2 14 2 1 o 8163.244 8901.711 180.00 0.91638 0.18
2 14 2 2 o 9021.358 8901.711 180.00 0.91638 0.10
4 5 9 1 o 909.763 987.438 0.00 0.91587 0.02
3 10 7 1 o 11508.762 12676.952 0.00 0.91581 0.34
9 3 5 2 o 15047.662 16452.986 180.00 0.91804 0.21
6 7 7 1 o 4759.766 5119.597 0.00 0.91559 0.12
10 2 3 2 o 6899.126 7375.695 0.00 0.91782 0.08
5 3 9 1 o 50276.05 48369.36 180.00 0.91364 1.33
4 5 9 2 o 1024.277 987.438 0.00 0.91587 0.01
3 10 7 2 o 13268.209 12676.952 0.00 0.91581 0.20
6 7 7 2 o 5341.811 5119.597 0.00 0.91559 0.07
1 4 10 2 o 4644.500 4871.052 0.00 0.91748 0.05
2 7 9 1 o 1434.393 1376.560 0.00 0.91309 0.04
3 1 10 2 o 1889.187 1959.276 180.00 0.91717 0.02
2 9 8 1 o 10273.773 10531.146 180.00 0.91480 0.23
10 4 2 1 o 36217.07 34908.969 180.00 0.91273 0.96
6 12 0 1 o 15864.005 16052.230 180.00 0.91455 0.20
2 9 8 2 o 10821.434 10531.146 180.00 0.91480 0.12
7 7 6 2 o 753.216 752.438 180.00 0.91662 0.01
7 5 7 1 o 17831.854 17722.420 0.00 0.91429 0.51
6 12 0 2 o 16462.072 16052.230 180.00 0.91455 0.11
7 5 7 2 o 18146.105 17722.420 0.00 0.91429 0.26
0 12 6 1 o 26721.145 26197.139 0.00 0.91175 0.40
5 3 9 2 o 49081.39 48369.36 180.00 0.91364 0.65
2 7 9 2 o 1382.305 1376.560 0.00 0.91309 0.02
3 2 10 1 o 24513.010 24505.434 180.00 0.91072 0.61
10 4 2 2 o 34612.617 34908.969 180.00 0.91273 0.46
6 12 1 1 o 41964.89 42423.41 180.00 0.91042 1.08
10 5 0 1 o 42105.96 43366.86 0.00 0.90999 0.48
0 12 6 2 o 24550.346 26197.139 0.00 0.91175 0.18
3 14 1 1 o 1707.171 1910.603 0.00 0.90851 0.07
3 2 10 2 o 22819.813 24505.434 180.00 0.91072 0.28
6 12 1 2 o 39832.37 42423.41 180.00 0.91042 0.50
1 14 3 1 o 748.861 828.188 180.00 0.90790 0.04
10 5 0 2 o 41512.76 43366.86 0.00 0.90999 0.24
1 12 6 1 o 13775.420 14405.752 0.00 0.90773 0.34
0 11 7 1 o -1.356 0.313 0.00 0.90735 0.00
8 5 6 1 o 11940.573 12329.490 0.00 0.90724 0.35
10 3 3 1 o 30852.746 31633.355 0.00 0.90712 0.78
7 11 1 1 o 14432.269 14725.508 0.00 0.90703 0.34
8 8 4 1 o 279.160 281.901 180.00 0.90635 0.01
3 14 1 2 o 1885.560 1910.603 0.00 0.90851 0.04
7 0 8 1 o 5403.249 5413.172 0.00 0.90593 0.07
10 5 1 1 o 12377.881 12398.187 0.00 0.90593 0.30
1 14 3 2 o 833.998 828.188 180.00 0.90790 0.02
6 10 5 1 o 10391.882 10332.100 180.00 0.90558 0.28
1 12 6 2 o 14507.621 14405.752 0.00 0.90773 0.18
2 4 10 1 o 1825.090 1798.045 0.00 0.90537 0.07
5 11 5 1 o 20063.881 19808.188 180.00 0.90520 0.55
0 11 7 2 o 1.034 0.313 0.00 0.90735 0.00
6 5 8 1 o 23738.281 23409.762 180.00 0.90511 0.63
8 5 6 2 o 12534.481 12329.490 0.00 0.90724 0.18
8 1 7 1 o 8423.638 8295.579 180.00 0.90498 0.22
4 13 3 1 o 3606.774 3551.472 180.00 0.90499 0.10
10 3 3 2 o 32125.727 31633.355 0.00 0.90712 0.41
7 11 1 2 o 14936.290 14725.508 0.00 0.90703 0.18
5 10 6 1 o 167.964 165.479 0.00 0.90475 0.00
3 13 4 1 o 844.105 833.337 0.00 0.90446 0.02
8 8 4 2 o 287.522 281.901 180.00 0.90635 0.00
7 1 8 1 o 6047.813 5914.623 180.00 0.90385 0.15
0 13 5 1 o 81523.08 79608.34 180.00 0.90378 1.08
7 0 8 2 o 5548.891 5413.172 0.00 0.90593 0.03
10 5 1 2 o 12705.983 12398.187 0.00 0.90593 0.16
1 11 7 1 o 1014.244 984.356 0.00 0.90339 0.03
6 10 5 2 o 10656.895 10332.100 180.00 0.90558 0.14
9 4 5 1 o 1149.929 1107.105 0.00 0.90314 0.03
2 4 10 2 o 1891.419 1798.045 0.00 0.90537 0.04
5 11 5 2 o 20555.424 19808.188 180.00 0.90520 0.29
6 5 8 2 o 24315.479 23409.762 180.00 0.90511 0.33
8 1 7 2 o 8634.000 8295.579 180.00 0.90498 0.12
4 13 3 2 o 3697.802 3551.472 180.00 0.90499 0.05
4 8 8 1 o 6.362 4.931 180.00 0.90272 0.00
5 10 6 2 o 171.972 165.479 0.00 0.90475 0.00
3 13 4 2 o 862.564 833.337 0.00 0.90446 0.01
5 13 1 1 o 17256.439 16181.004 180.00 0.90166 0.52
7 1 8 2 o 6254.108 5914.623 180.00 0.90385 0.08
0 13 5 2 o 84367.52 79608.34 180.00 0.90378 0.56
8 7 5 1 o 135414.78 127526.21 180.00 0.90144 3.54
1 11 7 2 o 1045.678 984.356 0.00 0.90339 0.01
6 9 6 1 o 48019.23 45179.09 180.00 0.90097 1.34
9 4 5 2 o 1181.376 1107.105 0.00 0.90314 0.02
4 8 8 2 o 6.588 4.931 180.00 0.90272 0.00
3 3 10 1 o 70.262 68.591 180.00 0.90026 0.00
1 13 5 1 o 18205.930 17722.262 180.00 0.89986 0.50
9 8 1 1 o 9877.758 9673.943 0.00 0.89962 0.23
5 13 1 2 o 16597.738 16181.004 180.00 0.90166 0.25
8 7 5 2 o 130594.36 127526.21 180.00 0.90144 1.70
8 9 3 1 o 12166.723 11852.179 180.00 0.89910 0.33
5 4 9 1 o 179.918 176.811 180.00 0.89896 0.00
8 2 7 1 o 232.123 224.640 180.00 0.89878 0.01
6 9 6 2 o 46643.42 45179.09 180.00 0.90097 0.65
9 7 3 1 o 83.182 82.398 0.00 0.89874 0.00
5 7 8 1 o 15.829 15.528 0.00 0.89853 0.00
1 5 10 1 o 5620.613 5419.433 180.00 0.89850 0.15
6 12 2 1 o 12585.538 12164.351 180.00 0.89836 0.32
6 11 4 1 o 35438.45 33909.461 0.00 0.89806 1.06
3 3 10 2 o 70.407 68.591 180.00 0.90026 0.00
10 0 4 1 o 62467.80 59967.32 180.00 0.89780 0.84
9 6 4 1 o 17674.912 16992.523 0.00 0.89771 0.47
7 2 8 1 o 33973.492 32718.383 180.00 0.89767 0.87
1 13 5 2 o 18426.018 17722.262 180.00 0.89986 0.26
9 8 1 2 o 9976.849 9673.943 0.00 0.89962 0.12
8 9 3 2 o 12166.396 11852.179 180.00 0.89910 0.17
5 4 9 2 o 179.533 176.811 180.00 0.89896 0.00
4 11 6 1 o 2800.879 2720.274 180.00 0.89658 0.10
8 2 7 2 o 230.368 224.640 180.00 0.89878 0.00
9 7 3 2 o 82.985 82.398 0.00 0.89874 0.00
3 14 2 1 o 25574.545 25007.371 0.00 0.89653 0.69
5 7 8 2 o 15.734 15.528 0.00 0.89853 0.00
1 5 10 2 o 5555.531 5419.433 180.00 0.89850 0.08
2 14 3 1 o 501.262 488.128 0.00 0.89616 0.02
6 12 2 2 o 12438.965 12164.351 180.00 0.89836 0.16
2 12 6 1 o 603.347 598.034 180.00 0.89600 0.01
6 11 4 2 o 34826.348 33909.461 0.00 0.89806 0.52
10 1 4 1 o 42935.46 41897.37 0.00 0.89576 1.17
8 10 0 1 o 15428.146 15062.341 180.00 0.89576 0.21
10 0 4 2 o 61274.34 59967.32 180.00 0.89780 0.41
9 6 4 2 o 17325.762 16992.523 0.00 0.89771 0.23
7 2 8 2 o 33302.777 32718.383 180.00 0.89767 0.43
7 11 2 1 o 7627.578 7579.254 180.00 0.89510 0.22
3 9 8 1 o 16785.924 16727.918 0.00 0.89504 0.43
4 11 6 2 o 2633.924 2720.274 180.00 0.89658 0.04
3 14 2 2 o 24353.260 25007.371 0.00 0.89653 0.32
7 9 5 1 o 21990.887 22870.797 0.00 0.89408 0.67
10 5 2 1 o 7354.112 7645.801 0.00 0.89404 0.21
2 14 3 2 o 468.764 488.128 0.00 0.89616 0.01
2 12 6 2 o 589.839 598.034 180.00 0.89600 0.00
1 8 9 1 o 2261.625 2342.740 180.00 0.89373 0.05
5 12 4 1 o 8345.387 8681.740 0.00 0.89364 0.22
10 1 4 2 o 40161.01 41897.37 0.00 0.89576 0.54
8 10 0 2 o 14448.988 15062.341 180.00 0.89576 0.10
3 7 9 1 o 7027.165 7344.993 0.00 0.89345 0.20
4 12 5 1 o 4070.692 4228.740 180.00 0.89298 0.12
4 6 9 1 o 1591.734 1650.519 0.00 0.89295 0.04
7 11 2 2 o 7308.944 7579.254 180.00 0.89510 0.10
3 9 8 2 o 16204.592 16727.918 0.00 0.89504 0.21
10 4 3 1 o 3198.875 3303.595 180.00 0.89274 0.09
9 0 6 1 o 1311.849 1343.142 0.00 0.89250 0.02
5 9 7 1 o 38980.96 39813.19 180.00 0.89233 1.09
8 10 1 1 o 1233.960 1249.245 0.00 0.89188 0.04
7 9 5 2 o 22570.986 22870.797 0.00 0.89408 0.34
10 5 2 2 o 7551.368 7645.801 0.00 0.89404 0.11
2 11 7 1 o 2698.247 2726.754 0.00 0.89182 0.07
4 0 10 1 o 84751.46 85663.22 180.00 0.89165 1.13
1 8 9 2 o 2320.020 2342.740 180.00 0.89373 0.03
7 6 7 1 o 6739.755 6811.307 0.00 0.89148 0.17
5 12 4 2 o 8582.690 8681.740 0.00 0.89364 0.12
3 7 9 2 o 7232.249 7344.993 0.00 0.89345 0.11
0 10 8 1 o 7613.714 7731.756 180.00 0.89109 0.09
7 10 4 1 o 141.477 143.541 0.00 0.89079 0.00
4 12 5 2 o 4132.159 4228.740 180.00 0.89298 0.06
4 6 9 2 o 1613.097 1650.519 0.00 0.89295 0.02
10 4 3 2 o 3220.576 3303.595 180.00 0.89274 0.04
9 1 6 1 o 18412.232 18854.799 180.00 0.89051 0.46
9 0 6 2 o 1311.349 1343.142 0.00 0.89250 0.01
5 9 7 2 o 38808.07 39813.19 180.00 0.89233 0.54
5 13 2 1 o 20656.336 21107.063 0.00 0.88994 0.54
10 2 4 1 o 5422.145 5525.948 180.00 0.88975 0.13
8 10 1 2 o 1224.181 1249.245 0.00 0.89188 0.02
4 1 10 1 o 3186.888 3255.845 180.00 0.88966 0.10
2 11 7 2 o 2679.988 2726.754 0.00 0.89182 0.03
4 0 10 2 o 84300.80 85663.22 180.00 0.89165 0.56
