#------------------------------------------------------------------------------
#$Date: 2016-03-21 01:21:50 +0200 (Mon, 21 Mar 2016) $
#$Revision: 178377 $
#$URL: svn://www.crystallography.net/cod/cif/4/00/11/4001183.cif $
#------------------------------------------------------------------------------
#
# This file is available in the Crystallography Open Database (COD),
# http://www.crystallography.net/
#
# All data on this site have been placed in the public domain by the
# contributors.
#
data_4001183
loop_
_publ_author_name
'Zhou, Yongkai'
'Adams, Stefan'
'Rao, R. Prasada'
'Edwards, Doreen D.'
'Neiman, Arkady'
'Pestereva, N.'
_publ_section_title
;
 Charge Transport by Polyatomic Anion Diffusion in Sc2(WO4)3
;
_journal_issue                   20
_journal_name_full               'Chemistry of Materials'
_journal_page_first              6335
_journal_paper_doi               10.1021/cm800466y
_journal_volume                  20
_journal_year                    2008
_chemical_formula_moiety         ' Sc2(WO4)3 '
_chemical_formula_sum            'O12 Sc2 W3'
_chemical_formula_weight         833.45
_chemical_melting_point          1913
_chemical_name_common            ' Scandium Tungstate '
_chemical_name_systematic        ' Scandium Tungstate '
_space_group_IT_number           60
_symmetry_cell_setting           orthorhombic
_symmetry_space_group_name_Hall  '-P 2a 2n'
_symmetry_space_group_name_H-M   'P n c a'
_audit_creation_date             2008-01-25T12:03
_audit_creation_method           'from EXP file using GSAS2CIF'
_audit_update_record
' 2008-01-25T12:03  Initial CIF as created by GSAS2CIF'
_cell_angle_alpha                90.0
_cell_angle_beta                 90.0
_cell_angle_gamma                90.0
_cell_formula_units_Z            4
_cell_length_a                   9.68301(11)
_cell_length_b                   13.31962(15)
_cell_length_c                   9.59143(11)
_cell_measurement_temperature    50
_cell_volume                     1237.05(2)
_computing_structure_refinement  GSAS
_diffrn_radiation_polarisn_ratio 0.68
_diffrn_radiation_probe          x-ray
_exptl_absorpt_correction_T_max  1.00000
_exptl_absorpt_correction_T_min  1.00000
_exptl_absorpt_process_details
;   GSAS Absorption/surface roughness correction: function number 0
 No correction is applied.
;
_pd_block_id
2008-01-25T12:03|T11K|Zhou_Yongkai|Philips_Xpert
_pd_calc_method                  'Rietveld Refinement'
_pd_instr_location               ' ?'
_pd_meas_2theta_range_inc        0.017
_pd_meas_2theta_range_max        119.9874
_pd_meas_2theta_range_min        10.0144
_pd_meas_number_of_points        6470
_pd_proc_2theta_range_inc        0.017
_pd_proc_2theta_range_max        119.9874
_pd_proc_2theta_range_min        10.0144
_pd_proc_info_datetime           2008-01-25T12:04:32
_pd_proc_info_excluded_regions   ' ?'
_pd_proc_ls_background_function
;   GSAS Background function number 1 with 12 terms.
 Shifted Chebyshev function of 1st kind
      1:    273.626     2:   -53.3938     3:    39.8750     4:    9.83486    
      5:    6.87296     6:   -2.75357     7:    3.12414     8:   -4.86390    
      9:    11.2841    10:   -17.7341    11:    15.9650    12:   -9.57244    
;
_pd_proc_ls_peak_cutoff          0.00250
_pd_proc_ls_pref_orient_corr
;   March-Dollase
 AXIS  1 Ratio=   0.98091  h= 0.000  k= 1.000  l= 0.000
 Prefered orientation correction range: Min=   0.97150, Max=   1.05953
;
_pd_proc_ls_profile_function
;
 CW Profile function number 3 with  19 terms
 Pseudovoigt profile coefficients as parameterized in
 P. Thompson, D.E. Cox & J.B. Hastings (1987). J. Appl. Cryst.,20,79-83.
 Asymmetry correction of L.W. Finger, D.E. Cox & A. P. Jephcoat (1994).
 J. Appl. Cryst.,27,892-900.
 Peak tails are ignored  where the intensity is below 0.0025 times the peak
   Aniso. broadening axis   0.0   0.0   1.0
;
_pd_proc_ls_prof_R_factor        0.0490
_pd_proc_ls_prof_wR_expected     0.0371
_pd_proc_ls_prof_wR_factor       0.0674
_pd_proc_number_of_points        6470
_pd_spec_mounting                ' ?'
_refine_ls_goodness_of_fit_all   1.85
_refine_ls_matrix_type           full
_refine_ls_number_parameters     51
_refine_ls_number_restraints     0
_refine_ls_R_Fsqd_factor         0.03287
_refine_ls_shift/su_max          0.03
_refine_ls_shift/su_mean         0.01
_reflns_d_resolution_high        0.890
_reflns_d_resolution_low         6.660
_reflns_limit_h_max              10
_reflns_limit_h_min              0
_reflns_limit_k_max              15
_reflns_limit_k_min              0
_reflns_limit_l_max              10
_reflns_limit_l_min              0
_reflns_number_total             1847
_cod_data_source_file            cm800466y_si_002.cif
_cod_data_source_block           T50K
_cod_depositor_comments
;
The following automatic conversions were performed:

'_chemical_melting_point' value ' 1913K ' was changed to '1913' - the
value should be numeric and without a unit
designator.

'_geom_bond_publ_flag' value 'N' changed to 'n'
according to /home/saulius/struct/CIF-dictionaries/cif_core.dic
dictionary named 'cif_core.dic' version 2.4.1 from 2010-06-29 (26
times).

'_geom_angle_publ_flag' value 'N' changed to 'n' according
to /home/saulius/struct/CIF-dictionaries/cif_core.dic dictionary
named 'cif_core.dic' version 2.4.1 from 2010-06-29 (33 times).

Automatic conversion script
Id: cif_fix_values 1715 2011-07-08 13:25:40Z adriana 
;
_cod_original_cell_volume        1237.045(30)
_cod_database_code               4001183
#BEGIN Tags that were not found in dictionaries:
_gsas_exptl_extinct_corr_t_min   1.00000
_gsas_exptl_extinct_corr_t_max   1.00000
#END Tags that were not found in dictionaries
loop_
_symmetry_equiv_pos_site_id
_symmetry_equiv_pos_as_xyz
1 +x,+y,+z
2 -x+1/2,+y+1/2,+z+1/2
3 +x,-y+1/2,+z+1/2
4 -x+1/2,-y,+z
-1 -x,-y,-z
-2 +x+1/2,-y+1/2,-z+1/2
-3 -x,+y+1/2,-z+1/2
-4 +x+1/2,+y,-z
loop_
_atom_site_type_symbol
_atom_site_label
_atom_site_fract_x
_atom_site_fract_y
_atom_site_fract_z
_atom_site_occupancy
_atom_site_thermal_displace_type
_atom_site_U_iso_or_equiv
_atom_site_symmetry_multiplicity
Sc Sc1 0.46743(34) 0.37940(24) 0.2501(4) 1.0 Uiso 0.0076(11) 8
W W1 0.25 0.0 0.47377(14) 1.0 Uiso 0.00828(25) 4
W W2 0.11788(10) 0.35549(8) 0.39576(11) 1.0 Uiso 0.00828(25) 8
O O1 0.0979(11) 0.1411(8) 0.0801(11) 1.0 Uiso 0.0146(16) 8
O O2 0.1302(13) 0.0624(7) 0.3651(11) 1.0 Uiso 0.0146(16) 8
O O3 0.0070(11) 0.2636(9) 0.3173(10) 1.0 Uiso 0.0146(16) 8
O O4 0.3351(11) 0.4021(7) 0.0779(11) 1.0 Uiso 0.0146(16) 8
O O5 0.0685(10) 0.4737(8) 0.3212(11) 1.0 Uiso 0.0146(16) 8
O O6 0.2985(11) 0.3331(8) 0.3585(10) 1.0 Uiso 0.0146(16) 8
loop_
_atom_type_symbol
_atom_type_number_in_cell
_atom_type_scat_dispersion_real
_atom_type_scat_dispersion_imag
_atom_type_scat_Cromer_Mann_a1
_atom_type_scat_Cromer_Mann_a2
_atom_type_scat_Cromer_Mann_a3
_atom_type_scat_Cromer_Mann_a4
_atom_type_scat_Cromer_Mann_b1
_atom_type_scat_Cromer_Mann_b2
_atom_type_scat_Cromer_Mann_b3
_atom_type_scat_Cromer_Mann_b4
_atom_type_scat_Cromer_Mann_c
_atom_type_scat_source
Sc 8.0 0.000 0.000 9.18900 9.02130 7.36790 0.57290 1.64090 136.108 1.46800
51.3531 1.33290 International_Tables_Vol_C
W 12.0 0.000 0.000 29.0818 1.72029 15.4300 9.22590 14.4327 0.32170 5.11982
57.0560 9.88750 International_Tables_Vol_C
O 48.0 0.000 0.000 3.04850 13.2771 2.28680 5.70110 1.54630 0.32390 0.86700
32.9089 0.25080 International_Tables_Vol_C
loop_
_diffrn_radiation_wavelength
_diffrn_radiation_wavelength_wt
_diffrn_radiation_type
_diffrn_radiation_wavelength_id
1.540500 1.000 K\a~1~ 1
1.544300 0.000 K\a~2~ 2
loop_
_geom_angle_atom_site_label_1
_geom_angle_atom_site_label_2
_geom_angle_atom_site_label_3
_geom_angle
_geom_angle_site_symmetry_1
_geom_angle_site_symmetry_3
_geom_angle_publ_flag
O1 Sc1 O2 90.3(4) -2_666 -2_666 n
O1 Sc1 O3 90.7(4) -2_666 -2_666 n
O1 Sc1 O4 179.298(6) -2_666 1_555 n
O1 Sc1 O5 88.2(4) -2_666 4_565 n
O1 Sc1 O6 92.8(5) -2_666 1_555 n
O2 Sc1 O3 92.1(5) -2_666 -2_666 n
O2 Sc1 O4 89.5(5) -2_666 1_555 n
O2 Sc1 O5 87.2(4) -2_666 4_565 n
O2 Sc1 O6 175.1(5) -2_666 1_555 n
O3 Sc1 O4 90.0(4) -2_666 1_555 n
O3 Sc1 O5 178.6(5) -2_666 4_565 n
O3 Sc1 O6 91.7(4) -2_666 1_555 n
O4 Sc1 O5 91.1(4) 1_555 4_565 n
O4 Sc1 O6 87.4(4) 1_555 1_555 n
O5 Sc1 O6 89.0(4) 4_565 1_555 n
O2 W1 O2 107.7(7) 1_555 4_555 n
O2 W1 O4 111.1(5) 1_555 2_545 n
O2 W1 O4 106.3(5) 1_555 3_555 n
O2 W1 O4 106.3(5) 4_555 2_545 n
O2 W1 O4 111.1(5) 4_555 3_555 n
O4 W1 O4 114.1(6) 2_545 3_555 n
O1 W2 O3 111.7(5) 3_555 1_555 n
O1 W2 O5 110.2(5) 3_555 1_555 n
O1 W2 O6 107.8(4) 3_555 1_555 n
O3 W2 O5 105.8(5) 1_555 1_555 n
O3 W2 O6 112.5(5) 1_555 1_555 n
O5 W2 O6 108.9(4) 1_555 1_555 n
Sc1 O1 W2 148.0(6) -2_466 3_554 n
Sc1 O2 W1 171.2(7) -2_555 1_555 n
Sc1 O3 W2 151.6(7) -2_466 1_555 n
Sc1 O4 W1 143.0(6) 1_555 2_554 n
Sc1 O5 W2 172.2(6) 4_565 1_555 n
Sc1 O6 W2 145.9(6) 1_555 1_555 n
loop_
_geom_bond_atom_site_label_1
_geom_bond_atom_site_label_2
_geom_bond_distance
_geom_bond_site_symmetry_2
_geom_bond_publ_flag
Sc1 O1 2.080(11) -2_555 n
Sc1 O2 2.075(12) -2_555 n
Sc1 O3 2.048(11) -2_555 n
Sc1 O4 2.112(10) 1_555 n
Sc1 O5 2.101(11) 4_565 n
Sc1 O6 2.034(11) 1_555 n
W1 O2 1.767(12) 1_555 n
W1 O2 1.767(12) 4_555 n
W1 O4 1.837(10) 2_545 n
W1 O4 1.837(10) 3_555 n
W2 O1 1.779(11) 3_555 n
W2 O3 1.793(11) 1_555 n
W2 O5 1.794(11) 1_555 n
W2 O6 1.810(11) 1_555 n
O1 Sc1 2.080(11) -2_455 n
O1 W2 1.779(11) 3_554 n
O2 Sc1 2.075(12) -2_455 n
O2 W1 1.767(12) 1_555 n
O3 Sc1 2.048(11) -2_455 n
O3 W2 1.793(11) 1_555 n
O4 Sc1 2.112(10) 1_555 n
O4 W1 1.837(10) 2_554 n
O5 Sc1 2.101(11) 4_565 n
O5 W2 1.794(11) 1_555 n
O6 Sc1 2.034(11) 1_555 n
O6 W2 1.810(11) 1_555 n
loop_
_pd_meas_counts_total
_pd_proc_ls_weight
_pd_proc_intensity_bkg_calc
_pd_calc_intensity_total
648.0 0.0 854.12341 .
698.0 0.0 849.23553 .
646.0 0.0 844.37976 .
620.0 0.0 839.55646 .
598.0 0.0 834.76404 .
634.0 0.0 830.00378 .
680.0 0.0 825.27454 .
674.0 0.0 820.57690 .
647.0 0.0 815.91046 .
660.0 0.0 811.27460 .
650.0 0.0 806.66992 .
649.0 0.0 802.09595 .
609.0 0.0 797.55231 .
590.0 0.0 793.03912 .
612.0 0.0 788.55621 .
625.0 0.0 784.10339 .
612.0 0.0 779.68024 .
631.0 0.0 775.28656 .
589.0 0.0 770.92358 .
574.0 0.0 766.58966 .
610.0 0.0 762.28491 .
596.0 0.0 758.00952 .
579.0 0.0 753.76282 .
578.0 0.0 749.54541 .
573.0 0.0 745.35693 .
567.0 0.0 741.19702 .
577.0 0.0 737.06555 .
588.0 0.0 732.96204 .
594.0 0.0 728.88715 .
577.0 0.0 724.84027 .
555.0 0.0 720.82141 .
555.0 0.0 716.83026 .
575.0 0.0 712.86658 .
573.0 0.0 708.93073 .
564.0 0.0 705.02234 .
573.0 0.0 701.14081 .
573.0 0.0 697.28662 .
540.0 0.0 693.45917 .
547.0 0.0 689.65881 .
580.0 0.0 685.88538 .
598.0 0.0 682.13806 .
580.0 0.0 678.41736 .
559.0 0.0 674.72290 .
555.0 0.0 671.05463 .
569.0 0.0 667.41272 .
554.0 0.0 663.79633 .
519.0 0.0 660.20569 .
539.0 0.0 656.64056 .
547.0 0.0 653.10132 .
546.0 0.0 649.58752 .
561.0 0.0 646.09900 .
536.0 0.0 642.63519 .
503.0 0.0 639.19617 .
562.0 0.0 635.78253 .
565.0 0.0 632.39374 .
551.0 0.0 629.02942 .
565.0 0.0 625.68927 .
543.0 0.0 622.37347 .
542.0 0.0 619.08234 .
508.0 0.0 615.81525 .
503.0 0.0 612.57214 .
515.0 0.0 609.35266 .
559.0 0.0 606.15674 .
505.0 0.0 602.98486 .
529.0 0.0 599.83636 .
512.0 0.0 596.71149 .
517.0 0.0 593.60931 .
478.0 0.0 590.53052 .
492.0 0.0 587.47473 .
512.0 0.0 584.44196 .
465.0 0.0 581.43188 .
483.0 0.0 578.44440 .
497.0 0.0 575.47931 .
482.0 0.0 572.53680 .
487.0 0.0 569.61676 .
484.0 0.0 566.71863 .
498.0 0.0 563.84253 .
530.0 0.0 560.98834 .
525.0 0.0 558.15613 .
485.0 0.0 555.34564 .
476.0 0.0 552.55676 .
486.0 0.0 549.78906 .
488.0 0.0 547.04297 .
466.0 0.0 544.31799 .
453.0 0.0 541.61444 .
463.0 0.0 538.93188 .
462.0 0.0 536.26984 .
497.0 0.0 533.62891 .
498.0 0.0 531.00842 .
469.0 0.0 528.40881 .
463.0 0.0 525.82971 .
472.0 0.0 523.27063 .
467.0 0.0 520.73187 .
464.0 0.0 518.21338 .
481.0 0.0 515.71497 .
475.0 0.0 513.23639 .
468.0 0.0 510.77747 .
462.0 0.0 508.33844 .
455.0 0.0 505.91888 .
476.0 0.0 503.51892 .
450.0 0.0 501.13846 .
427.0 0.0 498.77698 .
440.0 0.0 496.43481 .
463.0 0.0 494.11172 .
435.0 0.0 491.80759 .
458.0 0.0 489.52234 .
467.0 0.0 487.25571 .
450.0 0.0 485.00775 .
424.0 0.0 482.77853 .
424.0 0.0 480.56760 .
436.0 0.0 478.37500 .
442.0 0.0 476.20062 .
438.0 0.0 474.04443 .
449.0 0.0 471.90628 .
426.0 0.0 469.78607 .
433.0 0.0 467.68372 .
432.0 0.0 465.59897 .
406.0 0.0 463.53198 .
428.0 0.0 461.48245 .
453.0 0.0 459.45050 .
436.0 0.0 457.43582 .
463.0 0.0 455.43832 .
418.0 0.0 453.45779 .
397.0 0.0 451.49466 .
443.0 0.0 449.54828 .
461.0 0.0 447.61893 .
440.0 0.0 445.70618 .
414.0 0.0 443.80991 .
456.0 0.0 441.93051 .
466.0 0.0 440.06741 .
450.0 0.0 438.22101 .
433.0 0.0 436.39053 .
421.0 0.0 434.57632 .
396.0 0.0 432.77826 .
410.0 0.0 430.99625 .
440.0 0.002273 429.23013 429.22275
424.0 0.002358 427.47986 427.47247
410.0 0.002439 425.74515 425.73788
404.0 0.002475 424.02618 424.01917
405.0 0.002469 422.32291 422.31592
425.0 0.002353 420.63498 420.62808
441.0 0.002268 418.96228 418.95560
451.0 0.002217 417.30487 417.29831
409.0 0.002445 415.66284 415.65634
404.0 0.002475 414.03598 414.02954
399.0 0.002506 412.42392 414.46085
403.0 0.002481 410.82678 412.97888
417.0 0.002398 409.24445 412.54266
396.0 0.002525 407.67703 411.16968
403.0 0.002481 406.12421 409.82962
400.0 0.002500 404.58594 408.52466
428.0 0.002336 403.06213 407.25787
452.0 0.002212 401.55270 406.03232
411.0 0.002433 400.05768 404.85245
421.0 0.002375 398.57690 403.72299
397.0 0.002519 397.11017 402.64984
402.0 0.002488 395.65759 401.64084
400.0 0.002500 394.21884 400.70529
418.0 0.002392 392.79413 399.85565
405.0 0.002469 391.38321 399.10815
412.0 0.002427 389.98596 398.48389
422.0 0.002370 388.60236 398.01340
429.0 0.002331 387.23221 397.74115
425.0 0.002353 385.87576 397.74734
421.0 0.002375 384.53265 398.22495
418.0 0.002392 383.20282 399.67963
454.0 0.002203 381.88617 403.18149
444.0 0.002252 380.58267 410.26169
456.0 0.002193 379.29236 422.08920
461.0 0.002169 378.01508 438.98218
473.0 0.002114 376.75058 460.46417
476.0 0.002101 375.49893 485.87729
515.0 0.001942 374.25998 514.78851
488.0 0.002049 373.03378 547.21332
581.0 0.001721 371.82025 583.53522
551.0 0.001815 370.61926 624.39331
635.0 0.001575 369.43051 670.67700
635.0 0.001575 368.25415 723.58649
687.0 0.001456 367.09021 784.77173
768.0 0.001302 365.93845 856.57147
790.0 0.001266 364.79898 942.42175
907.0 0.001103 363.67126 1047.74146
1045.0 0.000957 362.55551 1182.02478
1224.0 0.000817 361.45197 1363.60718
1522.0 0.000657 360.36017 1622.94275
1862.0 0.000537 359.28006 1975.18188
2170.0 0.000461 358.21158 2331.31934
2344.0 0.000427 357.15469 2440.97241
2112.0 0.000473 356.10944 2128.85400
1737.0 0.000576 355.07571 1605.16174
1344.0 0.000744 354.05334 1082.93469
920.0 0.001087 353.04218 716.91583
640.0 0.001563 352.04239 530.56995
489.0 0.002045 351.05362 453.11404
456.0 0.002193 350.07602 420.46030
404.0 0.002475 349.10962 402.80798
389.0 0.002571 348.15393 390.95596
375.0 0.002667 347.20926 382.22260
382.0 0.002618 346.27533 375.48877
373.0 0.002681 345.35220 370.12161
356.0 0.002809 344.43979 365.72433
370.0 0.002703 343.53787 362.03616
367.0 0.002725 342.64658 358.88040
349.0 0.002865 341.76566 356.13309
377.0 0.002653 340.89529 353.70505
374.0 0.002674 340.03519 351.53094
347.0 0.002882 339.18530 349.56174
345.0 0.002899 338.34564 347.76068
367.0 0.002725 337.51611 346.09885
374.0 0.002674 336.69662 344.55408
367.0 0.002725 335.88727 343.10849
369.0 0.002710 335.08762 341.74765
351.0 0.002849 334.29803 340.46042
358.0 0.002793 333.51810 339.23715
341.0 0.002933 332.74792 338.07025
319.0 0.003135 331.98743 336.95325
345.0 0.002899 331.23660 335.88068
364.0 0.002747 330.49521 334.84824
368.0 0.002717 329.76324 331.23352
340.0 0.002941 329.04086 330.42117
329.0 0.003040 328.32779 328.32632
333.0 0.003003 327.62381 331.94473
324.0 0.003086 326.92920 331.48300
345.0 0.002899 326.24371 331.04999
339.0 0.002950 325.56735 332.90057
306.0 0.003268 324.89999 332.65686
346.0 0.002890 324.24155 332.46066
348.0 0.002874 323.59204 332.31705
328.0 0.003049 322.95145 332.23181
350.0 0.002857 322.31952 332.21170
329.0 0.003040 321.69644 332.26483
345.0 0.002899 321.08185 332.40109
372.0 0.002688 320.47598 332.63235
368.0 0.002717 319.87860 332.97284
371.0 0.002695 319.28976 333.44049
345.0 0.002899 318.70935 334.05756
353.0 0.002833 318.13718 334.85251
338.0 0.002959 317.57336 335.86188
397.0 0.002519 317.01782 337.13391
365.0 0.002740 316.47043 338.73401
363.0 0.002755 315.93124 340.75461
364.0 0.002747 315.39999 343.33640
390.0 0.002564 314.87680 346.74637
410.0 0.002439 314.36157 351.64664
424.0 0.002358 313.85425 359.68597
417.0 0.002398 313.35474 374.01965
449.0 0.002227 312.86307 398.57123
478.0 0.002092 312.37909 435.82025
484.0 0.002066 311.90274 486.48398
507.0 0.001972 311.43402 549.48315
566.0 0.001767 310.97290 623.55627
648.0 0.001543 310.51926 708.36249
695.0 0.001439 310.07297 804.48975
751.0 0.001332 309.63419 913.45575
837.0 0.001195 309.20267 1038.01990
942.0 0.001062 308.77856 1182.19531
1041.0 0.000961 308.36157 1351.56628
1202.0 0.000832 307.95178 1554.27588
1446.0 0.000692 307.54910 1803.40869
1731.0 0.000578 307.15353 2122.53345
2159.0 0.000463 306.76492 2556.69116
2759.0 0.000362 306.38330 3173.10864
3575.0 0.0002797 306.00861 3977.41992
4305.0 0.0002323 305.64072 4708.94434
4419.0 0.0002263 305.27972 4790.45508
3889.0 0.0002571 304.92538 4012.72998
3043.0 0.0003286 304.57782 2928.84180
2089.0 0.000479 304.23679 1866.38733
1323.0 0.000756 303.90250 1103.41931
858.0 0.001166 303.57468 704.39777
598.0 0.001672 303.25345 535.00500
455.0 0.002198 302.93863 463.25150
412.0 0.002427 302.63013 425.02560
367.0 0.002725 302.32803 399.93091
343.0 0.002915 302.03223 381.90283
349.0 0.002865 301.74265 368.39981
333.0 0.003003 301.45935 357.98602
350.0 0.002857 301.18213 349.76181
331.0 0.003021 300.91104 343.13544
339.0 0.002950 300.64603 337.70374
334.0 0.002994 300.38699 333.18457
327.0 0.003058 300.13394 329.37540
342.0 0.002924 299.88672 326.12781
343.0 0.002915 299.64542 323.33081
322.0 0.003106 299.40997 320.89975
312.0 0.003205 299.18024 318.76947
304.0 0.003289 298.95624 316.88864
326.0 0.003067 298.73795 315.21716
324.0 0.003086 298.52527 313.72275
330.0 0.003030 298.31821 312.37909
299.0 0.003344 298.11673 311.16492
315.0 0.003175 297.92056 310.06262
325.0 0.003077 297.72995 309.05759
295.0 0.003390 297.54474 308.13794
294.0 0.003401 297.36490 307.29330
304.0 0.003289 297.19037 300.57120
307.0 0.003257 297.02109 300.19427
306.0 0.003268 296.85709 296.85574
322.0 0.003106 296.69818 296.69690
312.0 0.003205 296.54446 296.54318
285.0 0.00351 296.39584 296.39456
310.0 0.003226 296.25229 296.25092
315.0 0.003175 296.11365 296.11230
313.0 0.003195 295.98007 295.97873
307.0 0.003257 295.85132 295.85004
304.0 0.003289 295.72760 295.72620
302.0 0.003311 295.60858 295.60718
302.0 0.003311 295.49448 295.49295
298.0 0.003356 295.38501 295.38351
337.0 0.002967 295.28030 295.27884
309.0 0.003236 295.18027 295.17874
293.0 0.003413 295.08484 295.08334
313.0 0.003195 294.99402 294.99249
303.0 0.003300 294.90768 294.90622
311.0 0.003215 294.82605 294.82443
351.0 0.002849 294.74866 294.74707
334.0 0.002994 294.67578 294.67422
320.0 0.003125 294.60724 294.60562
301.0 0.003322 294.54312 294.54150
304.0 0.003289 294.48331 294.48163
322.0 0.003106 294.42773 294.42609
317.0 0.003155 294.37643 294.37473
290.0 0.003448 294.32925 294.32748
277.0 0.00361 294.28625 294.28458
277.0 0.00361 294.24738 294.24557
301.0 0.003322 294.21262 294.21078
307.0 0.003257 294.18176 294.17996
301.0 0.003322 294.15500 294.15317
301.0 0.003322 294.13223 294.13037
308.0 0.003247 294.11331 294.11148
312.0 0.003205 294.09833 294.09647
307.0 0.003257 294.08722 294.08536
300.0 0.003333 294.07980 294.07788
291.0 0.003436 294.07632 294.07437
330.0 0.003030 294.07642 294.07446
292.0 0.003425 294.08035 294.07837
297.0 0.003367 294.08789 294.08591
265.0 0.00377 294.09903 294.09702
295.0 0.003390 294.11386 294.11176
301.0 0.003322 294.13217 294.13013
304.0 0.003289 294.15402 294.15198
309.0 0.003236 294.17938 294.17722
299.0 0.003344 294.20822 294.20602
302.0 0.003311 294.24045 294.23822
312.0 0.003205 294.27606 294.27383
307.0 0.003257 294.31503 294.31284
270.0 0.00370 294.35730 294.35507
295.0 0.003390 294.40283 294.40063
274.0 0.00365 294.45172 294.44940
301.0 0.003322 294.50369 294.50140
312.0 0.003205 294.55890 294.55658
351.0 0.002849 294.61725 294.61487
308.0 0.003247 294.67880 294.67633
295.0 0.003390 294.74332 294.74088
344.0 0.002907 294.81088 294.80847
313.0 0.003195 294.88156 294.87912
289.0 0.003460 294.95517 294.95270
297.0 0.003367 295.03174 295.02927
294.0 0.003401 295.11118 295.10867
290.0 0.003448 295.19363 295.19104
290.0 0.003448 295.27884 295.27621
301.0 0.003322 295.36694 295.36426
263.0 0.00380 295.45779 295.45517
280.0 0.00357 295.55139 295.54874
287.0 0.003484 295.64771 295.64508
311.0 0.003215 295.74686 295.74408
282.0 0.00355 295.84851 295.84579
293.0 0.003413 295.95288 295.95016
307.0 0.003257 296.05991 296.05716
297.0 0.003367 296.16940 296.16672
286.0 0.003497 296.28159 296.27872
295.0 0.003390 296.39624 296.39340
317.0 0.003155 296.51340 296.51047
305.0 0.003279 296.63290 296.63004
314.0 0.003185 296.75497 296.75204
300.0 0.003333 296.87939 296.87643
278.0 0.00360 297.00623 297.00320
289.0 0.003460 297.13541 297.13239
296.0 0.003378 297.26685 297.26376
304.0 0.003289 297.40063 297.39758
330.0 0.003030 297.53659 297.53351
315.0 0.003175 297.67484 297.67184
271.0 0.00369 297.81528 297.81219
277.0 0.00361 297.95798 297.95483
287.0 0.003484 298.10281 298.09964
292.0 0.003425 298.24960 298.24646
296.0 0.003378 298.39865 298.39551
282.0 0.00355 298.54977 298.54654
302.0 0.003311 298.70291 298.69965
276.0 0.00362 298.85803 298.85471
275.0 0.00364 299.01517 299.01184
286.0 0.003497 299.17429 299.17087
301.0 0.003322 299.33527 299.33191
288.0 0.003472 299.49817 299.49478
304.0 0.003289 299.66302 299.65958
302.0 0.003311 299.82962 299.82623
293.0 0.003413 299.99823 299.99472
288.0 0.003472 300.16852 300.16498
275.0 0.00364 300.34058 300.33704
304.0 0.003289 300.51447 300.51096
284.0 0.00352 300.69009 300.68646
278.0 0.00360 300.86737 300.86377
313.0 0.003195 301.04630 301.04266
317.0 0.003155 301.22690 301.22336
315.0 0.003175 301.40921 301.40555
284.0 0.00352 301.59296 301.58936
282.0 0.00355 301.77850 301.77481
293.0 0.003413 301.96555 301.96179
291.0 0.003436 302.15408 302.15033
254.0 0.00394 302.34412 302.34033
258.0 0.00388 302.53564 302.53189
286.0 0.003497 302.72864 302.72485
288.0 0.003472 302.92307 302.91931
295.0 0.003390 303.11899 303.11511
311.0 0.003215 303.31622 303.31235
296.0 0.003378 303.51489 303.51093
311.0 0.003215 303.71487 303.71097
301.0 0.003322 303.91620 303.91223
297.0 0.003367 304.11880 304.11484
294.0 0.003401 304.32269 304.31879
266.0 0.00376 304.52789 304.52390
272.0 0.00368 304.73431 304.73029
296.0 0.003378 304.94193 304.93796
294.0 0.003401 305.15073 305.14667
294.0 0.003401 305.36078 305.35669
311.0 0.003215 305.57190 305.56778
339.0 0.002950 305.78415 305.78006
340.0 0.002941 305.99759 305.99344
331.0 0.003021 306.21207 306.20786
329.0 0.003040 306.42758 306.42337
307.0 0.003257 306.64413 306.63995
297.0 0.003367 306.86185 306.85748
304.0 0.003289 307.08044 307.07614
313.0 0.003195 307.30005 307.29575
314.0 0.003185 307.52057 307.51633
295.0 0.003390 307.74210 307.73776
304.0 0.003289 307.96454 307.96024
306.0 0.003268 308.18790 308.18356
306.0 0.003268 308.41217 308.40775
322.0 0.003106 308.63727 308.63287
326.0 0.003067 308.86316 308.92053
316.0 0.003165 309.08997 309.15054
295.0 0.003390 309.31760 309.38159
295.0 0.003390 309.54596 309.64493
301.0 0.003322 309.77512 309.87988
282.0 0.00355 310.00497 310.11588
310.0 0.003226 310.23563 310.35336
292.0 0.003425 310.46698 310.59219
293.0 0.003413 310.69897 310.83237
281.0 0.00356 310.93167 311.07404
293.0 0.003413 311.16507 311.31723
296.0 0.003378 311.39914 313.12067
307.0 0.003257 311.63376 313.45026
310.0 0.003226 311.86905 314.53781
287.0 0.003484 312.10480 314.92511
307.0 0.003257 312.34119 315.32648
299.0 0.003344 312.57819 315.74380
283.0 0.00353 312.81570 316.17899
297.0 0.003367 313.05374 316.84372
335.0 0.002985 313.29221 317.33334
302.0 0.003311 313.53125 317.85040
303.0 0.003300 313.77069 318.50504
314.0 0.003185 314.01065 319.09686
344.0 0.002907 314.25095 319.73306
319.0 0.003135 314.49173 320.42294
298.0 0.003356 314.73294 321.18057
307.0 0.003257 314.97446 322.03125
331.0 0.003021 315.21643 323.02554
296.0 0.003378 315.45865 324.24536
318.0 0.003145 315.70126 325.78302
323.0 0.003096 315.94418 327.70358
335.0 0.002985 316.18744 330.06503
348.0 0.002874 316.43094 332.90253
357.0 0.002801 316.67477 336.27951
333.0 0.003003 316.91882 340.31271
327.0 0.003058 317.16312 345.17224
352.0 0.002841 317.40765 351.25000
367.0 0.002725 317.65247 359.43134
369.0 0.002710 317.89737 371.42249
403.0 0.002481 318.14246 389.84912
432.0 0.002315 318.38776 417.06570
463.0 0.002160 318.63321 453.63669
506.0 0.001976 318.87885 495.19452
515.0 0.001942 319.12454 534.77917
493.0 0.002028 319.37039 573.31012
547.0 0.001828 319.61624 620.18951
594.0 0.001684 319.86230 679.34814
637.0 0.001570 320.10843 755.40271
708.0 0.001412 320.35452 858.55548
884.0 0.001131 320.60074 1002.01764
1134.0 0.000882 320.84686 1203.91223
1450.0 0.000690 321.09314 1469.86133
1726.0 0.000579 321.33939 1733.52600
1811.0 0.000552 321.58560 1823.43665
1697.0 0.000589 321.83179 1638.43567
1453.0 0.000688 322.07791 1368.59912
1132.0 0.000883 322.32397 1110.26147
866.0 0.001155 322.57010 857.68146
721.0 0.001387 322.81598 688.14136
615.0 0.001626 323.06189 618.59692
563.0 0.001776 323.30759 599.28253
545.0 0.001835 323.55328 571.27393
500.0 0.002000 323.79883 523.18896
443.0 0.002257 324.04416 477.48083
409.0 0.002445 324.28943 433.49283
362.0 0.002762 324.53445 394.55716
350.0 0.002857 324.77936 369.32837
361.0 0.002770 325.02408 356.13144
354.0 0.002825 325.26852 349.50348
330.0 0.003030 325.51282 345.62903
310.0 0.003226 325.75693 353.53604
352.0 0.002841 326.00079 352.08041
375.0 0.002667 326.24438 351.12396
366.0 0.002732 326.48773 355.76468
353.0 0.002833 326.73077 355.77927
334.0 0.002994 326.97357 356.07144
324.0 0.003086 327.21606 356.56451
353.0 0.002833 327.45825 357.33655
354.0 0.002825 327.70010 358.32922
331.0 0.003021 327.94165 359.54169
378.0 0.002646 328.18283 360.97928
358.0 0.002793 328.42380 362.65411
341.0 0.002933 328.66431 364.58435
354.0 0.002825 328.90448 366.79529
365.0 0.002740 329.14423 367.06583
393.0 0.002545 329.38364 370.07999
377.0 0.002653 329.62262 373.49503
360.0 0.002778 329.86124 376.27863
400.0 0.002500 330.09940 380.79117
368.0 0.002717 330.33710 385.97708
375.0 0.002667 330.57449 391.98877
412.0 0.002427 330.81131 398.70657
427.0 0.002342 331.04776 407.07043
449.0 0.002227 331.28369 417.12146
498.0 0.002008 331.51917 429.27240
541.0 0.001848 331.75415 444.82172
591.0 0.001692 331.98865 465.71277
595.0 0.001681 332.22269 496.98651
663.0 0.001508 332.45618 548.73291
756.0 0.001323 332.68909 635.45477
827.0 0.001209 332.92154 768.23718
963.0 0.001038 333.15347 955.68604
1132.0 0.000883 333.38483 1200.49744
1386.0 0.000722 333.61560 1508.02002
1586.0 0.000631 333.84583 1880.95654
1948.0 0.000513 334.07544 2336.52979
2474.0 0.000404 334.30453 2890.61670
3197.0 0.0003128 334.53305 3584.61841
4221.0 0.0002369 334.76093 4501.34131
5570.0 0.0001795 334.98822 5761.37598
7460.0 0.0001340 335.21487 7446.16162
9305.0 0.0001075 335.44095 9249.60547
9879.0 0.0001012 335.66635 10155.24512
9132.0 0.0001095 335.89108 9196.68652
7809.0 0.0001281 336.11526 7369.23193
5983.0 0.0001671 336.33871 5675.89893
4018.0 0.0002489 336.56161 3888.13159
2503.0 0.000400 336.78375 2338.76440
1536.0 0.000651 337.00519 1401.16467
1011.0 0.000989 337.22592 956.15704
711.0 0.001406 337.44608 759.04285
570.0 0.001754 337.66544 656.73016
499.0 0.002004 337.88425 591.53156
425.0 0.002353 338.10214 545.35803
441.0 0.002268 338.31940 511.10049
432.0 0.002315 338.53595 484.92786
423.0 0.002364 338.75174 464.46368
405.0 0.002469 338.96686 448.15466
395.0 0.002532 339.18112 434.94611
392.0 0.002551 339.39471 424.09930
365.0 0.002740 339.60742 415.08514
382.0 0.002618 339.81958 407.51541
379.0 0.002639 340.03073 401.10126
382.0 0.002618 340.24127 395.62305
421.0 0.002375 340.45090 390.91028
427.0 0.002342 340.65982 386.83032
433.0 0.002309 340.86795 383.27795
438.0 0.002283 341.07529 380.16959
415.0 0.002410 341.28171 391.31012
422.0 0.002370 341.48737 389.61932
419.0 0.002387 341.69220 388.26163
390.0 0.002564 341.89624 394.10562
369.0 0.002710 342.09940 393.68588
380.0 0.002632 342.30176 377.62238
404.0 0.002475 342.50323 378.71161
369.0 0.002710 342.70392 379.99506
375.0 0.002667 342.90372 373.61218
407.0 0.002457 343.10260 375.78183
403.0 0.002481 343.30069 378.14877
362.0 0.002762 343.49780 380.74121
373.0 0.002681 343.69412 383.59204
401.0 0.002494 343.88953 386.74136
377.0 0.002653 344.08408 390.23642
377.0 0.002653 344.27768 394.13458
408.0 0.002451 344.47046 398.50677
434.0 0.002304 344.66229 403.43991
400.0 0.002500 344.85321 409.04349
407.0 0.002457 345.04321 415.45462
420.0 0.002381 345.23230 422.84958
425.0 0.002353 345.42044 431.45892
448.0 0.002232 345.60767 441.58926
504.0 0.001984 345.79398 453.65881
539.0 0.001855 345.97937 468.25366
582.0 0.001718 346.16379 486.24536
628.0 0.001592 346.34735 509.13589
665.0 0.001504 346.52982 540.17230
724.0 0.001381 346.71136 586.95508
818.0 0.001222 346.89206 664.34546
917.0 0.001091 347.07166 793.34607
1058.0 0.000945 347.25037 989.74817
1244.0 0.000804 347.42810 1266.65991
1488.0 0.000672 347.60480 1630.23169
1802.0 0.000555 347.78061 2090.89990
2233.0 0.000448 347.95535 2657.73120
2861.0 0.0003495 348.12921 3365.11401
3559.0 0.0002810 348.30197 4246.50488
4714.0 0.0002121 348.47379 5399.07764
6400.0 0.0001562 348.64462 6979.70264
9040.0 0.0001106 348.81445 9096.91895
11970.0 0.0000835 348.98328 11455.15332
13079.0 0.0000765 349.15103 12882.30078
11887.0 0.0000841 349.31781 11990.72656
9957.0 0.0001004 349.48364 9727.43555
7921.0 0.0001262 349.64835 7702.54639
5586.0 0.0001790 349.81213 5619.18652
3378.0 0.0002960 349.97485 3514.30859
1929.0 0.000518 350.13647 2062.79736
1193.0 0.000838 350.29724 1311.88855
821.0 0.001218 350.45682 974.71277
678.0 0.001475 350.61545 810.49432
633.0 0.001580 350.77295 711.94934
554.0 0.001805 350.92947 643.89716
535.0 0.001869 351.08493 593.95599
512.0 0.001953 351.23935 556.09314
450.0 0.002222 351.39267 538.36823
455.0 0.002198 351.54498 515.61359
455.0 0.002198 351.69629 497.40591
481.0 0.002079 351.84647 488.44858
462.0 0.002165 351.99561 476.70001
421.0 0.002375 352.14368 467.10620
437.0 0.002288 352.29068 471.23441
451.0 0.002217 352.43658 465.44589
464.0 0.002155 352.58154 460.91821
441.0 0.002268 352.72528 457.48642
442.0 0.002262 352.86804 461.23239
447.0 0.002237 353.00958 459.97592
447.0 0.002237 353.15018 459.56622
461.0 0.002169 353.28970 459.97064
486.0 0.002058 353.42810 461.17874
460.0 0.002174 353.56543 463.20309
456.0 0.002193 353.70160 466.07654
455.0 0.002198 353.83676 448.30536
452.0 0.002212 353.97083 454.36536
483.0 0.002070 354.10382 461.42618
501.0 0.001996 354.23563 458.90518
544.0 0.001838 354.36636 469.19034
541.0 0.001848 354.49606 481.12881
593.0 0.001686 354.62466 495.13376
650.0 0.001538 354.75208 511.75562
696.0 0.001437 354.87851 531.80524
750.0 0.001333 355.00372 585.88660
792.0 0.001263 355.12793 619.23138
874.0 0.001144 355.25098 665.26532
973.0 0.001028 355.37292 749.67303
1092.0 0.000916 355.49377 862.20081
1242.0 0.000805 355.61337 1034.44458
1419.0 0.000705 355.73206 1276.85022
1634.0 0.000612 355.84958 1606.99353
1975.0 0.000506 355.96588 2025.73206
2416.0 0.000414 356.08118 2565.95215
3003.0 0.0003330 356.19537 3256.23169
3838.0 0.0002606 356.30838 4163.69580
5050.0 0.0001980 356.42035 5395.04150
6937.0 0.0001442 356.53107 7077.91211
9615.0 0.0001040 356.64081 9274.12402
11987.0 0.0000834 356.74933 11563.93164
12402.0 0.0000806 356.85678 12857.68164
11754.0 0.0000851 356.96313 12392.27246
11253.0 0.0000889 357.06824 11497.88379
11007.0 0.0000909 357.17236 11240.26563
11195.0 0.0000893 357.27530 11281.53125
11971.0 0.0000835 357.37714 11684.39063
12865.0 0.0000777 357.47787 12292.97168
11746.0 0.0000851 357.57742 11816.44629
10024.0 0.0000998 357.67578 9896.39063
8448.0 0.0001184 357.77313 8021.95020
6505.0 0.0001537 357.86929 6448.68799
4743.0 0.0002108 357.96439 4666.54883
3314.0 0.0003018 358.05829 3136.20923
2457.0 0.000407 358.15109 2272.31982
2214.0 0.000452 358.24283 1991.75964
2326.0 0.000430 358.33331 2099.73389
2659.0 0.000376 358.42276 2474.71655
3229.0 0.0003097 358.51099 3094.28174
3836.0 0.0002607 358.59821 3948.01733
4870.0 0.0002053 358.68423 5078.40967
6279.0 0.0001593 358.76913 6513.54248
8504.0 0.0001176 358.85287 8382.05762
11196.0 0.0000893 358.93555 10849.38965
14735.0 0.0000679 359.01706 14227.25195
18797.0 0.0000532 359.09741 18690.55273
23617.0 0.0000423 359.17664 23418.13477
25689.0 0.0000389 359.25476 25888.77539
23435.0 0.0000427 359.33179 23607.26758
19517.0 0.0000512 359.40762 19089.72852
15711.0 0.0000636 359.48230 15385.11719
11707.0 0.0000854 359.55597 11584.33594
7571.0 0.0001321 359.62848 7375.72656
4418.0 0.0002263 359.69980 4274.95361
2507.0 0.000399 359.77008 2583.72827
1594.0 0.000627 359.83911 1793.11145
1142.0 0.000876 359.90710 1416.11670
929.0 0.001076 359.97394 1195.53552
796.0 0.001256 360.03964 1045.34424
794.0 0.001259 360.10425 917.25836
754.0 0.001326 360.16776 835.66406
704.0 0.001420 360.23007 772.79395
664.0 0.001506 360.29135 714.18347
616.0 0.001623 360.35138 675.65356
607.0 0.001647 360.41037 644.92041
578.0 0.001730 360.46829 620.39209
560.0 0.001786 360.52499 600.94049
534.0 0.001873 360.58066 585.81061
548.0 0.001825 360.63516 574.54559
544.0 0.001838 360.68857 566.93768
539.0 0.001855 360.74084 563.13800
583.0 0.001715 360.79196 563.98785
610.0 0.001639 360.84198 571.87378
629.0 0.001590 360.89093 591.65833
684.0 0.001462 360.93872 630.44507
791.0 0.001264 360.98541 693.92548
849.0 0.001178 361.03104 786.36426
928.0 0.001078 361.07550 914.35492
1051.0 0.000951 361.11890 1032.62793
1175.0 0.000851 361.16116 1249.36121
1470.0 0.000680 361.20233 1528.38525
1831.0 0.000546 361.24240 1877.56995
2462.0 0.000406 361.28134 2393.60083
3222.0 0.0003104 361.31921 3064.82080
3873.0 0.0002582 361.35599 3768.51074
4192.0 0.0002385 361.39160 4137.53906
3880.0 0.0002577 361.42615 3863.19385
3454.0 0.0002895 361.45963 3352.16870
3075.0 0.0003252 361.49191 3003.77954
2702.0 0.000370 361.52325 2684.30054
2333.0 0.000429 361.55341 2358.83447
2326.0 0.000430 361.58243 2262.17749
2502.0 0.000400 361.61047 2419.98096
2763.0 0.000362 361.63736 2614.29834
2456.0 0.000407 361.66318 2528.40112
2111.0 0.000474 361.68790 2152.78076
1857.0 0.000539 361.71152 1804.00977
1555.0 0.000643 361.73413 1515.69519
1195.0 0.000837 361.75558 1172.67102
773.0 0.001294 361.77597 854.43854
670.0 0.001493 361.79529 650.79919
538.0 0.001859 361.81357 546.68707
472.0 0.002119 361.83075 496.40881
503.0 0.001988 361.84683 468.54172
479.0 0.002088 361.86185 450.01044
484.0 0.002066 361.87579 436.40634
462.0 0.002165 361.88870 425.95370
499.0 0.002004 361.90054 417.69675
508.0 0.001969 361.91135 411.03836
503.0 0.001988 361.92108 405.57016
556.0 0.001799 361.92966 401.01556
619.0 0.001616 361.93723 397.17233
652.0 0.001534 361.94379 393.89371
632.0 0.001582 361.94931 391.07220
598.0 0.001672 361.95367 396.84149
561.0 0.001783 361.95706 395.11847
544.0 0.001838 361.95938 387.12738
512.0 0.001953 361.96066 386.33463
469.0 0.002132 361.96088 389.92505
426.0 0.002347 361.96014 386.37283
417.0 0.002398 361.95822 386.53421
420.0 0.002381 361.95541 386.84659
429.0 0.002331 361.95142 387.30881
435.0 0.002299 361.94653 387.92242
422.0 0.002370 361.94052 388.69308
447.0 0.002237 361.93347 385.87048
447.0 0.002237 361.92548 387.20364
434.0 0.002304 361.91638 388.71240
425.0 0.002353 361.90631 388.50317
422.0 0.002370 361.89517 390.54849
413.0 0.002421 361.88312 392.84369
436.0 0.002294 361.86990 395.43317
453.0 0.002208 361.85577 398.37112
436.0 0.002294 361.84055 401.72180
418.0 0.002392 361.82446 405.57138
420.0 0.002381 361.80728 410.02411
463.0 0.002160 361.78906 415.21951
486.0 0.002058 361.76990 421.33969
514.0 0.001946 361.74976 428.62241
575.0 0.001739 361.72861 437.40488
625.0 0.001600 361.70645 448.15173
654.0 0.001529 361.68320 461.57083
719.0 0.001391 361.65906 478.87622
744.0 0.001344 361.63391 502.60834
757.0 0.001321 361.60779 538.52460
799.0 0.001252 361.58072 597.49860
955.0 0.001047 361.55258 695.02753
1094.0 0.000914 361.52350 843.81537
1203.0 0.000831 361.49353 1052.35510
1459.0 0.000685 361.46246 1340.68713
1764.0 0.000567 361.43045 1707.04272
2220.0 0.000450 361.39755 2212.35059
2869.0 0.0003486 361.36365 2848.03394
3579.0 0.0002794 361.32877 3721.57813
4857.0 0.0002059 361.29300 4875.16943
6220.0 0.0001608 361.25616 6195.89258
6905.0 0.0001448 361.21844 7123.43750
6594.0 0.0001517 361.17972 6893.25000
5778.0 0.0001731 361.14011 5753.83691
4711.0 0.0002123 361.09952 4753.90088
3974.0 0.0002516 361.05801 3951.51465
3013.0 0.0003319 361.01553 2933.28491
1969.0 0.000508 360.97220 1926.24939
1401.0 0.000714 360.92783 1260.28394
1091.0 0.000917 360.88257 917.83600
1004.0 0.000996 360.83633 759.68195
973.0 0.001028 360.78931 680.12671
1102.0 0.000907 360.74121 632.64429
1190.0 0.000840 360.69223 601.36163
936.0 0.001068 360.64240 580.31390
785.0 0.001274 360.59164 566.57428
815.0 0.001227 360.53989 558.43243
760.0 0.001316 360.48724 554.88452
660.0 0.001515 360.43384 555.38416
611.0 0.001637 360.37933 559.72107
575.0 0.001739 360.32407 567.97076
603.0 0.001658 360.26782 580.50293
692.0 0.001445 360.21069 598.03217
752.0 0.001330 360.15271 621.73358
826.0 0.001211 360.09387 653.65863
942.0 0.001062 360.03409 697.83105
1030.0 0.000971 359.97348 763.39624
1129.0 0.000886 359.91187 869.52893
1289.0 0.000776 359.84949 1047.97705
1575.0 0.000635 359.78613 1335.95496
1947.0 0.000514 359.72202 1754.55579
2338.0 0.000428 359.65701 2343.38501
2924.0 0.0003420 359.59109 3118.61084
3924.0 0.0002548 359.52448 4128.78418
5317.0 0.0001881 359.45685 5478.03516
7285.0 0.0001373 359.38834 7330.41309
10066.0 0.0000993 359.31903 9788.64648
13270.0 0.0000754 359.24896 12717.80566
15579.0 0.0000642 359.17795 15063.87695
14836.0 0.0000674 359.10608 15109.03809
12595.0 0.0000794 359.03339 12765.50293
10688.0 0.0000936 358.95990 10423.27246
8914.0 0.0001122 358.88556 8731.78711
6459.0 0.0001548 358.81039 6691.26416
4201.0 0.0002380 358.73434 4359.64404
2555.0 0.000391 358.65753 2633.46899
1574.0 0.000635 358.57986 1674.69116
1094.0 0.000914 358.50143 1215.78162
830.0 0.001205 358.42212 987.92285
679.0 0.001473 358.34204 852.24725
576.0 0.001736 358.26117 758.74823
573.0 0.001745 358.17947 690.10333
537.0 0.001862 358.09698 638.09955
493.0 0.002028 358.01370 597.72565
449.0 0.002227 357.92960 565.64563
445.0 0.002247 357.84482 539.68689
442.0 0.002262 357.75906 518.34460
442.0 0.002262 357.67258 500.56555
458.0 0.002183 357.58530 485.59656
478.0 0.002092 357.49731 472.85782
417.0 0.002398 357.40857 461.92648
426.0 0.002347 357.31909 452.46683
395.0 0.002532 357.22864 444.22067
392.0 0.002551 357.13763 436.99039
363.0 0.002755 357.04575 430.60822
369.0 0.002710 356.95313 424.94687
373.0 0.002681 356.85974 419.89734
372.0 0.002688 356.76559 415.37192
383.0 0.002611 356.67075 411.30142
382.0 0.002618 356.57513 407.62256
334.0 0.002994 356.47879 404.28690
386.0 0.002591 356.38168 401.25049
364.0 0.002747 356.28391 398.47678
353.0 0.002833 356.18530 395.93683
378.0 0.002646 356.08606 393.60229
349.0 0.002865 355.98605 391.45175
368.0 0.002717 355.88531 389.46448
374.0 0.002674 355.78384 387.62311
374.0 0.002674 355.68167 385.91403
383.0 0.002611 355.57874 384.32288
382.0 0.002618 355.47525 365.70496
364.0 0.002747 355.37091 365.09491
374.0 0.002674 355.26581 364.52069
385.0 0.002597 355.16025 363.97925
384.0 0.002604 355.05377 355.07889
387.0 0.002584 354.94675 354.97089
378.0 0.002646 354.83902 354.85034
383.0 0.002611 354.73053 354.74155
386.0 0.002591 354.62140 354.63214
377.0 0.002653 354.51163 354.51596
373.0 0.002681 354.40112 361.51154
364.0 0.002747 354.29001 361.75821
366.0 0.002732 354.17810 362.03214
363.0 0.002755 354.06567 362.33609
361.0 0.002770 353.95251 366.23813
330.0 0.003030 353.83871 366.79288
359.0 0.002786 353.72424 367.40353
373.0 0.002681 353.60913 368.07672
375.0 0.002667 353.49335 368.81958
351.0 0.002849 353.37698 369.64130
366.0 0.002732 353.25992 370.55161
364.0 0.002747 353.14230 371.56271
381.0 0.002625 353.02396 372.68875
345.0 0.002899 352.90506 373.94510
355.0 0.002817 352.78549 375.35233
369.0 0.002710 352.66534 376.93265
361.0 0.002770 352.54453 378.71457
387.0 0.002584 352.42310 380.73227
346.0 0.002890 352.30109 383.02563
318.0 0.003145 352.17841 385.64688
354.0 0.002825 352.05515 388.65775
351.0 0.002849 351.93137 392.13928
367.0 0.002725 351.80685 396.19366
395.0 0.002532 351.68188 400.94922
400.0 0.002500 351.55618 406.58163
429.0 0.002331 351.42996 413.31885
463.0 0.002160 351.30325 421.47925
460.0 0.002174 351.17584 431.51074
436.0 0.002294 351.04785 444.06534
493.0 0.002028 350.91937 460.25012
528.0 0.001894 350.79028 482.25406
566.0 0.001767 350.66055 514.90808
671.0 0.001490 350.53033 567.65326
747.0 0.001339 350.39951 654.98059
842.0 0.001188 350.26813 792.25739
994.0 0.001006 350.13626 988.09570
1215.0 0.000823 350.00381 1264.73181
1508.0 0.000663 349.87079 1634.76880
1884.0 0.000531 349.73724 2132.96338
2556.0 0.000391 349.60324 2811.23730
3770.0 0.0002653 349.46860 3728.23584
5448.0 0.0001836 349.33344 4804.81494
6270.0 0.0001595 349.19772 5698.87158
5804.0 0.0001723 349.06155 5788.93994
4772.0 0.0002096 348.92480 4982.71680
4127.0 0.0002423 348.78760 4120.51953
3734.0 0.0002678 348.64987 3557.05273
2879.0 0.0003473 348.51154 2945.61572
1937.0 0.000516 348.37274 2118.23120
1260.0 0.000794 348.23349 1399.71667
838.0 0.001193 348.09372 956.20972
642.0 0.001558 347.95346 732.83624
541.0 0.001848 347.81262 623.71112
473.0 0.002114 347.67142 563.79865
446.0 0.002242 347.52963 525.02454
445.0 0.002247 347.38745 498.33591
397.0 0.002519 347.24472 478.04343
351.0 0.002849 347.10141 462.77682
358.0 0.002793 346.95782 451.21017
361.0 0.002770 346.81363 442.47025
369.0 0.002710 346.66907 435.99637
415.0 0.002410 346.52405 431.42410
437.0 0.002288 346.37851 428.54376
434.0 0.002304 346.23254 427.27341
432.0 0.002315 346.08612 427.65381
431.0 0.002320 345.93924 431.62143
453.0 0.002208 345.79193 436.30524
448.0 0.002232 345.64413 444.56720
475.0 0.002105 345.49594 459.05173
544.0 0.001838 345.34726 485.39853
550.0 0.001818 345.19818 528.46234
655.0 0.001527 345.04871 594.43311
792.0 0.001263 344.89874 688.56177
959.0 0.001043 344.74841 819.84045
1145.0 0.000873 344.59763 994.92590
1395.0 0.000717 344.44647 1238.52942
1725.0 0.000580 344.29483 1567.70630
2042.0 0.000490 344.14282 1981.26245
2390.0 0.000418 343.99048 2377.29688
2573.0 0.000389 343.83768 2540.87817
2503.0 0.000400 343.68442 2317.57397
2078.0 0.000481 343.53094 1962.30920
1737.0 0.000576 343.37683 1724.95483
1606.0 0.000623 343.22247 1540.11841
1279.0 0.000782 343.06778 1265.83289
1017.0 0.000983 342.91272 991.20178
808.0 0.001238 342.75711 823.88074
742.0 0.001348 342.60120 776.45758
764.0 0.001309 342.44492 811.72333
839.0 0.001192 342.28830 917.10931
1042.0 0.000960 342.13141 1082.13367
1407.0 0.000711 341.97400 1303.20898
1650.0 0.000606 341.81631 1526.17896
1698.0 0.000589 341.65823 1633.61707
1483.0 0.000674 341.49988 1522.59973
1297.0 0.000771 341.34109 1316.84424
1243.0 0.000805 341.18201 1174.65710
1083.0 0.000923 341.02252 1076.37988
930.0 0.001075 340.86279 939.32385
798.0 0.001253 340.70270 791.58307
708.0 0.001412 340.54236 706.20850
693.0 0.001443 340.38147 699.85651
768.0 0.001302 340.22037 756.71704
890.0 0.001124 340.05902 869.13342
1058.0 0.000945 339.89731 1037.62122
1256.0 0.000796 339.73523 1263.57678
1493.0 0.000670 339.57291 1501.81384
1590.0 0.000629 339.41022 1640.80212
1469.0 0.000681 339.24728 1557.35596
1308.0 0.000765 339.08408 1341.20618
1150.0 0.000870 338.92047 1174.65186
1011.0 0.000989 338.75662 1062.90894
846.0 0.001182 338.59250 912.50702
726.0 0.001377 338.42807 722.40997
563.0 0.001776 338.26334 570.24506
484.0 0.002066 338.09842 479.37259
499.0 0.002004 337.93323 432.97363
468.0 0.002137 337.76761 409.28281
473.0 0.002114 337.60190 395.29880
447.0 0.002237 337.43576 385.67889
401.0 0.002494 337.26941 378.49091
393.0 0.002545 337.10281 370.28250
374.0 0.002674 336.93594 365.91415
380.0 0.002632 336.76889 362.35550
362.0 0.002762 336.60156 358.04144
334.0 0.002994 336.43393 355.61319
337.0 0.002967 336.26608 353.54199
302.0 0.003311 336.09796 351.75385
300.0 0.003333 335.92966 350.19443
328.0 0.003049 335.76108 348.82016
338.0 0.002959 335.59235 347.59930
307.0 0.003257 335.42328 346.50549
350.0 0.002857 335.25406 345.51834
310.0 0.003226 335.08463 344.62213
299.0 0.003344 334.91492 342.22351
304.0 0.003289 334.74506 341.54327
323.0 0.003096 334.57492 340.91547
308.0 0.003247 334.40460 340.33267
329.0 0.003040 334.23407 339.00269
333.0 0.003003 334.06332 338.53003
305.0 0.003279 333.89243 338.08536
332.0 0.003012 333.72125 337.66498
286.0 0.003497 333.54990 337.26605
305.0 0.003279 333.37845 336.88638
315.0 0.003175 333.20679 336.52350
332.0 0.003012 333.03488 336.17593
318.0 0.003145 332.86282 335.84177
304.0 0.003289 332.69058 335.51962
339.0 0.002950 332.51822 335.20853
307.0 0.003257 332.34558 333.31964
340.0 0.002941 332.17291 333.09897
314.0 0.003185 331.99997 338.22888
313.0 0.003195 331.82687 338.28546
297.0 0.003367 331.65366 337.57321
313.0 0.003195 331.48026 337.71530
307.0 0.003257 331.30673 340.51471
313.0 0.003195 331.13306 340.84384
296.0 0.003378 330.95911 341.21536
298.0 0.003356 330.78516 345.78925
304.0 0.003289 330.61105 346.47385
329.0 0.003040 330.43683 347.23483
342.0 0.002924 330.26242 348.08182
323.0 0.003096 330.08789 351.06918
327.0 0.003058 329.91324 354.25580
342.0 0.002924 329.73843 355.65045
330.0 0.003030 329.56354 357.20468
327.0 0.003058 329.38852 358.94220
334.0 0.002994 329.21329 361.88782
319.0 0.003135 329.03812 364.12927
319.0 0.003135 328.86273 366.65869
343.0 0.002915 328.68726 369.52338
353.0 0.002833 328.51166 372.78452
357.0 0.002801 328.33600 376.51752
370.0 0.002703 328.16025 380.81363
384.0 0.002604 327.98434 385.79535
384.0 0.002604 327.80838 391.61389
372.0 0.002688 327.63232 398.47482
373.0 0.002681 327.45615 406.65176
392.0 0.002551 327.27997 416.51288
427.0 0.002342 327.10364 428.59918
425.0 0.002353 326.92728 443.73260
473.0 0.002114 326.75085 463.41428
537.0 0.001862 326.57425 490.72849
578.0 0.001730 326.39761 531.81543
635.0 0.001575 326.22092 597.16376
709.0 0.001410 326.04425 700.77222
914.0 0.001094 325.86746 854.64355
1109.0 0.000902 325.69058 1072.23816
1411.0 0.000709 325.51367 1381.30896
1800.0 0.000556 325.33664 1802.65869
2524.0 0.000396 325.15967 2393.19995
3382.0 0.0002957 324.98260 3145.04517
4298.0 0.0002327 324.80548 3947.93848
4724.0 0.0002117 324.62836 4465.99951
4336.0 0.0002306 324.45108 4405.08252
4091.0 0.0002444 324.27396 4058.77856
4138.0 0.0002417 324.09665 3972.22949
4471.0 0.0002237 323.91931 4201.27783
4527.0 0.0002209 323.74203 4443.84717
4550.0 0.0002198 323.56464 4479.33936
4421.0 0.0002262 323.38733 4243.78857
3744.0 0.0002671 323.20996 3754.83691
3450.0 0.0002899 323.03256 3374.03931
3396.0 0.0002945 322.85513 3287.56470
3313.0 0.0003018 322.67773 3275.14673
2996.0 0.0003338 322.50027 2984.82837
2463.0 0.000406 322.32288 2403.90771
1856.0 0.000539 322.14542 1857.91309
1542.0 0.000649 321.96799 1523.67114
1328.0 0.000753 321.79056 1321.51050
1141.0 0.000876 321.61301 1109.97729
887.0 0.001127 321.43567 879.00714
659.0 0.001517 321.25818 698.90930
572.0 0.001748 321.08087 587.52734
503.0 0.001988 320.90341 526.09082
469.0 0.002132 320.72614 491.73965
439.0 0.002278 320.54871 470.31985
434.0 0.002304 320.37143 455.65875
430.0 0.002326 320.19406 445.36285
446.0 0.002242 320.01682 439.59061
425.0 0.002353 319.83957 435.45642
410.0 0.002439 319.66235 433.89868
439.0 0.002278 319.48517 434.95093
463.0 0.002160 319.30804 439.52695
465.0 0.002151 319.13089 447.29791
492.0 0.002033 318.95389 464.89877
529.0 0.001890 318.77686 488.38217
590.0 0.001695 318.59991 529.19879
663.0 0.001508 318.42303 598.21802
771.0 0.001297 318.24619 708.52020
891.0 0.001122 318.06940 865.77417
1122.0 0.000891 317.89264 1092.93237
1467.0 0.000682 317.71594 1406.28308
1966.0 0.000509 317.53937 1840.91248
2585.0 0.000387 317.36285 2385.43506
3175.0 0.0003150 317.18643 2933.67700
3353.0 0.0002982 317.00998 3235.61719
2992.0 0.0003342 316.83362 3040.93408
2536.0 0.000394 316.65735 2567.69727
2241.0 0.000446 316.48114 2208.87354
1999.0 0.000500 316.30511 2002.97693
1682.0 0.000595 316.12906 1738.81580
1310.0 0.000763 315.95309 1340.24377
859.0 0.001164 315.77731 965.62506
652.0 0.001534 315.60153 716.82935
527.0 0.001898 315.42596 580.52307
466.0 0.002146 315.25034 512.87183
444.0 0.002252 315.07492 479.73093
420.0 0.002381 314.89957 461.53928
418.0 0.002392 314.72430 451.83377
444.0 0.002252 314.54913 448.81830
454.0 0.002203 314.37411 451.97165
481.0 0.002079 314.19910 465.17065
469.0 0.002132 314.02432 490.55716
519.0 0.001927 313.84961 530.98779
626.0 0.001597 313.67502 590.26678
739.0 0.001353 313.50058 679.48035
966.0 0.001035 313.32623 806.34454
1051.0 0.000951 313.15195 985.01062
1287.0 0.000777 312.97781 1213.41882
1512.0 0.000661 312.80392 1451.87097
1734.0 0.000577 312.63004 1630.99878
1854.0 0.000539 312.45627 1759.82349
2006.0 0.000499 312.28275 1967.97876
2424.0 0.000413 312.10928 2332.41309
3042.0 0.0003287 311.93597 2809.93066
3624.0 0.0002759 311.76279 3194.30713
3532.0 0.0002831 311.58972 3250.86914
2865.0 0.0003490 311.41693 2867.48877
2461.0 0.000406 311.24417 2378.64038
2206.0 0.000453 311.07166 2066.81812
2007.0 0.000498 310.89917 1876.84741
1572.0 0.000636 310.72684 1604.42639
1173.0 0.000853 310.55481 1224.47156
852.0 0.001174 310.38275 895.72491
667.0 0.001499 310.21106 690.39581
524.0 0.001908 310.03940 589.36206
470.0 0.002128 309.86786 550.93707
482.0 0.002075 309.69659 540.26593
519.0 0.001927 309.52545 543.20709
512.0 0.001953 309.35446 537.30267
473.0 0.002114 309.18372 510.65927
459.0 0.002179 309.01300 475.43384
450.0 0.002222 308.84259 451.78922
399.0 0.002506 308.67233 436.02112
348.0 0.002874 308.50220 417.49490
337.0 0.002967 308.33237 393.18289
341.0 0.002933 308.16260 371.12061
339.0 0.002950 307.99313 355.73508
326.0 0.003067 307.82376 346.22610
315.0 0.003175 307.65466 340.32217
309.0 0.003236 307.48569 336.24384
278.0 0.00360 307.31689 333.08981
279.0 0.00358 307.14828 330.48801
283.0 0.00353 306.97992 328.27112
293.0 0.003413 306.81180 326.34872
301.0 0.003322 306.64386 324.65820
296.0 0.003378 306.47604 323.15552
282.0 0.00355 306.30850 321.80875
278.0 0.00360 306.14120 320.59152
279.0 0.00358 305.97403 319.48462
278.0 0.00360 305.80716 318.47162
283.0 0.00353 305.64038 316.41391
283.0 0.00353 305.47397 315.60437
272.0 0.00368 305.30765 314.85278
294.0 0.003401 305.14163 314.15274
295.0 0.003390 304.97586 313.49771
281.0 0.00356 304.81012 312.33646
309.0 0.003236 304.64484 307.85736
274.0 0.00365 304.47961 307.51379
293.0 0.003413 304.31470 307.18530
288.0 0.003472 304.15002 306.87024
287.0 0.003484 303.98560 306.56708
317.0 0.003155 303.82135 304.36880
258.0 0.00388 303.65732 304.17285
288.0 0.003472 303.49359 303.97995
305.0 0.003279 303.33008 303.78973
280.0 0.00357 303.16675 303.60193
272.0 0.00368 303.00378 303.41635
297.0 0.003367 302.84094 303.23285
264.0 0.00379 302.67844 303.05106
261.0 0.00383 302.51617 302.66022
292.0 0.003425 302.35403 302.49127
279.0 0.00358 302.19226 302.32327
275.0 0.00364 302.03073 302.15598
262.0 0.00382 301.86948 301.98932
306.0 0.003268 301.70847 301.72073
282.0 0.00355 301.54770 301.55997
290.0 0.003448 301.38721 301.39951
247.0 0.00405 301.22690 301.23917
257.0 0.00389 301.06693 301.07928
298.0 0.003356 300.90726 300.91956
267.0 0.00375 300.74774 300.76004
263.0 0.00380 300.58862 300.60086
258.0 0.00388 300.42966 300.44196
278.0 0.00360 300.27106 300.28336
295.0 0.003390 300.11270 300.12497
304.0 0.003289 299.95456 299.96683
288.0 0.003472 299.79678 299.80908
278.0 0.00360 299.63919 299.65149
297.0 0.003367 299.48203 299.49426
289.0 0.003460 299.32498 299.33728
277.0 0.00361 299.16824 299.18054
268.0 0.00373 299.01181 299.02414
273.0 0.00366 298.85568 298.86798
301.0 0.003322 298.69986 298.71216
303.0 0.003300 298.54431 298.55661
287.0 0.003484 298.38901 298.40131
294.0 0.003401 298.23410 298.24634
298.0 0.003356 298.07938 298.09164
299.0 0.003344 297.92499 297.93732
311.0 0.003215 297.77090 297.78317
305.0 0.003279 297.61707 297.62933
292.0 0.003425 297.46356 297.47589
285.0 0.00351 297.31030 297.32260
293.0 0.003413 297.15750 297.16980
287.0 0.003484 297.00485 299.57678
298.0 0.003356 296.85254 299.55371
287.0 0.003484 296.70059 299.54102
297.0 0.003367 296.54886 299.53970
310.0 0.003226 296.39749 299.55103
289.0 0.003460 296.24643 300.86462
298.0 0.003356 296.09570 300.97104
309.0 0.003236 295.94519 301.09991
275.0 0.00364 295.79514 301.25397
283.0 0.00353 295.64529 301.43640
288.0 0.003472 295.49582 301.65063
285.0 0.00351 295.34656 301.90094
289.0 0.003460 295.19778 310.67560
289.0 0.003460 295.04919 311.43851
311.0 0.003215 294.90100 312.28745
289.0 0.003460 294.75305 313.23407
267.0 0.00375 294.60544 314.29224
298.0 0.003356 294.45822 319.73999
316.0 0.003165 294.31125 321.28668
303.0 0.003300 294.16470 323.01944
269.0 0.00372 294.01843 324.96921
312.0 0.003205 293.87247 327.17319
308.0 0.003247 293.72684 329.67526
316.0 0.003165 293.58160 332.53418
339.0 0.002950 293.43668 335.82056
294.0 0.003401 293.29202 339.62909
325.0 0.003077 293.14777 347.31479
328.0 0.003049 293.00388 352.73853
349.0 0.002865 292.86023 359.21082
330.0 0.003030 292.71698 367.05798
348.0 0.002874 292.57401 376.81461
381.0 0.002625 292.43143 391.09225
408.0 0.002451 292.28925 409.53024
429.0 0.002331 292.14731 435.79208
424.0 0.002358 292.00580 476.76392
520.0 0.001923 291.86453 540.78931
600.0 0.001667 291.72369 636.24127
739.0 0.001353 291.58322 774.05743
1007.0 0.000993 291.44299 971.16992
1319.0 0.000758 291.30322 1232.22375
1719.0 0.000582 291.16379 1548.37134
2004.0 0.000499 291.02463 1844.54492
2026.0 0.000494 290.88589 1987.36230
1880.0 0.000532 290.74753 1885.10803
1733.0 0.000577 290.60947 1681.06702
1670.0 0.000599 290.47186 1573.24988
1731.0 0.000578 290.33444 1590.67297
1761.0 0.000568 290.19748 1662.44116
1780.0 0.000562 290.06082 1745.70947
1983.0 0.000504 289.92468 1930.72852
2407.0 0.000415 289.78873 2346.62842
3127.0 0.0003198 289.65317 3034.24146
4145.0 0.0002413 289.51797 3959.94751
5089.0 0.0001965 289.38327 4923.47949
5391.0 0.0001855 289.24875 5499.40430
4878.0 0.0002050 289.11469 5269.34766
4057.0 0.0002465 288.98093 4476.12939
3600.0 0.0002778 288.84772 3815.45972
3400.0 0.0002941 288.71466 3486.92554
3208.0 0.0003117 288.58206 3238.00586
2602.0 0.000384 288.44995 2756.15161
1902.0 0.000526 288.31796 2134.95142
1553.0 0.000644 288.18652 1669.58276
1486.0 0.000673 288.05539 1471.24231
1516.0 0.000660 287.92468 1519.90710
1799.0 0.000556 287.79434 1745.78076
2093.0 0.000478 287.66428 2069.64526
2304.0 0.000434 287.53473 2348.97485
2430.0 0.000412 287.40543 2405.43701
2155.0 0.000464 287.27661 2196.03271
1908.0 0.000524 287.14816 1953.00830
1708.0 0.000585 287.01996 1848.60938
1776.0 0.000563 286.89230 1839.90942
1665.0 0.000601 286.76498 1768.83643
1466.0 0.000682 286.63797 1542.51025
1201.0 0.000833 286.51141 1235.40027
908.0 0.001101 286.38522 978.20410
712.0 0.001404 286.25946 822.70386
631.0 0.001585 286.13400 739.04993
585.0 0.001709 286.00906 672.84937
551.0 0.001815 285.88437 591.26849
465.0 0.002151 285.76004 512.22723
434.0 0.002304 285.63620 453.65280
345.0 0.002899 285.51270 413.97220
353.0 0.002833 285.38968 391.87573
326.0 0.003067 285.26694 378.23123
348.0 0.002874 285.14453 369.08029
328.0 0.003049 285.02261 362.68311
347.0 0.002882 284.90109 357.28207
349.0 0.002865 284.77997 355.50519
349.0 0.002865 284.65927 356.61328
362.0 0.002762 284.53888 361.41702
370.0 0.002703 284.41891 370.62717
379.0 0.002639 284.29938 385.58267
406.0 0.002463 284.18018 408.38535
450.0 0.002222 284.06140 437.00421
495.0 0.002020 283.94302 458.60883
510.0 0.001961 283.82507 477.74948
496.0 0.002016 283.70749 472.66293
476.0 0.002101 283.59036 450.13174
433.0 0.002309 283.47351 426.15970
427.0 0.002342 283.35709 417.48541
425.0 0.002353 283.24112 413.26572
416.0 0.002404 283.12555 403.19577
418.0 0.002392 283.01041 387.82687
424.0 0.002358 282.89563 378.58438
432.0 0.002315 282.78119 377.15405
436.0 0.002294 282.66724 387.72540
494.0 0.002024 282.55365 413.35742
577.0 0.001733 282.44058 458.56323
620.0 0.001613 282.32776 536.26031
701.0 0.001427 282.21536 650.97931
857.0 0.001167 282.10342 816.98932
1175.0 0.000851 281.99188 1053.56274
1629.0 0.000614 281.88074 1338.87280
2007.0 0.000498 281.76996 1626.54980
2046.0 0.000489 281.65964 1796.88843
1821.0 0.000549 281.54974 1730.33728
1538.0 0.000650 281.44025 1503.75720
1404.0 0.000712 281.33115 1306.35669
1325.0 0.000755 281.22244 1206.64587
1204.0 0.000831 281.11411 1138.59485
1072.0 0.000933 281.00626 1005.74841
780.0 0.001282 280.89880 806.87054
576.0 0.001736 280.79172 626.33801
473.0 0.002114 280.68512 503.84644
442.0 0.002262 280.57880 434.17780
392.0 0.002551 280.47296 399.06598
374.0 0.002674 280.36758 380.17355
310.0 0.003226 280.26260 369.47931
353.0 0.002833 280.15799 363.15646
313.0 0.003195 280.05386 359.71671
354.0 0.002825 279.95007 358.54300
340.0 0.002941 279.84674 359.38272
342.0 0.002924 279.74384 362.21832
362.0 0.002762 279.64124 367.27454
395.0 0.002532 279.53909 375.16336
402.0 0.002488 279.43747 387.24173
417.0 0.002398 279.33615 406.23605
461.0 0.002169 279.23535 436.56314
578.0 0.001730 279.13489 485.70816
683.0 0.001464 279.03482 562.03741
813.0 0.001230 278.93524 674.17725
945.0 0.001058 278.83597 837.84656
1166.0 0.000858 278.73721 1064.48975
1421.0 0.000704 278.63882 1334.42627
1688.0 0.000592 278.54083 1603.96875
1796.0 0.000557 278.44333 1779.53516
1886.0 0.000530 278.34625 1827.14307
1929.0 0.000518 278.24957 1851.30847
2046.0 0.000489 278.15323 1944.87354
2181.0 0.000459 278.05740 2062.01123
2205.0 0.000454 277.96191 2072.39795
2102.0 0.000476 277.86688 1971.97388
2071.0 0.000483 277.77225 1905.76294
2182.0 0.000458 277.67813 1947.67712
2235.0 0.000447 277.58432 2034.95007
2125.0 0.000471 277.49097 2006.47986
1862.0 0.000537 277.39801 1811.16467
1651.0 0.000606 277.30545 1612.68372
1600.0 0.000625 277.21332 1547.12537
1745.0 0.000573 277.12170 1627.94116
1911.0 0.000523 277.03046 1758.79138
1998.0 0.000501 276.93954 1827.87000
1894.0 0.000528 276.84912 1772.12964
1650.0 0.000606 276.75922 1569.18823
1346.0 0.000743 276.66953 1314.63135
1117.0 0.000895 276.58041 1132.27808
1048.0 0.000954 276.49167 1039.84326
1011.0 0.000989 276.40332 975.73700
869.0 0.001151 276.31546 864.56592
672.0 0.001488 276.22797 709.60883
551.0 0.001815 276.14090 569.63177
454.0 0.002203 276.05420 472.53281
366.0 0.002732 275.96805 414.76163
358.0 0.002793 275.88223 382.48193
329.0 0.003040 275.79681 363.67822
310.0 0.003226 275.71188 351.52625
329.0 0.003040 275.62729 342.98877
327.0 0.003058 275.54321 336.72797
324.0 0.003086 275.45947 331.95981
355.0 0.002817 275.37619 328.01160
330.0 0.003030 275.29333 324.30072
291.0 0.003436 275.21088 320.83661
313.0 0.003195 275.12881 318.04684
351.0 0.002849 275.04724 316.07349
363.0 0.002755 274.96606 314.74039
328.0 0.003049 274.88528 313.74493
371.0 0.002695 274.80493 311.07904
401.0 0.002494 274.72507 310.98090
379.0 0.002639 274.64554 311.63693
380.0 0.002632 274.56638 313.19116
419.0 0.002387 274.48773 315.82175
459.0 0.002179 274.40945 317.43207
385.0 0.002597 274.33170 323.92593
435.0 0.002299 274.25427 334.43027
479.0 0.002088 274.17728 352.03857
509.0 0.001965 274.10068 381.54962
525.0 0.001905 274.02454 426.66959
581.0 0.001721 273.94879 498.97174
676.0 0.001479 273.87347 603.37335
801.0 0.001248 273.79855 745.71320
943.0 0.001060 273.72415 909.09216
1055.0 0.000948 273.64999 1052.33301
1165.0 0.000858 273.57642 1108.46667
1102.0 0.000907 273.50320 1033.89417
945.0 0.001058 273.43036 906.24445
877.0 0.001140 273.35794 814.29785
758.0 0.001319 273.28595 771.68182
716.0 0.001397 273.21448 738.10931
624.0 0.001603 273.14331 664.04266
555.0 0.001802 273.07254 555.33820
496.0 0.002016 273.00220 457.45911
424.0 0.002358 272.93234 397.93475
388.0 0.002577 272.86295 358.53030
356.0 0.002809 272.79388 337.38144
316.0 0.003165 272.72516 325.85587
301.0 0.003322 272.65701 318.95047
294.0 0.003401 272.58914 314.39899
316.0 0.003165 272.52182 315.49786
327.0 0.003058 272.45474 313.57111
312.0 0.003205 272.38818 312.41409
294.0 0.003401 272.32205 311.88269
304.0 0.003289 272.25629 311.87888
313.0 0.003195 272.19101 312.36514
312.0 0.003205 272.12607 313.30914
316.0 0.003165 272.06161 314.70993
305.0 0.003279 271.99750 316.58676
298.0 0.003356 271.93381 318.98026
294.0 0.003401 271.87054 321.96555
304.0 0.003289 271.80768 325.64203
314.0 0.003185 271.74524 330.15994
330.0 0.003030 271.68320 336.24393
330.0 0.003030 271.62155 343.29520
363.0 0.002755 271.56036 352.48804
374.0 0.002674 271.49960 365.44946
399.0 0.002506 271.43918 384.08618
434.0 0.002304 271.37924 412.60800
465.0 0.002151 271.31961 456.93015
570.0 0.001754 271.26047 523.78406
665.0 0.001504 271.20172 617.72321
782.0 0.001279 271.14340 746.29181
951.0 0.001052 271.08545 899.34979
1019.0 0.000981 271.02789 1048.15222
1144.0 0.000874 270.97083 1140.97473
1170.0 0.000855 270.91412 1134.36426
1130.0 0.000885 270.85770 1074.64038
1163.0 0.000860 270.80188 1062.51453
1286.0 0.000778 270.74634 1144.47253
1387.0 0.000721 270.69119 1327.81555
1767.0 0.000566 270.63660 1604.92578
2144.0 0.000466 270.58218 1998.62549
2682.0 0.000373 270.52841 2582.81738
3496.0 0.0002860 270.47488 3350.48755
4290.0 0.0002331 270.42181 4140.46777
4605.0 0.0002172 270.36914 4656.15088
4447.0 0.0002249 270.31686 4546.25391
3836.0 0.0002607 270.26495 3924.96875
3209.0 0.0003116 270.21356 3321.05298
2812.0 0.000356 270.16245 2990.65088
2715.0 0.000368 270.11179 2843.73267
2478.0 0.000404 270.06149 2606.60645
2031.0 0.000492 270.01163 2126.73950
1464.0 0.000683 269.96219 1563.80505
1023.0 0.000978 269.91312 1111.14722
762.0 0.001312 269.86447 818.20282
622.0 0.001608 269.81613 654.05756
567.0 0.001764 269.76831 570.14502
516.0 0.001938 269.72073 530.84943
500.0 0.002000 269.67371 518.94482
541.0 0.001848 269.62698 528.67126
603.0 0.001658 269.58063 559.91217
633.0 0.001580 269.53476 610.94305
693.0 0.001443 269.48929 673.37451
755.0 0.001325 269.44418 732.74304
765.0 0.001307 269.39941 770.68573
766.0 0.001305 269.35507 792.50830
821.0 0.001218 269.31116 824.04266
927.0 0.001079 269.26758 874.24597
1030.0 0.000971 269.22437 938.11023
1105.0 0.000905 269.18161 996.72900
1102.0 0.000907 269.13922 1013.31793
972.0 0.001029 269.09723 955.91107
834.0 0.001199 269.05563 845.21356
757.0 0.001321 269.01443 740.55524
687.0 0.001456 268.97357 672.76544
667.0 0.001499 268.93311 632.70380
602.0 0.001661 268.89310 591.21411
495.0 0.002020 268.85333 526.97766
413.0 0.002421 268.81409 455.75043
390.0 0.002564 268.77518 398.79776
359.0 0.002786 268.73663 359.83493
320.0 0.003125 268.69855 336.93329
289.0 0.003460 268.66074 323.53006
308.0 0.003247 268.62332 315.12463
297.0 0.003367 268.58643 309.23340
301.0 0.003322 268.54977 304.97415
295.0 0.003390 268.51352 293.34854
276.0 0.00362 268.47766 290.75479
263.0 0.00380 268.44226 288.61832
264.0 0.00379 268.40707 286.83411
276.0 0.00362 268.37234 285.32806
272.0 0.00368 268.33798 279.97241
276.0 0.00362 268.30399 279.06277
278.0 0.00360 268.27042 278.29443
258.0 0.00388 268.23721 277.64511
261.0 0.00383 268.20435 277.09781
228.0 0.00439 268.17184 276.64044
281.0 0.00356 268.13977 276.26352
269.0 0.00372 268.10800 275.96036
282.0 0.00355 268.07666 275.72702
274.0 0.00365 268.04565 275.56107
315.0 0.003175 268.01508 276.15564
284.0 0.00352 267.98477 276.16287
297.0 0.003367 267.95490 276.24826
297.0 0.003367 267.92545 276.42065
290.0 0.003448 267.89621 276.20236
269.0 0.00372 267.86746 276.95047
298.0 0.003356 267.83902 277.52435
300.0 0.003333 267.81104 278.01413
263.0 0.00380 267.78329 279.02859
262.0 0.00382 267.75595 280.13904
258.0 0.00388 267.72900 282.05148
252.0 0.00397 267.70239 283.95926
279.0 0.00358 267.67615 288.42319
290.0 0.003448 267.65030 296.01712
318.0 0.003145 267.62476 308.49023
335.0 0.002985 267.59967 328.34161
366.0 0.002732 267.57480 357.64349
407.0 0.002457 267.55032 395.65814
471.0 0.002123 267.52625 442.69348
519.0 0.001927 267.50253 487.22562
524.0 0.001908 267.47913 510.59927
496.0 0.002016 267.45609 500.95023
441.0 0.002268 267.43347 466.42303
425.0 0.002353 267.41110 435.80072
408.0 0.002451 267.38913 421.35278
403.0 0.002481 267.36755 415.48718
387.0 0.002584 267.34628 404.79993
370.0 0.002703 267.32538 381.28430
353.0 0.002833 267.30478 352.36826
316.0 0.003165 267.28461 328.74466
298.0 0.003356 267.26468 313.76324
309.0 0.003236 267.24518 306.32895
328.0 0.003049 267.22598 304.28046
288.0 0.003472 267.20718 306.25171
300.0 0.003333 267.18866 312.36987
327.0 0.003058 267.17056 324.21030
343.0 0.002915 267.15274 344.54605
394.0 0.002538 267.13528 376.46384
445.0 0.002247 267.11810 421.56104
513.0 0.001949 267.10132 480.58487
607.0 0.001647 267.08493 548.36450
675.0 0.001481 267.06879 602.81488
688.0 0.001453 267.05298 619.45306
634.0 0.001577 267.03760 589.23529
599.0 0.001669 267.02252 540.52240
559.0 0.001789 267.00772 507.81921
547.0 0.001828 266.99332 497.22949
564.0 0.001773 266.97919 493.58316
560.0 0.001786 266.96552 479.91971
530.0 0.001887 266.95203 453.42990
489.0 0.002045 266.93893 432.36972
459.0 0.002179 266.92618 433.93195
530.0 0.001887 266.91376 467.50687
562.0 0.001779 266.90161 537.49084
723.0 0.001383 266.88980 643.19824
820.0 0.001220 266.87836 781.99622
951.0 0.001052 266.86719 931.09155
1084.0 0.000923 266.85641 1032.94812
1097.0 0.000912 266.84598 1036.37671
972.0 0.001029 266.83582 941.05109
917.0 0.001091 266.82590 826.74713
767.0 0.001304 266.81644 757.32635
798.0 0.001253 266.80728 730.30524
747.0 0.001339 266.79837 709.98364
636.0 0.001572 266.78973 650.62262
591.0 0.001692 266.78156 557.00616
458.0 0.002183 266.77362 465.50110
392.0 0.002551 266.76596 397.39810
377.0 0.002653 266.75873 356.54111
346.0 0.002890 266.75171 333.19214
341.0 0.002933 266.74503 319.63547
327.0 0.003058 266.73865 311.54535
286.0 0.003497 266.73260 306.21710
256.0 0.00391 266.72684 302.44525
253.0 0.00395 266.72147 299.69455
280.0 0.00357 266.71634 298.17755
289.0 0.003460 266.71158 296.77679
284.0 0.00352 266.70703 295.84872
289.0 0.003460 266.70282 295.32031
281.0 0.00356 266.69897 295.14474
281.0 0.00356 266.69537 295.29416
305.0 0.003279 266.69202 295.75546
319.0 0.003135 266.68912 296.52859
302.0 0.003311 266.68634 296.95071
297.0 0.003367 266.68396 298.42972
298.0 0.003356 266.68192 309.02689
300.0 0.003333 266.68011 311.76736
315.0 0.003175 266.67865 315.06067
326.0 0.003067 266.67740 319.01697
319.0 0.003135 266.67654 323.45352
330.0 0.003030 266.67593 329.24567
345.0 0.002899 266.67557 340.70853
362.0 0.002762 266.67560 349.71027
381.0 0.002625 266.67584 361.08154
413.0 0.002421 266.67639 375.99600
480.0 0.002083 266.67728 396.74039
516.0 0.001938 266.67841 427.82687
623.0 0.001605 266.67978 477.32297
710.0 0.001408 266.68149 558.20721
862.0 0.001160 266.68353 686.93506
1101.0 0.000908 266.68579 884.47089
1300.0 0.000769 266.68835 1156.07288
1479.0 0.000676 266.69119 1497.50122
1814.0 0.000551 266.69437 1860.60364
2054.0 0.000487 266.69775 2118.58960
2248.0 0.000445 266.70148 2158.68140
2137.0 0.000468 266.70541 1985.93494
1907.0 0.000524 266.70966 1785.64636
1789.0 0.000559 266.71420 1703.56714
1813.0 0.000552 266.71896 1739.62415
1803.0 0.000555 266.72403 1780.48572
1753.0 0.000570 266.72934 1703.57935
1533.0 0.000652 266.73499 1475.05774
1225.0 0.000816 266.74088 1204.42517
1039.0 0.000962 266.74704 996.96216
957.0 0.001045 266.75351 881.32581
828.0 0.001208 266.76016 832.21991
815.0 0.001227 266.76718 810.45056
781.0 0.001280 266.77432 791.77161
773.0 0.001294 266.78186 791.89655
847.0 0.001181 266.78961 846.85193
1006.0 0.000994 266.79767 993.88239
1269.0 0.000788 266.80591 1273.27661
1758.0 0.000569 266.81448 1720.04187
2505.0 0.000399 266.82333 2342.14771
3436.0 0.0002910 266.83240 3111.56323
4370.0 0.0002288 266.84171 3891.74219
4706.0 0.0002125 266.85129 4378.98682
4333.0 0.0002308 266.86111 4323.53320
3775.0 0.0002649 266.87125 3791.40381
3214.0 0.0003111 266.88156 3209.67603
2981.0 0.0003355 266.89218 2868.41504
3001.0 0.0003332 266.90308 2755.18921
2845.0 0.000351 266.91412 2656.03687
2366.0 0.000423 266.92551 2373.76099
1820.0 0.000549 266.93710 1903.69531
1357.0 0.000737 266.94891 1424.28247
1051.0 0.000951 266.96109 1060.87158
850.0 0.001176 266.97342 834.50275
726.0 0.001377 266.98596 717.10236
699.0 0.001431 266.99878 677.44318
745.0 0.001342 267.01193 697.28131
815.0 0.001227 267.02524 769.56006
897.0 0.001115 267.03885 893.89948
1130.0 0.000885 267.05261 1066.73071
1378.0 0.000726 267.06665 1264.25366
1562.0 0.000640 267.08087 1423.37463
1586.0 0.000631 267.09549 1484.43042
1538.0 0.000650 267.11020 1433.28613
1422.0 0.000703 267.12512 1359.65454
1390.0 0.000719 267.14041 1357.38770
1508.0 0.000663 267.15588 1440.07410
1631.0 0.000613 267.17157 1538.19409
1597.0 0.000626 267.18744 1552.91724
1471.0 0.000680 267.20361 1424.48608
1220.0 0.000820 267.21994 1213.24402
1016.0 0.000984 267.23657 1029.33948
936.0 0.001068 267.25339 923.59027
913.0 0.001095 267.27045 885.96362
860.0 0.001163 267.28769 876.17926
838.0 0.001193 267.30521 865.31598
849.0 0.001178 267.32291 861.54767
846.0 0.001182 267.34088 895.37976
952.0 0.001050 267.35898 981.43005
1105.0 0.000905 267.37732 1099.16138
1222.0 0.000818 267.39600 1196.85254
1210.0 0.000826 267.41476 1223.83435
1160.0 0.000862 267.43378 1181.68335
1250.0 0.000800 267.45300 1148.20203
1284.0 0.000779 267.47250 1188.17615
1410.0 0.000709 267.49216 1333.47424
1564.0 0.000639 267.51205 1545.59460
1693.0 0.000591 267.53210 1767.20496
1843.0 0.000543 267.55246 1922.62927
1965.0 0.000509 267.57288 1982.73999
1901.0 0.000526 267.59366 1974.19263
1860.0 0.000538 267.61462 1972.01038
1833.0 0.000546 267.63565 1968.06494
1784.0 0.000561 267.65698 1908.76697
1770.0 0.000565 267.67853 1778.44739
1592.0 0.000628 267.70029 1628.37415
1471.0 0.000680 267.72223 1515.57849
1363.0 0.000734 267.74435 1478.19189
1446.0 0.000692 267.76666 1500.29077
1533.0 0.000652 267.78915 1534.45776
1512.0 0.000661 267.81183 1537.28650
1512.0 0.000661 267.83481 1482.73364
1349.0 0.000741 267.85791 1359.19507
1133.0 0.000883 267.88123 1203.77856
1072.0 0.000933 267.90466 1084.63025
982.0 0.001018 267.92841 1018.46558
944.0 0.001059 267.95224 983.93274
911.0 0.001098 267.97635 947.79047
879.0 0.001138 268.00055 888.67389
821.0 0.001218 268.02499 818.83545
752.0 0.001330 268.04959 774.71143
749.0 0.001335 268.07440 775.79822
788.0 0.001269 268.09940 821.44910
873.0 0.001145 268.12454 907.15765
911.0 0.001098 268.14996 1013.14612
1010.0 0.000990 268.17545 1112.51538
1156.0 0.000865 268.20117 1194.66602
1291.0 0.000775 268.22708 1287.29736
1473.0 0.000679 268.25317 1408.39417
1563.0 0.000640 268.27936 1512.06030
1496.0 0.000668 268.30576 1521.16272
1323.0 0.000756 268.33237 1404.19446
1147.0 0.000872 268.35913 1224.96606
1000.0 0.001000 268.38605 1073.63574
953.0 0.001049 268.41315 985.24536
924.0 0.001082 268.44046 935.56036
883.0 0.001133 268.46783 874.68689
699.0 0.001431 268.49548 775.04395
591.0 0.001692 268.52319 658.61420
522.0 0.001916 268.55115 561.72070
503.0 0.001988 268.57932 494.72186
536.0 0.001866 268.60751 460.41852
543.0 0.001842 268.63599 450.96124
566.0 0.001767 268.66452 463.20236
575.0 0.001739 268.69330 498.05804
719.0 0.001391 268.72220 569.68048
835.0 0.001198 268.75125 689.41675
960.0 0.001042 268.78043 870.21863
1105.0 0.000905 268.80981 1107.55603
1273.0 0.000786 268.83939 1378.38025
1451.0 0.000689 268.86902 1612.21533
1620.0 0.000617 268.89886 1709.92566
1773.0 0.000564 268.92883 1621.97607
1593.0 0.000628 268.95889 1430.72656
1380.0 0.000725 268.98917 1276.38940
1178.0 0.000849 269.01962 1215.11792
1132.0 0.000883 269.05020 1219.62158
1129.0 0.000886 269.08090 1211.03577
1151.0 0.000869 269.11179 1119.47229
972.0 0.001029 269.14276 948.22229
815.0 0.001227 269.17389 766.47766
673.0 0.001486 269.20514 623.85742
546.0 0.001832 269.23657 532.27710
492.0 0.002033 269.26813 480.68204
460.0 0.002174 269.29980 449.20135
426.0 0.002347 269.33170 421.95795
376.0 0.002660 269.36368 393.04086
373.0 0.002681 269.39578 368.43030
364.0 0.002747 269.42798 350.18918
337.0 0.002967 269.46033 338.98471
319.0 0.003135 269.49286 334.47519
316.0 0.003165 269.52542 334.38687
330.0 0.003030 269.55823 342.88690
369.0 0.002710 269.59109 359.04745
372.0 0.002688 269.62415 381.19604
383.0 0.002611 269.65729 406.00598
395.0 0.002532 269.69055 425.38480
428.0 0.002336 269.72391 428.29727
404.0 0.002475 269.75745 414.12622
392.0 0.002551 269.79105 392.41678
371.0 0.002695 269.82480 375.43289
371.0 0.002695 269.85867 367.27127
382.0 0.002618 269.89264 364.55563
354.0 0.002825 269.92676 359.90717
328.0 0.003049 269.96097 348.12903
327.0 0.003058 269.99533 331.26285
333.0 0.003003 270.02975 315.03513
303.0 0.003300 270.06427 302.59744
305.0 0.003279 270.09900 294.30475
325.0 0.003077 270.13373 289.20218
298.0 0.003356 270.16864 286.10352
274.0 0.00365 270.20364 284.10809
258.0 0.00388 270.23877 282.69754
283.0 0.00353 270.27390 278.51654
309.0 0.003236 270.30927 277.79150
305.0 0.003279 270.34467 277.21097
283.0 0.00353 270.38022 276.74011
273.0 0.00366 270.41580 276.35587
290.0 0.003448 270.45154 276.04153
264.0 0.00379 270.48740 274.06021
267.0 0.00375 270.52332 273.94778
260.0 0.00385 270.55933 273.87289
267.0 0.00375 270.59546 273.83127
250.0 0.00400 270.63162 273.82031
257.0 0.00389 270.66794 273.83856
280.0 0.00357 270.70438 273.97720
249.0 0.00402 270.74094 273.88821
269.0 0.00372 270.77740 274.00900
259.0 0.00386 270.81406 274.16678
278.0 0.00360 270.85089 274.37613
275.0 0.00364 270.88779 274.64651
308.0 0.003247 270.92474 275.01813
273.0 0.00366 270.96170 275.55283
277.0 0.00361 270.99881 279.44897
282.0 0.00355 271.03607 280.74820
275.0 0.00364 271.07327 282.54761
266.0 0.00376 271.11066 284.83652
255.0 0.00392 271.14804 287.45096
258.0 0.00388 271.18555 289.60748
271.0 0.00369 271.22324 291.25668
289.0 0.003460 271.26086 293.21606
257.0 0.00389 271.29865 292.93982
273.0 0.00366 271.33646 293.04514
294.0 0.003401 271.37436 294.22049
296.0 0.003378 271.41229 296.72025
301.0 0.003322 271.45038 300.66757
313.0 0.003195 271.48849 306.56897
322.0 0.003106 271.52670 315.83401
317.0 0.003155 271.56497 330.57599
354.0 0.002825 271.60324 352.23813
408.0 0.002451 271.64166 380.23898
465.0 0.002151 271.68018 410.92236
481.0 0.002079 271.71866 436.08743
475.0 0.002105 271.75720 445.91565
461.0 0.002169 271.79587 437.02734
413.0 0.002421 271.83456 417.61041
381.0 0.002625 271.87338 399.55783
402.0 0.002488 271.91223 389.81650
424.0 0.002358 271.95108 386.93982
436.0 0.002294 271.98999 384.42764
440.0 0.002273 272.02902 376.19958
411.0 0.002433 272.06812 361.96884
391.0 0.002558 272.10724 347.27234
383.0 0.002611 272.14639 334.69672
370.0 0.002703 272.18564 327.21707
346.0 0.002890 272.22495 325.00513
314.0 0.003185 272.26425 327.78748
333.0 0.003003 272.30362 335.71664
370.0 0.002703 272.34302 349.49557
369.0 0.002710 272.38254 370.09988
418.0 0.002392 272.42203 395.61179
437.0 0.002288 272.46161 423.50629
432.0 0.002315 272.50122 447.09378
461.0 0.002169 272.54083 458.24265
465.0 0.002151 272.58054 455.23245
439.0 0.002278 272.62027 447.53650
449.0 0.002227 272.66003 446.55569
510.0 0.001961 272.69983 460.11664
514.0 0.001946 272.73972 483.91098
588.0 0.001701 272.77960 520.18298
586.0 0.001706 272.81955 574.16034
696.0 0.001437 272.85950 662.95123
854.0 0.001171 272.89954 813.88519
1120.0 0.000893 272.93951 1051.87744
1429.0 0.000700 272.97964 1381.80920
2005.0 0.000499 273.01971 1771.61401
2532.0 0.000395 273.05981 2145.05078
2820.0 0.000355 273.10001 2363.78638
2440.0 0.000410 273.14017 2317.05640
2065.0 0.000484 273.18042 2054.92822
1688.0 0.000592 273.22061 1767.01611
1569.0 0.000637 273.26089 1583.46790
1557.0 0.000642 273.30115 1519.73682
1623.0 0.000616 273.34149 1505.61560
1468.0 0.000681 273.38184 1437.44885
1172.0 0.000853 273.42218 1261.37122
954.0 0.001048 273.46255 1024.59290
740.0 0.001351 273.50299 805.41266
599.0 0.001669 273.54330 640.80609
520.0 0.001923 273.58383 533.09479
443.0 0.002257 273.62427 468.65219
406.0 0.002463 273.66476 431.45374
394.0 0.002538 273.70520 409.47403
366.0 0.002732 273.74576 396.09308
379.0 0.002639 273.78616 388.22263
403.0 0.002481 273.82675 384.59787
440.0 0.002273 273.86728 384.87448
477.0 0.002096 273.90778 390.10944
471.0 0.002123 273.94836 402.66501
490.0 0.002041 273.98892 427.01660
555.0 0.001802 274.02948 469.91980
621.0 0.001610 274.07004 537.93237
691.0 0.001447 274.11069 633.91052
790.0 0.001266 274.15121 749.04620
896.0 0.001116 274.19186 863.85620
992.0 0.001008 274.23239 953.40576
1047.0 0.000955 274.27298 975.80133
1016.0 0.000984 274.31360 917.44836
936.0 0.001068 274.35416 833.71533
864.0 0.001157 274.39481 772.90680
789.0 0.001267 274.43536 750.89056
776.0 0.001289 274.47595 758.67181
780.0 0.001282 274.51648 774.62152
834.0 0.001199 274.55710 774.81720
880.0 0.001136 274.59766 771.75616
931.0 0.001074 274.63824 805.57678
961.0 0.001041 274.67880 912.33636
1096.0 0.000912 274.71936 1107.31543
1291.0 0.000775 274.75986 1372.15576
1601.0 0.000625 274.80035 1655.16089
1831.0 0.000546 274.84091 1893.06274
1978.0 0.000506 274.88138 1982.91162
1858.0 0.000538 274.92191 1862.71387
1624.0 0.000616 274.96237 1642.58728
1409.0 0.000710 275.00284 1466.75293
1307.0 0.000765 275.04324 1383.69897
1326.0 0.000754 275.08374 1370.48035
1306.0 0.000766 275.12415 1365.21326
1226.0 0.000816 275.16449 1283.87964
1053.0 0.000950 275.20483 1114.35291
896.0 0.001116 275.24521 927.35950
748.0 0.001337 275.28552 778.18866
671.0 0.001490 275.32584 690.68359
642.0 0.001558 275.36609 652.82098
620.0 0.001613 275.40634 641.77875
599.0 0.001669 275.44656 636.74432
592.0 0.001689 275.48676 621.21460
523.0 0.001912 275.52698 583.26984
502.0 0.001992 275.56714 537.76263
427.0 0.002342 275.60724 501.08234
424.0 0.002358 275.64734 479.79538
419.0 0.002387 275.68744 470.96658
453.0 0.002208 275.72742 467.14133
428.0 0.002336 275.76746 457.74060
414.0 0.002415 275.80743 438.36279
398.0 0.002513 275.84732 416.16217
369.0 0.002710 275.88724 398.94855
362.0 0.002762 275.92706 390.43179
382.0 0.002618 275.96692 391.83295
411.0 0.002433 276.00665 403.32910
420.0 0.002381 276.04648 424.37640
421.0 0.002375 276.08618 453.02231
455.0 0.002198 276.12585 486.28064
514.0 0.001946 276.16550 522.25598
555.0 0.001802 276.20508 558.06573
578.0 0.001730 276.24460 600.14758
643.0 0.001555 276.28409 670.02319
808.0 0.001238 276.32361 789.56000
962.0 0.001040 276.36298 964.79047
1216.0 0.000822 276.40240 1174.72485
1494.0 0.000669 276.44168 1377.31982
1640.0 0.000610 276.48099 1516.19482
1603.0 0.000624 276.52014 1518.88147
1444.0 0.000693 276.55939 1385.74231
1253.0 0.000798 276.59848 1218.00427
1108.0 0.000903 276.63757 1102.95764
1115.0 0.000897 276.67661 1061.77454
1182.0 0.000846 276.71564 1076.90991
1230.0 0.000813 276.75446 1110.28943
1184.0 0.000845 276.79333 1118.18762
1096.0 0.000912 276.83221 1105.75098
1064.0 0.000940 276.87091 1112.14209
1128.0 0.000887 276.90955 1155.04675
1193.0 0.000838 276.94824 1215.82202
1303.0 0.000767 276.98685 1245.52661
1324.0 0.000755 277.02533 1223.97717
1173.0 0.000853 277.06381 1152.80981
1042.0 0.000960 277.10226 1050.12463
956.0 0.001046 277.14056 955.74896
835.0 0.001198 277.17880 894.99298
809.0 0.001236 277.21704 860.09229
816.0 0.001225 277.25525 821.71887
764.0 0.001309 277.29330 767.34729
703.0 0.001422 277.33130 691.75537
596.0 0.001678 277.36929 602.33038
474.0 0.002110 277.40720 518.85016
431.0 0.002320 277.44504 453.86835
384.0 0.002604 277.48276 409.16562
362.0 0.002762 277.52042 380.55002
359.0 0.002786 277.55804 362.76251
313.0 0.003195 277.59555 352.16422
326.0 0.003067 277.63306 345.54361
332.0 0.003012 277.67044 341.32355
330.0 0.003030 277.70779 338.73602
304.0 0.003289 277.74506 337.44232
300.0 0.003333 277.78223 337.32736
323.0 0.003096 277.81937 338.26950
319.0 0.003135 277.85638 340.84781
317.0 0.003155 277.89328 345.45340
342.0 0.002924 277.93015 353.16174
363.0 0.002755 277.96695 365.72922
403.0 0.002481 278.00366 385.58310
420.0 0.002381 278.04031 415.32275
479.0 0.002088 278.07687 456.36279
538.0 0.001859 278.11334 506.87286
598.0 0.001672 278.14969 562.20081
702.0 0.001425 278.18604 617.01996
746.0 0.001340 278.22223 664.05695
776.0 0.001289 278.25836 707.98108
837.0 0.001195 278.29443 768.93176
878.0 0.001139 278.33044 858.50623
948.0 0.001055 278.36630 971.33936
1120.0 0.000893 278.40207 1090.20422
1233.0 0.000811 278.43777 1186.74316
1302.0 0.000768 278.47342 1251.23840
1342.0 0.000745 278.50891 1300.36243
1355.0 0.000738 278.54443 1346.61462
1324.0 0.000755 278.57980 1361.10901
1308.0 0.000765 278.61499 1303.85425
1242.0 0.000805 278.65018 1190.17566
1124.0 0.000890 278.68527 1067.40674
1011.0 0.000989 278.72025 962.68024
904.0 0.001106 278.75507 892.02655
803.0 0.001245 278.78989 851.35999
774.0 0.001292 278.82462 807.63977
754.0 0.001326 278.85913 737.50122
698.0 0.001433 278.89365 650.69806
645.0 0.001550 278.92804 574.69421
568.0 0.001761 278.96231 525.29297
541.0 0.001848 278.99658 507.98904
542.0 0.001845 279.03067 524.35876
555.0 0.001802 279.06467 564.00592
598.0 0.001672 279.09857 614.11224
626.0 0.001597 279.13245 658.01489
610.0 0.001639 279.16611 676.07056
617.0 0.001621 279.19968 653.45844
618.0 0.001618 279.23325 603.28284
524.0 0.001908 279.26654 555.71710
493.0 0.002028 279.29987 526.27954
456.0 0.002193 279.33301 514.86450
458.0 0.002183 279.36615 512.48608
475.0 0.002105 279.39911 505.23041
521.0 0.001919 279.43195 481.35080
420.0 0.002381 279.46472 445.02383
375.0 0.002667 279.49731 412.87637
353.0 0.002833 279.52988 383.71271
346.0 0.002890 279.56229 363.44608
303.0 0.003300 279.59460 350.90067
332.0 0.003012 279.62677 343.85516
295.0 0.003390 279.65887 340.25638
329.0 0.003040 279.69083 338.71109
289.0 0.003460 279.72266 340.59906
299.0 0.003344 279.75449 341.35031
301.0 0.003322 279.78607 342.88980
292.0 0.003425 279.81754 345.17917
315.0 0.003175 279.84897 348.23752
303.0 0.003300 279.88025 352.12759
324.0 0.003086 279.91141 356.95389
329.0 0.003040 279.94244 362.87326
342.0 0.002924 279.97339 370.10800
369.0 0.002710 280.00421 378.61374
377.0 0.002653 280.03494 389.56256
414.0 0.002415 280.06549 405.53088
483.0 0.002070 280.09595 423.36786
516.0 0.001938 280.12628 447.54404
624.0 0.001603 280.15646 482.41830
692.0 0.001445 280.18652 535.20807
791.0 0.001264 280.21649 619.39099
937.0 0.001067 280.24640 751.99359
1128.0 0.000887 280.27600 952.91650
1380.0 0.000725 280.30557 1231.34204
1618.0 0.000618 280.33505 1576.49133
1885.0 0.000531 280.36441 1955.03210
2218.0 0.000451 280.39362 2308.90015
2518.0 0.000397 280.42270 2552.12646
2653.0 0.000377 280.45166 2646.31885
2699.0 0.000371 280.48050 2645.53882
2615.0 0.000382 280.50922 2574.95728
2537.0 0.000394 280.53775 2418.74194
2331.0 0.000429 280.56622 2226.29419
2058.0 0.000486 280.59451 2060.54053
1886.0 0.000530 280.62265 1915.10718
1755.0 0.000570 280.65073 1766.84619
1537.0 0.000651 280.67862 1619.85034
1401.0 0.000714 280.70642 1464.83960
1317.0 0.000759 280.73404 1279.11621
1141.0 0.000876 280.76160 1082.30066
984.0 0.001016 280.78894 915.94202
849.0 0.001178 280.81625 799.77045
790.0 0.001266 280.84335 740.66028
818.0 0.001222 280.87027 739.49280
871.0 0.001148 280.89716 802.26660
1018.0 0.000982 280.92380 943.14856
1223.0 0.000818 280.95035 1181.04004
1535.0 0.000651 280.97681 1525.61328
1857.0 0.000539 281.00314 1951.69849
2292.0 0.000436 281.02921 2385.48779
2617.0 0.000382 281.05524 2721.36108
2815.0 0.000355 281.08109 2828.23315
2689.0 0.000372 281.10681 2642.22144
2270.0 0.000441 281.13248 2303.90063
1990.0 0.000503 281.15793 2006.46436
1801.0 0.000555 281.18320 1839.74731
1831.0 0.000546 281.20837 1792.45044
1771.0 0.000565 281.23337 1796.77881
1697.0 0.000589 281.25827 1756.66357
1616.0 0.000619 281.28302 1600.76587
1372.0 0.000729 281.30759 1365.64587
1126.0 0.000888 281.33200 1139.70776
1018.0 0.000982 281.35629 980.82318
1043.0 0.000959 281.38052 913.65399
987.0 0.001013 281.40442 944.06177
1090.0 0.000917 281.42831 1064.77539
1243.0 0.000805 281.45200 1252.08215
1424.0 0.000702 281.47562 1460.91162
1629.0 0.000614 281.49899 1633.26721
1716.0 0.000583 281.52231 1700.94653
1632.0 0.000613 281.54532 1625.53064
1493.0 0.000670 281.56839 1467.67957
1360.0 0.000735 281.59116 1322.09961
1212.0 0.000825 281.61386 1233.43066
1174.0 0.000852 281.63635 1195.73889
1123.0 0.000890 281.65872 1180.75891
1137.0 0.000880 281.68094 1149.56750
1077.0 0.000929 281.70303 1067.69641
909.0 0.001100 281.72495 948.09546
824.0 0.001214 281.74673 832.33954
781.0 0.001280 281.76825 747.48309
717.0 0.001395 281.78973 709.51276
678.0 0.001475 281.81100 719.37207
731.0 0.001368 281.83218 771.96283
870.0 0.001149 281.85312 856.89307
992.0 0.001008 281.87399 944.71277
1021.0 0.000979 281.89471 1001.49969
988.0 0.001012 281.91516 993.11780
897.0 0.001115 281.93558 918.22839
812.0 0.001232 281.95575 822.85626
719.0 0.001391 281.97571 749.20239
681.0 0.001468 281.99567 710.22314
663.0 0.001508 282.01541 699.93256
669.0 0.001495 282.03497 696.95123
670.0 0.001493 282.05438 676.13403
593.0 0.001686 282.07367 625.27631
523.0 0.001912 282.09274 556.72986
448.0 0.002232 282.11172 491.47241
410.0 0.002439 282.13049 439.81998
384.0 0.002604 282.14905 403.59351
362.0 0.002762 282.16751 380.21649
348.0 0.002874 282.18576 365.59830
322.0 0.003106 282.20395 356.29889
319.0 0.003135 282.22192 350.56311
342.0 0.002924 282.23972 344.71579
344.0 0.002907 282.25735 345.24164
332.0 0.003012 282.27478 348.83453
337.0 0.002967 282.29208 355.17593
335.0 0.002985 282.30930 363.08548
350.0 0.002857 282.32620 371.27710
351.0 0.002849 282.34308 376.01080
389.0 0.002571 282.35968 374.20239
390.0 0.002564 282.37622 369.53110
337.0 0.002967 282.39249 364.08646
387.0 0.002584 282.40866 361.36551
357.0 0.002801 282.42462 362.97379
398.0 0.002513 282.44046 369.21802
347.0 0.002882 282.45615 380.38602
410.0 0.002439 282.47156 395.73315
397.0 0.002519 282.48691 416.41275
426.0 0.002347 282.50208 444.04739
454.0 0.002203 282.51706 477.95721
455.0 0.002198 282.53180 511.14426
573.0 0.001745 282.54654 541.54309
537.0 0.001862 282.56100 558.18286
529.0 0.001890 282.57529 562.95410
554.0 0.001805 282.58939 570.51251
541.0 0.001848 282.60339 595.41364
586.0 0.001706 282.61716 641.29163
694.0 0.001441 282.63074 699.74036
810.0 0.001235 282.64413 757.07153
829.0 0.001206 282.65747 791.27283
803.0 0.001245 282.67056 784.29645
695.0 0.001439 282.68347 746.81744
677.0 0.001477 282.69626 713.12640
694.0 0.001441 282.70886 712.41003
744.0 0.001344 282.72125 759.18610
844.0 0.001185 282.73355 855.09454
958.0 0.001044 282.74561 987.47253
1145.0 0.000873 282.75745 1126.09851
1284.0 0.000779 282.76920 1231.88586
1350.0 0.000741 282.78070 1272.32947
1229.0 0.000814 282.79211 1221.00562
1055.0 0.000948 282.80328 1099.44238
914.0 0.001094 282.81430 970.78101
838.0 0.001193 282.82513 881.68164
828.0 0.001208 282.83578 842.30615
869.0 0.001151 282.84628 838.90912
886.0 0.001129 282.85657 845.30322
868.0 0.001152 282.86676 831.50189
781.0 0.001280 282.87671 787.63519
727.0 0.001376 282.88651 735.97528
754.0 0.001326 282.89612 708.12769
736.0 0.001359 282.90552 721.56653
750.0 0.001333 282.91479 779.75793
837.0 0.001195 282.92383 870.57056
902.0 0.001109 282.93274 969.35370
988.0 0.001012 282.94144 1045.96973
1053.0 0.000950 282.95001 1073.49182
1093.0 0.000915 282.95837 1057.42480
1012.0 0.000988 282.96649 1037.51648
1009.0 0.000991 282.97449 1039.63635
1023.0 0.000978 282.98236 1059.90198
998.0 0.001002 282.98999 1071.75928
999.0 0.001001 282.99753 1047.08801
1004.0 0.000996 283.00470 981.72913
891.0 0.001122 283.01184 890.77576
785.0 0.001274 283.01874 800.57837
691.0 0.001447 283.02548 732.88586
700.0 0.001429 283.03207 689.26147
707.0 0.001414 283.03842 661.99298
627.0 0.001595 283.04465 638.95544
625.0 0.001600 283.05060 618.09869
622.0 0.001608 283.05643 607.95465
600.0 0.001667 283.06210 613.32300
619.0 0.001616 283.06754 628.97949
695.0 0.001439 283.07281 643.01233
635.0 0.001575 283.07797 638.65082
636.0 0.001572 283.08286 609.53033
592.0 0.001689 283.08759 567.49554
560.0 0.001786 283.09210 530.66937
470.0 0.002128 283.09659 508.66867
501.0 0.001996 283.10074 501.61743
512.0 0.001953 283.10474 503.34421
518.0 0.001931 283.10855 504.60092
536.0 0.001866 283.11212 497.26730
537.0 0.001862 283.11563 483.72232
503.0 0.001988 283.11890 473.49170
508.0 0.001969 283.12204 476.09131
524.0 0.001908 283.12485 496.52179
553.0 0.001808 283.12762 534.65491
591.0 0.001692 283.13013 584.83350
608.0 0.001645 283.13251 637.04529
700.0 0.001429 283.13467 680.68616
790.0 0.001266 283.13657 708.24658
831.0 0.001203 283.13843 726.32843
875.0 0.001143 283.14001 753.56683
964.0 0.001037 283.14142 790.81970
882.0 0.001134 283.14264 830.05536
847.0 0.001181 283.14371 856.39246
830.0 0.001205 283.14456 865.43268
784.0 0.001276 283.14529 865.24927
788.0 0.001269 283.14572 860.56232
811.0 0.001233 283.14606 852.81897
847.0 0.001181 283.14618 833.07043
812.0 0.001232 283.14615 792.58398
730.0 0.001370 283.14584 737.13806
647.0 0.001546 283.14536 678.02362
595.0 0.001681 283.14481 629.37854
549.0 0.001821 283.14404 596.18005
508.0 0.001969 283.14297 579.02374
507.0 0.001972 283.14178 568.61633
531.0 0.001883 283.14038 557.30023
515.0 0.001942 283.13879 540.91571
497.0 0.002012 283.13705 524.74603
481.0 0.002079 283.13513 515.55969
491.0 0.002037 283.13303 521.41901
515.0 0.001942 283.13071 550.08319
559.0 0.001789 283.12823 603.81848
661.0 0.001513 283.12555 677.56317
791.0 0.001264 283.12265 753.92511
801.0 0.001248 283.11960 809.15704
847.0 0.001181 283.11633 818.42255
768.0 0.001302 283.11292 774.91089
676.0 0.001479 283.10928 704.61102
640.0 0.001563 283.10544 641.41632
583.0 0.001715 283.10147 602.04218
610.0 0.001639 283.09726 587.07916
715.0 0.001399 283.09290 585.76770
703.0 0.001422 283.08832 581.78864
653.0 0.001531 283.08353 562.73688
590.0 0.001695 283.07864 521.96265
474.0 0.002110 283.07349 474.24380
425.0 0.002353 283.06821 431.65414
430.0 0.002326 283.06268 398.25784
376.0 0.002660 283.05704 375.29111
394.0 0.002538 283.05109 361.12811
375.0 0.002667 283.04501 353.42657
393.0 0.002545 283.03876 351.50500
368.0 0.002717 283.03229 351.53519
404.0 0.002475 283.02567 354.50140
390.0 0.002564 283.01883 361.35620
412.0 0.002427 283.01184 373.22488
409.0 0.002445 283.00461 394.58517
405.0 0.002469 282.99725 425.65375
453.0 0.002208 282.98965 470.54791
525.0 0.001905 282.98190 529.16772
498.0 0.002008 282.97391 595.33032
565.0 0.001770 282.96579 657.67499
603.0 0.001658 282.95746 699.22748
620.0 0.001613 282.94894 705.14801
638.0 0.001567 282.94016 678.72925
625.0 0.001600 282.93127 641.43884
575.0 0.001739 282.92224 619.10944
547.0 0.001828 282.91290 624.28302
617.0 0.001621 282.90344 661.90021
691.0 0.001447 282.89377 730.13904
759.0 0.001318 282.88397 822.79053
913.0 0.001095 282.87390 932.23944
1076.0 0.000929 282.86371 1049.45154
1223.0 0.000818 282.85327 1156.12415
1294.0 0.000773 282.84265 1223.33789
1238.0 0.000808 282.83191 1217.07715
1081.0 0.000925 282.82089 1132.25488
960.0 0.001042 282.80969 1013.27472
900.0 0.001111 282.79840 911.15491
897.0 0.001115 282.78690 851.78156
911.0 0.001098 282.77515 837.21869
938.0 0.001066 282.76318 843.67499
932.0 0.001073 282.75110 845.80145
845.0 0.001183 282.73877 818.22955
817.0 0.001224 282.72632 757.80225
761.0 0.001314 282.71368 685.48450
694.0 0.001441 282.70078 622.80707
687.0 0.001456 282.68771 581.70386
678.0 0.001475 282.67453 568.15198
707.0 0.001414 282.66113 586.56982
762.0 0.001312 282.64746 643.71515
899.0 0.001112 282.63367 749.72565
1022.0 0.000978 282.61972 915.66785
1232.0 0.000812 282.60553 1146.37158
1471.0 0.000680 282.59119 1429.16626
1709.0 0.000585 282.57660 1723.71021
1983.0 0.000504 282.56189 1964.79395
2194.0 0.000456 282.54697 2080.36060
2143.0 0.000467 282.53186 2035.90942
1866.0 0.000536 282.51654 1888.11475
1816.0 0.000551 282.50107 1726.79712
1603.0 0.000624 282.48538 1606.34656
1602.0 0.000624 282.46954 1549.55103
1539.0 0.000650 282.45349 1551.39343
1604.0 0.000623 282.43729 1586.61536
1612.0 0.000620 282.42087 1615.25586
1606.0 0.000623 282.40421 1614.61719
1581.0 0.000633 282.38742 1595.91614
1628.0 0.000614 282.37045 1567.38818
1475.0 0.000678 282.35333 1512.98157
1456.0 0.000687 282.33591 1410.43616
1323.0 0.000756 282.31839 1260.34399
1098.0 0.000911 282.30066 1102.00732
1018.0 0.000982 282.28284 975.79272
912.0 0.001096 282.26468 899.56464
853.0 0.001172 282.24640 870.39392
885.0 0.001130 282.22797 870.38464
951.0 0.001052 282.20926 877.38550
937.0 0.001067 282.19046 870.61542
923.0 0.001083 282.17145 849.34705
887.0 0.001127 282.15219 837.51270
839.0 0.001192 282.13284 852.57257
898.0 0.001114 282.11325 904.32880
962.0 0.001040 282.09348 983.75732
1062.0 0.000942 282.07358 1067.81885
1169.0 0.000855 282.05344 1127.17261
1242.0 0.000805 282.03314 1141.88379
1265.0 0.000791 282.01263 1126.61023
1221.0 0.000819 281.99194 1123.37854
1263.0 0.000792 281.97110 1172.01221
1328.0 0.000753 281.95004 1287.79517
1392.0 0.000718 281.92883 1455.52661
1548.0 0.000646 281.90741 1628.36719
1725.0 0.000580 281.88574 1739.04321
1747.0 0.000572 281.86392 1726.74463
1638.0 0.000611 281.84204 1587.24475
1454.0 0.000688 281.81989 1387.89343
1271.0 0.000787 281.79755 1206.49609
1100.0 0.000909 281.77502 1082.11243
983.0 0.001017 281.75238 1020.73132
933.0 0.001072 281.72949 1001.24988
906.0 0.001104 281.70645 988.30719
884.0 0.001131 281.68320 946.87360
861.0 0.001161 281.65979 865.29193
780.0 0.001282 281.63614 763.27142
656.0 0.001524 281.61243 667.26959
593.0 0.001686 281.58841 590.76831
505.0 0.001980 281.56427 540.08124
470.0 0.002128 281.53995 516.10748
482.0 0.002075 281.51544 518.58051
530.0 0.001887 281.49072 544.92267
612.0 0.001634 281.46588 603.08392
694.0 0.001441 281.44083 690.11591
828.0 0.001208 281.41559 797.62238
991.0 0.001009 281.39020 908.27100
1074.0 0.000931 281.36459 995.58038
1052.0 0.000951 281.33887 1028.53369
1009.0 0.000991 281.31290 993.25128
878.0 0.001139 281.28674 912.25873
832.0 0.001202 281.26053 830.59357
777.0 0.001287 281.23398 775.12067
759.0 0.001318 281.20737 753.22168
744.0 0.001344 281.18045 758.62640
803.0 0.001245 281.15350 772.25238
801.0 0.001248 281.12628 777.71301
809.0 0.001236 281.09897 764.06708
737.0 0.001357 281.07135 744.10400
701.0 0.001427 281.04367 742.61969
767.0 0.001304 281.01572 780.60956
833.0 0.001200 280.98770 869.45856
994.0 0.001006 280.95941 1008.39502
1139.0 0.000878 280.93094 1179.33179
1367.0 0.000732 280.90237 1347.97583
1531.0 0.000653 280.87360 1466.67859
1526.0 0.000655 280.84467 1496.20581
1426.0 0.000701 280.81555 1432.19775
1204.0 0.000831 280.78622 1324.79846
1184.0 0.000845 280.75671 1227.39319
1119.0 0.000894 280.72711 1164.50073
1098.0 0.000911 280.69720 1134.30566
1099.0 0.000910 280.66724 1125.51587
1127.0 0.000887 280.63708 1116.16748
1116.0 0.000896 280.60672 1085.05103
990.0 0.001010 280.57617 1027.25806
922.0 0.001085 280.54553 966.32721
895.0 0.001117 280.51465 929.57013
919.0 0.001088 280.48364 930.28442
944.0 0.001059 280.45236 964.02844
1004.0 0.000996 280.42099 1022.83539
1053.0 0.000950 280.38947 1078.01123
1101.0 0.000908 280.35773 1097.85474
1076.0 0.000929 280.32584 1060.62891
955.0 0.001047 280.29376 978.17023
848.0 0.001179 280.26151 888.63007
766.0 0.001305 280.22910 822.48492
702.0 0.001425 280.19656 789.33392
688.0 0.001453 280.16376 784.33252
700.0 0.001429 280.13086 784.56805
707.0 0.001414 280.09772 767.93481
717.0 0.001395 280.06451 732.40997
704.0 0.001420 280.03107 697.02588
633.0 0.001580 279.99747 679.47650
608.0 0.001645 279.96371 686.18250
599.0 0.001669 279.92975 711.20959
618.0 0.001618 279.89566 735.91400
613.0 0.001631 279.86136 735.23743
635.0 0.001575 279.82693 699.35645
627.0 0.001595 279.79233 643.75464
605.0 0.001653 279.75754 590.76776
504.0 0.001984 279.72266 556.42029
483.0 0.002070 279.68756 540.57849
526.0 0.001901 279.65225 541.94922
467.0 0.002141 279.61676 550.22424
475.0 0.002105 279.58118 551.19855
517.0 0.001934 279.54547 536.83258
504.0 0.001984 279.50952 512.26379
472.0 0.002119 279.47339 487.71170
470.0 0.002128 279.43719 471.11493
450.0 0.002222 279.40073 462.99408
472.0 0.002119 279.36417 465.39392
544.0 0.001838 279.32742 481.06586
503.0 0.001988 279.29047 515.17975
550.0 0.001818 279.25345 572.02380
630.0 0.001587 279.21625 651.30023
652.0 0.001534 279.17880 744.73151
640.0 0.001563 279.14124 831.56964
719.0 0.001391 279.10355 879.47260
736.0 0.001359 279.06558 863.14349
800.0 0.001250 279.02762 800.69324
781.0 0.001280 278.98941 725.20142
728.0 0.001374 278.95105 664.41730
703.0 0.001422 278.91248 630.77216
590.0 0.001695 278.87378 625.27722
523.0 0.001912 278.83496 637.35223
536.0 0.001866 278.79602 648.42725
572.0 0.001748 278.75684 640.97839
594.0 0.001684 278.71750 617.80652
566.0 0.001767 278.67798 591.65247
565.0 0.001770 278.63840 575.36945
564.0 0.001773 278.59860 573.06219
580.0 0.001724 278.55872 580.92963
577.0 0.001733 278.51859 588.67908
563.0 0.001776 278.47827 586.82123
543.0 0.001842 278.43796 574.44946
521.0 0.001919 278.39731 553.83295
522.0 0.001916 278.35663 534.98187
514.0 0.001946 278.31573 524.36426
507.0 0.001972 278.27472 530.92157
502.0 0.001992 278.23352 545.92102
519.0 0.001927 278.19220 567.30927
538.0 0.001859 278.15067 586.89832
551.0 0.001815 278.10901 597.58801
568.0 0.001761 278.06723 596.10406
590.0 0.001695 278.02521 589.60797
591.0 0.001692 277.98315 591.15015
597.0 0.001675 277.94086 618.61902
641.0 0.001560 277.89856 683.66235
736.0 0.001359 277.85593 802.67444
880.0 0.001136 277.81326 985.64185
1041.0 0.000961 277.77032 1230.89868
1358.0 0.000736 277.72733 1520.16321
1688.0 0.000592 277.68417 1804.03760
1923.0 0.000520 277.64093 1998.11743
2099.0 0.000476 277.59741 2017.51331
1972.0 0.000507 277.55383 1864.94739
1665.0 0.000601 277.51010 1634.89368
1445.0 0.000692 277.46613 1423.90015
1271.0 0.000787 277.42209 1284.94446
1210.0 0.000826 277.37793 1231.90979
1170.0 0.000855 277.33359 1244.46838
1267.0 0.000789 277.28912 1273.61182
1262.0 0.000792 277.24448 1256.70129
1216.0 0.000822 277.19968 1162.12927
1071.0 0.000934 277.15475 1013.93378
958.0 0.001044 277.10968 855.26697
754.0 0.001326 277.06451 715.19989
580.0 0.001724 277.01907 605.07556
536.0 0.001866 276.97360 526.47217
437.0 0.002288 276.92798 474.56769
408.0 0.002451 276.88223 442.36978
414.0 0.002415 276.83627 423.49405
375.0 0.002667 276.79016 412.30139
376.0 0.002660 276.74402 408.67462
404.0 0.002475 276.69763 410.78748
402.0 0.002488 276.65115 418.44672
406.0 0.002463 276.60443 432.48486
468.0 0.002137 276.55768 453.36362
413.0 0.002421 276.51074 480.79022
466.0 0.002146 276.46371 512.98895
440.0 0.002273 276.41647 545.67590
493.0 0.002028 276.36920 576.51355
538.0 0.001859 276.32172 607.65564
558.0 0.001792 276.27405 649.47815
620.0 0.001613 276.22632 714.49304
667.0 0.001499 276.17850 813.50342
788.0 0.001269 276.13043 955.29907
940.0 0.001064 276.08228 1149.50134
1209.0 0.000827 276.03403 1399.43506
1558.0 0.000642 275.98553 1688.66748
1976.0 0.000506 275.93698 1968.24658
2304.0 0.000434 275.88828 2151.05322
2396.0 0.000417 275.83948 2155.56885
2168.0 0.000461 275.79050 1990.56738
1818.0 0.000550 275.74142 1749.97546
1527.0 0.000655 275.69217 1526.64636
1310.0 0.000763 275.64282 1373.08545
1253.0 0.000798 275.59329 1305.50732
1325.0 0.000755 275.54370 1305.96313
1417.0 0.000706 275.49393 1326.45630
1447.0 0.000691 275.44406 1304.25403
1381.0 0.000724 275.39398 1205.07349
1218.0 0.000821 275.34384 1052.60876
989.0 0.001011 275.29355 884.94324
759.0 0.001318 275.24310 734.40009
589.0 0.001698 275.19263 614.35370
529.0 0.001890 275.14197 526.63965
469.0 0.002132 275.09116 463.09415
448.0 0.002232 275.04019 424.39053
430.0 0.002326 274.98917 399.93381
356.0 0.002809 274.93799 385.97656
346.0 0.002890 274.88669 377.33334
349.0 0.002865 274.83524 374.08658
316.0 0.003165 274.78366 376.39328
336.0 0.002976 274.73196 386.53061
364.0 0.002747 274.68018 400.22766
377.0 0.002653 274.62827 422.46869
445.0 0.002247 274.57617 448.94409
503.0 0.001988 274.52405 476.34860
560.0 0.001786 274.47174 491.50574
585.0 0.001709 274.41934 489.10071
528.0 0.001894 274.36673 471.09033
475.0 0.002105 274.31406 447.04437
426.0 0.002347 274.26126 426.52576
428.0 0.002336 274.20837 412.72269
403.0 0.002481 274.15540 407.39655
477.0 0.002096 274.10220 408.98059
439.0 0.002278 274.04892 412.95853
437.0 0.002288 273.99551 411.62436
422.0 0.002370 273.94208 402.91440
408.0 0.002451 273.88843 388.96530
408.0 0.002451 273.83475 373.93890
392.0 0.002551 273.78076 360.81165
360.0 0.002778 273.72684 350.99612
341.0 0.002933 273.67270 344.85339
346.0 0.002890 273.61856 342.51630
347.0 0.002882 273.56418 343.37210
349.0 0.002865 273.50974 347.46106
341.0 0.002933 273.45523 354.95770
352.0 0.002841 273.40054 365.37073
361.0 0.002770 273.34576 379.10931
380.0 0.002632 273.29083 394.90591
401.0 0.002494 273.23581 410.62100
403.0 0.002481 273.18069 423.05463
420.0 0.002381 273.12549 430.93253
461.0 0.002169 273.07013 432.63657
481.0 0.002079 273.01468 442.43546
490.0 0.002041 272.95911 463.05673
532.0 0.001880 272.90338 501.50067
602.0 0.001661 272.84760 565.66376
663.0 0.001508 272.79175 663.11505
753.0 0.001328 272.73578 794.20410
883.0 0.001133 272.67963 955.18451
1027.0 0.000974 272.62341 1127.95557
1114.0 0.000898 272.56705 1283.65381
1257.0 0.000796 272.51065 1370.86914
1313.0 0.000762 272.45407 1355.54968
1289.0 0.000776 272.39743 1258.78589
1219.0 0.000820 272.34064 1137.70850
1097.0 0.000912 272.28381 1041.81763
1059.0 0.000944 272.22687 996.99091
1021.0 0.000979 272.16974 1012.69299
1033.0 0.000968 272.11258 1082.88318
1134.0 0.000882 272.05530 1187.69519
1278.0 0.000782 271.99799 1300.33618
1389.0 0.000720 271.94052 1407.36353
1496.0 0.000668 271.88287 1514.31848
1598.0 0.000626 271.82516 1622.98376
1712.0 0.000584 271.76740 1714.54297
1679.0 0.000596 271.70947 1770.08179
1736.0 0.000576 271.65155 1781.03723
1689.0 0.000592 271.59348 1737.84985
1626.0 0.000615 271.53528 1633.45752
1604.0 0.000623 271.47696 1492.98840
1534.0 0.000652 271.41858 1361.69495
1395.0 0.000717 271.36014 1266.64111
1338.0 0.000747 271.30151 1208.64050
1188.0 0.000842 271.24283 1170.93970
1135.0 0.000881 271.18408 1137.19360
1054.0 0.000949 271.12518 1093.67786
1013.0 0.000987 271.06628 1026.14807
993.0 0.001007 271.00723 928.83539
923.0 0.001083 270.94800 816.21606
842.0 0.001188 270.88876 708.58673
698.0 0.001433 270.82944 619.79907
605.0 0.001653 270.76999 555.65741
541.0 0.001848 270.71045 517.15173
457.0 0.002188 270.65088 502.72195
508.0 0.001969 270.59113 509.37524
476.0 0.002101 270.53134 533.00140
514.0 0.001946 270.47147 567.72083
547.0 0.001828 270.41147 604.28369
605.0 0.001653 270.35141 629.06726
646.0 0.001548 270.29123 629.93207
611.0 0.001637 270.23096 607.58728
552.0 0.001812 270.17062 575.63947
532.0 0.001880 270.11023 548.75214
504.0 0.001984 270.04971 536.00543
526.0 0.001901 269.98911 541.24432
538.0 0.001859 269.92841 562.63361
576.0 0.001736 269.86765 593.11786
633.0 0.001580 269.80676 620.61310
668.0 0.001497 269.74582 632.77649
687.0 0.001456 269.68481 625.61096
623.0 0.001605 269.62375 604.43848
595.0 0.001681 269.56247 576.47369
608.0 0.001645 269.50122 548.42950
577.0 0.001733 269.43985 527.55133
525.0 0.001905 269.37839 520.61060
524.0 0.001908 269.31686 530.20941
548.0 0.001825 269.25525 562.89563
591.0 0.001692 269.19360 617.54156
629.0 0.001590 269.13184 695.15295
771.0 0.001297 269.06995 791.97614
917.0 0.001091 269.00803 900.81274
1060.0 0.000943 268.94604 1003.53314
1172.0 0.000853 268.88394 1070.51904
1197.0 0.000835 268.82178 1071.22034
1139.0 0.000878 268.75952 1009.11292
974.0 0.001027 268.69724 915.24060
845.0 0.001183 268.63483 825.88940
816.0 0.001225 268.57233 761.53259
769.0 0.001300 268.50980 732.79431
756.0 0.001323 268.44714 735.29272
827.0 0.001209 268.38446 756.06885
877.0 0.001140 268.32169 773.03485
882.0 0.001134 268.25894 773.80731
888.0 0.001126 268.19595 757.91754
842.0 0.001188 268.13300 742.68585
844.0 0.001185 268.06989 745.66400
794.0 0.001259 268.00681 775.14514
789.0 0.001267 267.94357 832.87103
925.0 0.001081 267.88031 905.64429
986.0 0.001014 267.81699 977.75714
1017.0 0.000983 267.75354 1031.67896
1011.0 0.000989 267.69009 1051.46753
991.0 0.001009 267.62653 1024.02881
945.0 0.001058 267.56293 956.72614
950.0 0.001053 267.49918 876.45044
892.0 0.001121 267.43549 808.13416
809.0 0.001236 267.37167 763.56421
775.0 0.001290 267.30780 740.95172
763.0 0.001311 267.24384 732.60559
684.0 0.001462 267.17978 728.41040
618.0 0.001618 267.11569 714.60156
631.0 0.001585 267.05161 682.43958
628.0 0.001592 266.98737 633.28662
569.0 0.001757 266.92300 577.57788
535.0 0.001869 266.85870 524.65973
476.0 0.002101 266.79431 478.46005
431.0 0.002320 266.72989 439.73788
415.0 0.002410 266.66537 408.95758
392.0 0.002551 266.60077 386.26187
378.0 0.002646 266.53607 370.08609
365.0 0.002740 266.47144 359.69797
364.0 0.002747 266.40671 353.75339
357.0 0.002801 266.34183 350.79813
351.0 0.002849 266.27695 349.36728
338.0 0.002959 266.21204 347.99768
328.0 0.003049 266.14703 344.94937
343.0 0.002915 266.08200 342.49289
343.0 0.002915 266.01685 340.27634
330.0 0.003030 265.95169 339.08282
328.0 0.003049 265.88651 339.36667
324.0 0.003086 265.82120 341.47900
330.0 0.003030 265.75592 345.84097
388.0 0.002577 265.69049 353.14761
403.0 0.002481 265.62509 364.57904
413.0 0.002421 265.55957 381.76038
454.0 0.002203 265.49405 407.50397
489.0 0.002045 265.42844 445.07681
525.0 0.001905 265.36282 497.18536
609.0 0.001642 265.29709 565.97498
663.0 0.001508 265.23135 651.37091
707.0 0.001414 265.16553 748.13202
786.0 0.001272 265.09976 846.13684
879.0 0.001138 265.03381 935.64178
955.0 0.001047 264.96790 1011.36572
1025.0 0.000976 264.90189 1065.11877
1077.0 0.000929 264.83578 1084.29150
1155.0 0.000866 264.76974 1067.53210
1148.0 0.000871 264.70361 1033.88965
1082.0 0.000924 264.63742 1004.51807
1038.0 0.000963 264.57120 986.45978
944.0 0.001059 264.50491 979.15021
936.0 0.001068 264.43860 975.82520
927.0 0.001079 264.37225 970.64832
887.0 0.001127 264.30582 954.51709
920.0 0.001087 264.23935 919.44617
912.0 0.001096 264.17288 868.65277
890.0 0.001124 264.10638 817.26617
829.0 0.001206 264.03983 781.58838
849.0 0.001178 263.97311 771.06934
789.0 0.001267 263.90649 791.16229
803.0 0.001245 263.83978 842.60101
885.0 0.001130 263.77310 918.57062
962.0 0.001040 263.70627 1006.80847
1101.0 0.000908 263.63947 1086.37158
1158.0 0.000864 263.57260 1134.56409
1134.0 0.000882 263.50574 1138.49524
1092.0 0.000916 263.43878 1101.49658
1057.0 0.000946 263.37180 1037.97559
961.0 0.001041 263.30481 972.70380
915.0 0.001093 263.23779 930.87140
975.0 0.001026 263.17072 929.88818
984.0 0.001016 263.10364 972.67737
996.0 0.001004 263.03647 1050.19348
1111.0 0.000900 262.96927 1142.97534
1179.0 0.000848 262.90207 1226.73523
1265.0 0.000791 262.83484 1275.53833
1271.0 0.000787 262.76755 1265.03699
1211.0 0.000826 262.70023 1191.25684
1115.0 0.000897 262.63290 1081.02844
954.0 0.001048 262.56549 968.96124
865.0 0.001156 262.49808 879.72479
857.0 0.001167 262.43069 823.69397
804.0 0.001244 262.36319 801.38306
792.0 0.001263 262.29572 802.48059
836.0 0.001196 262.22818 807.37354
810.0 0.001235 262.16064 794.40161
754.0 0.001326 262.09308 753.23138
701.0 0.001427 262.02548 691.04517
619.0 0.001616 261.95782 622.80609
555.0 0.001802 261.89017 560.46240
513.0 0.001949 261.82248 509.13974
467.0 0.002141 261.75479 470.96634
448.0 0.002232 261.68698 444.10776
431.0 0.002320 261.61926 424.24774
434.0 0.002304 261.55145 407.42041
414.0 0.002415 261.48367 391.53308
390.0 0.002564 261.41586 377.72906
364.0 0.002747 261.34799 367.41809
356.0 0.002809 261.28012 361.61737
355.0 0.002817 261.21222 360.24307
360.0 0.002778 261.14432 362.83630
362.0 0.002762 261.07635 367.92636
381.0 0.002625 261.00839 373.58243
382.0 0.002618 260.94043 376.04889
389.0 0.002571 260.87244 374.27670
370.0 0.002703 260.80438 369.90463
371.0 0.002695 260.73639 365.68240
360.0 0.002778 260.66830 363.55807
345.0 0.002899 260.60025 363.61832
354.0 0.002825 260.53220 365.86423
378.0 0.002646 260.46405 367.89261
390.0 0.002564 260.39594 368.24988
390.0 0.002564 260.32779 365.66522
405.0 0.002469 260.25964 361.76855
390.0 0.002564 260.19147 357.27979
392.0 0.002551 260.12332 354.16525
375.0 0.002667 260.05511 353.95270
366.0 0.002732 259.98691 358.20251
390.0 0.002564 259.91867 368.41336
375.0 0.002667 259.85043 386.00574
424.0 0.002358 259.78220 413.00479
474.0 0.002110 259.71402 452.39819
506.0 0.001976 259.64575 507.02237
590.0 0.001695 259.57742 576.05457
642.0 0.001558 259.50916 654.09814
731.0 0.001368 259.44080 730.30176
808.0 0.001238 259.37253 784.27972
911.0 0.001098 259.30423 798.26886
792.0 0.001263 259.23590 770.27863
783.0 0.001277 259.16754 716.97949
680.0 0.001471 259.09927 659.84338
700.0 0.001429 259.03091 616.09412
611.0 0.001637 258.96255 592.16138
611.0 0.001637 258.89420 587.54620
581.0 0.001721 258.82581 596.97949
619.0 0.001616 258.75751 608.93646
656.0 0.001524 258.68915 610.01959
587.0 0.001704 258.62073 595.40033
622.0 0.001608 258.55234 570.23950
601.0 0.001664 258.48398 546.11700
553.0 0.001808 258.41559 531.25177
505.0 0.001980 258.34720 531.99640
529.0 0.001890 258.27884 549.65741
557.0 0.001795 258.21042 581.49902
584.0 0.001712 258.14203 622.99597
638.0 0.001567 258.07367 661.92212
678.0 0.001475 258.00528 686.30011
701.0 0.001427 257.93692 686.96124
690.0 0.001449 257.86850 665.64941
660.0 0.001515 257.80008 634.99817
600.0 0.001667 257.73175 608.96832
553.0 0.001808 257.66336 596.92969
552.0 0.001812 257.59497 602.97455
574.0 0.001742 257.52658 626.11591
607.0 0.001647 257.45825 658.52240
641.0 0.001560 257.38986 687.87085
665.0 0.001504 257.32153 702.26624
705.0 0.001418 257.25314 697.54602
708.0 0.001412 257.18484 680.30957
672.0 0.001488 257.11646 660.49689
651.0 0.001536 257.04816 642.78796
659.0 0.001517 256.97980 627.86182
672.0 0.001488 256.91150 616.06012
648.0 0.001543 256.84317 611.04974
635.0 0.001575 256.77481 616.58234
629.0 0.001590 256.70654 633.10126
651.0 0.001536 256.63828 658.38654
664.0 0.001506 256.57001 689.05884
683.0 0.001464 256.50171 716.68378
676.0 0.001479 256.43347 729.87170
733.0 0.001364 256.36520 719.34888
716.0 0.001397 256.29697 687.71484
647.0 0.001546 256.22873 646.87238
580.0 0.001724 256.16049 609.86023
548.0 0.001825 256.09229 582.96765
556.0 0.001799 256.02414 568.21771
540.0 0.001852 255.95593 562.67120
529.0 0.001890 255.88779 561.39862
564.0 0.001773 255.81970 558.43066
564.0 0.001773 255.75151 549.40936
575.0 0.001739 255.68341 534.46716
558.0 0.001792 255.61533 518.58197
563.0 0.001776 255.54724 508.25574
559.0 0.001789 255.47916 507.69299
580.0 0.001724 255.41113 520.14709
594.0 0.001684 255.34305 547.64673
636.0 0.001572 255.27510 592.56409
660.0 0.001515 255.20702 656.32959
761.0 0.001314 255.13908 739.52759
792.0 0.001263 255.07111 837.87616
890.0 0.001124 255.00316 940.68542
960.0 0.001042 254.93526 1031.64868
1009.0 0.000991 254.86736 1094.04749
1087.0 0.000920 254.79948 1119.98169
1190.0 0.000840 254.73163 1117.58997
1231.0 0.000812 254.66379 1098.14294
1228.0 0.000814 254.59595 1073.21667
1206.0 0.000829 254.52817 1055.84680
1122.0 0.000891 254.46036 1060.89063
1061.0 0.000943 254.39261 1098.62451
1070.0 0.000935 254.32492 1169.98206
1123.0 0.000890 254.25726 1266.03027
1208.0 0.000828 254.18956 1371.25964
1340.0 0.000746 254.12189 1467.78308
1507.0 0.000664 254.05426 1539.90796
1567.0 0.000638 253.98666 1571.52527
1647.0 0.000607 253.91911 1550.33521
1611.0 0.000621 253.85156 1476.83752
1442.0 0.000693 253.78403 1372.76978
1321.0 0.000757 253.71654 1270.43689
1203.0 0.000831 253.64908 1193.30286
1129.0 0.000886 253.58162 1148.56567
1105.0 0.000905 253.51424 1130.82507
1105.0 0.000905 253.44684 1129.76892
1091.0 0.000917 253.37950 1132.21313
1103.0 0.000907 253.31221 1123.63782
1097.0 0.000912 253.24490 1087.53906
1039.0 0.000962 253.17763 1017.59442
934.0 0.001071 253.11037 925.35077
850.0 0.001176 253.04317 829.85870
773.0 0.001294 252.97604 744.34039
664.0 0.001506 252.90894 673.38269
646.0 0.001548 252.84177 618.36401
609.0 0.001642 252.77473 578.91260
548.0 0.001825 252.70770 553.06390
503.0 0.001988 252.64072 536.29163
541.0 0.001848 252.57373 524.06329
521.0 0.001919 252.50682 514.54004
495.0 0.002020 252.43993 510.00372
518.0 0.001931 252.37302 515.17871
499.0 0.002004 252.30621 531.13269
527.0 0.001898 252.23943 558.10065
552.0 0.001812 252.17270 592.65381
543.0 0.001842 252.10596 628.28638
627.0 0.001595 252.03929 656.83588
663.0 0.001508 251.97266 675.02435
690.0 0.001449 251.90604 686.48529
724.0 0.001381 251.83946 697.84241
723.0 0.001383 251.77296 709.25922
753.0 0.001328 251.70648 714.71478
706.0 0.001416 251.64003 707.49841
712.0 0.001404 251.57361 687.63916
648.0 0.001543 251.50728 661.73523
597.0 0.001675 251.44098 634.23981
564.0 0.001773 251.37462 608.46179
539.0 0.001855 251.30843 587.01007
549.0 0.001821 251.24223 574.37463
555.0 0.001802 251.17607 572.22260
544.0 0.001838 251.10991 578.34180
575.0 0.001739 251.04385 587.11591
589.0 0.001698 250.97781 592.96960
592.0 0.001689 250.91185 592.82684
598.0 0.001672 250.84590 584.44348
598.0 0.001672 250.78000 564.37439
547.0 0.001828 250.71414 532.93921
488.0 0.002049 250.64835 495.78476
470.0 0.002128 250.58258 460.25375
413.0 0.002421 250.51683 431.35416
383.0 0.002611 250.45117 411.74139
387.0 0.002584 250.38554 400.38715
424.0 0.002358 250.31999 397.11618
413.0 0.002421 250.25446 397.54187
415.0 0.002410 250.18896 396.69910
413.0 0.002421 250.12354 390.97202
369.0 0.002710 250.05814 379.69495
354.0 0.002825 249.99284 364.88251
353.0 0.002833 249.92755 349.44342
348.0 0.002874 249.86226 335.66635
337.0 0.002967 249.79713 324.15091
307.0 0.003257 249.73195 317.02768
290.0 0.003448 249.66685 311.63580
306.0 0.003268 249.60182 309.24188
312.0 0.003205 249.53683 309.28226
306.0 0.003268 249.47189 310.90195
303.0 0.003300 249.40706 316.49554
314.0 0.003185 249.34219 326.72519
355.0 0.002817 249.27744 340.82120
369.0 0.002710 249.21271 361.60175
393.0 0.002545 249.14801 390.91852
414.0 0.002415 249.08337 431.81305
480.0 0.002083 249.01884 484.37891
535.0 0.001869 248.95436 548.71088
604.0 0.001656 248.88989 621.59625
673.0 0.001486 248.82547 695.17981
689.0 0.001451 248.76114 763.01227
793.0 0.001261 248.69688 814.23883
864.0 0.001157 248.63263 835.40320
844.0 0.001185 248.56845 819.78192
749.0 0.001335 248.50432 774.53198
680.0 0.001471 248.44026 717.91925
675.0 0.001481 248.37625 665.87549
606.0 0.001650 248.31236 627.83887
621.0 0.001610 248.24844 606.17712
633.0 0.001580 248.18460 597.92181
554.0 0.001805 248.12085 598.74402
630.0 0.001587 248.05711 598.13995
596.0 0.001678 247.99347 588.24353
574.0 0.001742 247.92984 563.99725
553.0 0.001808 247.86630 528.37567
484.0 0.002066 247.80289 489.43552
500.0 0.002000 247.73946 454.42123
488.0 0.002049 247.67612 428.03647
440.0 0.002273 247.61279 413.62903
408.0 0.002451 247.54958 411.79404
383.0 0.002611 247.48639 422.48386
450.0 0.002222 247.42334 442.41571
488.0 0.002049 247.36028 467.71103
494.0 0.002024 247.29730 493.35968
513.0 0.001949 247.23439 510.69156
526.0 0.001901 247.17151 512.69080
535.0 0.001869 247.10872 498.74365
502.0 0.001992 247.04605 475.12985
463.0 0.002160 246.98337 449.84708
420.0 0.002381 246.92075 429.26224
402.0 0.002488 246.85820 415.76840
428.0 0.002336 246.79573 410.34735
417.0 0.002398 246.73337 411.25229
417.0 0.002398 246.67102 415.59482
437.0 0.002288 246.60876 418.42648
430.0 0.002326 246.54655 415.03146
415.0 0.002410 246.48444 405.67581
385.0 0.002597 246.42236 392.34818
370.0 0.002703 246.36038 378.67490
367.0 0.002725 246.29842 367.50253
391.0 0.002558 246.23654 363.73010
395.0 0.002532 246.17476 361.86636
375.0 0.002667 246.11307 366.42801
398.0 0.002513 246.05135 378.77029
453.0 0.002208 245.98976 400.70496
477.0 0.002096 245.92828 434.02802
505.0 0.001980 245.86684 481.20279
570.0 0.001754 245.80547 543.40112
636.0 0.001572 245.74411 620.43756
738.0 0.001355 245.68291 709.33179
858.0 0.001166 245.62175 804.58752
965.0 0.001036 245.56062 891.03314
1025.0 0.000976 245.49963 959.26666
1009.0 0.000991 245.43864 1007.57074
1034.0 0.000967 245.37778 1043.85120
996.0 0.001004 245.31694 1076.07764
960.0 0.001042 245.25623 1104.98987
999.0 0.001001 245.19553 1122.99487
1020.0 0.000980 245.13498 1119.96545
1021.0 0.000979 245.07445 1094.23157
1050.0 0.000952 245.01401 1054.39221
1053.0 0.000950 244.95364 1009.38239
1005.0 0.000995 244.89334 963.24835
961.0 0.001041 244.83313 919.12500
887.0 0.001127 244.77298 882.25421
839.0 0.001192 244.71289 856.13171
760.0 0.001316 244.65289 841.66553
801.0 0.001248 244.59300 834.49927
802.0 0.001247 244.53316 829.43994
779.0 0.001284 244.47339 824.92645
843.0 0.001186 244.41364 827.58508
831.0 0.001203 244.35408 840.91071
910.0 0.001099 244.29451 865.72784
871.0 0.001148 244.23508 900.03937
854.0 0.001171 244.17569 939.69788
966.0 0.001035 244.11638 974.98706
975.0 0.001026 244.05711 991.34967
918.0 0.001089 243.99800 976.71777
947.0 0.001056 243.93890 933.55975
853.0 0.001172 243.87991 876.96136
833.0 0.001200 243.82100 824.40271
741.0 0.001350 243.76218 785.36584
726.0 0.001377 243.70345 763.00085
747.0 0.001339 243.64473 755.78870
750.0 0.001333 243.58614 759.88196
726.0 0.001377 243.52760 766.97174
720.0 0.001389 243.46919 769.73328
778.0 0.001285 243.41083 762.68933
753.0 0.001328 243.35252 747.37476
743.0 0.001346 243.29433 731.45105
738.0 0.001355 243.23627 722.53290
722.0 0.001385 243.17816 723.38928
736.0 0.001359 243.12027 733.57996
772.0 0.001295 243.06236 746.87653
827.0 0.001209 243.00461 759.52692
853.0 0.001172 242.94691 770.59454
862.0 0.001160 242.88924 779.48749
912.0 0.001096 242.83171 793.83746
925.0 0.001081 242.77428 825.03979
940.0 0.001064 242.71690 885.96167
1041.0 0.000961 242.65956 986.63593
1149.0 0.000870 242.60240 1131.31689
1249.0 0.000801 242.54526 1318.29260
1386.0 0.000722 242.48825 1536.32349
1499.0 0.000667 242.43127 1763.87622
1635.0 0.000612 242.37440 1964.33350
1814.0 0.000551 242.31764 2085.54053
1882.0 0.000531 242.26096 2086.91016
1848.0 0.000541 242.20433 1971.42175
1818.0 0.000550 242.14778 1786.66272
1714.0 0.000583 242.09135 1589.82947
1498.0 0.000668 242.03497 1422.22864
1324.0 0.000755 241.97876 1305.27795
1208.0 0.000828 241.92253 1244.28992
1144.0 0.000874 241.86646 1230.47559
1106.0 0.000904 241.81044 1242.21130
1123.0 0.000890 241.75450 1247.51990
1116.0 0.000896 241.69868 1215.61804
1053.0 0.000950 241.64294 1134.23804
1009.0 0.000991 241.58725 1018.28546
928.0 0.001078 241.53169 889.68103
777.0 0.001287 241.47623 766.89258
669.0 0.001495 241.42085 661.20959
586.0 0.001706 241.36549 577.39862
512.0 0.001953 241.31026 516.23834
457.0 0.002188 241.25514 474.72330
456.0 0.002193 241.20009 451.31982
426.0 0.002347 241.14517 440.83292
436.0 0.002294 241.09027 438.49680
443.0 0.002257 241.03549 440.66461
453.0 0.002208 240.98082 442.45236
483.0 0.002070 240.92624 439.88516
457.0 0.002188 240.87177 431.82715
392.0 0.002551 240.81731 420.25974
466.0 0.002146 240.76299 408.48868
450.0 0.002222 240.70869 398.76544
444.0 0.002252 240.65460 393.54886
431.0 0.002320 240.60056 392.66278
439.0 0.002278 240.54663 395.23590
506.0 0.001976 240.49269 400.34299
476.0 0.002101 240.43892 406.37982
496.0 0.002016 240.38524 412.97180
513.0 0.001949 240.33168 420.01764
466.0 0.002146 240.27814 429.17642
482.0 0.002075 240.22475 445.84204
530.0 0.001887 240.17139 471.14432
529.0 0.001890 240.11821 507.26599
525.0 0.001905 240.06508 549.84711
583.0 0.001715 240.01207 596.19696
576.0 0.001736 239.95909 639.56262
646.0 0.001548 239.90620 671.60040
718.0 0.001393 239.85349 687.93896
715.0 0.001399 239.80077 693.68591
739.0 0.001353 239.74823 699.09753
765.0 0.001307 239.69574 717.31677
776.0 0.001289 239.64333 755.52905
790.0 0.001266 239.59102 816.60278
840.0 0.001190 239.53888 894.88940
899.0 0.001112 239.48676 980.87799
956.0 0.001046 239.43469 1060.65796
1034.0 0.000967 239.38283 1119.01465
1104.0 0.000906 239.33101 1141.83850
1100.0 0.000909 239.27928 1118.83130
1031.0 0.000970 239.22765 1054.87000
1011.0 0.000989 239.17615 969.30865
939.0 0.001065 239.12465 883.06567
825.0 0.001212 239.07333 811.17670
751.0 0.001332 239.02209 759.91162
716.0 0.001397 238.97096 728.34894
676.0 0.001479 238.91989 711.38531
666.0 0.001502 238.86896 701.49841
667.0 0.001499 238.81807 690.79547
626.0 0.001597 238.76730 672.25391
612.0 0.001634 238.71663 638.57153
577.0 0.001733 238.66608 591.01019
557.0 0.001795 238.61555 543.04761
501.0 0.001996 238.56520 497.87531
450.0 0.002222 238.51491 459.27762
447.0 0.002237 238.46469 428.35788
400.0 0.002500 238.41467 404.39789
359.0 0.002786 238.36465 385.33313
357.0 0.002801 238.31473 369.25848
342.0 0.002924 238.26495 355.67630
327.0 0.003058 238.21529 344.11874
343.0 0.002915 238.16563 332.96872
331.0 0.003021 238.11612 326.08530
297.0 0.003367 238.06674 321.48178
316.0 0.003165 238.01749 319.05429
335.0 0.002985 237.96825 318.44669
318.0 0.003145 237.91913 319.08249
333.0 0.003003 237.87010 320.22357
302.0 0.003311 237.82120 321.28091
323.0 0.003096 237.77240 322.19461
321.0 0.003115 237.72366 324.69894
293.0 0.003413 237.67506 326.81357
329.0 0.003040 237.62657 330.11285
318.0 0.003145 237.57813 334.87210
340.0 0.002941 237.52985 342.89890
344.0 0.002907 237.48161 349.70166
344.0 0.002907 237.43349 358.34476
366.0 0.002732 237.38548 370.47083
399.0 0.002506 237.33754 388.28284
391.0 0.002558 237.28975 414.13074
452.0 0.002212 237.24203 450.24680
501.0 0.001996 237.19437 499.09613
548.0 0.001825 237.14687 560.32343
597.0 0.001675 237.09944 633.63525
673.0 0.001486 237.05215 715.76758
794.0 0.001259 237.00493 802.18335
868.0 0.001152 236.95781 885.45898
945.0 0.001058 236.91078 963.11243
979.0 0.001021 236.86388 1029.17749
1064.0 0.000940 236.81705 1071.90662
1118.0 0.000894 236.77036 1078.24341
1106.0 0.000904 236.72374 1045.65417
1057.0 0.000946 236.67719 987.02814
952.0 0.001050 236.63081 921.54401
849.0 0.001178 236.58450 863.60718
800.0 0.001250 236.53825 821.76050
785.0 0.001274 236.49217 797.94867
793.0 0.001261 236.44618 791.56244
806.0 0.001241 236.40024 799.94678
818.0 0.001222 236.35449 816.93323
833.0 0.001200 236.30878 833.29602
855.0 0.001170 236.26315 841.38885
876.0 0.001142 236.21765 840.71588
860.0 0.001163 236.17227 834.53717
833.0 0.001200 236.12698 826.73346
799.0 0.001252 236.08177 816.70087
783.0 0.001277 236.03668 802.06030
784.0 0.001276 235.99167 784.92047
715.0 0.001399 235.94682 768.55524
734.0 0.001362 235.90204 760.55884
757.0 0.001321 235.85738 768.74457
744.0 0.001344 235.81274 797.20184
863.0 0.001159 235.76831 846.11987
981.0 0.001019 235.72392 908.12628
1056.0 0.000947 235.67967 971.37170
1157.0 0.000864 235.63548 1017.49658
1169.0 0.000855 235.59143 1028.87195
1084.0 0.000923 235.54745 1001.30353
1022.0 0.000978 235.50363 943.58368
910.0 0.001099 235.45981 872.79517
812.0 0.001232 235.41623 804.92706
733.0 0.001364 235.37263 751.22058
711.0 0.001406 235.32916 717.09570
704.0 0.001420 235.28586 703.43268
756.0 0.001323 235.24258 705.95239
780.0 0.001282 235.19946 717.63647
776.0 0.001289 235.15642 729.41132
784.0 0.001276 235.11351 735.16418
816.0 0.001225 235.07066 735.76801
758.0 0.001319 235.02795 738.46460
724.0 0.001381 234.98529 753.12671
782.0 0.001279 234.94279 789.30096
810.0 0.001235 234.90038 854.65588
876.0 0.001142 234.85808 953.73987
926.0 0.001080 234.81584 1086.69775
1092.0 0.000916 234.77370 1247.18762
1303.0 0.000767 234.73172 1421.29968
1530.0 0.000654 234.68982 1590.25903
1674.0 0.000597 234.64804 1737.47522
1837.0 0.000544 234.60632 1850.99207
2062.0 0.000485 234.56474 1916.65540
2034.0 0.000492 234.52325 1917.22998
1955.0 0.000512 234.48187 1847.59204
1783.0 0.000561 234.44061 1727.19312
1564.0 0.000639 234.39946 1590.31616
1404.0 0.000712 234.35834 1466.52271
1264.0 0.000791 234.31740 1371.32629
1241.0 0.000806 234.27650 1306.59277
1217.0 0.000822 234.23573 1265.84131
1227.0 0.000815 234.19508 1239.94543
1239.0 0.000807 234.15453 1217.49976
1264.0 0.000791 234.11409 1185.23779
1218.0 0.000821 234.07373 1129.59241
1153.0 0.000867 234.03352 1045.39954
1021.0 0.000979 233.99335 941.35406
879.0 0.001138 233.95335 832.17444
739.0 0.001353 233.91338 730.47559
647.0 0.001546 233.87360 642.62598
599.0 0.001669 233.83383 575.69019
576.0 0.001736 233.79424 529.39417
564.0 0.001773 233.75473 503.88593
525.0 0.001905 233.71529 497.56824
551.0 0.001815 233.67596 508.74210
521.0 0.001919 233.63675 535.74896
537.0 0.001862 233.59766 574.30310
586.0 0.001706 233.55865 620.68542
606.0 0.001650 233.51978 666.11066
642.0 0.001558 233.48099 700.98163
653.0 0.001531 233.44231 717.19818
733.0 0.001364 233.40372 710.85535
736.0 0.001359 233.36526 687.48254
715.0 0.001399 233.32684 657.01917
695.0 0.001439 233.28860 627.86267
649.0 0.001541 233.25043 606.11584
615.0 0.001626 233.21239 593.43079
574.0 0.001742 233.17441 590.17188
562.0 0.001779 233.13652 592.61896
517.0 0.001934 233.09875 595.50122
560.0 0.001786 233.06111 591.99249
566.0 0.001767 233.02359 578.32727
584.0 0.001712 232.98613 554.71783
539.0 0.001855 232.94881 525.26691
491.0 0.002037 232.91153 494.52527
514.0 0.001946 232.87440 467.36453
503.0 0.001988 232.83737 446.49063
460.0 0.002174 232.80046 432.13739
415.0 0.002410 232.76363 423.87952
412.0 0.002427 232.72688 419.85809
476.0 0.002101 232.69031 417.51932
420.0 0.002381 232.65378 414.25797
423.0 0.002364 232.61739 407.98865
378.0 0.002646 232.58105 397.79089
380.0 0.002632 232.54486 384.48804
371.0 0.002695 232.50876 369.54636
365.0 0.002740 232.47279 356.32858
382.0 0.002618 232.43687 345.66449
375.0 0.002667 232.40109 338.19629
362.0 0.002762 232.36540 334.27591
360.0 0.002778 232.32982 334.21109
332.0 0.003012 232.29436 335.89569
352.0 0.002841 232.25896 338.93680
370.0 0.002703 232.22365 342.22916
358.0 0.002793 232.18848 345.25220
373.0 0.002681 232.15340 348.53546
393.0 0.002545 232.11842 352.13312
387.0 0.002584 232.08359 360.17200
401.0 0.002494 232.04881 372.69373
439.0 0.002278 232.01414 390.73294
471.0 0.002123 231.97958 412.84589
515.0 0.001942 231.94514 445.20117
527.0 0.001898 231.91081 485.01291
561.0 0.001783 231.87653 533.21777
610.0 0.001639 231.84239 589.47083
631.0 0.001585 231.80833 651.06976
696.0 0.001437 231.77440 711.57129
726.0 0.001377 231.74052 764.19763
722.0 0.001385 231.70682 800.45850
754.0 0.001326 231.67313 815.27917
793.0 0.001261 231.63962 806.84106
792.0 0.001263 231.60617 776.52094
810.0 0.001235 231.57283 734.46667
774.0 0.001292 231.53961 689.60474
717.0 0.001395 231.50650 650.78839
639.0 0.001565 231.47345 623.33612
631.0 0.001585 231.44055 607.81775
613.0 0.001631 231.40771 601.72534
565.0 0.001770 231.37498 599.86548
541.0 0.001848 231.34233 596.35303
587.0 0.001704 231.30980 586.42816
570.0 0.001754 231.27740 567.26208
567.0 0.001764 231.24504 538.81946
522.0 0.001916 231.21286 504.47943
472.0 0.002119 231.18074 468.61868
479.0 0.002088 231.14871 435.76816
447.0 0.002237 231.11679 408.83032
429.0 0.002331 231.08498 388.71411
388.0 0.002577 231.05325 378.04630
405.0 0.002469 231.02167 376.66638
418.0 0.002392 230.99014 385.19360
437.0 0.002288 230.95869 404.20831
452.0 0.002212 230.92740 434.60690
493.0 0.002028 230.89615 476.78134
545.0 0.001835 230.86505 530.36249
558.0 0.001792 230.83403 593.06903
603.0 0.001658 230.80309 660.06262
669.0 0.001495 230.77229 723.86896
694.0 0.001441 230.74158 771.43469
787.0 0.001271 230.71095 792.40527
786.0 0.001272 230.68047 781.52051
770.0 0.001299 230.65002 744.57318
736.0 0.001359 230.61969 694.01654
694.0 0.001441 230.58948 642.58478
620.0 0.001613 230.55937 599.36871
535.0 0.001869 230.52933 569.33783
514.0 0.001946 230.49940 553.77899
529.0 0.001890 230.46957 550.64594
545.0 0.001835 230.43987 555.30457
533.0 0.001876 230.41025 559.63336
533.0 0.001876 230.38069 556.42236
546.0 0.001832 230.35127 540.79327
545.0 0.001835 230.32191 513.47144
484.0 0.002066 230.29271 479.07901
437.0 0.002288 230.26355 442.88977
438.0 0.002283 230.23453 408.95386
392.0 0.002551 230.20557 379.71985
353.0 0.002833 230.17674 356.40369
353.0 0.002833 230.14795 339.40848
342.0 0.002924 230.11931 328.63812
336.0 0.002976 230.09076 323.76099
347.0 0.002882 230.06233 324.95142
355.0 0.002817 230.03397 332.41226
367.0 0.002725 230.00569 346.79770
359.0 0.002786 229.97758 368.94769
374.0 0.002674 229.94946 399.61118
417.0 0.002398 229.92149 438.76813
454.0 0.002203 229.89360 485.60019
532.0 0.001880 229.86584 537.40491
540.0 0.001852 229.83817 589.05536
557.0 0.001795 229.81061 633.15381
596.0 0.001678 229.78310 660.49896
657.0 0.001522 229.75571 664.26233
648.0 0.001543 229.72839 644.52399
604.0 0.001656 229.70120 609.49792
539.0 0.001855 229.67409 568.89264
504.0 0.001984 229.64709 532.09979
460.0 0.002174 229.62018 503.12311
459.0 0.002179 229.59332 485.96512
473.0 0.002114 229.56660 479.29666
466.0 0.002146 229.54001 480.54477
490.0 0.002041 229.51344 485.28403
484.0 0.002066 229.48700 487.61774
470.0 0.002128 229.46068 482.24271
464.0 0.002155 229.43439 467.19153
437.0 0.002288 229.40825 444.76358
428.0 0.002336 229.38217 418.99591
413.0 0.002421 229.35619 395.13809
401.0 0.002494 229.33034 374.02670
321.0 0.003115 229.30455 359.97217
314.0 0.003185 229.27887 351.50748
368.0 0.002717 229.25327 349.60013
395.0 0.002532 229.22774 353.93246
359.0 0.002786 229.20233 364.26151
342.0 0.002924 229.17703 377.66696
417.0 0.002398 229.15181 392.75583
437.0 0.002288 229.12668 406.93863
440.0 0.002273 229.10162 417.86880
439.0 0.002278 229.07671 424.75220
446.0 0.002242 229.05182 429.25995
405.0 0.002469 229.02704 432.88962
430.0 0.002326 229.00238 438.35703
453.0 0.002208 228.97778 445.14087
473.0 0.002114 228.95332 452.75311
486.0 0.002058 228.92894 458.95966
501.0 0.001996 228.90462 461.90482
465.0 0.002151 228.88039 460.21185
470.0 0.002128 228.85628 455.34659
471.0 0.002123 228.83223 449.15729
421.0 0.002375 228.80829 443.63287
425.0 0.002353 228.78444 440.96896
470.0 0.002128 228.76071 443.26126
461.0 0.002169 228.73701 451.81183
454.0 0.002203 228.71342 466.61499
487.0 0.002053 228.68997 486.28870
489.0 0.002045 228.66650 507.78882
540.0 0.001852 228.64322 527.29437
555.0 0.001802 228.62001 540.48291
553.0 0.001808 228.59685 543.58728
545.0 0.001835 228.57382 534.32953
505.0 0.001980 228.55086 514.12885
511.0 0.001957 228.52798 489.50751
494.0 0.002024 228.50522 464.95169
450.0 0.002222 228.48251 444.78275
450.0 0.002222 228.45992 431.10529
423.0 0.002364 228.43742 424.34534
402.0 0.002488 228.41499 423.72900
424.0 0.002358 228.39267 427.08365
448.0 0.002232 228.37038 431.29861
454.0 0.002203 228.34824 432.86447
443.0 0.002257 228.32616 428.55109
424.0 0.002358 228.30417 417.95346
424.0 0.002358 228.28226 402.52493
376.0 0.002660 228.26047 385.89407
367.0 0.002725 228.23869 370.37390
383.0 0.002611 228.21707 358.01041
373.0 0.002681 228.19550 349.23938
368.0 0.002717 228.17404 344.91318
395.0 0.002532 228.15265 345.20911
367.0 0.002725 228.13132 350.07001
407.0 0.002457 228.11014 359.36942
418.0 0.002392 228.08900 373.11121
392.0 0.002551 228.06796 391.49304
410.0 0.002439 228.04700 414.65884
439.0 0.002278 228.02611 442.24680
448.0 0.002232 228.00533 472.96872
477.0 0.002096 227.98462 504.42841
491.0 0.002037 227.96397 533.38245
586.0 0.001706 227.94347 555.73987
519.0 0.001927 227.92300 569.16553
600.0 0.001667 227.90263 572.67529
610.0 0.001639 227.88231 569.83075
631.0 0.001585 227.86212 565.43451
636.0 0.001572 227.84201 563.00031
600.0 0.001667 227.82195 566.59149
602.0 0.001661 227.80200 577.22333
581.0 0.001721 227.78214 594.76392
596.0 0.001678 227.76234 619.06091
656.0 0.001524 227.74265 648.11877
689.0 0.001451 227.72301 679.37335
691.0 0.001447 227.70346 711.20300
805.0 0.001242 227.68399 745.39404
846.0 0.001182 227.66460 787.02362
860.0 0.001163 227.64531 842.74158
904.0 0.001106 227.62608 917.80511
966.0 0.001035 227.60693 1014.94122
1052.0 0.000951 227.58789 1131.20447
1133.0 0.000883 227.56892 1257.75806
1254.0 0.000797 227.54997 1380.74890
1400.0 0.000714 227.53120 1482.88147
1527.0 0.000655 227.51244 1548.78015
1594.0 0.000627 227.49379 1571.05481
1604.0 0.000623 227.47517 1553.33472
1552.0 0.000644 227.45667 1506.68066
1504.0 0.000665 227.43823 1443.41895
1439.0 0.000695 227.41992 1371.82898
1365.0 0.000733 227.40164 1298.80518
1265.0 0.000791 227.38345 1231.96875
1165.0 0.000858 227.36534 1177.49072
1113.0 0.000898 227.34734 1136.65771
1002.0 0.000998 227.32936 1104.92957
985.0 0.001015 227.31146 1074.48450
999.0 0.001001 227.29366 1038.31616
1026.0 0.000975 227.27594 993.13672
1014.0 0.000986 227.25827 940.01904
930.0 0.001075 227.24072 881.77002
867.0 0.001153 227.22325 820.46405
809.0 0.001236 227.20581 757.94586
769.0 0.001300 227.18843 696.50891
660.0 0.001515 227.17120 640.19775
609.0 0.001642 227.15398 593.22089
587.0 0.001704 227.13689 558.02515
551.0 0.001815 227.11986 535.38123
560.0 0.001786 227.10287 524.59705
535.0 0.001869 227.08600 523.59393
477.0 0.002096 227.06914 529.27173
527.0 0.001898 227.05238 537.99402
543.0 0.001842 227.03578 545.95135
532.0 0.001880 227.01913 549.57544
504.0 0.001984 227.00262 545.91748
527.0 0.001898 226.98619 534.12555
541.0 0.001848 226.96979 517.40527
553.0 0.001808 226.95349 499.39270
519.0 0.001927 226.93730 483.34546
486.0 0.002058 226.92111 471.92087
525.0 0.001905 226.90503 464.72202
467.0 0.002141 226.88902 462.16519
477.0 0.002096 226.87308 463.70752
472.0 0.002119 226.85722 468.63708
485.0 0.002062 226.84142 475.87308
494.0 0.002024 226.82570 483.93784
483.0 0.002070 226.81000 491.32706
446.0 0.002242 226.79443 497.89255
470.0 0.002128 226.77892 503.40097
501.0 0.001996 226.76347 507.50150
485.0 0.002062 226.74811 508.51486
504.0 0.001984 226.73277 504.59042
480.0 0.002083 226.71756 494.04068
456.0 0.002193 226.70236 478.52359
440.0 0.002273 226.68724 461.45239
449.0 0.002227 226.67226 446.65332
423.0 0.002364 226.65732 437.20532
404.0 0.002475 226.64238 435.21359
395.0 0.002532 226.62759 441.85400
436.0 0.002294 226.61282 457.32312
447.0 0.002237 226.59813 480.85349
476.0 0.002101 226.58353 510.65152
543.0 0.001842 226.56892 543.93286
593.0 0.001686 226.55450 576.57513
617.0 0.001621 226.54005 605.04773
657.0 0.001522 226.52573 626.03986
639.0 0.001565 226.51141 638.46008
639.0 0.001565 226.49722 644.34998
626.0 0.001597 226.48303 647.50830
636.0 0.001572 226.46896 651.82751
652.0 0.001534 226.45496 659.11151
672.0 0.001488 226.44101 668.99982
696.0 0.001437 226.42709 679.63971
684.0 0.001462 226.41325 690.16443
686.0 0.001458 226.39952 702.19202
709.0 0.001410 226.38579 717.47534
725.0 0.001379 226.37216 737.39832
744.0 0.001344 226.35860 761.29834
743.0 0.001346 226.34508 787.22186
792.0 0.001263 226.33162 812.39996
845.0 0.001183 226.31828 835.16046
895.0 0.001117 226.30492 852.96887
915.0 0.001093 226.29169 861.62250
900.0 0.001111 226.27847 856.81366
838.0 0.001193 226.26538 837.06555
803.0 0.001245 226.25226 804.81348
736.0 0.001359 226.23930 767.77185
709.0 0.001410 226.22633 729.43494
678.0 0.001475 226.21344 695.00287
690.0 0.001449 226.20064 665.02515
662.0 0.001511 226.18787 638.90045
596.0 0.001678 226.17513 615.98065
641.0 0.001560 226.16254 597.29132
623.0 0.001605 226.14996 580.71381
617.0 0.001621 226.13741 564.13062
550.0 0.001818 226.12498 545.75592
513.0 0.001949 226.11256 525.43365
519.0 0.001927 226.10020 504.40564
533.0 0.001876 226.08792 485.68518
474.0 0.002110 226.07565 470.30460
432.0 0.002315 226.06352 459.29016
442.0 0.002262 226.05142 452.69843
451.0 0.002217 226.03934 450.13998
472.0 0.002119 226.02734 451.15363
492.0 0.002033 226.01543 455.55972
456.0 0.002193 226.00349 461.16589
505.0 0.001980 225.99171 465.22827
464.0 0.002155 225.97989 465.31238
457.0 0.002188 225.96823 460.52585
415.0 0.002410 225.95656 452.36145
426.0 0.002347 225.94498 444.03024
413.0 0.002421 225.93340 439.25162
445.0 0.002247 225.92194 440.55154
443.0 0.002257 225.91051 450.20584
421.0 0.002375 225.89909 468.90286
450.0 0.002222 225.88780 496.06586
506.0 0.001976 225.87651 529.58710
540.0 0.001852 225.86528 566.31689
587.0 0.001704 225.85413 600.38239
641.0 0.001560 225.84303 625.06287
664.0 0.001506 225.83199 634.22162
615.0 0.001626 225.82094 625.54028
576.0 0.001736 225.80998 601.91498
551.0 0.001815 225.79913 570.01654
535.0 0.001869 225.78827 536.72229
537.0 0.001862 225.77748 507.45761
493.0 0.002028 225.76674 485.37289
463.0 0.002160 225.75606 471.55493
447.0 0.002237 225.74542 466.11429
447.0 0.002237 225.73483 466.52698
470.0 0.002128 225.72429 469.73883
487.0 0.002053 225.71376 471.84772
476.0 0.002101 225.70338 469.50458
442.0 0.002262 225.69296 460.62766
426.0 0.002347 225.68262 447.04214
406.0 0.002463 225.67235 431.74005
405.0 0.002469 225.66211 416.92261
405.0 0.002469 225.65190 405.43954
375.0 0.002667 225.64177 398.71338
390.0 0.002564 225.63167 397.20453
415.0 0.002410 225.62163 400.55325
444.0 0.002252 225.61165 407.23639
454.0 0.002203 225.60167 415.24860
433.0 0.002309 225.59178 422.19513
438.0 0.002283 225.58191 426.30023
448.0 0.002232 225.57213 427.10312
436.0 0.002294 225.56239 425.66370
443.0 0.002257 225.55266 423.10632
472.0 0.002119 225.54298 421.12579
428.0 0.002336 225.53340 420.83914
409.0 0.002445 225.52379 423.56055
425.0 0.002353 225.51427 430.28748
413.0 0.002421 225.50478 441.21655
434.0 0.002304 225.49535 455.06204
476.0 0.002101 225.48596 470.35162
473.0 0.002114 225.47659 483.67004
568.0 0.001761 225.46730 492.36981
492.0 0.002033 225.45808 495.10648
526.0 0.001901 225.44885 492.34521
527.0 0.001898 225.43965 485.28448
466.0 0.002146 225.43054 475.88644
472.0 0.002119 225.42145 466.53369
467.0 0.002141 225.41240 459.63492
468.0 0.002137 225.40340 457.41232
444.0 0.002252 225.39442 461.15744
408.0 0.002451 225.38551 471.69690
457.0 0.002188 225.37665 487.71933
509.0 0.001965 225.36780 506.76801
519.0 0.001927 225.35901 525.58203
551.0 0.001815 225.35027 540.71735
560.0 0.001786 225.34154 549.06360
548.0 0.001825 225.33287 549.61066
526.0 0.001901 225.32422 542.57349
514.0 0.001946 225.31566 531.50818
539.0 0.001855 225.30708 520.52283
531.0 0.001883 225.29857 513.02979
483.0 0.002070 225.29008 510.88434
485.0 0.002062 225.28166 514.59113
515.0 0.001942 225.27325 522.19891
557.0 0.001795 225.26489 530.45416
547.0 0.001828 225.25659 535.49463
509.0 0.001965 225.24832 534.21185
516.0 0.001938 225.24007 525.53442
526.0 0.001901 225.23184 510.50662
515.0 0.001942 225.22369 491.15375
492.0 0.002033 225.21555 469.82822
431.0 0.002320 225.20744 448.93335
413.0 0.002421 225.19939 430.22156
429.0 0.002331 225.19138 414.51300
417.0 0.002398 225.18341 402.55582
410.0 0.002439 225.17542 393.86313
397.0 0.002519 225.16754 387.16800
410.0 0.002439 225.15964 380.92670
415.0 0.002410 225.15178 374.00711
381.0 0.002625 225.14397 366.18909
358.0 0.002793 225.13617 358.17709
351.0 0.002849 225.12845 350.87741
365.0 0.002740 225.12071 344.94891
343.0 0.002915 225.11304 340.68204
354.0 0.002825 225.10539 338.12219
363.0 0.002755 225.09779 337.15244
350.0 0.002857 225.09019 338.08636
360.0 0.002778 225.08266 340.69504
365.0 0.002740 225.07515 346.69345
360.0 0.002778 225.06769 356.12531
374.0 0.002674 225.06021 369.42346
368.0 0.002717 225.05278 386.64459
411.0 0.002433 225.04543 407.32220
380.0 0.002632 225.03806 430.42590
412.0 0.002427 225.03072 454.65652
458.0 0.002183 225.02344 478.97055
490.0 0.002041 225.01616 502.81451
527.0 0.001898 225.00894 525.54675
533.0 0.001876 225.00172 546.02313
558.0 0.001792 224.99454 561.89368
514.0 0.001946 224.98740 571.20911
577.0 0.001733 224.98027 571.68909
496.0 0.002016 224.97318 562.38708
530.0 0.001887 224.96611 545.08459
514.0 0.001946 224.95909 523.50043
431.0 0.002320 224.95206 500.66690
475.0 0.002105 224.94511 479.38678
439.0 0.002278 224.93813 461.10440
438.0 0.002283 224.93121 446.55197
442.0 0.002262 224.92430 435.81415
431.0 0.002320 224.91748 428.14584
389.0 0.002571 224.91058 422.49319
395.0 0.002532 224.90379 416.77402
413.0 0.002421 224.89699 409.00977
402.0 0.002488 224.89024 397.73917
354.0 0.002825 224.88347 382.82059
384.0 0.002604 224.87677 365.43231
363.0 0.002755 224.87009 346.95682
319.0 0.003135 224.86342 329.06424
309.0 0.003236 224.85678 312.81094
341.0 0.002933 224.85014 298.79794
313.0 0.003195 224.84358 287.26883
280.0 0.00357 224.83696 277.92755
288.0 0.003472 224.83043 271.24130
264.0 0.00379 224.82388 266.84177
283.0 0.00353 224.81741 264.20245
281.0 0.00356 224.81091 263.12350
273.0 0.00366 224.80447 263.84753
285.0 0.00351 224.79803 266.22192
304.0 0.003289 224.79164 270.08124
297.0 0.003367 224.78522 275.46265
291.0 0.003436 224.77885 282.27234
288.0 0.003472 224.77249 290.32919
289.0 0.003460 224.76616 299.29181
282.0 0.00355 224.75987 308.47910
296.0 0.003378 224.75356 317.15350
311.0 0.003215 224.74730 324.19464
311.0 0.003215 224.74104 327.98911
308.0 0.003247 224.73485 328.68637
308.0 0.003247 224.72861 326.37299
332.0 0.003012 224.72246 322.21921
336.0 0.002976 224.71623 317.37952
301.0 0.003322 224.71011 312.89203
306.0 0.003268 224.70396 309.44138
296.0 0.003378 224.69783 307.29800
329.0 0.003040 224.69176 306.36539
322.0 0.003106 224.68567 305.85867
327.0 0.003058 224.67960 305.84344
327.0 0.003058 224.67357 305.19275
342.0 0.002924 224.66754 303.17780
306.0 0.003268 224.66150 299.94763
342.0 0.002924 224.65552 295.26773
341.0 0.002933 224.64955 289.63785
348.0 0.002874 224.64360 283.61755
328.0 0.003049 224.63763 277.82767
331.0 0.003021 224.63170 272.79956
325.0 0.003077 224.62578 268.30408
286.0 0.003497 224.61990 264.58261
289.0 0.003460 224.61398 261.48087
287.0 0.003484 224.60809 258.69601
272.0 0.00368 224.60223 256.30389
307.0 0.003257 224.59639 254.12402
309.0 0.003236 224.59056 252.16220
287.0 0.003484 224.58472 250.48958
250.0 0.00400 224.57895 249.17046
301.0 0.003322 224.57312 248.20319
305.0 0.003279 224.56737 247.69267
294.0 0.003401 224.56158 247.62498
278.0 0.00360 224.55586 248.39134
282.0 0.00355 224.55009 249.59378
293.0 0.003413 224.54439 251.62564
291.0 0.003436 224.53865 254.68568
308.0 0.003247 224.53296 259.06110
289.0 0.003460 224.52725 265.08743
310.0 0.003226 224.52155 273.12546
316.0 0.003165 224.51588 283.51114
280.0 0.00357 224.51019 296.30908
312.0 0.003205 224.50456 311.94785
334.0 0.002994 224.49889 329.99655
352.0 0.002841 224.49326 349.77298
380.0 0.002632 224.48764 370.01178
390.0 0.002564 224.48203 389.36276
390.0 0.002564 224.47639 405.61328
390.0 0.002564 224.47083 416.59940
412.0 0.002427 224.46521 421.58115
401.0 0.002494 224.45966 419.67755
390.0 0.002564 224.45406 411.66269
392.0 0.002551 224.44847 399.58780
398.0 0.002513 224.44293 386.26660
395.0 0.002532 224.43735 373.74994
382.0 0.002618 224.43182 363.84592
372.0 0.002688 224.42628 357.39282
355.0 0.002817 224.42076 354.50656
345.0 0.002899 224.41522 354.63022
338.0 0.002959 224.40973 356.92944
328.0 0.003049 224.40419 359.97363
347.0 0.002882 224.39868 362.93646
355.0 0.002817 224.39314 364.73941
359.0 0.002786 224.38770 365.64395
382.0 0.002618 224.38219 364.71136
356.0 0.002809 224.37668 363.43207
370.0 0.002703 224.37122 362.75162
371.0 0.002695 224.36574 362.91135
323.0 0.003096 224.36024 363.88437
359.0 0.002786 224.35478 364.94748
387.0 0.002584 224.34933 365.13535
381.0 0.002625 224.34383 363.77490
359.0 0.002786 224.33839 361.00830
388.0 0.002577 224.33293 357.05826
367.0 0.002725 224.32747 352.79999
327.0 0.003058 224.32201 349.00977
309.0 0.003236 224.31659 346.83633
359.0 0.002786 224.31114 346.53491
365.0 0.002740 224.30566 348.85544
330.0 0.003030 224.30022 353.97104
382.0 0.002618 224.29477 361.47177
361.0 0.002770 224.28934 370.37076
375.0 0.002667 224.28391 379.18637
413.0 0.002421 224.27846 386.10104
388.0 0.002577 224.27299 389.55157
393.0 0.002545 224.26756 389.40826
385.0 0.002597 224.26215 386.25421
370.0 0.002703 224.25668 381.28201
348.0 0.002874 224.25124 376.10797
393.0 0.002545 224.24583 371.96466
353.0 0.002833 224.24036 369.74847
346.0 0.002890 224.23492 369.78894
380.0 0.002632 224.22948 372.01627
401.0 0.002494 224.22400 376.29623
380.0 0.002632 224.21857 381.38849
397.0 0.002519 224.21313 387.11026
436.0 0.002294 224.20769 392.99554
405.0 0.002469 224.20222 398.57089
364.0 0.002747 224.19676 403.66595
384.0 0.002604 224.19128 407.91245
396.0 0.002525 224.18588 410.82941
390.0 0.002564 224.18036 411.92020
373.0 0.002681 224.17494 409.79382
380.0 0.002632 224.16943 404.51447
387.0 0.002584 224.16396 396.79517
378.0 0.002646 224.15846 387.97015
380.0 0.002632 224.15302 379.86755
374.0 0.002674 224.14752 372.89926
369.0 0.002710 224.14203 367.94760
358.0 0.002793 224.13649 365.67508
342.0 0.002924 224.13103 366.17740
356.0 0.002809 224.12555 368.96500
391.0 0.002558 224.12000 373.13348
389.0 0.002571 224.11447 377.23492
390.0 0.002564 224.10896 379.66830
395.0 0.002532 224.10345 378.69775
383.0 0.002611 224.09787 373.99792
366.0 0.002732 224.09235 366.35541
377.0 0.002653 224.08679 357.34930
377.0 0.002653 224.08122 348.91705
340.0 0.002941 224.07568 341.99686
314.0 0.003185 224.07008 337.82361
348.0 0.002874 224.06453 337.02463
340.0 0.002941 224.05893 339.89719
343.0 0.002915 224.05331 346.34512
367.0 0.002725 224.04773 355.96655
367.0 0.002725 224.04211 367.97540
376.0 0.002660 224.03647 381.51035
419.0 0.002387 224.03088 394.83643
427.0 0.002342 224.02522 407.10614
420.0 0.002381 224.01961 418.19623
419.0 0.002387 224.01390 428.17221
445.0 0.002247 224.00826 437.09006
447.0 0.002237 224.00261 445.55844
417.0 0.002398 223.99689 453.54517
474.0 0.002110 223.99120 460.72391
493.0 0.002028 223.98552 468.54581
466.0 0.002146 223.97981 478.78442
478.0 0.002092 223.97409 493.10468
522.0 0.001916 223.96834 512.37354
491.0 0.002037 223.96259 536.40161
559.0 0.001789 223.95683 563.33466
546.0 0.001832 223.95105 590.33429
545.0 0.001835 223.94530 613.59100
603.0 0.001658 223.93950 628.78479
634.0 0.001577 223.93367 633.38153
653.0 0.001531 223.92789 627.01306
601.0 0.001664 223.92206 612.21008
555.0 0.001802 223.91620 592.69232
542.0 0.001845 223.91032 572.10095
532.0 0.001880 223.90450 553.93585
541.0 0.001848 223.89859 540.28802
527.0 0.001898 223.89273 531.69879
552.0 0.001812 223.88681 527.86176
529.0 0.001890 223.88091 526.96747
534.0 0.001873 223.87497 526.85248
520.0 0.001923 223.86900 525.16266
511.0 0.001957 223.86302 520.23157
500.0 0.002000 223.85709 510.15500
488.0 0.002049 223.85107 495.31891
490.0 0.002041 223.84506 477.31879
460.0 0.002174 223.83907 458.55908
449.0 0.002227 223.83302 440.94351
442.0 0.002262 223.82701 426.14297
413.0 0.002421 223.82092 415.01157
396.0 0.002525 223.81485 408.08377
410.0 0.002439 223.80872 405.39627
425.0 0.002353 223.80264 406.89136
434.0 0.002304 223.79651 412.15891
439.0 0.002278 223.79037 420.99692
442.0 0.002262 223.78419 433.01810
454.0 0.002203 223.77806 447.75024
464.0 0.002155 223.77185 463.96811
468.0 0.002137 223.76561 480.35880
515.0 0.001942 223.75943 495.20435
550.0 0.001818 223.75319 506.98511
506.0 0.001976 223.74692 515.53998
522.0 0.001916 223.74060 521.99115
505.0 0.001980 223.73433 528.26227
502.0 0.001992 223.72803 536.36865
499.0 0.002004 223.72171 547.18036
507.0 0.001972 223.71535 560.49091
502.0 0.001992 223.70901 575.36523
568.0 0.001761 223.70261 590.52026
593.0 0.001686 223.69617 605.53394
623.0 0.001605 223.68976 619.11310
659.0 0.001517 223.68332 629.49445
637.0 0.001570 223.67686 633.74707
687.0 0.001456 223.67038 630.58502
632.0 0.001582 223.66388 617.47388
652.0 0.001534 223.65735 597.32593
581.0 0.001721 223.65085 573.31677
511.0 0.001957 223.64424 548.73633
442.0 0.002262 223.63768 526.11548
436.0 0.002294 223.63107 506.63309
458.0 0.002183 223.62447 490.43890
445.0 0.002247 223.61783 477.53525
451.0 0.002217 223.61119 469.02484
429.0 0.002331 223.60449 463.04794
494.0 0.002024 223.59775 459.68573
452.0 0.002212 223.59106 457.99561
464.0 0.002155 223.58435 457.38153
437.0 0.002288 223.57759 456.92783
405.0 0.002469 223.57077 456.13858
448.0 0.002232 223.56396 456.32440
435.0 0.002299 223.55714 459.62628
449.0 0.002227 223.55028 462.88113
463.0 0.002160 223.54341 467.02310
456.0 0.002193 223.53653 470.99078
471.0 0.002123 223.52957 473.75739
470.0 0.002128 223.52267 475.14349
463.0 0.002160 223.51570 475.66019
481.0 0.002079 223.50873 475.97888
469.0 0.002132 223.50172 476.37396
485.0 0.002062 223.49471 476.36700
490.0 0.002041 223.48761 475.22189
464.0 0.002155 223.48056 471.34790
453.0 0.002208 223.47345 465.56693
453.0 0.002208 223.46629 458.63266
442.0 0.002262 223.45921 452.76956
437.0 0.002288 223.45198 447.42630
445.0 0.002247 223.44482 443.92487
445.0 0.002247 223.43758 442.34753
429.0 0.002331 223.43034 442.63208
428.0 0.002336 223.42305 445.02673
448.0 0.002232 223.41580 449.43201
460.0 0.002174 223.40845 454.73355
469.0 0.002132 223.40114 461.22864
510.0 0.001961 223.39374 466.42914
523.0 0.001912 223.38635 468.60440
496.0 0.002016 223.37894 467.04239
465.0 0.002151 223.37149 462.04553
455.0 0.002198 223.36404 455.32001
440.0 0.002273 223.35652 448.47797
401.0 0.002494 223.34901 443.11319
407.0 0.002457 223.34145 439.75192
431.0 0.002320 223.33389 438.55740
463.0 0.002160 223.32628 438.44818
462.0 0.002165 223.31865 438.00867
476.0 0.002101 223.31104 435.58087
455.0 0.002198 223.30334 430.94638
434.0 0.002304 223.29567 424.05084
389.0 0.002571 223.28793 415.19504
397.0 0.002519 223.28017 405.12347
392.0 0.002551 223.27237 394.58981
370.0 0.002703 223.26460 384.42883
346.0 0.002890 223.25673 375.53308
366.0 0.002732 223.24887 368.48303
339.0 0.002950 223.24098 363.52997
358.0 0.002793 223.23308 360.45419
351.0 0.002849 223.22513 359.22958
355.0 0.002817 223.21718 358.45813
341.0 0.002933 223.20915 357.74887
391.0 0.002558 223.20114 356.73306
387.0 0.002584 223.19305 355.71844
363.0 0.002755 223.18498 355.45847
346.0 0.002890 223.17691 356.54559
378.0 0.002646 223.16876 360.90161
347.0 0.002882 223.16060 369.22916
360.0 0.002778 223.15236 382.62564
418.0 0.002392 223.14417 402.05206
411.0 0.002433 223.13589 428.79306
453.0 0.002208 223.12762 462.43707
482.0 0.002075 223.11934 503.51810
552.0 0.001812 223.11096 551.38501
648.0 0.001543 223.10260 604.95709
698.0 0.001433 223.09424 661.81879
750.0 0.001333 223.08578 718.62537
843.0 0.001186 223.07735 771.08075
903.0 0.001107 223.06885 814.30347
900.0 0.001111 223.06032 846.06152
921.0 0.001086 223.05180 866.10931
902.0 0.001109 223.04320 877.10986
880.0 0.001136 223.03462 882.97888
859.0 0.001164 223.02599 887.52344
859.0 0.001164 223.01732 893.32977
838.0 0.001193 223.00862 900.16937
866.0 0.001155 222.99991 907.46344
956.0 0.001046 222.99113 914.12866
948.0 0.001055 222.98236 919.29498
940.0 0.001064 222.97356 923.25769
985.0 0.001015 222.96472 926.56360
948.0 0.001055 222.95583 928.71930
934.0 0.001071 222.94696 928.94592
921.0 0.001086 222.93802 925.39185
885.0 0.001130 222.92902 917.29535
837.0 0.001195 222.92004 904.22559
830.0 0.001205 222.91100 887.83221
823.0 0.001215 222.90196 870.83209
795.0 0.001258 222.89288 856.58051
780.0 0.001282 222.88376 847.58563
788.0 0.001269 222.87456 846.70789
785.0 0.001274 222.86540 855.35638
786.0 0.001272 222.85620 875.11072
861.0 0.001161 222.84697 907.23523
931.0 0.001074 222.83768 951.88013
923.0 0.001083 222.82838 1007.28528
1057.0 0.000946 222.81903 1069.06409
1150.0 0.000870 222.80963 1131.85168
1163.0 0.000860 222.80026 1188.77087
1259.0 0.000794 222.79079 1233.71875
1252.0 0.000799 222.78134 1262.41284
1327.0 0.000754 222.77185 1271.44019
1297.0 0.000771 222.76233 1259.00122
1232.0 0.000812 222.75278 1225.46692
1135.0 0.000881 222.74319 1176.32690
1038.0 0.000963 222.73354 1119.57153
1040.0 0.000962 222.72389 1063.71545
903.0 0.001107 222.71420 1015.26703
904.0 0.001106 222.70445 978.26605
899.0 0.001112 222.69473 954.08014
862.0 0.001160 222.68494 942.56329
913.0 0.001095 222.67513 940.29999
943.0 0.001060 222.66522 943.70630
942.0 0.001062 222.65535 948.19788
1007.0 0.000993 222.64545 948.69818
1002.0 0.000998 222.63553 940.11804
913.0 0.001095 222.62553 918.99988
802.0 0.001247 222.61549 884.46936
775.0 0.001290 222.60544 839.43372
742.0 0.001348 222.59537 788.31085
730.0 0.001370 222.58525 736.22968
643.0 0.001555 222.57515 686.19196
574.0 0.001742 222.56493 640.26453
555.0 0.001802 222.55469 599.40308
567.0 0.001764 222.54448 564.58618
502.0 0.001992 222.53419 535.08069
489.0 0.002045 222.52388 510.83273
472.0 0.002119 222.51350 491.13428
439.0 0.002278 222.50314 474.93839
424.0 0.002358 222.49271 461.12909
399.0 0.002506 222.48230 448.93207
405.0 0.002469 222.47182 438.18219
399.0 0.002506 222.46130 429.11414
382.0 0.002618 222.45074 422.00143
365.0 0.002740 222.44019 417.43179
362.0 0.002762 222.42953 415.29681
392.0 0.002551 222.41891 415.39648
420.0 0.002381 222.40822 417.52884
433.0 0.002309 222.39748 421.19171
424.0 0.002358 222.38675 426.38437
414.0 0.002415 222.37596 433.27725
416.0 0.002404 222.36516 442.11694
455.0 0.002198 222.35432 452.96432
477.0 0.002096 222.34343 465.46896
483.0 0.002070 222.33249 478.75903
493.0 0.002028 222.32158 491.50732
521.0 0.001919 222.31058 502.36758
546.0 0.001832 222.29956 510.55334
514.0 0.001946 222.28851 516.44324
531.0 0.001883 222.27739 521.73877
525.0 0.001905 222.26630 527.29895
524.0 0.001908 222.25511 536.70923
521.0 0.001919 222.24396 549.58795
529.0 0.001890 222.23273 565.88257
549.0 0.001821 222.22148 584.46112
534.0 0.001873 222.21016 603.26880
504.0 0.001984 222.19885 619.45300
548.0 0.001825 222.18747 629.92487
571.0 0.001751 222.17610 632.49750
610.0 0.001639 222.16467 626.79492
593.0 0.001686 222.15324 614.27240
627.0 0.001595 222.14172 597.53510
556.0 0.001799 222.13019 579.61243
602.0 0.001661 222.11862 563.37628
585.0 0.001709 222.10698 551.35248
526.0 0.001901 222.09540 544.46185
542.0 0.001845 222.08369 543.24109
545.0 0.001835 222.07202 547.05505
508.0 0.001969 222.06027 554.21033
545.0 0.001835 222.04852 562.87988
511.0 0.001957 222.03670 570.33673
557.0 0.001795 222.02489 574.29755
554.0 0.001805 222.01300 573.39050
551.0 0.001815 222.00111 567.74396
530.0 0.001887 221.98918 558.91754
513.0 0.001949 221.97720 549.15240
516.0 0.001938 221.96515 540.49133
513.0 0.001949 221.95313 534.21735
520.0 0.001923 221.94106 530.76141
530.0 0.001887 221.92891 529.23865
534.0 0.001873 221.91682 528.29388
537.0 0.001862 221.90462 526.18323
554.0 0.001805 221.89243 521.59149
522.0 0.001916 221.88014 514.20233
509.0 0.001965 221.86790 504.74319
496.0 0.002016 221.85556 494.52603
513.0 0.001949 221.84322 485.01239
512.0 0.001953 221.83083 477.66275
532.0 0.001880 221.81842 473.67560
539.0 0.001855 221.80595 474.97958
534.0 0.001873 221.79349 481.89682
537.0 0.001862 221.78096 495.71530
541.0 0.001848 221.76840 515.71741
556.0 0.001799 221.75581 541.33563
565.0 0.001770 221.74318 571.35400
604.0 0.001656 221.73051 602.80127
604.0 0.001656 221.71783 635.26190
633.0 0.001580 221.70511 665.14087
656.0 0.001524 221.69235 691.23718
660.0 0.001515 221.67960 711.50250
702.0 0.001425 221.66673 724.42676
737.0 0.001357 221.65390 733.31342
737.0 0.001357 221.64098 739.19385
728.0 0.001374 221.62805 744.35510
728.0 0.001374 221.61511 750.29688
731.0 0.001368 221.60210 757.65186
741.0 0.001350 221.58907 764.37457
736.0 0.001359 221.57599 768.60736
702.0 0.001425 221.56290 768.18042
719.0 0.001391 221.54976 761.96997
711.0 0.001406 221.53662 750.97235
656.0 0.001524 221.52341 736.40393
669.0 0.001495 221.51021 719.35895
637.0 0.001570 221.49692 699.55200
628.0 0.001592 221.48363 678.95203
614.0 0.001629 221.47028 657.28204
632.0 0.001582 221.45695 635.60760
601.0 0.001664 221.44353 615.19977
549.0 0.001821 221.43008 596.94464
570.0 0.001754 221.41663 581.10162
521.0 0.001919 221.40312 566.98157
501.0 0.001996 221.38963 553.14087
542.0 0.001845 221.37602 538.26813
539.0 0.001855 221.36244 521.95117
486.0 0.002058 221.34880 504.43112
419.0 0.002387 221.33516 486.77167
450.0 0.002222 221.32144 469.99557
447.0 0.002237 221.30775 454.60489
437.0 0.002288 221.29396 441.62692
423.0 0.002364 221.28018 429.58725
447.0 0.002237 221.26634 418.90280
431.0 0.002320 221.25246 409.43384
377.0 0.002653 221.23860 401.00540
359.0 0.002786 221.22464 393.33292
423.0 0.002364 221.21069 385.74179
414.0 0.002415 221.19673 377.73441
380.0 0.002632 221.18272 369.19122
347.0 0.002882 221.16862 360.20859
331.0 0.003021 221.15454 351.38885
343.0 0.002915 221.14044 343.30228
339.0 0.002950 221.12630 336.46417
303.0 0.003300 221.11211 331.69525
327.0 0.003058 221.09789 328.08609
316.0 0.003165 221.08362 326.44257
321.0 0.003115 221.06932 325.74896
314.0 0.003185 221.05504 326.77554
322.0 0.003106 221.04068 329.00821
321.0 0.003115 221.02631 332.19522
324.0 0.003086 221.01190 335.94269
323.0 0.003096 220.99745 339.81558
337.0 0.002967 220.98300 343.61304
319.0 0.003135 220.96849 347.32028
335.0 0.002985 220.95395 351.18207
358.0 0.002793 220.93939 355.69455
355.0 0.002817 220.92479 361.41095
358.0 0.002793 220.91017 368.78238
368.0 0.002717 220.89548 377.79819
370.0 0.002703 220.88081 388.69223
363.0 0.002755 220.86610 400.47345
380.0 0.002632 220.85132 412.34604
408.0 0.002451 220.83653 422.64258
438.0 0.002283 220.82173 429.71457
473.0 0.002114 220.80690 432.21179
453.0 0.002208 220.79199 429.72119
452.0 0.002212 220.77711 422.85379
421.0 0.002375 220.76216 412.94586
411.0 0.002433 220.74721 401.54327
393.0 0.002545 220.73218 390.94131
378.0 0.002646 220.71716 380.83063
365.0 0.002740 220.70212 372.84738
376.0 0.002660 220.68704 367.24979
366.0 0.002732 220.67194 364.88852
360.0 0.002778 220.65675 365.38306
374.0 0.002674 220.64159 368.37561
399.0 0.002506 220.62637 373.41385
413.0 0.002421 220.61115 379.64590
419.0 0.002387 220.59589 386.49539
414.0 0.002415 220.58058 393.87314
397.0 0.002519 220.56525 402.14243
438.0 0.002283 220.54991 411.78107
432.0 0.002315 220.53448 424.14508
421.0 0.002375 220.51912 439.63538
410.0 0.002439 220.50365 458.71500
441.0 0.002268 220.48817 480.26135
432.0 0.002315 220.47270 503.53589
486.0 0.002058 220.45717 527.02972
520.0 0.001923 220.44157 548.26910
532.0 0.001880 220.42599 565.05829
594.0 0.001684 220.41040 575.62878
571.0 0.001751 220.39473 579.36969
562.0 0.001779 220.37909 576.74518
589.0 0.001698 220.36337 569.14191
582.0 0.001718 220.34766 558.39838
522.0 0.001916 220.33189 546.22644
568.0 0.001761 220.31607 534.82373
543.0 0.001842 220.30028 525.74402
482.0 0.002075 220.28448 520.29535
492.0 0.002033 220.26860 518.76294
509.0 0.001965 220.25269 521.91132
489.0 0.002045 220.23677 528.29926
490.0 0.002041 220.22084 536.41321
535.0 0.001869 220.20485 543.79053
551.0 0.001815 220.18884 548.12360
564.0 0.001773 220.17284 547.44513
567.0 0.001764 220.15674 540.86914
555.0 0.001802 220.14067 528.78210
517.0 0.001934 220.12454 511.96597
516.0 0.001938 220.10844 493.42093
520.0 0.001923 220.09222 474.30365
492.0 0.002033 220.07605 456.45566
478.0 0.002092 220.05988 441.41669
441.0 0.002268 220.04359 430.18301
441.0 0.002268 220.02734 424.02689
479.0 0.002088 220.01108 423.69119
470.0 0.002128 219.99474 428.95071
471.0 0.002123 219.97839 439.80698
508.0 0.001969 219.96201 455.92526
530.0 0.001887 219.94565 476.55862
538.0 0.001859 219.92923 500.91708
541.0 0.001848 219.91277 528.08105
545.0 0.001835 219.89627 556.85120
516.0 0.001938 219.87981 586.75482
556.0 0.001799 219.86331 615.93201
594.0 0.001684 219.84674 642.55310
604.0 0.001656 219.83014 663.96777
623.0 0.001605 219.81357 678.47192
677.0 0.001477 219.79698 685.58624
694.0 0.001441 219.78030 686.43353
703.0 0.001422 219.76366 683.90765
713.0 0.001403 219.74698 680.58459
711.0 0.001406 219.73026 678.98639
660.0 0.001515 219.71352 680.70514
654.0 0.001529 219.69679 686.42719
666.0 0.001502 219.67999 696.49573
668.0 0.001497 219.66315 710.24182
640.0 0.001563 219.64635 726.14252
724.0 0.001381 219.62947 742.09467
676.0 0.001479 219.61263 754.65131
696.0 0.001437 219.59570 760.64850
703.0 0.001422 219.57878 757.26233
693.0 0.001443 219.56186 743.76550
671.0 0.001490 219.54489 721.37457
702.0 0.001425 219.52789 692.95319
641.0 0.001560 219.51089 661.55634
693.0 0.001443 219.49388 630.06104
618.0 0.001618 219.47684 600.58429
554.0 0.001805 219.45976 574.48676
569.0 0.001757 219.44264 552.69629
507.0 0.001972 219.42554 535.74512
511.0 0.001957 219.40839 523.63800
463.0 0.002160 219.39127 516.06360
439.0 0.002278 219.37405 512.63177
472.0 0.002119 219.35686 511.93457
500.0 0.002000 219.33965 513.39136
502.0 0.001992 219.32239 516.87158
485.0 0.002062 219.30516 522.88611
507.0 0.001972 219.28783 532.45801
534.0 0.001873 219.27057 546.60071
556.0 0.001799 219.25323 566.24902
576.0 0.001736 219.23592 590.60889
630.0 0.001587 219.21858 619.69147
624.0 0.001603 219.20117 651.85736
635.0 0.001575 219.18376 684.52454
680.0 0.001471 219.16634 714.32941
744.0 0.001344 219.14893 737.41754
758.0 0.001319 219.13152 750.55261
737.0 0.001357 219.11401 752.46564
704.0 0.001420 219.09653 743.98779
717.0 0.001395 219.07899 727.60309
709.0 0.001410 219.06146 707.26965
662.0 0.001511 219.04391 685.55994
638.0 0.001567 219.02634 664.95142
610.0 0.001639 219.00876 646.93939
595.0 0.001681 218.99117 632.48688
626.0 0.001597 218.97356 621.70142
631.0 0.001585 218.95595 615.22235
626.0 0.001597 218.93829 612.34778
605.0 0.001653 218.92062 612.01416
625.0 0.001600 218.90292 612.36108
616.0 0.001623 218.88524 611.12744
620.0 0.001613 218.86755 606.25580
584.0 0.001712 218.84981 596.46222
582.0 0.001718 218.83208 581.61951
572.0 0.001748 218.81430 562.51184
532.0 0.001880 218.79649 540.24689
489.0 0.002045 218.77872 516.37000
490.0 0.002041 218.76089 491.66098
473.0 0.002114 218.74306 467.94421
460.0 0.002174 218.72520 445.58408
411.0 0.002433 218.70734 425.12781
422.0 0.002370 218.68950 407.37759
420.0 0.002381 218.67165 392.51617
385.0 0.002597 218.65370 380.58032
390.0 0.002564 218.63580 371.55148
387.0 0.002584 218.61787 365.09769
374.0 0.002674 218.59996 360.76651
380.0 0.002632 218.58200 358.02667
356.0 0.002809 218.56406 356.41119
366.0 0.002732 218.54605 355.63623
403.0 0.002481 218.52806 355.57324
356.0 0.002809 218.51006 356.45679
364.0 0.002747 218.49202 358.33240
366.0 0.002732 218.47400 361.94135
412.0 0.002427 218.45593 367.26868
362.0 0.002762 218.43785 373.61887
377.0 0.002653 218.41985 381.16391
345.0 0.002899 218.40173 389.59174
361.0 0.002770 218.38367 398.60806
382.0 0.002618 218.36555 407.72604
385.0 0.002597 218.34743 416.21884
407.0 0.002457 218.32933 423.26526
419.0 0.002387 218.31117 428.23343
428.0 0.002336 218.29301 430.93774
453.0 0.002208 218.27489 431.86182
428.0 0.002336 218.25671 431.74368
415.0 0.002410 218.23853 431.57135
411.0 0.002433 218.22035 431.62735
434.0 0.002304 218.20213 432.19400
442.0 0.002262 218.18391 433.19608
434.0 0.002304 218.16573 433.87354
444.0 0.002252 218.14751 433.93539
447.0 0.002237 218.12924 432.98682
452.0 0.002212 218.11101 431.02029
421.0 0.002375 218.09273 427.75089
404.0 0.002475 218.07448 424.78595
419.0 0.002387 218.05623 421.81870
429.0 0.002331 218.03795 419.07047
409.0 0.002445 218.01965 416.75528
402.0 0.002488 218.00136 415.16922
404.0 0.002475 217.98306 414.42731
404.0 0.002475 217.96475 414.88669
415.0 0.002410 217.94643 415.87299
413.0 0.002421 217.92812 417.18533
430.0 0.002326 217.90979 418.03787
442.0 0.002262 217.89143 417.88434
438.0 0.002283 217.87311 416.65558
447.0 0.002237 217.85475 414.03842
442.0 0.002262 217.83643 410.39175
425.0 0.002353 217.81802 407.32974
404.0 0.002475 217.79967 405.88348
409.0 0.002445 217.78131 406.55301
408.0 0.002451 217.76289 409.94257
432.0 0.002315 217.74454 416.34296
410.0 0.002439 217.72614 425.84827
429.0 0.002331 217.70775 438.39395
475.0 0.002105 217.68935 452.81699
472.0 0.002119 217.67093 468.19525
487.0 0.002053 217.65254 483.19235
526.0 0.001901 217.63412 496.52097
512.0 0.001953 217.61571 507.05188
534.0 0.001873 217.59732 514.79187
527.0 0.001898 217.57886 520.05701
482.0 0.002075 217.56046 524.10748
535.0 0.001869 217.54201 527.48651
520.0 0.001923 217.52359 530.76984
562.0 0.001779 217.50519 533.61420
529.0 0.001890 217.48671 536.41748
558.0 0.001792 217.46829 539.66376
529.0 0.001890 217.44984 544.52496
556.0 0.001799 217.43143 551.17493
568.0 0.001761 217.41298 560.40607
577.0 0.001733 217.39455 571.78381
598.0 0.001672 217.37608 584.34277
598.0 0.001672 217.35765 595.93805
600.0 0.001667 217.33919 606.06342
673.0 0.001486 217.32074 612.19910
689.0 0.001451 217.30232 613.35052
659.0 0.001517 217.28389 608.97137
576.0 0.001736 217.26540 599.37189
568.0 0.001761 217.24698 585.32458
532.0 0.001880 217.22853 568.37543
496.0 0.002016 217.21010 549.35217
484.0 0.002066 217.19165 529.46906
504.0 0.001984 217.17320 509.80441
500.0 0.002000 217.15477 491.55536
481.0 0.002079 217.13635 475.22409
453.0 0.002208 217.11789 461.43723
441.0 0.002268 217.09947 449.95825
414.0 0.002415 217.08102 441.60315
418.0 0.002392 217.06261 434.31140
426.0 0.002347 217.04417 427.45035
422.0 0.002370 217.02573 420.53339
439.0 0.002278 217.00734 412.60001
422.0 0.002370 216.98891 403.67480
413.0 0.002421 216.97049 393.77658
417.0 0.002398 216.95210 383.67725
371.0 0.002695 216.93365 373.92224
364.0 0.002747 216.91530 365.22385
359.0 0.002786 216.89687 357.66391
349.0 0.002865 216.87849 351.77203
351.0 0.002849 216.86011 347.82208
341.0 0.002933 216.84174 346.23431
343.0 0.002915 216.82335 346.76202
345.0 0.002899 216.80496 349.78400
354.0 0.002825 216.78659 354.69186
350.0 0.002857 216.76825 361.19873
354.0 0.002825 216.74989 369.08710
345.0 0.002899 216.73154 377.37039
362.0 0.002762 216.71318 385.29807
360.0 0.002778 216.69487 392.04431
372.0 0.002688 216.67651 396.82318
377.0 0.002653 216.65822 399.45767
377.0 0.002653 216.63992 400.23175
407.0 0.002457 216.62160 400.19794
369.0 0.002710 216.60326 400.12955
425.0 0.002353 216.58502 400.97577
419.0 0.002387 216.56673 403.35284
396.0 0.002525 216.54846 407.57977
410.0 0.002439 216.53017 413.33563
446.0 0.002242 216.51192 419.94501
437.0 0.002288 216.49371 427.02707
460.0 0.002174 216.47545 433.35251
469.0 0.002132 216.45723 437.72452
469.0 0.002132 216.43900 439.23389
397.0 0.002519 216.42079 437.38397
404.0 0.002475 216.40262 432.34747
426.0 0.002347 216.38441 424.67999
402.0 0.002488 216.36624 415.33258
389.0 0.002571 216.34805 405.31223
388.0 0.002577 216.32993 396.08759
387.0 0.002584 216.31175 388.43558
387.0 0.002584 216.29364 383.01743
385.0 0.002597 216.27554 380.26474
370.0 0.002703 216.25740 380.29752
345.0 0.002899 216.23933 382.86798
382.0 0.002618 216.22125 387.86237
397.0 0.002519 216.20317 394.64606
404.0 0.002475 216.18512 402.60068
434.0 0.002304 216.16707 411.00034
475.0 0.002105 216.14905 419.27878
453.0 0.002208 216.13104 426.96863
452.0 0.002212 216.11307 433.68689
449.0 0.002227 216.09505 438.97485
470.0 0.002128 216.07704 442.94415
464.0 0.002155 216.05910 445.50607
439.0 0.002278 216.04117 447.36020
440.0 0.002273 216.02325 449.21143
432.0 0.002315 216.00533 451.85886
450.0 0.002222 215.98743 455.86664
453.0 0.002208 215.96953 461.51382
454.0 0.002203 215.95168 468.61411
447.0 0.002237 215.93382 476.79611
457.0 0.002188 215.91599 485.56610
473.0 0.002114 215.89818 494.61459
468.0 0.002137 215.88037 503.78412
477.0 0.002096 215.86258 513.12445
502.0 0.001992 215.84482 522.51166
525.0 0.001905 215.82707 532.34985
535.0 0.001869 215.80934 542.32642
530.0 0.001887 215.79163 551.83630
540.0 0.001852 215.77394 560.35529
597.0 0.001675 215.75626 567.32874
608.0 0.001645 215.73860 572.31244
629.0 0.001590 215.72093 575.01019
635.0 0.001575 215.70332 574.92310
617.0 0.001621 215.68573 572.35352
586.0 0.001706 215.66814 566.84424
600.0 0.001667 215.65056 558.63104
564.0 0.001773 215.63303 548.35730
529.0 0.001890 215.61548 537.25641
506.0 0.001976 215.59804 526.71436
491.0 0.002037 215.58054 517.90491
493.0 0.002028 215.56305 512.23547
485.0 0.002062 215.54562 510.07983
484.0 0.002066 215.52820 512.22198
505.0 0.001980 215.51082 518.03064
498.0 0.002008 215.49345 527.63214
528.0 0.001894 215.47612 539.96600
541.0 0.001848 215.45877 554.24158
609.0 0.001642 215.44147 569.53339
578.0 0.001730 215.42418 586.08820
617.0 0.001621 215.40691 601.72754
618.0 0.001618 215.38968 616.42676
691.0 0.001447 215.37244 629.24915
661.0 0.001513 215.35524 639.17676
694.0 0.001441 215.33810 645.38025
691.0 0.001447 215.32095 647.48883
653.0 0.001531 215.30383 645.57898
644.0 0.001553 215.28674 640.41254
624.0 0.001603 215.26964 633.70148
621.0 0.001610 215.25261 625.53699
646.0 0.001548 215.23558 617.52722
596.0 0.001678 215.21861 610.35510
620.0 0.001613 215.20163 603.99310
605.0 0.001653 215.18468 598.60522
602.0 0.001661 215.16777 594.05609
577.0 0.001733 215.15086 590.27203
597.0 0.001675 215.13403 586.24127
616.0 0.001623 215.11714 581.88300
616.0 0.001623 215.10037 576.40240
593.0 0.001686 215.08360 568.96448
557.0 0.001795 215.06683 559.12878
576.0 0.001736 215.05013 546.83350
546.0 0.001832 215.03342 532.30469
556.0 0.001799 215.01674 516.25952
496.0 0.002016 215.00009 499.61554
446.0 0.002242 214.98346 482.71252
459.0 0.002179 214.96689 466.23376
435.0 0.002299 214.95032 450.40317
429.0 0.002331 214.93379 436.05960
434.0 0.002304 214.91731 422.90314
423.0 0.002364 214.90082 410.60162
415.0 0.002410 214.88441 399.18210
400.0 0.002500 214.86798 388.28647
387.0 0.002584 214.85158 377.82452
383.0 0.002611 214.83528 367.67545
371.0 0.002695 214.81894 357.63132
353.0 0.002833 214.80269 347.73029
336.0 0.002976 214.78641 338.06339
313.0 0.003195 214.77017 328.78043
319.0 0.003135 214.75403 319.53503
331.0 0.003021 214.73784 311.12881
306.0 0.003268 214.72169 303.58841
285.0 0.00351 214.70561 296.78659
301.0 0.003322 214.68953 290.87613
283.0 0.00353 214.67354 286.17221
299.0 0.003344 214.65755 282.54105
273.0 0.00366 214.64157 280.01059
286.0 0.003497 214.62564 278.37125
302.0 0.003311 214.60973 277.59177
320.0 0.003125 214.59392 277.55362
291.0 0.003436 214.57806 278.10147
281.0 0.00356 214.56229 279.07211
277.0 0.00361 214.54652 280.24014
299.0 0.003344 214.53079 281.40811
314.0 0.003185 214.51512 282.31937
298.0 0.003356 214.49947 282.56628
261.0 0.00383 214.48387 282.36731
302.0 0.003311 214.46826 281.61252
328.0 0.003049 214.45270 280.24591
304.0 0.003289 214.43724 278.41718
312.0 0.003205 214.42175 276.38480
289.0 0.003460 214.40636 274.59650
276.0 0.00362 214.39093 273.09711
277.0 0.00361 214.37552 272.03857
283.0 0.00353 214.36024 271.51901
265.0 0.00377 214.34496 271.58206
262.0 0.00382 214.32970 272.41547
256.0 0.00391 214.31450 273.63522
278.0 0.00360 214.29932 275.37778
339.0 0.002950 214.28419 277.31351
294.0 0.003401 214.26912 279.73001
312.0 0.003205 214.25404 282.28616
302.0 0.003311 214.23906 284.74228
315.0 0.003175 214.22406 287.16409
314.0 0.003185 214.20911 289.35336
315.0 0.003175 214.19424 291.16739
282.0 0.00355 214.17938 292.71338
305.0 0.003279 214.16457 294.25421
295.0 0.003390 214.14980 295.95157
312.0 0.003205 214.13504 297.88129
332.0 0.003012 214.12035 300.81345
326.0 0.003067 214.10571 304.79044
317.0 0.003155 214.09111 309.91769
329.0 0.003040 214.07654 316.94183
341.0 0.002933 214.06201 325.83832
339.0 0.002950 214.04753 337.18463
348.0 0.002874 214.03308 351.14328
375.0 0.002667 214.01868 368.01678
395.0 0.002532 214.00433 387.92590
388.0 0.002577 213.99004 410.83896
428.0 0.002336 213.97575 436.60019
467.0 0.002141 213.96153 464.63110
481.0 0.002079 213.94731 494.39807
518.0 0.001931 213.93320 524.46545
576.0 0.001736 213.91911 553.44922
585.0 0.001709 213.90503 579.96741
589.0 0.001698 213.89104 602.86383
586.0 0.001706 213.87708 620.99249
614.0 0.001629 213.86314 634.55640
651.0 0.001536 213.84927 644.95465
649.0 0.001541 213.83548 653.49841
606.0 0.001650 213.82170 661.42438
661.0 0.001513 213.80792 669.02161
700.0 0.001429 213.79422 677.52966
698.0 0.001433 213.78061 685.58649
713.0 0.001403 213.76701 692.56763
713.0 0.001403 213.75346 697.85260
688.0 0.001453 213.73994 700.77338
695.0 0.001439 213.72649 701.36810
681.0 0.001468 213.71309 699.78375
656.0 0.001524 213.69971 695.67981
659.0 0.001517 213.68640 688.93140
681.0 0.001468 213.67313 679.93530
664.0 0.001506 213.65990 668.28375
627.0 0.001595 213.64673 654.43933
631.0 0.001585 213.63362 639.11249
606.0 0.001650 213.62054 623.07562
570.0 0.001754 213.60750 607.55139
571.0 0.001751 213.59453 592.73767
612.0 0.001634 213.58160 579.31378
585.0 0.001709 213.56874 566.90942
561.0 0.001783 213.55589 554.87329
565.0 0.001770 213.54314 542.68744
561.0 0.001783 213.53041 529.93634
554.0 0.001805 213.51775 516.64825
481.0 0.002079 213.50511 503.04184
477.0 0.002096 213.49251 489.43469
446.0 0.002242 213.47998 476.06726
469.0 0.002132 213.46751 463.48633
471.0 0.002123 213.45511 451.79626
436.0 0.002294 213.44269 440.96863
460.0 0.002174 213.43040 431.02765
412.0 0.002427 213.41812 421.81708
412.0 0.002427 213.40591 413.59338
410.0 0.002439 213.39375 406.44281
395.0 0.002532 213.38165 400.61191
404.0 0.002475 213.36960 396.49985
401.0 0.002494 213.35756 394.31693
376.0 0.002660 213.34564 394.59341
402.0 0.002488 213.33372 396.74387
420.0 0.002381 213.32185 401.06583
428.0 0.002336 213.31010 407.48517
421.0 0.002375 213.29834 415.72095
433.0 0.002309 213.28664 425.47064
433.0 0.002309 213.27502 436.31470
462.0 0.002165 213.26344 447.88281
471.0 0.002123 213.25191 459.84973
474.0 0.002110 213.24048 472.08423
488.0 0.002049 213.22905 484.00116
480.0 0.002083 213.21770 495.29309
496.0 0.002016 213.20641 505.36258
495.0 0.002020 213.19514 513.38354
495.0 0.002020 213.18399 518.71204
522.0 0.001916 213.17282 520.72717
536.0 0.001866 213.16176 519.17853
553.0 0.001808 213.15073 514.22980
529.0 0.001890 213.13976 506.17719
506.0 0.001976 213.12885 495.79260
510.0 0.001961 213.11800 484.00735
488.0 0.002049 213.10721 471.73746
477.0 0.002096 213.09647 459.79581
469.0 0.002132 213.08580 448.87491
457.0 0.002188 213.07520 439.43304
438.0 0.002283 213.06462 431.80573
424.0 0.002358 213.05412 426.23926
420.0 0.002381 213.04367 422.77948
423.0 0.002364 213.03329 420.74683
424.0 0.002358 213.02295 419.92471
450.0 0.002222 213.01266 419.78580
438.0 0.002283 213.00244 419.78033
477.0 0.002096 212.99231 419.54837
439.0 0.002278 212.98222 418.85611
456.0 0.002193 212.97217 417.77435
456.0 0.002193 212.96220 416.39545
428.0 0.002336 212.95232 415.03668
459.0 0.002179 212.94244 413.93796
410.0 0.002439 212.93265 413.23764
421.0 0.002375 212.92291 412.91519
428.0 0.002336 212.91324 412.71960
435.0 0.002299 212.90364 412.20624
460.0 0.002174 212.89406 410.87646
451.0 0.002217 212.88457 408.31335
449.0 0.002227 212.87514 404.57382
481.0 0.002079 212.86580 399.56976
465.0 0.002151 212.85646 393.82782
436.0 0.002294 212.84720 387.80902
435.0 0.002299 212.83804 381.96808
477.0 0.002096 212.82892 376.63272
450.0 0.002222 212.81987 372.06451
422.0 0.002370 212.81087 368.46228
420.0 0.002381 212.80193 366.05579
390.0 0.002564 212.79306 365.01721
396.0 0.002525 212.78426 365.49002
421.0 0.002375 212.77551 367.51657
393.0 0.002545 212.76683 370.35822
415.0 0.002410 212.75819 375.17313
419.0 0.002387 212.74965 381.03058
407.0 0.002457 212.74118 387.70084
427.0 0.002342 212.73274 395.06256
467.0 0.002141 212.72438 403.25745
483.0 0.002070 212.71608 411.98822
457.0 0.002188 212.70784 421.41202
452.0 0.002212 212.69971 431.62531
502.0 0.001992 212.69159 441.95291
499.0 0.002004 212.68355 453.05219
491.0 0.002037 212.67555 464.12378
489.0 0.002045 212.66769 474.69052
493.0 0.002028 212.65981 484.16769
514.0 0.001946 212.65202 492.36993
512.0 0.001953 212.64430 498.86996
501.0 0.001996 212.63672 503.13992
496.0 0.002016 212.62907 506.27655
524.0 0.001908 212.62157 508.22256
506.0 0.001976 212.61412 509.54367
548.0 0.001825 212.60674 510.80673
546.0 0.001832 212.59941 512.39813
546.0 0.001832 212.59219 514.52380
561.0 0.001783 212.58498 516.68506
578.0 0.001730 212.57788 518.58734
563.0 0.001776 212.57085 519.92065
543.0 0.001842 212.56386 520.27643
496.0 0.002016 212.55695 519.60492
540.0 0.001852 212.55009 517.98450
537.0 0.001862 212.54330 515.43268
517.0 0.001934 212.53662 511.93741
535.0 0.001869 212.52998 507.54456
491.0 0.002037 212.52339 502.40735
510.0 0.001961 212.51688 496.88391
504.0 0.001984 212.51048 491.44479
483.0 0.002070 212.50409 486.57764
440.0 0.002273 212.49780 482.43143
482.0 0.002075 212.49156 479.77625
438.0 0.002283 212.48541 478.32916
501.0 0.001996 212.47932 477.79895
487.0 0.002053 212.47331 477.66074
477.0 0.002096 212.46733 477.21185
463.0 0.002160 212.46149 475.88800
487.0 0.002053 212.45564 473.38809
468.0 0.002137 212.44989 469.57874
434.0 0.002304 212.44421 464.67035
412.0 0.002427 212.43863 459.06049
464.0 0.002155 212.43312 453.23856
439.0 0.002278 212.42764 447.76959
447.0 0.002237 212.42223 443.20828
473.0 0.002114 212.41693 440.06329
481.0 0.002079 212.41168 438.70679
457.0 0.002188 212.40648 439.54462
431.0 0.002320 212.40138 442.26266
429.0 0.002331 212.39633 446.88635
425.0 0.002353 212.39139 452.88281
443.0 0.002257 212.38649 459.59390
469.0 0.002132 212.38167 466.06552
496.0 0.002016 212.37691 471.30331
482.0 0.002075 212.37222 474.45264
488.0 0.002049 212.36765 474.85757
479.0 0.002088 212.36310 472.99612
450.0 0.002222 212.35864 469.11389
489.0 0.002045 212.35422 463.86469
450.0 0.002222 212.34993 457.84323
434.0 0.002304 212.34570 451.65924
455.0 0.002198 212.34151 445.30173
447.0 0.002237 212.33739 439.31509
451.0 0.002217 212.33336 433.44543
452.0 0.002212 212.32942 427.96310
454.0 0.002203 212.32555 422.89365
445.0 0.002247 212.32173 418.71506
419.0 0.002387 212.31801 415.81107
406.0 0.002463 212.31435 413.93579
381.0 0.002625 212.31075 413.41498
399.0 0.002506 212.30728 413.85162
442.0 0.002262 212.30379 415.29828
455.0 0.002198 212.30043 417.35712
428.0 0.002336 212.29713 420.22070
423.0 0.002364 212.29391 423.68677
445.0 0.002247 212.29077 427.65314
456.0 0.002193 212.28767 431.87524
435.0 0.002299 212.28471 435.81403
431.0 0.002320 212.28177 438.88138
452.0 0.002212 212.27893 440.18835
442.0 0.002262 212.27618 439.00171
434.0 0.002304 212.27348 434.78375
464.0 0.002155 212.27089 427.58267
458.0 0.002183 212.26831 417.80740
434.0 0.002304 212.26584 406.25510
440.0 0.002273 212.26343 393.81876
423.0 0.002364 212.26112 381.17148
406.0 0.002463 212.25887 369.18817
361.0 0.002770 212.25668 358.26865
374.0 0.002674 212.25459 348.75485
345.0 0.002899 212.25258 341.01004
331.0 0.003021 212.25064 335.27304
336.0 0.002976 212.24876 330.88708
297.0 0.003367 212.24696 328.00769
349.0 0.002865 212.24527 326.34866
312.0 0.003205 212.24359 325.32306
316.0 0.003165 212.24203 324.58844
351.0 0.002849 212.24059 323.56064
306.0 0.003268 212.23914 322.23111
335.0 0.002985 212.23782 320.36612
332.0 0.003012 212.23657 318.00504
334.0 0.002994 212.23538 315.49579
325.0 0.003077 212.23428 313.03033
315.0 0.003175 212.23325 310.86618
311.0 0.003215 212.23230 309.38141
329.0 0.003040 212.23143 308.79398
333.0 0.003003 212.23067 309.31061
319.0 0.003135 212.22990 310.95166
322.0 0.003106 212.22926 313.68594
292.0 0.003425 212.22873 317.51254
321.0 0.003115 212.22821 321.86707
317.0 0.003155 212.22780 326.63361
307.0 0.003257 212.22743 331.14304
305.0 0.003279 212.22720 334.99112
302.0 0.003311 212.22701 337.58081
321.0 0.003115 212.22693 338.73587
332.0 0.003012 212.22691 338.32733
336.0 0.002976 212.22697 336.62726
351.0 0.002849 212.22708 334.01053
356.0 0.002809 212.22729 331.13647
339.0 0.002950 212.22758 328.37390
316.0 0.003165 212.22794 326.34909
314.0 0.003185 212.22838 325.10245
318.0 0.003145 212.22891 325.03204
318.0 0.003145 212.22952 326.16824
332.0 0.003012 212.23019 328.77963
331.0 0.003021 212.23093 332.76129
325.0 0.003077 212.23178 337.80145
329.0 0.003040 212.23265 344.01682
346.0 0.002890 212.23366 350.83875
358.0 0.002793 212.23474 357.73523
349.0 0.002865 212.23589 364.13226
356.0 0.002809 212.23712 369.42236
373.0 0.002681 212.23842 373.12518
397.0 0.002519 212.23982 374.93420
381.0 0.002625 212.24127 374.37106
370.0 0.002703 212.24281 371.88583
373.0 0.002681 212.24446 367.50513
364.0 0.002747 212.24614 361.61835
375.0 0.002667 212.24791 354.70068
354.0 0.002825 212.24979 347.22888
340.0 0.002941 212.25172 339.60690
358.0 0.002793 212.25371 332.74014
321.0 0.003115 212.25578 326.75064
306.0 0.003268 212.25801 321.87924
293.0 0.003413 212.26024 318.49881
304.0 0.003289 212.26260 316.59390
309.0 0.003236 212.26498 316.19379
339.0 0.002950 212.26749 317.21240
315.0 0.003175 212.27005 319.50946
282.0 0.00355 212.27271 322.89191
302.0 0.003311 212.27542 327.14410
336.0 0.002976 212.27824 331.92380
340.0 0.002941 212.28113 337.04504
362.0 0.002762 212.28407 342.41315
330.0 0.003030 212.28714 347.73770
372.0 0.002688 212.29028 352.84894
369.0 0.002710 212.29347 357.87140
378.0 0.002646 212.29677 362.22501
408.0 0.002451 212.30011 366.01202
367.0 0.002725 212.30354 368.71750
380.0 0.002632 212.30708 370.07462
389.0 0.002571 212.31071 369.96445
384.0 0.002604 212.31439 368.36676
400.0 0.002500 212.31813 365.56189
372.0 0.002688 212.32196 362.02713
361.0 0.002770 212.32591 358.34314
358.0 0.002793 212.32990 355.12030
356.0 0.002809 212.33398 352.87930
345.0 0.002899 212.33815 351.77310
320.0 0.003125 212.34239 352.74103
308.0 0.003247 212.34674 355.30313
329.0 0.003040 212.35110 359.55820
359.0 0.002786 212.35561 365.27213
365.0 0.002740 212.36017 372.14355
357.0 0.002801 212.36478 379.72461
391.0 0.002558 212.36949 387.29550
416.0 0.002404 212.37433 394.27097
425.0 0.002353 212.37921 399.90958
415.0 0.002410 212.38414 403.87357
399.0 0.002506 212.38918 405.63989
399.0 0.002506 212.39432 404.92221
399.0 0.002506 212.39948 401.78619
400.0 0.002500 212.40479 396.56009
370.0 0.002703 212.41016 389.76361
384.0 0.002604 212.41556 382.14325
404.0 0.002475 212.42114 374.42056
375.0 0.002667 212.42670 367.34723
354.0 0.002825 212.43239 361.58392
335.0 0.002985 212.43816 357.37692
343.0 0.002915 212.44398 355.18588
352.0 0.002841 212.44989 355.15839
349.0 0.002865 212.45589 357.42563
359.0 0.002786 212.46198 362.02145
371.0 0.002695 212.46812 368.92905
406.0 0.002463 212.47435 377.92044
392.0 0.002551 212.48067 388.99255
402.0 0.002488 212.48706 402.02011
417.0 0.002398 212.49356 416.87704
420.0 0.002381 212.50014 433.25397
439.0 0.002278 212.50674 450.93124
496.0 0.002016 212.51347 469.72058
499.0 0.002004 212.52025 489.16898
537.0 0.001862 212.52716 508.86108
568.0 0.001761 212.53409 528.06561
591.0 0.001692 212.54114 545.98291
557.0 0.001795 212.54825 561.64545
607.0 0.001647 212.55544 574.36719
562.0 0.001779 212.56268 583.59833
617.0 0.001621 212.57004 589.36255
546.0 0.001832 212.57748 591.92590
596.0 0.001678 212.58499 591.82385
548.0 0.001825 212.59256 589.59607
610.0 0.001639 212.60025 585.74335
530.0 0.001887 212.60802 580.22687
545.0 0.001835 212.61581 573.44965
522.0 0.001916 212.62372 565.47565
563.0 0.001776 212.63173 556.59082
579.0 0.001727 212.63977 547.19427
533.0 0.001876 212.64795 537.78790
531.0 0.001883 212.65616 528.89117
498.0 0.002008 212.66444 521.01538
504.0 0.001984 212.67285 514.00659
522.0 0.001916 212.68127 507.97058
528.0 0.001894 212.68985 502.72906
513.0 0.001949 212.69844 498.08768
502.0 0.001992 212.70715 493.78119
496.0 0.002016 212.71593 489.78796
473.0 0.002114 212.72479 486.10355
475.0 0.002105 212.73373 482.74591
487.0 0.002053 212.74269 479.61343
487.0 0.002053 212.75179 476.67004
476.0 0.002101 212.76097 473.41949
482.0 0.002075 212.77025 469.62265
461.0 0.002169 212.77954 464.62918
450.0 0.002222 212.78894 458.31491
443.0 0.002257 212.79845 450.30414
419.0 0.002387 212.80797 440.77438
408.0 0.002451 212.81764 430.00140
420.0 0.002381 212.82736 418.44534
402.0 0.002488 212.83714 406.80783
378.0 0.002646 212.84705 395.41605
379.0 0.002639 212.85695 384.88657
362.0 0.002762 212.86697 375.58658
379.0 0.002639 212.87711 367.79349
378.0 0.002646 212.88727 361.62933
363.0 0.002755 212.89755 357.06403
350.0 0.002857 212.90788 353.95844
362.0 0.002762 212.91827 351.99234
340.0 0.002941 212.92876 350.96652
358.0 0.002793 212.93936 350.44824
364.0 0.002747 212.95000 350.09653
349.0 0.002865 212.96071 349.43161
330.0 0.003030 212.97151 348.33405
336.0 0.002976 212.98239 346.66248
316.0 0.003165 212.99335 344.32718
318.0 0.003145 213.00439 341.50983
340.0 0.002941 213.01552 338.50360
294.0 0.003401 213.02672 335.64178
322.0 0.003106 213.03798 333.32739
301.0 0.003322 213.04932 331.79230
327.0 0.003058 213.06073 331.36273
319.0 0.003135 213.07219 332.24561
286.0 0.003497 213.08377 334.55444
327.0 0.003058 213.09543 338.30585
357.0 0.002801 213.10713 343.39346
347.0 0.002882 213.11896 349.73505
378.0 0.002646 213.13080 356.93661
354.0 0.002825 213.14278 364.70663
351.0 0.002849 213.15480 372.52908
398.0 0.002513 213.16687 380.14862
377.0 0.002653 213.17903 386.95099
406.0 0.002463 213.19133 392.59784
404.0 0.002475 213.20366 396.93222
398.0 0.002513 213.21605 399.84036
381.0 0.002625 213.22852 401.57651
401.0 0.002494 213.24107 402.49789
390.0 0.002564 213.25368 402.86295
372.0 0.002688 213.26643 403.48434
382.0 0.002618 213.27919 404.43909
383.0 0.002611 213.29201 406.02588
390.0 0.002564 213.30498 408.30768
407.0 0.002457 213.31795 410.98376
415.0 0.002410 213.33104 413.83044
434.0 0.002304 213.34418 416.47885
429.0 0.002331 213.35742 418.62604
428.0 0.002336 213.37070 420.04376
420.0 0.002381 213.38406 420.73016
424.0 0.002358 213.39754 421.05222
415.0 0.002410 213.41104 420.70364
430.0 0.002326 213.42461 420.09274
449.0 0.002227 213.43832 419.43875
439.0 0.002278 213.45204 419.32123
402.0 0.002488 213.46585 418.94717
390.0 0.002564 213.47974 419.01611
423.0 0.002364 213.49368 419.49539
446.0 0.002242 213.50771 420.62881
435.0 0.002299 213.52182 422.29483
426.0 0.002347 213.53603 424.24023
440.0 0.002273 213.55026 426.53436
466.0 0.002146 213.56459 428.73679
442.0 0.002262 213.57898 430.46002
425.0 0.002353 213.59344 431.45554
443.0 0.002257 213.60799 431.56055
490.0 0.002041 213.62257 430.74213
470.0 0.002128 213.63725 429.09149
433.0 0.002309 213.65202 426.76587
458.0 0.002183 213.66684 424.07864
413.0 0.002421 213.68175 421.10028
393.0 0.002545 213.69670 417.73468
400.0 0.002500 213.71173 414.18900
415.0 0.002410 213.72684 410.82779
406.0 0.002463 213.74203 407.26971
404.0 0.002475 213.75729 403.96344
386.0 0.002591 213.77260 401.14673
405.0 0.002469 213.78796 398.98688
392.0 0.002551 213.80348 397.75696
393.0 0.002545 213.81897 397.48450
407.0 0.002457 213.83459 398.15222
396.0 0.002525 213.85023 399.66110
403.0 0.002481 213.86598 401.85410
394.0 0.002538 213.88182 404.56134
414.0 0.002415 213.89771 407.36234
416.0 0.002404 213.91365 410.62946
416.0 0.002404 213.92964 413.76474
408.0 0.002451 213.94572 416.96411
408.0 0.002451 213.96190 420.03738
439.0 0.002278 213.97810 422.68201
425.0 0.002353 213.99443 424.81668
432.0 0.002315 214.01080 426.51419
455.0 0.002198 214.02722 427.81033
405.0 0.002469 214.04373 428.97324
395.0 0.002532 214.06027 430.40805
414.0 0.002415 214.07692 432.03799
433.0 0.002309 214.09361 434.16577
425.0 0.002353 214.11037 436.63525
410.0 0.002439 214.12721 439.40146
463.0 0.002160 214.14412 442.40070
435.0 0.002299 214.16110 445.65381
450.0 0.002222 214.17812 449.16983
445.0 0.002247 214.19521 452.86472
448.0 0.002232 214.21239 457.02786
464.0 0.002155 214.22961 461.21286
448.0 0.002232 214.24692 465.35129
451.0 0.002217 214.26431 468.95703
468.0 0.002137 214.28171 471.62900
480.0 0.002083 214.29921 473.17584
459.0 0.002179 214.31676 472.73639
479.0 0.002088 214.33441 470.49777
485.0 0.002062 214.35210 466.50589
472.0 0.002119 214.36986 461.07413
465.0 0.002151 214.38768 454.42374
436.0 0.002294 214.40558 446.86954
441.0 0.002268 214.42354 439.04306
441.0 0.002268 214.44157 431.20163
403.0 0.002481 214.45961 423.80402
399.0 0.002506 214.47778 416.98352
385.0 0.002597 214.49597 411.13367
377.0 0.002653 214.51427 406.47043
391.0 0.002558 214.53261 403.08948
390.0 0.002564 214.55098 400.99625
396.0 0.002525 214.56943 400.01205
424.0 0.002358 214.58798 399.84003
421.0 0.002375 214.60658 400.08920
402.0 0.002488 214.62520 400.30670
401.0 0.002494 214.64392 400.21945
416.0 0.002404 214.66269 399.19040
403.0 0.002481 214.68150 397.06296
395.0 0.002532 214.70041 393.83362
365.0 0.002740 214.71942 389.85626
369.0 0.002710 214.73840 384.93204
375.0 0.002667 214.75749 379.49243
365.0 0.002740 214.77661 373.88120
357.0 0.002801 214.79581 368.32214
355.0 0.002817 214.81508 363.10895
347.0 0.002882 214.83440 358.47235
378.0 0.002646 214.85378 354.43344
324.0 0.003086 214.87325 351.14648
329.0 0.003040 214.89275 348.81342
326.0 0.003067 214.91229 347.22275
373.0 0.002681 214.93190 346.44739
363.0 0.002755 214.95160 346.40482
359.0 0.002786 214.97134 346.99121
360.0 0.002778 214.99112 348.07883
357.0 0.002801 215.01099 349.62781
358.0 0.002793 215.03088 351.56363
361.0 0.002770 215.05087 353.87823
374.0 0.002674 215.07091 356.41818
350.0 0.002857 215.09100 359.67633
300.0 0.003333 215.11115 363.61609
372.0 0.002688 215.13133 368.34048
345.0 0.002899 215.15160 374.22086
361.0 0.002770 215.17189 381.35513
355.0 0.002817 215.19228 389.88092
394.0 0.002538 215.21271 399.85693
388.0 0.002577 215.23317 411.30624
425.0 0.002353 215.25372 424.14441
439.0 0.002278 215.27432 438.23337
432.0 0.002315 215.29498 453.39880
487.0 0.002053 215.31569 469.31033
508.0 0.001969 215.33644 485.31366
538.0 0.001859 215.35727 501.33630
591.0 0.001692 215.37816 516.41913
589.0 0.001698 215.39908 529.84760
608.0 0.001645 215.42004 540.84711
601.0 0.001664 215.44110 548.80170
625.0 0.001600 215.46216 553.18085
627.0 0.001595 215.48331 553.92639
583.0 0.001715 215.50450 551.03986
553.0 0.001808 215.52577 545.08417
529.0 0.001890 215.54706 536.80377
499.0 0.002004 215.56844 527.23969
493.0 0.002028 215.58981 517.42126
483.0 0.002070 215.61130 508.30838
469.0 0.002132 215.63284 500.53220
463.0 0.002160 215.65434 494.71411
471.0 0.002123 215.67595 491.09595
482.0 0.002075 215.69766 489.58121
460.0 0.002174 215.71939 490.18610
461.0 0.002169 215.74113 492.56772
487.0 0.002053 215.76292 496.05673
516.0 0.001938 215.78481 499.86774
519.0 0.001927 215.80673 503.26263
519.0 0.001927 215.82872 505.43262
530.0 0.001887 215.85072 505.72739
520.0 0.001923 215.87279 503.98065
534.0 0.001873 215.89491 499.76526
523.0 0.001912 215.91705 493.26379
541.0 0.001848 215.93932 485.09952
509.0 0.001965 215.96155 475.62576
468.0 0.002137 215.98386 465.51074
441.0 0.002268 216.00626 455.32617
442.0 0.002262 216.02864 445.61285
443.0 0.002257 216.05113 436.82068
455.0 0.002198 216.07361 429.17712
401.0 0.002494 216.09615 422.77441
430.0 0.002326 216.11876 417.71664
442.0 0.002262 216.14139 413.80359
412.0 0.002427 216.16411 410.77002
399.0 0.002506 216.18684 408.43124
396.0 0.002525 216.20959 406.46622
385.0 0.002597 216.23244 404.56174
384.0 0.002604 216.25531 402.52408
393.0 0.002545 216.27824 400.14844
418.0 0.002392 216.30122 397.79541
403.0 0.002481 216.32419 395.52737
404.0 0.002475 216.34726 393.61230
422.0 0.002370 216.37033 392.22772
376.0 0.002660 216.39349 391.62097
385.0 0.002597 216.41670 392.04651
368.0 0.002717 216.43993 393.55295
398.0 0.002513 216.46321 396.27106
374.0 0.002674 216.48650 400.01843
368.0 0.002717 216.50986 405.06772
386.0 0.002591 216.53325 411.09787
378.0 0.002646 216.55670 417.78680
397.0 0.002519 216.58020 424.84448
418.0 0.002392 216.60371 431.95273
468.0 0.002137 216.62730 438.72281
516.0 0.001938 216.65091 444.57379
484.0 0.002066 216.67451 448.98477
472.0 0.002119 216.69824 451.93448
491.0 0.002037 216.72200 453.09485
494.0 0.002024 216.74577 452.71848
467.0 0.002141 216.76958 450.98944
472.0 0.002119 216.79341 448.62863
479.0 0.002088 216.81732 445.94693
446.0 0.002242 216.84123 443.75879
456.0 0.002193 216.86522 441.86121
461.0 0.002169 216.88924 440.72293
464.0 0.002155 216.91325 440.30124
465.0 0.002151 216.93735 440.95773
466.0 0.002146 216.96144 442.49124
457.0 0.002188 216.98566 445.04303
450.0 0.002222 217.00983 448.66571
466.0 0.002146 217.03406 453.35736
464.0 0.002155 217.05836 458.92236
461.0 0.002169 217.08263 465.14526
466.0 0.002146 217.10699 471.69931
488.0 0.002049 217.13138 477.95529
507.0 0.001972 217.15578 483.51978
499.0 0.002004 217.18025 487.79761
466.0 0.002146 217.20471 490.17514
470.0 0.002128 217.22926 490.65753
450.0 0.002222 217.25385 488.94708
449.0 0.002227 217.27840 485.06213
510.0 0.001961 217.30302 479.33545
465.0 0.002151 217.32768 472.22882
430.0 0.002326 217.35240 463.93561
496.0 0.002016 217.37712 455.02609
455.0 0.002198 217.40187 445.74405
470.0 0.002128 217.42665 436.50299
471.0 0.002123 217.45149 427.39484
444.0 0.002252 217.47636 418.61630
409.0 0.002445 217.50128 410.31097
416.0 0.002404 217.52617 402.60156
407.0 0.002457 217.55113 395.54373
391.0 0.002558 217.57613 389.11636
363.0 0.002755 217.60115 383.51025
354.0 0.002825 217.62619 378.30896
379.0 0.002639 217.65128 373.42310
368.0 0.002717 217.67635 368.70764
326.0 0.003067 217.70152 363.93616
360.0 0.002778 217.72668 358.90930
335.0 0.002985 217.75188 353.47861
336.0 0.002976 217.77710 347.74060
351.0 0.002849 217.80240 341.93130
339.0 0.002950 217.82764 335.84848
329.0 0.003040 217.85298 329.63501
324.0 0.003086 217.87831 323.59091
324.0 0.003086 217.90367 317.81619
294.0 0.003401 217.92906 312.24088
319.0 0.003135 217.95447 306.89740
309.0 0.003236 217.97998 302.02148
295.0 0.003390 218.00543 297.34003
306.0 0.003268 218.03091 293.06409
283.0 0.00353 218.05647 289.01831
270.0 0.00370 218.08203 285.36008
262.0 0.00382 218.10760 282.12497
279.0 0.00358 218.13326 279.04553
281.0 0.00356 218.15884 276.52094
278.0 0.00360 218.18454 274.36871
267.0 0.00375 218.21019 272.55899
265.0 0.00377 218.23592 270.71176
267.0 0.00375 218.26166 269.63315
250.0 0.00400 218.28740 268.86972
249.0 0.00402 218.31319 268.49536
282.0 0.00355 218.33900 268.28204
282.0 0.00355 218.36482 268.20456
275.0 0.00364 218.39070 268.26062
262.0 0.00382 218.41653 268.45038
272.0 0.00368 218.44241 268.68457
275.0 0.00364 218.46832 269.08521
269.0 0.00372 218.49429 269.72900
268.0 0.00373 218.52022 270.57098
258.0 0.00388 218.54617 271.73776
263.0 0.00380 218.57220 273.34448
267.0 0.00375 218.59824 275.36639
279.0 0.00358 218.62427 277.80411
273.0 0.00366 218.65034 280.71646
278.0 0.00360 218.67638 284.42630
293.0 0.003413 218.70251 288.68549
277.0 0.00361 218.72864 293.27155
297.0 0.003367 218.75479 298.63785
305.0 0.003279 218.78096 304.48499
312.0 0.003205 218.80708 310.58658
276.0 0.00362 218.83331 316.85837
312.0 0.003205 218.85948 323.19418
312.0 0.003205 218.88574 329.42471
329.0 0.003040 218.91197 335.53000
342.0 0.002924 218.93819 341.18301
332.0 0.003012 218.96449 346.46121
344.0 0.002907 218.99080 351.28674
334.0 0.002994 219.01715 355.80569
335.0 0.002985 219.04346 359.92667
377.0 0.002653 219.06976 363.67371
353.0 0.002833 219.09612 367.00949
388.0 0.002577 219.12251 369.88373
354.0 0.002825 219.14894 371.92856
380.0 0.002632 219.17532 373.21613
379.0 0.002639 219.20172 373.53415
373.0 0.002681 219.22818 372.86142
376.0 0.002660 219.25456 371.26660
362.0 0.002762 219.28107 368.91904
359.0 0.002786 219.30756 366.15512
388.0 0.002577 219.33400 363.16492
365.0 0.002740 219.36052 360.35349
364.0 0.002747 219.38702 357.75565
382.0 0.002618 219.41357 355.64297
363.0 0.002755 219.44009 354.19693
330.0 0.003030 219.46663 353.45734
343.0 0.002915 219.49319 353.47684
336.0 0.002976 219.51973 354.37274
365.0 0.002740 219.54633 356.11700
365.0 0.002740 219.57291 358.66663
365.0 0.002740 219.59947 361.89102
376.0 0.002660 219.62611 365.59756
380.0 0.002632 219.65273 369.46991
386.0 0.002591 219.67937 373.59665
376.0 0.002660 219.70601 377.48834
390.0 0.002564 219.73264 380.90158
368.0 0.002717 219.75929 383.68549
378.0 0.002646 219.78598 385.80576
395.0 0.002532 219.81265 387.28900
386.0 0.002591 219.83934 388.31955
366.0 0.002732 219.86600 389.12656
397.0 0.002519 219.89272 389.82855
420.0 0.002381 219.91937 391.01044
422.0 0.002370 219.94608 392.65466
400.0 0.002500 219.97282 395.02414
391.0 0.002558 219.99950 398.24115
393.0 0.002545 220.02626 402.43970
407.0 0.002457 220.05295 407.66763
409.0 0.002445 220.07973 413.95895
395.0 0.002532 220.10646 421.27206
434.0 0.002304 220.13318 429.50351
464.0 0.002155 220.15996 438.60150
448.0 0.002232 220.18669 448.03595
452.0 0.002212 220.21349 457.51563
437.0 0.002288 220.24025 466.51614
440.0 0.002273 220.26698 474.55923
497.0 0.002012 220.29378 480.91162
510.0 0.001961 220.32054 485.20422
491.0 0.002037 220.34731 487.20819
488.0 0.002049 220.37411 486.85303
480.0 0.002083 220.40088 484.35538
488.0 0.002049 220.42766 480.13846
456.0 0.002193 220.45444 474.48160
436.0 0.002294 220.48122 467.90524
446.0 0.002242 220.50803 460.84595
488.0 0.002049 220.53479 453.69250
442.0 0.002262 220.56157 446.72516
427.0 0.002342 220.58839 440.33426
440.0 0.002273 220.61516 434.71753
408.0 0.002451 220.64197 430.09134
432.0 0.002315 220.66873 426.61053
431.0 0.002320 220.69553 424.41769
430.0 0.002326 220.72231 423.44064
424.0 0.002358 220.74908 423.68130
441.0 0.002268 220.77586 425.01453
394.0 0.002538 220.80264 427.26544
417.0 0.002398 220.82947 430.30167
426.0 0.002347 220.85623 433.74744
427.0 0.002342 220.88300 437.58578
472.0 0.002119 220.90981 441.78275
461.0 0.002169 220.93652 446.39670
439.0 0.002278 220.96332 451.56125
421.0 0.002375 220.99008 457.43533
441.0 0.002268 221.01685 464.04929
454.0 0.002203 221.04358 471.46906
487.0 0.002053 221.07033 479.64844
501.0 0.001996 221.09709 488.50760
506.0 0.001976 221.12384 497.87976
512.0 0.001953 221.15059 507.63742
552.0 0.001812 221.17732 517.50922
558.0 0.001792 221.20403 527.39673
569.0 0.001757 221.23077 537.44592
573.0 0.001745 221.25748 547.19318
563.0 0.001776 221.28421 556.32385
589.0 0.001698 221.31090 564.24078
595.0 0.001681 221.33759 570.81879
583.0 0.001715 221.36432 575.55884
591.0 0.001692 221.39095 578.13977
590.0 0.001695 221.41766 578.51923
576.0 0.001736 221.44434 576.80084
574.0 0.001742 221.47098 573.03345
544.0 0.001838 221.49767 567.58594
542.0 0.001845 221.52428 560.64514
537.0 0.001862 221.55092 552.54382
525.0 0.001905 221.57759 543.58160
516.0 0.001938 221.60416 534.02594
495.0 0.002020 221.63078 524.16956
483.0 0.002070 221.65739 514.33270
499.0 0.002004 221.68399 504.77344
504.0 0.001984 221.71057 495.75476
491.0 0.002037 221.73714 487.49783
488.0 0.002049 221.76370 480.13010
495.0 0.002020 221.79024 473.71500
478.0 0.002092 221.81682 468.18304
457.0 0.002188 221.84334 463.39697
462.0 0.002165 221.86983 459.15558
490.0 0.002041 221.89635 455.23709
458.0 0.002183 221.92287 451.48355
453.0 0.002208 221.94936 447.78293
430.0 0.002326 221.97583 444.07541
456.0 0.002193 222.00227 440.44980
419.0 0.002387 222.02875 436.86890
418.0 0.002392 222.05513 433.56625
424.0 0.002358 222.08160 430.30527
402.0 0.002488 222.10802 427.31528
392.0 0.002551 222.13438 424.68463
451.0 0.002217 222.16078 422.46738
448.0 0.002232 222.18715 420.74951
384.0 0.002604 222.21353 419.54135
379.0 0.002639 222.23987 418.87399
438.0 0.002283 222.26616 418.72720
430.0 0.002326 222.29248 419.06686
396.0 0.002525 222.31879 419.83496
448.0 0.002232 222.34506 420.97061
457.0 0.002188 222.37134 422.40079
429.0 0.002331 222.39760 424.04846
405.0 0.002469 222.42383 425.85455
427.0 0.002342 222.45003 427.66187
390.0 0.002564 222.47627 429.52396
404.0 0.002475 222.50246 431.33167
390.0 0.002564 222.52861 433.05084
433.0 0.002309 222.55478 434.70660
453.0 0.002208 222.58087 436.33264
450.0 0.002222 222.60706 437.57520
449.0 0.002227 222.63316 438.50421
442.0 0.002262 222.65919 438.83850
425.0 0.002353 222.68527 438.54996
445.0 0.002247 222.71136 437.60986
426.0 0.002347 222.73740 436.06274
427.0 0.002342 222.76341 433.90866
423.0 0.002364 222.78940 431.46576
433.0 0.002309 222.81540 428.73505
438.0 0.002283 222.84135 425.82861
420.0 0.002381 222.86732 422.66696
403.0 0.002481 222.89322 419.28482
383.0 0.002611 222.91911 415.64862
395.0 0.002532 222.94501 411.76776
407.0 0.002457 222.97087 407.68655
399.0 0.002506 222.99672 403.44785
396.0 0.002525 223.02255 399.17859
388.0 0.002577 223.04837 394.98175
381.0 0.002625 223.07413 390.97168
373.0 0.002681 223.09990 387.19656
365.0 0.002740 223.12567 383.70169
353.0 0.002833 223.15143 380.53815
357.0 0.002801 223.17706 377.48932
380.0 0.002632 223.20276 374.57233
369.0 0.002710 223.22842 371.77826
352.0 0.002841 223.25407 369.04874
360.0 0.002778 223.27969 366.39615
354.0 0.002825 223.30524 363.92264
342.0 0.002924 223.33086 361.76260
349.0 0.002865 223.35641 359.92181
317.0 0.003155 223.38199 358.42142
333.0 0.003003 223.40744 357.45764
357.0 0.002801 223.43289 356.94922
349.0 0.002865 223.45840 357.00284
328.0 0.003049 223.48381 357.79651
320.0 0.003125 223.50926 358.94934
336.0 0.002976 223.53467 360.67154
360.0 0.002778 223.56000 362.95831
356.0 0.002809 223.58537 365.56793
328.0 0.003049 223.61069 368.37094
345.0 0.002899 223.63599 371.30923
358.0 0.002793 223.66127 374.13327
359.0 0.002786 223.68651 376.66678
380.0 0.002632 223.71175 378.75873
344.0 0.002907 223.73694 380.30450
388.0 0.002577 223.76215 381.20230
365.0 0.002740 223.78732 381.40417
364.0 0.002747 223.81239 380.77325
352.0 0.002841 223.83752 379.15240
386.0 0.002591 223.86261 377.00235
355.0 0.002817 223.88765 374.09933
358.0 0.002793 223.91270 370.83298
357.0 0.002801 223.93770 366.93658
348.0 0.002874 223.96269 362.94479
358.0 0.002793 223.98764 358.95157
319.0 0.003135 224.01259 355.21689
326.0 0.003067 224.03748 351.93753
347.0 0.002882 224.06233 349.10513
330.0 0.003030 224.08722 346.87155
360.0 0.002778 224.11201 345.12549
335.0 0.002985 224.13687 343.87653
312.0 0.003205 224.16164 342.99222
319.0 0.003135 224.18634 342.34622
328.0 0.003049 224.21107 341.75293
333.0 0.003003 224.23575 341.05865
338.0 0.002959 224.26044 340.09973
343.0 0.002915 224.28506 338.73734
337.0 0.002967 224.30965 336.86716
325.0 0.003077 224.33429 334.31519
322.0 0.003106 224.35884 331.29636
309.0 0.003236 224.38339 327.71292
311.0 0.003215 224.40791 323.73203
319.0 0.003135 224.43234 319.38672
304.0 0.003289 224.45682 315.00546
323.0 0.003096 224.48123 310.49158
295.0 0.003390 224.50563 306.10312
276.0 0.00362 224.53001 301.92947
291.0 0.003436 224.55431 298.15744
284.0 0.00352 224.57863 294.84695
277.0 0.00361 224.60289 291.91763
263.0 0.00380 224.62717 289.67209
285.0 0.00351 224.65143 287.99341
276.0 0.00362 224.67560 286.85861
267.0 0.00375 224.69978 286.20517
258.0 0.00388 224.72391 285.96042
279.0 0.00358 224.74806 286.02942
300.0 0.003333 224.77213 286.31003
305.0 0.003279 224.79616 286.45096
279.0 0.00358 224.82019 286.71506
302.0 0.003311 224.84422 286.97394
280.0 0.00357 224.86819 287.05646
289.0 0.003460 224.89214 286.90195
284.0 0.00352 224.91603 286.72815
313.0 0.003195 224.93991 286.18939
280.0 0.00357 224.96379 285.68448
274.0 0.00365 224.98761 285.20285
296.0 0.003378 225.01143 284.74219
281.0 0.00356 225.03514 284.58835
295.0 0.003390 225.05891 284.80634
300.0 0.003333 225.08264 285.28073
263.0 0.00380 225.10632 286.37216
314.0 0.003185 225.12994 288.02328
280.0 0.00357 225.15355 290.26010
284.0 0.00352 225.17720 293.09512
284.0 0.00352 225.20071 296.50275
282.0 0.00355 225.22426 300.44421
276.0 0.00362 225.24780 304.79987
313.0 0.003195 225.27124 309.35004
307.0 0.003257 225.29469 314.14243
300.0 0.003333 225.31810 318.95395
347.0 0.002882 225.34152 323.54071
360.0 0.002778 225.36490 327.64996
348.0 0.002874 225.38817 331.14090
378.0 0.002646 225.41150 333.84976
363.0 0.002755 225.43475 335.70895
340.0 0.002941 225.45802 336.76395
329.0 0.003040 225.48122 337.10864
310.0 0.003226 225.50438 337.03888
321.0 0.003115 225.52754 336.88467
314.0 0.003185 225.55066 336.66934
331.0 0.003021 225.57376 336.78601
346.0 0.002890 225.59683 337.35217
336.0 0.002976 225.61983 338.75388
343.0 0.002915 225.64285 340.84491
337.0 0.002967 225.66583 343.82391
335.0 0.002985 225.68877 347.64664
346.0 0.002890 225.71169 352.38760
350.0 0.002857 225.73457 357.90234
363.0 0.002755 225.75743 364.07074
390.0 0.002564 225.78024 370.72223
392.0 0.002551 225.80309 377.39984
406.0 0.002463 225.82584 384.08032
408.0 0.002451 225.84857 390.32156
443.0 0.002257 225.87128 395.82843
428.0 0.002336 225.89395 400.30008
393.0 0.002545 225.91663 403.64102
410.0 0.002439 225.93925 405.76431
408.0 0.002451 225.96184 406.72128
404.0 0.002475 225.98441 406.47916
395.0 0.002532 226.00694 405.49948
390.0 0.002564 226.02945 403.78708
384.0 0.002604 226.05193 401.55771
378.0 0.002646 226.07437 398.88208
373.0 0.002681 226.09680 395.97464
382.0 0.002618 226.11917 393.22986
401.0 0.002494 226.14153 390.39819
427.0 0.002342 226.16389 387.92294
412.0 0.002427 226.18613 385.84753
431.0 0.002320 226.20844 384.51730
418.0 0.002392 226.23068 383.90186
405.0 0.002469 226.25291 384.04697
395.0 0.002532 226.27510 385.14417
370.0 0.002703 226.29723 387.09448
392.0 0.002551 226.31941 390.08621
403.0 0.002481 226.34151 393.70831
362.0 0.002762 226.36359 398.06076
406.0 0.002463 226.38564 403.08243
390.0 0.002564 226.40764 408.66885
379.0 0.002639 226.42966 414.64850
391.0 0.002558 226.45158 421.10419
451.0 0.002217 226.47354 427.96222
413.0 0.002421 226.49547 434.82907
436.0 0.002294 226.51732 441.72324
438.0 0.002283 226.53920 448.25290
421.0 0.002375 226.56100 454.33337
465.0 0.002151 226.58282 459.67636
490.0 0.002041 226.60460 464.11038
496.0 0.002016 226.62628 467.16498
489.0 0.002045 226.64806 468.70032
491.0 0.002037 226.66975 468.81793
485.0 0.002062 226.69145 467.37039
494.0 0.002024 226.71306 464.61975
452.0 0.002212 226.73466 460.85519
453.0 0.002208 226.75624 456.47064
441.0 0.002268 226.77783 451.90607
441.0 0.002268 226.79936 447.60776
461.0 0.002169 226.82088 443.61447
428.0 0.002336 226.84232 440.44647
410.0 0.002439 226.86382 438.10162
421.0 0.002375 226.88522 436.64560
430.0 0.002326 226.90665 435.93973
447.0 0.002237 226.92802 435.76270
453.0 0.002208 226.94936 436.09647
482.0 0.002075 226.97070 436.56567
505.0 0.001980 226.99200 436.92719
493.0 0.002028 227.01331 436.75510
470.0 0.002128 227.03455 435.83594
472.0 0.002119 227.05577 433.88083
463.0 0.002160 227.07700 430.91180
454.0 0.002203 227.09816 426.83197
447.0 0.002237 227.11934 421.64169
438.0 0.002283 227.14049 415.49298
398.0 0.002513 227.16156 408.59195
405.0 0.002469 227.18269 401.13959
410.0 0.002439 227.20372 393.50958
369.0 0.002710 227.22479 385.80136
356.0 0.002809 227.24583 378.34854
335.0 0.002985 227.26680 371.30960
359.0 0.002786 227.28781 364.91937
361.0 0.002770 227.30875 359.24316
334.0 0.002994 227.32971 354.30859
340.0 0.002941 227.35062 350.05344
338.0 0.002959 227.37146 346.63007
333.0 0.003003 227.39241 343.68906
338.0 0.002959 227.41319 341.19247
355.0 0.002817 227.43404 338.98779
368.0 0.002717 227.45485 336.92130
339.0 0.002950 227.47560 334.85739
353.0 0.002833 227.49640 332.81372
358.0 0.002793 227.51714 330.57608
308.0 0.003247 227.53787 328.25397
334.0 0.002994 227.55858 325.92477
315.0 0.003175 227.57924 323.69266
341.0 0.002933 227.59991 321.66412
356.0 0.002809 227.62056 319.95056
319.0 0.003135 227.64119 318.73798
303.0 0.003300 227.66180 317.89304
304.0 0.003289 227.68239 317.58936
312.0 0.003205 227.70296 317.75751
285.0 0.00351 227.72351 318.41962
294.0 0.003401 227.74405 319.51187
319.0 0.003135 227.76459 320.95776
318.0 0.003145 227.78508 322.61716
307.0 0.003257 227.80559 324.42737
340.0 0.002941 227.82602 326.21384
321.0 0.003115 227.84651 327.87125
344.0 0.002907 227.86693 329.23282
340.0 0.002941 227.88734 330.24792
326.0 0.003067 227.90773 330.89377
333.0 0.003003 227.92812 331.18173
320.0 0.003125 227.94852 331.14648
309.0 0.003236 227.96889 330.95123
327.0 0.003058 227.98920 330.57935
336.0 0.002976 228.00954 330.17816
355.0 0.002817 228.02985 329.87003
340.0 0.002941 228.05019 329.77542
332.0 0.003012 228.07048 329.98770
345.0 0.002899 228.09074 330.62122
308.0 0.003247 228.11101 331.85010
322.0 0.003106 228.13126 333.60278
333.0 0.003003 228.15149 336.00278
325.0 0.003077 228.17172 339.07028
322.0 0.003106 228.19194 342.80136
313.0 0.003195 228.21217 347.16809
334.0 0.002994 228.23233 352.09454
333.0 0.003003 228.25252 357.48923
332.0 0.003012 228.27269 363.20483
367.0 0.002725 228.29282 369.06604
368.0 0.002717 228.31300 374.74362
384.0 0.002604 228.33316 380.31024
381.0 0.002625 228.35329 385.41254
363.0 0.002755 228.37343 389.82813
360.0 0.002778 228.39349 393.40381
393.0 0.002545 228.41365 396.00162
396.0 0.002525 228.43372 397.57242
407.0 0.002457 228.45386 398.12161
396.0 0.002525 228.47395 397.80338
371.0 0.002695 228.49400 396.64581
397.0 0.002519 228.51407 394.92078
385.0 0.002597 228.53415 392.84570
401.0 0.002494 228.55421 390.68338
380.0 0.002632 228.57430 388.60144
395.0 0.002532 228.59430 386.88214
405.0 0.002469 228.61440 385.56583
371.0 0.002695 228.63440 384.85510
375.0 0.002667 228.65445 384.86905
394.0 0.002538 228.67448 385.70636
391.0 0.002558 228.69450 387.43970
357.0 0.002801 228.71454 389.96222
354.0 0.002825 228.73459 393.45251
379.0 0.002639 228.75461 397.87872
371.0 0.002695 228.77463 403.01996
395.0 0.002532 228.79463 408.71725
399.0 0.002506 228.81465 414.78543
380.0 0.002632 228.83470 420.97699
393.0 0.002545 228.85474 427.03241
421.0 0.002375 228.87474 432.81650
425.0 0.002353 228.89474 438.08939
465.0 0.002151 228.91478 442.65338
479.0 0.002088 228.93480 446.64899
472.0 0.002119 228.95482 449.85175
462.0 0.002165 228.97484 452.38028
452.0 0.002212 228.99487 454.29141
461.0 0.002169 229.01494 455.62872
483.0 0.002070 229.03494 456.51578
475.0 0.002105 229.05501 456.91119
495.0 0.002020 229.07506 456.93097
455.0 0.002198 229.09509 456.38757
474.0 0.002110 229.11517 455.38513
461.0 0.002169 229.13522 453.99115
433.0 0.002309 229.15529 452.21301
444.0 0.002252 229.17538 450.28864
479.0 0.002088 229.19543 448.19626
484.0 0.002066 229.21555 445.98352
432.0 0.002315 229.23561 443.74863
433.0 0.002309 229.25575 441.47430
470.0 0.002128 229.27586 439.22409
471.0 0.002123 229.29599 437.04950
463.0 0.002160 229.31613 435.27640
466.0 0.002146 229.33626 433.17532
449.0 0.002227 229.35643 431.12872
457.0 0.002188 229.37665 429.05505
459.0 0.002179 229.39677 426.88455
434.0 0.002304 229.41695 424.45657
438.0 0.002283 229.43719 422.20984
444.0 0.002252 229.45741 419.95844
425.0 0.002353 229.47763 417.37268
420.0 0.002381 229.49786 414.87393
441.0 0.002268 229.51811 412.35110
443.0 0.002257 229.53839 409.90024
417.0 0.002398 229.55867 407.44998
424.0 0.002358 229.57901 405.05066
418.0 0.002392 229.59929 402.68402
386.0 0.002591 229.61964 400.33514
366.0 0.002732 229.64000 397.96686
373.0 0.002681 229.66039 395.53757
421.0 0.002375 229.68079 393.04462
393.0 0.002545 229.70119 390.43649
380.0 0.002632 229.72162 387.70538
366.0 0.002732 229.74207 384.90628
381.0 0.002625 229.76254 381.88107
366.0 0.002732 229.78302 379.08487
388.0 0.002577 229.80350 376.42227
402.0 0.002488 229.82410 373.71808
395.0 0.002532 229.84464 371.02438
373.0 0.002681 229.86523 368.55692
369.0 0.002710 229.88582 366.36111
363.0 0.002755 229.90643 364.42410
370.0 0.002703 229.92711 362.87912
364.0 0.002747 229.94781 361.77423
355.0 0.002817 229.96851 361.00150
336.0 0.002976 229.98924 360.66553
348.0 0.002874 230.00998 360.82724
312.0 0.003205 230.03076 361.39655
364.0 0.002747 230.05159 362.36469
355.0 0.002817 230.07246 363.69019
354.0 0.002825 230.09329 365.31158
365.0 0.002740 230.11420 367.15643
404.0 0.002475 230.13516 369.19162
374.0 0.002674 230.15611 371.36295
351.0 0.002849 230.17711 373.88217
363.0 0.002755 230.19815 376.30139
382.0 0.002618 230.21921 378.75793
392.0 0.002551 230.24028 381.51193
387.0 0.002584 230.26141 384.64371
393.0 0.002545 230.28256 387.85489
399.0 0.002506 230.30376 391.31686
391.0 0.002558 230.32500 394.99954
404.0 0.002475 230.34624 398.87717
400.0 0.002500 230.36757 402.91235
406.0 0.002463 230.38890 407.07718
437.0 0.002288 230.41029 411.32455
465.0 0.002151 230.43170 415.60333
452.0 0.002212 230.45317 419.87268
464.0 0.002155 230.47466 424.00293
465.0 0.002151 230.49620 427.89642
454.0 0.002203 230.51776 431.45166
437.0 0.002288 230.53937 434.50040
435.0 0.002299 230.56105 436.96262
440.0 0.002273 230.58272 438.76245
428.0 0.002336 230.60452 439.86337
429.0 0.002331 230.62630 440.16782
446.0 0.002242 230.64815 439.85843
429.0 0.002331 230.67000 438.87927
417.0 0.002398 230.69194 437.38855
422.0 0.002370 230.71391 435.23129
436.0 0.002294 230.73595 432.57803
455.0 0.002198 230.75797 429.45047
420.0 0.002381 230.78011 426.05832
383.0 0.002611 230.80226 422.28317
394.0 0.002538 230.82452 418.23044
414.0 0.002415 230.84677 413.99292
401.0 0.002494 230.86905 409.65643
388.0 0.002577 230.89148 405.31375
413.0 0.002421 230.91386 401.07889
417.0 0.002398 230.93634 397.07416
381.0 0.002625 230.95886 393.35004
421.0 0.002375 230.98145 389.96011
396.0 0.002525 231.00410 386.89917
362.0 0.002762 231.02678 384.16568
425.0 0.002353 231.04955 381.72321
375.0 0.002667 231.07234 379.53629
359.0 0.002786 231.09518 377.56430
388.0 0.002577 231.11815 375.70285
383.0 0.002611 231.14108 374.02142
374.0 0.002674 231.16418 372.42136
368.0 0.002717 231.18727 370.82727
359.0 0.002786 231.21042 369.08594
357.0 0.002801 231.23363 367.34195
359.0 0.002786 231.25693 365.46252
378.0 0.002646 231.28027 363.37427
344.0 0.002907 231.30370 361.13425
344.0 0.002907 231.32712 358.93607
339.0 0.002950 231.35068 356.45282
352.0 0.002841 231.37428 353.91617
369.0 0.002710 231.39798 351.40881
331.0 0.003021 231.42171 349.03595
337.0 0.002967 231.44551 346.94174
381.0 0.002625 231.46944 345.09485
342.0 0.002924 231.49335 343.72299
347.0 0.002882 231.51740 342.90152
358.0 0.002793 231.54144 342.50439
347.0 0.002882 231.56560 342.63617
337.0 0.002967 231.58987 343.29926
334.0 0.002994 231.61415 344.47467
347.0 0.002882 231.63855 346.12473
334.0 0.002994 231.66298 348.18274
326.0 0.003067 231.68752 350.62131
328.0 0.003049 231.71210 353.21432
372.0 0.002688 231.73677 355.89331
400.0 0.002500 231.76158 358.47021
369.0 0.002710 231.78639 360.98157
375.0 0.002667 231.81131 363.05988
367.0 0.002725 231.83633 364.91400
359.0 0.002786 231.86136 366.43646
364.0 0.002747 231.88655 367.55353
373.0 0.002681 231.91177 368.26910
372.0 0.002688 231.93709 368.82312
353.0 0.002833 231.96251 368.88336
344.0 0.002907 231.98798 368.72534
372.0 0.002688 232.01355 368.44095
396.0 0.002525 232.03922 368.19287
394.0 0.002538 232.06494 367.87350
383.0 0.002611 232.09076 367.96854
375.0 0.002667 232.11670 368.41119
390.0 0.002564 232.14273 369.34830
407.0 0.002457 232.16881 370.79602
398.0 0.002513 232.19499 372.87796
360.0 0.002778 232.22127 375.66611
384.0 0.002604 232.24765 379.06769
406.0 0.002463 232.27411 383.34818
394.0 0.002538 232.30066 388.38690
399.0 0.002506 232.32729 394.18118
417.0 0.002398 232.35403 400.61609
423.0 0.002364 232.38087 407.67270
420.0 0.002381 232.40784 415.31406
448.0 0.002232 232.43486 423.64417
460.0 0.002174 232.46194 432.32297
443.0 0.002257 232.48921 441.51959
476.0 0.002101 232.51651 451.16586
460.0 0.002174 232.54393 461.29828
499.0 0.002004 232.57149 471.91299
499.0 0.002004 232.59906 483.09879
504.0 0.001984 232.62680 494.76645
546.0 0.001832 232.65463 506.96152
583.0 0.001715 232.68259 519.68146
537.0 0.001862 232.71066 532.95972
541.0 0.001848 232.73875 546.36401
523.0 0.001912 232.76703 559.85144
635.0 0.001575 232.79536 573.09387
599.0 0.001669 232.82384 585.87323
603.0 0.001658 232.85242 597.60248
592.0 0.001689 232.88107 608.01477
668.0 0.001497 232.90988 616.84631
698.0 0.001433 232.93880 623.79376
672.0 0.001488 232.96786 628.73016
695.0 0.001439 232.99695 631.55402
642.0 0.001558 233.02620 632.23853
673.0 0.001486 233.05557 630.81256
696.0 0.001437 233.08498 627.38147
653.0 0.001531 233.11461 622.19226
665.0 0.001504 233.14433 615.39618
642.0 0.001558 233.17412 607.44543
612.0 0.001634 233.20407 598.82257
626.0 0.001597 233.23415 589.87415
627.0 0.001595 233.26433 581.09424
612.0 0.001634 233.29465 572.89734
593.0 0.001686 233.32501 565.64087
563.0 0.001776 233.35559 559.63696
544.0 0.001838 233.38622 554.77625
555.0 0.001802 233.41705 551.31543
554.0 0.001805 233.44795 549.15100
553.0 0.001808 233.47897 547.93854
533.0 0.001876 233.51018 547.97455
521.0 0.001919 233.54144 548.59131
541.0 0.001848 233.57286 549.69476
579.0 0.001727 233.60442 550.94220
593.0 0.001686 233.63606 552.25226
588.0 0.001701 233.66792 553.45776
625.0 0.001600 233.69983 554.38068
593.0 0.001686 233.73195 555.08954
568.0 0.001761 233.76414 555.50800
587.0 0.001704 233.79643 555.72461
574.0 0.001742 233.82893 555.60663
572.0 0.001748 233.86153 555.11108
561.0 0.001783 233.89427 554.42126
565.0 0.001770 233.92712 553.51678
580.0 0.001724 233.96011 552.43365
581.0 0.001721 233.99330 551.21588
577.0 0.001733 234.02661 549.75439
545.0 0.001835 234.06007 548.07220
530.0 0.001887 234.09366 546.17084
519.0 0.001927 234.12732 543.74323
494.0 0.002024 234.16121 540.59961
537.0 0.001862 234.19518 536.59064
534.0 0.001873 234.22937 531.83209
559.0 0.001789 234.26366 526.13635
554.0 0.001805 234.29807 519.55347
545.0 0.001835 234.33267 512.20245
557.0 0.001795 234.36737 504.04803
515.0 0.001942 234.40230 495.33899
517.0 0.001934 234.43732 486.26538
529.0 0.001890 234.47247 477.04456
498.0 0.002008 234.50781 467.89603
444.0 0.002252 234.54329 458.97647
454.0 0.002203 234.57893 450.60864
454.0 0.002203 234.61475 442.87854
427.0 0.002342 234.65065 435.93600
431.0 0.002320 234.68674 429.76251
406.0 0.002463 234.72299 424.39612
398.0 0.002513 234.75943 419.81531
372.0 0.002688 234.79599 415.96341
392.0 0.002551 234.83266 412.60144
403.0 0.002481 234.86955 409.87805
436.0 0.002294 234.90659 407.51407
414.0 0.002415 234.94377 405.34192
378.0 0.002646 234.98117 403.28378
392.0 0.002551 235.01868 401.03464
389.0 0.002571 235.05637 398.51849
388.0 0.002577 235.09419 395.79584
397.0 0.002519 235.13226 392.74286
396.0 0.002525 235.17047 389.49109
371.0 0.002695 235.20871 385.82706
388.0 0.002577 235.24728 381.92700
417.0 0.002398 235.28590 377.93036
381.0 0.002625 235.32481 373.75681
393.0 0.002545 235.36380 369.77286
391.0 0.002558 235.40295 365.96793
382.0 0.002618 235.44235 362.53247
370.0 0.002703 235.48183 359.54773
347.0 0.002882 235.52158 357.12112
367.0 0.002725 235.56146 355.38074
370.0 0.002703 235.60147 354.30746
359.0 0.002786 235.64169 353.98996
347.0 0.002882 235.68210 354.45700
348.0 0.002874 235.72270 355.65268
354.0 0.002825 235.76346 357.68356
339.0 0.002950 235.80432 360.44406
322.0 0.003106 235.84546 363.91565
346.0 0.002890 235.88672 367.92667
346.0 0.002890 235.92822 372.41541
345.0 0.002899 235.96989 377.20120
372.0 0.002688 236.01163 382.22571
376.0 0.002660 236.05367 387.30231
375.0 0.002667 236.09589 392.25046
400.0 0.002500 236.13828 396.93347
423.0 0.002364 236.18083 401.30951
410.0 0.002439 236.22354 405.16296
417.0 0.002398 236.26653 408.45129
400.0 0.002500 236.30962 411.30984
434.0 0.002304 236.35294 413.74115
436.0 0.002294 236.39648 415.74551
436.0 0.002294 236.44014 417.42065
434.0 0.002304 236.48399 418.85724
418.0 0.002392 236.52805 420.12909
416.0 0.002404 236.57234 421.32919
412.0 0.002427 236.61681 422.50055
450.0 0.002222 236.66141 423.78467
411.0 0.002433 236.70628 425.18307
455.0 0.002198 236.75128 426.75534
471.0 0.002123 236.79659 428.52704
460.0 0.002174 236.84201 430.49380
483.0 0.002070 236.88757 432.64041
457.0 0.002188 236.93343 434.94501
443.0 0.002257 236.97942 437.38312
455.0 0.002198 237.02565 439.92245
442.0 0.002262 237.07205 442.34177
444.0 0.002252 237.11864 444.75357
422.0 0.002370 237.16548 446.95856
434.0 0.002304 237.21249 448.87155
432.0 0.002315 237.25975 450.35355
444.0 0.002252 237.30714 451.36877
464.0 0.002155 237.35474 451.78162
483.0 0.002070 237.40262 451.71768
434.0 0.002304 237.45061 451.18546
439.0 0.002278 237.49892 450.28958
457.0 0.002188 237.54733 449.17523
479.0 0.002088 237.59596 448.00504
457.0 0.002188 237.64487 446.92200
461.0 0.002169 237.69389 446.14078
436.0 0.002294 237.74324 445.75125
448.0 0.002232 237.79276 445.88596
458.0 0.002183 237.84238 446.59149
415.0 0.002410 237.89235 447.91061
412.0 0.002427 237.94244 449.85278
470.0 0.002128 237.99281 452.34229
473.0 0.002114 238.04340 455.38034
494.0 0.002024 238.09412 458.71591
498.0 0.002008 238.14510 462.30396
497.0 0.002012 238.19629 465.92734
468.0 0.002137 238.24776 469.64767
456.0 0.002193 238.29941 473.24722
466.0 0.002146 238.35120 476.57834
489.0 0.002045 238.40327 479.76846
501.0 0.001996 238.45557 482.46524
495.0 0.002020 238.50806 484.81503
494.0 0.002024 238.56084 486.63016
488.0 0.002049 238.61371 488.11459
511.0 0.001957 238.66695 489.14587
522.0 0.001916 238.72029 489.72501
473.0 0.002114 238.77391 489.87100
482.0 0.002075 238.82777 489.64752
509.0 0.001965 238.88176 489.16751
485.0 0.002062 238.93610 488.55594
493.0 0.002028 238.99054 487.99542
492.0 0.002033 239.04533 487.50092
520.0 0.001923 239.10023 487.31854
532.0 0.001880 239.15538 487.61584
512.0 0.001953 239.21082 488.17929
539.0 0.001855 239.26643 489.82346
485.0 0.002062 239.32234 492.29742
485.0 0.002062 239.37842 495.62079
486.0 0.002058 239.43469 499.81128
490.0 0.002041 239.49127 504.71613
494.0 0.002024 239.54802 510.26624
511.0 0.001957 239.60506 516.26733
522.0 0.001916 239.66231 522.85205
536.0 0.001866 239.71971 529.62128
538.0 0.001859 239.77747 536.38367
503.0 0.001988 239.83534 542.92908
591.0 0.001692 239.89359 549.01636
571.0 0.001751 239.95198 554.43146
590.0 0.001695 240.01054 558.98108
590.0 0.001695 240.06949 562.49176
604.0 0.001656 240.12856 564.82306
602.0 0.001661 240.18793 565.91394
633.0 0.001580 240.24753 565.74799
628.0 0.001592 240.30727 564.43756
587.0 0.001704 240.36731 561.99664
595.0 0.001681 240.42758 558.65778
589.0 0.001698 240.48814 554.66199
588.0 0.001701 240.54895 550.08496
561.0 0.001783 240.60988 545.24762
556.0 0.001799 240.67113 540.36908
560.0 0.001786 240.73262 535.60034
558.0 0.001792 240.79433 531.00427
564.0 0.001773 240.85629 526.69751
537.0 0.001862 240.91843 522.60541
518.0 0.001931 240.98094 518.74866
533.0 0.001876 241.04358 515.08710
506.0 0.001976 241.10654 511.70041
498.0 0.002008 241.16971 508.43903
511.0 0.001957 241.23303 505.14691
499.0 0.002004 241.29674 501.79123
473.0 0.002114 241.36057 498.19855
494.0 0.002024 241.42476 494.25876
492.0 0.002033 241.48914 489.88892
467.0 0.002141 241.55368 485.04053
508.0 0.001969 241.61859 479.68649
547.0 0.001828 241.68367 473.86734
508.0 0.001969 241.74907 467.40561
482.0 0.002075 241.81465 460.86499
484.0 0.002066 241.88043 454.13605
464.0 0.002155 241.94658 447.35648
458.0 0.002183 242.01286 440.45358
447.0 0.002237 242.07947 433.93704
428.0 0.002336 242.14630 427.73203
413.0 0.002421 242.21330 421.97757
414.0 0.002415 242.28067 416.74200
407.0 0.002457 242.34818 412.13632
395.0 0.002532 242.41606 408.07907
420.0 0.002381 242.48412 404.63367
398.0 0.002513 242.55234 401.80948
368.0 0.002717 242.62097 399.51907
370.0 0.002703 242.68973 397.79868
391.0 0.002558 242.75880 396.51926
383.0 0.002611 242.82816 395.62460
354.0 0.002825 242.89755 395.07181
370.0 0.002703 242.96742 394.78128
371.0 0.002695 243.03745 394.58020
390.0 0.002564 243.10777 394.46127
394.0 0.002538 243.17831 394.14725
396.0 0.002525 243.24902 393.68680
392.0 0.002551 243.32010 392.90622
415.0 0.002410 243.39139 391.65738
423.0 0.002364 243.46292 390.13043
407.0 0.002457 243.53474 388.20184
359.0 0.002786 243.60670 385.89450
397.0 0.002519 243.67899 383.17535
385.0 0.002597 243.75153 380.25372
385.0 0.002597 243.82433 377.14038
389.0 0.002571 243.89738 373.90594
400.0 0.002500 243.97058 370.64224
412.0 0.002427 244.04416 367.39462
368.0 0.002717 244.11789 364.26849
350.0 0.002857 244.19196 361.22675
377.0 0.002653 244.26622 358.35782
356.0 0.002809 244.34070 355.67786
349.0 0.002865 244.41551 353.21194
329.0 0.003040 244.49049 350.99966
330.0 0.003030 244.56581 348.99051
347.0 0.002882 244.64133 347.23355
326.0 0.003067 244.71701 345.67560
325.0 0.003077 244.79309 344.31845
319.0 0.003135 244.86929 343.24469
332.0 0.003012 244.94586 342.25351
328.0 0.003049 245.02264 341.40219
320.0 0.003125 245.09950 340.61777
327.0 0.003058 245.17683 339.89835
330.0 0.003030 245.25429 339.23575
331.0 0.003021 245.33206 338.57211
299.0 0.003344 245.41010 337.90582
314.0 0.003185 245.48824 337.06952
340.0 0.002941 245.56680 336.37689
352.0 0.002841 245.64546 335.68326
338.0 0.002959 245.72449 334.99500
322.0 0.003106 245.80374 334.33057
341.0 0.002933 245.88309 333.68115
354.0 0.002825 245.96289 333.10904
347.0 0.002882 246.04282 332.61166
327.0 0.003058 246.12306 332.08682
311.0 0.003215 246.20351 331.73285
314.0 0.003185 246.28413 331.52600
323.0 0.003096 246.36511 331.26709
339.0 0.002950 246.44624 331.04138
328.0 0.003049 246.52771 330.82550
350.0 0.002857 246.60939 330.60605
343.0 0.002915 246.69119 330.23749
333.0 0.003003 246.77339 329.88260
350.0 0.002857 246.85574 329.41708
329.0 0.003040 246.93840 328.82935
333.0 0.003003 247.02129 328.14905
330.0 0.003030 247.10429 327.33917
326.0 0.003067 247.18771 326.43216
336.0 0.002976 247.27121 325.48386
324.0 0.003086 247.35510 324.52563
348.0 0.002874 247.43913 323.61105
307.0 0.003257 247.52330 322.56107
297.0 0.003367 247.60793 321.86407
293.0 0.003413 247.69263 321.34467
297.0 0.003367 247.77773 321.01593
320.0 0.003125 247.86292 320.91489
288.0 0.003472 247.94829 321.07175
302.0 0.003311 248.03401 321.48596
316.0 0.003165 248.11990 322.15643
293.0 0.003413 248.20615 323.04144
299.0 0.003344 248.29248 324.21344
307.0 0.003257 248.37903 325.59427
319.0 0.003135 248.46594 327.21442
317.0 0.003155 248.55295 329.30008
310.0 0.003226 248.64034 331.16132
318.0 0.003145 248.72784 333.10733
348.0 0.002874 248.81552 335.05524
300.0 0.003333 248.90356 337.06329
334.0 0.002994 248.99168 339.04520
317.0 0.003155 249.08018 341.11392
308.0 0.003247 249.16884 342.85852
338.0 0.002959 249.25760 344.70813
358.0 0.002793 249.34676 346.52109
345.0 0.002899 249.43600 348.35645
334.0 0.002994 249.52562 350.24506
308.0 0.003247 249.61540 352.22992
310.0 0.003226 249.70525 354.27798
332.0 0.003012 249.79546 356.57513
326.0 0.003067 249.88582 359.06363
292.0 0.003425 249.97647 361.76132
341.0 0.002933 250.06732 364.52539
335.0 0.002985 250.15825 367.60986
368.0 0.002717 250.24954 370.85275
385.0 0.002597 250.34099 374.20541
360.0 0.002778 250.43266 377.57715
379.0 0.002639 250.52457 381.01703
381.0 0.002625 250.61653 384.43839
398.0 0.002513 250.70888 387.73669
411.0 0.002433 250.80132 390.90833
409.0 0.002445 250.89403 393.91190
421.0 0.002375 250.98695 396.64264
419.0 0.002387 251.07993 399.22330
411.0 0.002433 251.17328 401.33691
426.0 0.002347 251.26671 403.02237
422.0 0.002370 251.36047 404.21887
412.0 0.002427 251.45433 405.06332
418.0 0.002392 251.54826 405.49985
458.0 0.002183 251.64259 405.56116
423.0 0.002364 251.73697 405.31696
417.0 0.002398 251.83170 404.83258
411.0 0.002433 251.92653 404.14410
428.0 0.002336 252.02141 403.28845
407.0 0.002457 252.11668 402.21460
395.0 0.002532 252.21202 401.26312
372.0 0.002688 252.30768 400.18192
383.0 0.002611 252.40338 399.10233
403.0 0.002481 252.49921 398.23050
429.0 0.002331 252.59538 397.18948
418.0 0.002392 252.69159 396.48425
405.0 0.002469 252.78807 395.97443
405.0 0.002469 252.88467 395.59213
366.0 0.002732 252.98135 395.45551
412.0 0.002427 253.07837 395.60004
390.0 0.002564 253.17548 396.01996
370.0 0.002703 253.27286 396.70261
377.0 0.002653 253.37032 397.65213
386.0 0.002591 253.46776 398.75861
375.0 0.002667 253.56561 400.12659
403.0 0.002481 253.66351 401.70193
406.0 0.002463 253.76166 403.41690
417.0 0.002398 253.85991 405.24631
421.0 0.002375 253.95825 407.11908
433.0 0.002309 254.05678 408.98523
420.0 0.002381 254.15546 410.85760
420.0 0.002381 254.25433 412.65747
420.0 0.002381 254.35339 414.19800
435.0 0.002299 254.45238 415.61148
410.0 0.002439 254.55164 416.75192
398.0 0.002513 254.65105 417.52008
406.0 0.002463 254.75063 417.77924
415.0 0.002410 254.85034 417.53802
421.0 0.002375 254.95003 416.68042
382.0 0.002618 255.05005 415.11307
393.0 0.002545 255.15007 413.10287
408.0 0.002451 255.25029 410.44800
388.0 0.002577 255.35063 407.24603
393.0 0.002545 255.45096 403.64383
396.0 0.002525 255.55161 399.74908
400.0 0.002500 255.65222 395.60629
388.0 0.002577 255.75302 391.38940
389.0 0.002571 255.85394 387.22946
381.0 0.002625 255.95486 383.19705
364.0 0.002747 256.05603 379.44846
352.0 0.002841 256.15717 376.09830
336.0 0.002976 256.25854 373.19095
350.0 0.002857 256.35995 370.73166
358.0 0.002793 256.46140 368.80753
353.0 0.002833 256.56305 367.44479
347.0 0.002882 256.66473 366.66269
356.0 0.002809 256.76657 366.45810
374.0 0.002674 256.86841 366.74835
349.0 0.002865 256.97025 367.62701
348.0 0.002874 257.07242 368.97815
362.0 0.002762 257.17441 370.76022
381.0 0.002625 257.27670 372.91791
365.0 0.002740 257.37900 375.19220
357.0 0.002801 257.48120 377.86432
358.0 0.002793 257.58368 380.57068
370.0 0.002703 257.68613 383.27368
347.0 0.002882 257.78864 385.99319
367.0 0.002725 257.89130 388.62741
388.0 0.002577 257.99384 391.10962
377.0 0.002653 258.09656 393.48618
377.0 0.002653 258.19928 395.56485
401.0 0.002494 258.30200 397.39566
414.0 0.002415 258.40497 398.87756
400.0 0.002500 258.50775 400.09512
405.0 0.002469 258.61066 400.99170
438.0 0.002283 258.71356 401.55524
431.0 0.002320 258.81662 401.78754
387.0 0.002584 258.91965 401.70950
385.0 0.002597 259.02255 401.35666
388.0 0.002577 259.12567 400.76257
386.0 0.002591 259.22864 400.00937
403.0 0.002481 259.33182 399.18622
390.0 0.002564 259.43488 398.39514
386.0 0.002591 259.53790 397.73264
377.0 0.002653 259.64102 397.29285
403.0 0.002481 259.74408 397.15778
381.0 0.002625 259.84726 397.49713
386.0 0.002591 259.95032 398.07632
382.0 0.002618 260.05328 399.14636
409.0 0.002445 260.15640 400.64664
402.0 0.002488 260.25943 402.55270
388.0 0.002577 260.36252 404.84714
393.0 0.002545 260.46555 407.45047
397.0 0.002519 260.56839 410.42386
387.0 0.002584 260.67139 413.46729
422.0 0.002370 260.77420 416.60965
392.0 0.002551 260.87714 419.77905
409.0 0.002445 260.97995 422.85327
414.0 0.002415 261.08261 425.73456
421.0 0.002375 261.18539 428.36407
429.0 0.002331 261.28799 430.61655
458.0 0.002183 261.39072 432.43204
463.0 0.002160 261.49323 433.76566
457.0 0.002188 261.59558 434.57599
469.0 0.002132 261.69806 434.88177
442.0 0.002262 261.80026 434.70325
418.0 0.002392 261.90265 434.09924
436.0 0.002294 262.00476 433.23093
429.0 0.002331 262.10672 432.18277
409.0 0.002445 262.20874 430.99094
394.0 0.002538 262.31055 429.77893
412.0 0.002427 262.41245 428.62030
416.0 0.002404 262.51410 427.55588
425.0 0.002353 262.61557 426.64661
429.0 0.002331 262.71701 425.93991
405.0 0.002469 262.81833 425.31802
426.0 0.002347 262.91949 424.81540
422.0 0.002370 263.02063 424.40933
401.0 0.002494 263.12146 424.13608
392.0 0.002551 263.22232 423.86008
394.0 0.002538 263.32285 423.63071
413.0 0.002421 263.42337 423.47876
433.0 0.002309 263.52374 423.48984
431.0 0.002320 263.62384 423.62057
425.0 0.002353 263.72394 423.98239
426.0 0.002347 263.82370 424.64697
449.0 0.002227 263.92346 425.66229
473.0 0.002114 264.02298 427.09381
433.0 0.002309 264.12213 428.99292
443.0 0.002257 264.22134 431.41470
442.0 0.002262 264.32019 434.39789
461.0 0.002169 264.41901 437.99338
451.0 0.002217 264.51758 442.22028
453.0 0.002208 264.61578 447.09866
434.0 0.002304 264.71396 452.65018
480.0 0.002083 264.81183 458.84503
494.0 0.002024 264.90952 465.65610
459.0 0.002179 265.00693 473.02472
432.0 0.002315 265.10400 480.81345
478.0 0.002092 265.20102 488.89355
507.0 0.001972 265.29773 497.08469
517.0 0.001934 265.39423 505.19763
577.0 0.001733 265.49042 513.00665
515.0 0.001942 265.58621 520.20825
561.0 0.001783 265.68192 526.59308
583.0 0.001715 265.77728 531.90601
575.0 0.001739 265.87244 535.97186
550.0 0.001818 265.96729 538.64270
582.0 0.001718 266.06171 539.84900
591.0 0.001692 266.15598 539.60132
577.0 0.001733 266.24982 537.98853
572.0 0.001748 266.34348 535.34216
550.0 0.001818 266.43680 531.46851
558.0 0.001792 266.52966 526.98267
529.0 0.001890 266.62234 521.70074
524.0 0.001908 266.71457 516.07648
541.0 0.001848 266.80658 510.33188
496.0 0.002016 266.89825 504.69958
504.0 0.001984 266.98938 499.38339
492.0 0.002033 267.08029 494.54346
475.0 0.002105 267.17078 490.33755
487.0 0.002053 267.26099 486.86542
487.0 0.002053 267.35077 484.20663
480.0 0.002083 267.44006 482.39905
459.0 0.002179 267.52905 481.44351
458.0 0.002183 267.61761 481.42160
451.0 0.002217 267.70584 482.07318
465.0 0.002151 267.79358 483.43213
462.0 0.002165 267.88083 485.38507
474.0 0.002110 267.96783 487.83743
499.0 0.002004 268.05423 490.66193
509.0 0.001965 268.14032 493.69595
501.0 0.001996 268.22592 496.90933
490.0 0.002041 268.31094 500.13757
507.0 0.001972 268.39572 503.29047
500.0 0.002000 268.47977 506.21600
521.0 0.001919 268.56357 509.00104
527.0 0.001898 268.64679 511.58377
527.0 0.001898 268.72940 513.76440
523.0 0.001912 268.81168 515.82404
519.0 0.001927 268.89337 517.73700
527.0 0.001898 268.97464 519.41431
510.0 0.001961 269.05530 520.94543
514.0 0.001946 269.13538 522.16864
537.0 0.001862 269.21506 523.18103
511.0 0.001957 269.29404 523.93469
516.0 0.001938 269.37265 524.42841
571.0 0.001751 269.45059 524.63721
581.0 0.001721 269.52783 524.40228
587.0 0.001704 269.60471 523.63953
563.0 0.001776 269.68088 522.45239
553.0 0.001808 269.75650 520.72937
573.0 0.001745 269.83163 518.57135
572.0 0.001748 269.90598 515.81036
540.0 0.001852 269.97974 512.57788
538.0 0.001859 270.05289 509.03568
554.0 0.001805 270.12543 505.20227
532.0 0.001880 270.19736 501.24420
494.0 0.002024 270.26849 497.37256
510.0 0.001961 270.33911 493.70782
480.0 0.002083 270.40897 490.29675
478.0 0.002092 270.47827 487.29013
453.0 0.002208 270.54678 484.74057
464.0 0.002155 270.61456 482.76224
459.0 0.002179 270.68176 481.28918
478.0 0.002092 270.74817 480.45920
461.0 0.002169 270.81396 480.25412
451.0 0.002217 270.87881 480.46362
466.0 0.002146 270.94302 481.09378
487.0 0.002053 271.00653 482.09348
480.0 0.002083 271.06921 483.37784
497.0 0.002012 271.13132 484.94281
505.0 0.001980 271.19241 486.46194
501.0 0.001996 271.25278 488.01941
523.0 0.001912 271.31238 489.45499
505.0 0.001980 271.37115 490.61087
521.0 0.001919 271.42920 491.46921
570.0 0.001754 271.48630 491.79489
530.0 0.001887 271.54251 491.71805
515.0 0.001942 271.59805 491.16733
519.0 0.001927 271.65265 490.03653
537.0 0.001862 271.70645 488.29953
531.0 0.001883 271.75937 486.17395
507.0 0.001972 271.81128 483.61060
507.0 0.001972 271.86243 480.73141
476.0 0.002101 271.91260 477.63879
457.0 0.002188 271.96191 474.46350
479.0 0.002088 272.01031 471.22272
474.0 0.002110 272.05768 468.03058
468.0 0.002137 272.10422 464.98709
461.0 0.002169 272.14969 462.15234
415.0 0.002410 272.19431 459.57367
420.0 0.002381 272.23792 457.29343
429.0 0.002331 272.28052 455.33179
427.0 0.002342 272.32205 453.68597
430.0 0.002326 272.36264 452.34604
431.0 0.002320 272.40231 451.33246
426.0 0.002347 272.44089 450.50220
440.0 0.002273 272.47833 449.88025
393.0 0.002545 272.51477 449.35785
416.0 0.002404 272.55014 448.96542
472.0 0.002119 272.58450 448.63239
447.0 0.002237 272.61777 448.39050
407.0 0.002457 272.64984 448.12494
465.0 0.002151 272.68091 447.81961
443.0 0.002257 272.71078 447.57281
422.0 0.002370 272.73956 447.34262
479.0 0.002088 272.76721 447.12256
427.0 0.002342 272.79364 446.97522
398.0 0.002513 272.81900 446.91730
420.0 0.002381 272.84314 446.96979
434.0 0.002304 272.86612 447.16516
404.0 0.002475 272.88782 447.49728
380.0 0.002632 272.90836 447.98904
426.0 0.002347 272.92767 448.60812
437.0 0.002288 272.94571 449.33646
452.0 0.002212 272.96249 450.26917
450.0 0.002222 272.97809 451.28922
387.0 0.002584 272.99234 452.38275
453.0 0.002208 273.00534 453.50125
464.0 0.002155 273.01697 454.59531
482.0 0.002075 273.02740 455.62006
440.0 0.002273 273.03644 456.52536
459.0 0.002179 273.04407 457.27451
453.0 0.002208 273.05048 457.82611
477.0 0.002096 273.05548 458.11304
483.0 0.002070 273.05905 458.12091
521.0 0.001919 273.06134 457.81689
486.0 0.002058 273.06219 457.19812
457.0 0.002188 273.06149 456.19348
501.0 0.001996 273.05957 454.88751
487.0 0.002053 273.05609 453.31155
453.0 0.002208 273.05115 451.39789
453.0 0.002208 273.04471 449.24957
465.0 0.002151 273.03680 446.89917
448.0 0.002232 273.02744 444.46768
416.0 0.002404 273.01660 441.98019
444.0 0.002252 273.00415 439.55057
453.0 0.002208 272.99020 437.21912
443.0 0.002257 272.97467 434.92789
445.0 0.002247 272.95758 432.88205
460.0 0.002174 272.93896 431.07529
435.0 0.002299 272.91867 429.43225
423.0 0.002364 272.89682 428.04224
435.0 0.002299 272.87329 426.82214
440.0 0.002273 272.84821 425.78333
436.0 0.002294 272.82144 424.87701
414.0 0.002415 272.79297 424.06732
411.0 0.002433 272.76279 423.31760
421.0 0.002375 272.73096 422.58536
427.0 0.002342 272.69742 421.83835
426.0 0.002347 272.66211 421.03879
427.0 0.002342 272.62509 420.15869
447.0 0.002237 272.58636 419.18356
426.0 0.002347 272.54572 418.07471
417.0 0.002398 272.50339 416.87851
423.0 0.002364 272.45929 415.55359
436.0 0.002294 272.41327 414.07202
407.0 0.002457 272.36545 412.65521
412.0 0.002427 272.31577 411.24548
411.0 0.002433 272.26425 409.90460
395.0 . . .
loop_
_refln_index_h
_refln_index_k
_refln_index_l
_pd_refln_wavelength_id
_refln_observed_status
_refln_F_squared_meas
_refln_F_squared_calc
_refln_phase_calc
_refln_d_spacing
_gsas_i100_meas
0 2 0 1 o 28894.268 29936.449 0.00 6.65981 7.97
0 2 0 2 o 31359.732 29936.449 0.00 6.65981 4.35
1 1 1 1 o 18334.572 20241.148 0.00 6.06650 16.02
1 1 1 2 o 19537.781 20241.148 0.00 6.06650 8.55
2 0 0 1 o 3015.703 3486.943 180.00 4.84150 0.16
2 0 0 2 o 2881.045 3486.943 180.00 4.84150 0.07
0 0 2 1 o 49578.23 52526.88 0.00 4.79572 5.23
0 0 2 2 o 51381.27 52526.88 0.00 4.79572 2.74
1 2 1 1 o 3137.604 3217.562 0.00 4.76288 0.73
1 2 1 2 o 3035.348 3217.562 0.00 4.76288 0.33
2 1 0 1 o 164606.13 167888.78 180.00 4.55023 37.16
2 1 0 2 o 168962.69 167888.78 180.00 4.55023 19.07
1 0 2 1 o 232579.53 238146.73 0.00 4.29752 47.54
1 0 2 2 o 233718.34 238146.73 0.00 4.29752 23.78
2 1 1 1 o 105346.23 105346.91 0.00 4.11107 39.85
2 1 1 2 o 105018.95 105346.91 0.00 4.11107 19.75
1 1 2 1 o 113663.82 112252.38 0.00 4.08991 42.52
1 1 2 2 o 114876.49 112252.38 0.00 4.08991 21.41
0 3 1 1 o 519000.9 516877.0 180.00 4.02914 100.00
0 3 1 2 o 518155.3 516877.0 180.00 4.02914 49.65
2 2 0 1 o 84084.49 81373.80 180.00 3.91606 14.53
2 2 0 2 o 84724.38 81373.80 180.00 3.91606 7.29
0 2 2 1 o 51707.24 48765.70 0.00 3.89171 8.83
0 2 2 2 o 52539.49 48765.70 0.00 3.89171 4.48
1 3 1 1 o 88757.39 82636.42 180.00 3.71994 29.34
1 3 1 2 o 89360.82 82636.42 180.00 3.71994 14.71
2 2 1 1 o 206634.88 203881.02 180.00 3.62551 61.32
2 2 1 2 o 202000.30 203881.02 180.00 3.62551 29.71
1 2 2 1 o 198.594 125.145 0.00 3.61098 0.07
1 2 2 2 o 544.130 125.145 0.00 3.61098 0.09
2 0 2 1 o 166154.81 165634.31 180.00 3.40716 22.55
2 0 2 2 o 159933.05 165634.31 180.00 3.40716 10.76
0 4 0 1 o 133233.17 124463.16 180.00 3.32991 9.49
0 4 0 2 o 129087.93 124463.16 180.00 3.32991 4.57
2 1 2 1 o 20539.824 20329.709 180.00 3.30087 5.10
2 1 2 2 o 20454.699 20329.709 180.00 3.30087 2.52
2 3 0 1 o 42504.05 44010.45 180.00 3.27226 5.02
2 3 0 2 o 41793.16 44010.45 180.00 3.27226 2.45
0 1 3 1 o 151818.50 148348.28 180.00 3.10884 16.00
0 1 3 2 o 151368.63 148348.28 180.00 3.10884 7.93
2 3 1 1 o 56119.32 55123.40 0.00 3.09698 12.09
2 3 1 2 o 55821.18 55123.40 0.00 3.09698 5.98
1 3 2 1 o 27300.988 26992.631 0.00 3.08790 5.87
1 3 2 2 o 27052.473 26992.631 0.00 3.08790 2.89
2 2 2 1 o 63825.33 61636.08 180.00 3.03325 12.79
2 2 2 2 o 60563.47 61636.08 180.00 3.03325 5.98
1 4 1 1 o 17013.123 16072.075 180.00 2.99180 3.59
1 4 1 2 o 16749.932 16072.075 180.00 2.99180 1.76
3 1 1 1 o 60762.06 58632.84 0.00 2.98148 12.06
3 1 1 2 o 57589.88 58632.84 0.00 2.98148 5.65
1 1 3 1 o 2598.970 3522.489 0.00 2.96002 0.41
1 1 3 2 o 1115.402 3522.489 0.00 2.96002 0.04
3 2 1 1 o 40482.28 39906.09 180.00 2.77986 6.96
3 2 1 2 o 41010.03 39906.09 180.00 2.77986 3.51
1 2 3 1 o 134211.77 136292.66 0.00 2.76245 22.47
1 2 3 2 o 130550.18 136292.66 0.00 2.76245 10.82
2 4 0 1 o 96291.02 97975.55 180.00 2.74362 8.27
2 4 0 2 o 92979.34 97975.55 180.00 2.74362 3.95
0 4 2 1 o 22751.354 24310.908 0.00 2.73521 2.02
0 4 2 2 o 20738.232 24310.908 0.00 2.73521 0.91
2 3 2 1 o 4622.951 4266.200 180.00 2.70298 0.78
2 3 2 2 o 4869.270 4266.200 180.00 2.70298 0.41
3 0 2 1 o 103779.74 91662.66 0.00 2.67769 7.93
3 0 2 2 o 96165.12 91662.66 0.00 2.67769 3.61
2 4 1 1 o 36314.97 33709.516 0.00 2.63782 5.62
1 4 2 1 o 29590.029 27947.900 180.00 2.63221 4.37
2 4 1 2 o 35850.02 33709.516 0.00 2.63782 2.75
1 4 2 2 o 29875.416 27947.900 180.00 2.63221 2.20
3 1 2 1 o 38527.23 36105.21 180.00 2.62517 5.41
3 1 2 2 o 38327.33 36105.21 180.00 2.62517 2.68
2 1 3 1 o 38756.15 36634.16 0.00 2.61596 5.51
2 1 3 2 o 37018.30 36634.16 0.00 2.61596 2.59
0 3 3 1 o 368.699 354.591 180.00 2.59447 0.02
0 3 3 2 o 537.368 354.591 180.00 2.59447 0.02
0 5 1 1 o 63845.43 55511.57 180.00 2.56676 4.60
0 5 1 2 o 58481.27 55511.57 180.00 2.56676 2.06
3 3 1 1 o 26124.973 25107.658 180.00 2.51906 3.52
3 3 1 2 o 26642.514 25107.658 180.00 2.51906 1.79
1 3 3 1 o 156853.55 155666.25 180.00 2.50607 20.90
1 3 3 2 o 149902.70 155666.25 180.00 2.50607 9.85
3 2 2 1 o 11138.856 10962.810 180.00 2.48440 1.28
1 5 1 1 o 5130.760 5001.253 180.00 2.48108 0.71
3 2 2 2 o 11384.282 10962.810 180.00 2.48440 0.66
2 2 3 1 o 20662.070 19954.512 0.00 2.47659 2.53
1 5 1 2 o 5122.263 5001.253 180.00 2.48108 0.35
2 2 3 2 o 19427.545 19954.512 0.00 2.47659 1.16
4 0 0 1 o 40897.68 40444.80 180.00 2.42075 1.17
4 0 0 2 o 38215.36 40444.80 180.00 2.42075 0.54
0 0 4 1 o 63921.60 56185.25 180.00 2.39786 1.91
0 0 4 2 o 67605.66 56185.25 180.00 2.39786 1.01
4 1 0 1 o 9846.901 9107.820 180.00 2.38174 0.60
2 4 2 1 o 31686.041 29653.689 180.00 2.38144 3.54
4 1 0 2 o 9580.918 9107.820 180.00 2.38174 0.29
2 4 2 2 o 30935.195 29653.689 180.00 2.38144 1.71
2 5 0 1 o 167264.09 156923.86 0.00 2.33395 9.69
2 5 0 2 o 163386.34 156923.86 0.00 2.33395 4.69
1 0 4 1 o 46269.29 44582.68 0.00 2.32755 2.37
1 0 4 2 o 45544.49 44582.68 0.00 2.32755 1.15
4 1 1 1 o 199203.39 190987.27 180.00 2.31153 21.67
4 1 1 2 o 195560.48 190987.27 180.00 2.31153 10.54
3 3 2 1 o 40138.94 37667.21 180.00 2.29296 4.80
1 1 4 1 o 7003.063 6652.818 0.00 2.29281 0.67
3 3 2 2 o 39078.78 37667.21 180.00 2.29296 2.32
1 1 4 2 o 6848.619 6652.818 0.00 2.29281 0.32
2 3 3 1 o 33155.813 32190.217 0.00 2.28682 3.46
2 3 3 2 o 32102.779 32190.217 0.00 2.28682 1.65
4 2 0 1 o 75057.30 74817.19 0.00 2.27512 3.78
4 2 0 2 o 75130.24 74817.19 0.00 2.27512 1.88
2 5 1 1 o 43757.96 44353.43 0.00 2.26777 4.77
1 5 2 1 o 47475.70 48970.84 180.00 2.26420 4.72
2 5 1 2 o 42921.86 44353.43 0.00 2.26777 2.32
1 5 2 2 o 47799.19 48970.84 180.00 2.26420 2.37
0 2 4 1 o 75814.92 77372.13 0.00 2.25608 3.92
3 4 1 1 o 5841.523 6002.842 0.00 2.25277 0.61
0 2 4 2 o 75145.77 77372.13 0.00 2.25608 1.93
3 4 1 2 o 5797.185 6002.842 0.00 2.25277 0.30
1 4 3 1 o 21755.400 22698.883 180.00 2.24347 2.28
3 1 3 1 o 50930.82 51716.05 0.00 2.23911 4.69
1 4 3 2 o 22198.730 22698.883 180.00 2.24347 1.16
3 1 3 2 o 50491.06 51716.05 0.00 2.23911 2.30
0 6 0 1 o 278401.06 269606.06 0.00 2.21994 7.52
0 6 0 2 o 273989.53 269606.06 0.00 2.21994 3.67
4 2 1 1 o 7603.665 7438.188 180.00 2.21369 0.80
4 2 1 2 o 7605.722 7438.188 180.00 2.21369 0.40
1 2 4 1 o 7351.789 7758.338 0.00 2.19723 0.69
1 2 4 2 o 7873.287 7758.338 0.00 2.19723 0.37
4 0 2 1 o -458.780 408.479 180.00 2.16104 0.01
4 0 2 2 o 235.416 408.479 180.00 2.16104 0.02
3 2 3 1 o 9724.846 9131.197 180.00 2.14984 0.64
2 0 4 1 o 9871.386 9236.337 180.00 2.14876 0.34
3 2 3 2 o 10583.443 9131.197 180.00 2.14984 0.36
2 0 4 2 o 11209.403 9236.337 180.00 2.14876 0.21
4 1 2 1 o 6369.620 6016.974 180.00 2.13315 0.70
4 1 2 2 o 6695.778 6016.974 180.00 2.13315 0.37
4 3 0 1 o 466.518 435.901 180.00 2.12537 0.02
2 1 4 1 o 129945.94 120744.18 0.00 2.12133 12.18
4 3 0 2 o 455.206 435.901 180.00 2.12537 0.01
2 1 4 2 o 121080.88 120744.18 0.00 2.12133 5.58
1 6 1 1 o -1.780 8.838 180.00 2.11075 0.02
1 6 1 2 o 62.724 8.838 180.00 2.11075 0.01
2 5 2 1 o 38363.42 34307.449 0.00 2.09861 3.91
2 5 2 2 o 37351.53 34307.449 0.00 2.09861 1.89
3 4 2 1 o 102320.16 103059.18 180.00 2.08671 8.83
2 4 3 1 o 6540.647 6792.021 180.00 2.08208 0.58
3 4 2 2 o 99168.30 103059.18 180.00 2.08671 4.22
2 4 3 2 o 6374.351 6792.021 180.00 2.08208 0.28
4 3 1 1 o 11755.531 12992.820 0.00 2.07503 1.03
4 3 1 2 o 11214.746 12992.820 0.00 2.07503 0.49
1 3 4 1 o 7117.797 7489.707 0.00 2.06146 0.64
1 3 4 2 o 7699.693 7489.707 0.00 2.06146 0.35
4 2 2 1 o 76028.97 73588.77 0.00 2.05553 6.62
4 2 2 2 o 76227.30 73588.77 0.00 2.05553 3.30
0 5 3 1 o 55185.77 54838.13 180.00 2.04660 2.56
2 2 4 1 o 30942.695 30901.150 180.00 2.04495 2.61
0 5 3 2 o 53010.13 54838.13 180.00 2.04660 1.22
2 2 4 2 o 29486.043 30901.150 180.00 2.04495 1.22
3 3 3 1 o 17783.051 16571.711 180.00 2.02217 1.33
2 6 0 1 o 59942.44 57947.68 180.00 2.01792 2.72
3 3 3 2 o 16972.400 16571.711 180.00 2.02217 0.62
0 6 2 1 o 97093.02 95472.66 0.00 2.01457 4.27
2 6 0 2 o 59016.20 57947.68 180.00 2.01792 1.33
0 6 2 2 o 97552.27 95472.66 0.00 2.01457 2.14
3 5 1 1 o 620.294 596.294 180.00 2.00896 0.07
3 5 1 2 o 586.716 596.294 180.00 2.00896 0.03
1 5 3 1 o 22078.736 23307.729 180.00 2.00236 1.80
1 5 3 2 o 20532.418 23307.729 180.00 2.00236 0.82
2 6 1 1 o 98907.85 95153.16 0.00 1.97469 8.47
1 6 2 1 o 92958.22 91147.55 0.00 1.97233 7.85
2 6 1 2 o 96219.30 95153.16 0.00 1.97469 4.08
1 6 2 2 o 92518.44 91147.55 0.00 1.97233 3.88
4 4 0 1 o 365599.0 366588.6 0.00 1.95803 14.12
4 4 0 2 o 367342.5 366588.6 0.00 1.95803 7.06
0 4 4 1 o 200003.95 198882.59 0.00 1.94585 7.35
4 3 2 1 o 6637.028 6682.046 180.00 1.94310 0.62
0 4 4 2 o 196431.52 198882.59 0.00 1.94585 3.57
4 3 2 2 o 6582.253 6682.046 180.00 1.94310 0.31
2 3 4 1 o 46223.90 47006.26 0.00 1.93415 3.68
2 3 4 2 o 43445.31 47006.26 0.00 1.93415 1.71
3 0 4 1 o 438.651 609.584 180.00 1.92482 0.03
3 0 4 2 o 467.050 609.584 180.00 1.92482 0.02
4 4 1 1 o 3240.511 3564.532 0.00 1.91846 0.27
4 4 1 2 o 3433.771 3564.532 0.00 1.91846 0.14
4 1 3 1 o 13664.160 14618.906 180.00 1.91000 1.02
1 4 4 1 o 1208.819 1290.401 0.00 1.90772 0.11
4 1 3 2 o 14290.440 14618.906 180.00 1.91000 0.53
3 1 4 1 o 24853.773 25407.268 180.00 1.90503 1.90
1 4 4 2 o 1253.772 1290.401 0.00 1.90772 0.06
3 1 4 2 o 25174.193 25407.268 180.00 1.90503 0.96
0 1 5 1 o 142729.00 143311.97 180.00 1.89870 4.94
0 1 5 2 o 144367.73 143311.97 180.00 1.89870 2.49
3 5 2 1 o 50675.18 51890.82 0.00 1.88853 3.59
2 5 3 1 o 31982.064 32736.016 0.00 1.88509 2.27
3 5 2 2 o 50970.42 51890.82 0.00 1.88853 1.80
2 5 3 2 o 32953.871 32736.016 0.00 1.88509 1.17
5 1 1 1 o 803.159 799.653 180.00 1.87930 0.02
3 4 3 1 o 22925.809 22260.980 0.00 1.87645 1.71
5 1 1 2 o 808.649 799.653 180.00 1.87930 0.01
3 4 3 2 o 23821.342 22260.980 0.00 1.87645 0.89
0 7 1 1 o 43827.89 40384.73 0.00 1.86643 1.76
1 1 5 1 o 29351.682 27849.027 180.00 1.86322 1.96
0 7 1 2 o 40574.11 40384.73 0.00 1.86643 0.80
2 6 2 1 o 24300.516 24917.805 180.00 1.85997 1.63
1 1 5 2 o 26745.209 27849.027 180.00 1.86322 0.87
2 6 2 2 o 22840.502 24917.805 180.00 1.85997 0.75
4 2 3 1 o 4232.736 4664.061 0.00 1.85368 0.32
3 2 4 1 o 41676.12 41666.89 180.00 1.84914 2.88
4 2 3 2 o 4666.745 4664.061 0.00 1.85368 0.18
3 2 4 2 o 47816.14 41666.89 180.00 1.84914 1.68
1 7 1 1 o 27198.910 29976.535 0.00 1.83269 1.97
1 7 1 2 o 28821.049 29976.535 0.00 1.83269 1.05
5 2 1 1 o 75848.21 74933.18 180.00 1.82558 5.23
5 2 1 2 o 82893.45 74933.18 180.00 1.82558 2.88
4 4 2 1 o 147781.34 140395.55 0.00 1.81276 10.25
1 2 5 1 o 23492.566 22678.137 180.00 1.81082 1.81
4 4 2 2 o 142793.36 140395.55 0.00 1.81276 4.90
1 2 5 2 o 23130.648 22678.137 180.00 1.81082 0.88
2 4 4 1 o 65044.89 63650.59 180.00 1.80549 4.72
2 4 4 2 o 66734.13 63650.59 180.00 1.80549 2.41
3 6 1 1 o 51330.76 49105.55 0.00 1.79670 3.83
5 0 2 1 o 17416.227 16674.814 180.00 1.79571 0.53
3 6 1 2 o 49812.72 49105.55 0.00 1.79670 1.84
1 6 3 1 o 93284.34 92116.60 180.00 1.79197 6.63
4 5 0 1 o 2661.631 2637.323 0.00 1.79155 0.07
5 0 2 2 o 16837.189 16674.814 180.00 1.79571 0.25
1 6 3 2 o 89360.43 92116.60 180.00 1.79197 3.14
4 5 0 2 o 2570.671 2637.323 0.00 1.79155 0.04
5 1 2 1 o 70867.53 69615.01 180.00 1.77961 4.32
5 1 2 2 o 69985.05 69615.01 180.00 1.77961 2.12
2 7 0 1 o 10426.000 10588.076 180.00 1.77094 0.40
4 3 3 1 o 104904.93 106415.65 180.00 1.76996 6.37
2 1 5 1 o 16147.701 16580.162 0.00 1.76763 0.98
2 7 0 2 o 10278.440 10588.076 180.00 1.77094 0.20
3 3 4 1 o 2031.533 2079.993 180.00 1.76600 0.12
4 3 3 2 o 103863.49 106415.65 180.00 1.76996 3.13
2 1 5 2 o 16099.773 16580.162 0.00 1.76763 0.49
3 3 4 2 o 2016.305 2079.993 180.00 1.76600 0.06
4 5 1 1 o 25910.180 26878.477 180.00 1.76109 1.62
0 3 5 1 o 79822.31 82989.02 0.00 1.76095 2.49
4 5 1 2 o 24389.563 26878.477 180.00 1.76109 0.75
0 3 5 2 o 75119.30 82989.02 0.00 1.76095 1.15
1 5 4 1 o 31169.617 35781.11 180.00 1.75276 1.94
1 5 4 2 o 31971.506 35781.11 180.00 1.75276 1.00
5 3 1 1 o 4476.925 4600.085 0.00 1.74545 0.23
2 7 1 1 o 49365.30 53974.82 0.00 1.74150 3.01
5 3 1 2 o 4281.539 4600.085 0.00 1.74545 0.11
1 7 2 1 o 164.470 171.252 0.00 1.73988 0.01
2 7 1 2 o 49341.66 53974.82 0.00 1.74150 1.50
1 7 2 2 o 160.766 171.252 0.00 1.73988 0.00
5 2 2 1 o 14965.268 15902.257 0.00 1.73379 0.87
1 3 5 1 o 9444.971 10088.918 180.00 1.73254 0.52
5 2 2 2 o 14526.965 15902.257 0.00 1.73379 0.42
3 5 3 1 o 8014.799 8797.828 0.00 1.72842 0.54
1 3 5 2 o 9343.332 10088.918 180.00 1.73254 0.26
3 5 3 2 o 8125.453 8797.828 0.00 1.72842 0.27
2 2 5 1 o 178511.25 184871.47 0.00 1.72270 10.29
2 2 5 2 o 184677.67 184871.47 0.00 1.72270 5.33
3 6 2 1 o 11156.136 13206.896 0.00 1.70900 0.58
2 6 3 1 o 11445.771 13257.511 180.00 1.70645 0.64
3 6 2 2 o 12391.593 13206.896 0.00 1.70900 0.33
4 0 4 1 o 387643.0 393179.8 0.00 1.70358 11.21
2 6 3 2 o 13377.790 13257.511 180.00 1.70645 0.39
4 0 4 2 o 413372.1 393179.8 0.00 1.70358 6.01
4 1 4 1 o 19243.531 17776.787 0.00 1.68981 1.23
4 1 4 2 o 20514.658 17776.787 0.00 1.68981 0.65
4 5 2 1 o 6453.585 6504.962 0.00 1.67826 0.43
4 5 2 2 o 6381.968 6504.962 0.00 1.67826 0.21
2 5 4 1 o 118628.78 121242.42 180.00 1.67249 6.52
4 4 3 1 o 193.311 192.642 180.00 1.66977 0.01
2 5 4 2 o 120451.88 121242.42 180.00 1.67249 3.30
3 4 4 1 o 77901.19 78228.98 180.00 1.66644 4.24
4 4 3 2 o 193.363 192.642 180.00 1.66977 0.01
0 8 0 1 o 303382.09 298502.84 0.00 1.66495 4.62
5 3 2 1 o 25873.564 25344.828 180.00 1.66471 1.43
3 4 4 2 o 81781.73 78228.98 180.00 1.66644 2.23
2 7 2 1 o 467.406 437.286 0.00 1.66129 0.04
2 3 5 1 o 33103.492 34502.160 0.00 1.65489 1.76
0 8 0 2 o 315242.41 298502.84 0.00 1.66495 2.40
5 3 2 2 o 26831.326 25344.828 180.00 1.66471 0.74
2 7 2 2 o 431.507 437.286 0.00 1.66129 0.02
2 3 5 2 o 35220.30 34502.160 0.00 1.65489 0.94
4 2 4 1 o 12689.754 12283.589 0.00 1.65044 0.71
5 4 1 1 o 10772.413 10257.857 0.00 1.64914 0.57
4 2 4 2 o 12416.888 12283.589 0.00 1.65044 0.35
5 4 1 2 o 10511.726 10257.857 0.00 1.64914 0.28
5 1 3 1 o 94235.73 88721.16 180.00 1.64376 5.23
5 1 3 2 o 98492.42 88721.16 180.00 1.64376 2.73
1 4 5 1 o 211.118 196.337 0.00 1.63824 0.01
3 1 5 1 o 26859.627 25936.445 0.00 1.63654 1.47
4 6 0 1 o 5574.927 5429.155 180.00 1.63613 0.15
0 7 3 1 o 139203.23 136371.84 180.00 1.63512 3.86
1 4 5 2 o 200.771 196.337 0.00 1.63824 0.00
3 1 5 2 o 26272.145 25936.445 0.00 1.63654 0.71
4 6 0 2 o 5444.514 5429.155 180.00 1.63613 0.07
0 7 3 2 o 134299.73 136371.84 180.00 1.63512 1.84
0 6 4 1 o 9500.163 9489.379 180.00 1.62901 0.27
0 6 4 2 o 9385.476 9489.379 180.00 1.62901 0.13
1 8 1 1 o 30380.256 29969.391 0.00 1.61738 1.69
3 7 1 1 o 70278.77 69385.86 0.00 1.61574 3.84
6 0 0 1 o 71222.16 70030.11 180.00 1.61383 0.84
1 8 1 2 o 30382.736 29969.391 0.00 1.61738 0.84
4 6 1 1 o 1031.659 1022.836 0.00 1.61283 0.05
1 7 3 1 o 19235.596 19058.021 0.00 1.61230 0.98
3 7 1 2 o 70392.85 69385.86 0.00 1.61574 1.91
6 0 0 2 o 71397.79 70030.11 180.00 1.61383 0.42
4 6 1 2 o 1030.515 1022.836 0.00 1.61283 0.02
1 7 3 2 o 19121.404 19058.021 0.00 1.61230 0.48
5 2 3 1 o 64483.61 64419.14 180.00 1.60745 2.98
1 6 4 1 o 47310.30 47237.59 0.00 1.60643 2.42
5 2 3 2 o 64171.70 64419.14 180.00 1.60745 1.48
1 6 4 2 o 47163.50 47237.59 0.00 1.60643 1.20
6 1 0 1 o 165147.14 165084.47 0.00 1.60212 4.27
3 2 5 1 o 3336.644 3301.170 180.00 1.60069 0.24
0 0 6 1 o 62613.07 61759.90 180.00 1.59857 0.83
6 1 0 2 o 167352.89 165084.47 0.00 1.60212 2.16
3 2 5 2 o 3375.658 3301.170 180.00 1.60069 0.12
0 0 6 2 o 64177.24 61759.90 180.00 1.59857 0.42
4 3 4 1 o 7819.849 7617.656 0.00 1.59051 0.46
3 6 3 1 o 6601.382 6270.033 0.00 1.58763 0.24
4 3 4 2 o 8759.354 7617.656 0.00 1.59051 0.25
3 6 3 2 o 6648.042 6270.033 0.00 1.58763 0.12
5 4 2 1 o 68644.70 64873.35 0.00 1.58054 3.36
6 1 1 1 o 11734.351 11116.316 0.00 1.58022 0.52
1 0 6 1 o 4578.983 4331.700 180.00 1.57722 0.12
5 4 2 2 o 67852.86 64873.35 0.00 1.58054 1.65
6 1 1 2 o 11557.979 11116.316 0.00 1.58022 0.25
2 8 0 1 o 3628.329 3612.227 180.00 1.57446 0.05
1 0 6 2 o 4278.013 4331.700 180.00 1.57722 0.06
0 8 2 1 o 26709.980 27013.607 0.00 1.57286 0.57
2 4 5 1 o 41088.95 41685.73 180.00 1.57213 1.98
2 8 0 2 o 3552.338 3612.227 180.00 1.57446 0.02
0 8 2 2 o 26176.182 27013.607 0.00 1.57286 0.28
6 2 0 1 o 42660.19 43824.22 180.00 1.56844 1.03
2 4 5 2 o 40791.97 41685.73 180.00 1.57213 0.98
1 1 6 1 o 23580.486 23075.365 180.00 1.56628 1.07
6 2 0 2 o 44250.61 43824.22 180.00 1.56844 0.53
4 5 3 1 o 43470.17 43985.70 180.00 1.56290 2.07
1 1 6 2 o 22776.916 23075.365 180.00 1.56628 0.51
3 5 4 1 o 9024.711 9043.203 0.00 1.56017 0.40
4 5 3 2 o 45470.80 43985.70 180.00 1.56290 1.09
0 5 5 1 o 4931.036 4599.299 180.00 1.55668 0.12
3 5 4 2 o 9588.819 9043.203 0.00 1.56017 0.22
0 2 6 1 o 29982.551 29649.492 0.00 1.55442 0.68
2 8 1 1 o 68757.91 68006.46 180.00 1.55366 3.37
0 5 5 2 o 4703.399 4599.299 180.00 1.55668 0.06
1 8 2 1 o 29486.084 28754.830 0.00 1.55251 1.38
5 3 3 1 o 21164.680 20530.479 0.00 1.55193 1.09
3 7 2 1 o 3.610 3.374 0.00 1.55106 0.00
0 2 6 2 o 29604.004 29649.492 0.00 1.55442 0.33
2 8 1 2 o 66965.55 68006.46 180.00 1.55366 1.62
2 7 3 1 o 32831.324 33335.652 0.00 1.54916 1.61
1 8 2 2 o 28521.615 28754.830 0.00 1.55251 0.66
4 6 2 1 o 21000.146 21114.906 0.00 1.54849 1.03
5 3 3 2 o 20553.768 20530.479 0.00 1.55193 0.52
6 2 1 1 o 98090.79 97660.64 0.00 1.54788 4.50
3 7 2 2 o 3.569 3.374 0.00 1.55106 0.00
5 5 1 1 o 2467.748 2457.835 180.00 1.54594 0.15
3 3 5 1 o 20686.068 20638.561 0.00 1.54585 0.87
2 7 3 2 o 33323.988 33335.652 0.00 1.54916 0.81
4 6 2 2 o 21096.848 21114.906 0.00 1.54849 0.51
6 2 1 2 o 97846.18 97660.64 0.00 1.54788 2.23
2 6 4 1 o 32666.486 32580.365 180.00 1.54395 1.54
5 5 1 2 o 2488.142 2457.835 180.00 1.54594 0.07
3 3 5 2 o 20818.516 20638.561 0.00 1.54585 0.43
2 6 4 2 o 32245.510 32580.365 180.00 1.54395 0.75
1 5 5 1 o 35359.69 36830.73 180.00 1.53695 1.71
1 2 6 1 o 45680.38 46232.36 0.00 1.53477 2.03
1 5 5 2 o 35473.95 36830.73 180.00 1.53695 0.86
1 2 6 2 o 45138.75 46232.36 0.00 1.53477 1.00
6 0 2 1 o 61925.80 62148.61 180.00 1.52955 1.41
6 0 2 2 o 63229.07 62148.61 180.00 1.52955 0.72
6 1 2 1 o 715.840 724.158 0.00 1.51956 0.02
2 0 6 1 o 34469.637 35409.82 180.00 1.51797 0.81
6 3 0 1 o 60242.34 61348.37 0.00 1.51674 1.45
4 4 4 1 o 44421.64 45178.22 180.00 1.51662 2.13
6 1 2 2 o 721.024 724.158 0.00 1.51956 0.01
2 0 6 2 o 35813.14 35409.82 180.00 1.51797 0.42
6 3 0 2 o 63431.33 61348.37 0.00 1.51674 0.76
4 4 4 2 o 46810.20 45178.22 180.00 1.51662 1.13
2 1 6 1 o 42065.06 40688.48 0.00 1.50821 1.76
5 0 4 1 o 198.571 192.289 0.00 1.50660 0.00
2 1 6 2 o 42280.70 40688.48 0.00 1.50821 0.88
5 0 4 2 o 204.309 192.289 0.00 1.50660 0.00
6 3 1 1 o 79983.80 77806.45 0.00 1.49813 3.44
5 1 4 1 o 14226.230 14347.361 180.00 1.49706 0.58
4 7 0 1 o 5563.208 5752.865 180.00 1.49597 0.16
2 8 2 1 o 74333.43 76508.39 180.00 1.49590 3.66
6 3 1 2 o 76759.46 77806.45 0.00 1.49813 1.63
4 1 5 1 o 8333.021 8431.560 0.00 1.49398 0.34
5 1 4 2 o 14142.258 14347.361 180.00 1.49706 0.29
4 7 0 2 o 5601.386 5752.865 180.00 1.49597 0.08
2 8 2 2 o 74766.66 76508.39 180.00 1.49590 1.83
6 2 2 1 o 20884.631 21274.053 180.00 1.49074 0.82
4 1 5 2 o 8269.073 8431.560 0.00 1.49398 0.17
5 5 2 1 o 97355.85 99475.83 0.00 1.48901 4.12
6 2 2 2 o 20848.125 21274.053 180.00 1.49074 0.41
1 3 6 1 o 11193.886 11400.360 180.00 1.48623 0.49
5 5 2 2 o 98819.73 99475.83 0.00 1.48901 2.09
5 4 3 1 o 25322.586 24289.834 0.00 1.48307 1.09
1 3 6 2 o 12018.363 11400.360 180.00 1.48623 0.26
2 5 5 1 o 31349.037 29587.779 0.00 1.48196 1.40
2 2 6 1 o 10374.606 10357.103 180.00 1.48001 0.43
5 4 3 2 o 23745.867 24289.834 0.00 1.48307 0.50
2 5 5 2 o 28372.357 29587.779 0.00 1.48196 0.62
4 7 1 1 o 282202.59 293609.13 180.00 1.47810 12.27
3 4 5 1 o 162.224 168.046 180.00 1.47775 0.01
2 2 6 2 o 10140.332 10357.103 180.00 1.48001 0.21
4 7 1 2 o 285576.91 293609.13 180.00 1.47810 6.19
3 4 5 2 o 164.125 168.046 180.00 1.47775 0.00
1 7 4 1 o 4.418 4.436 0.00 1.47317 0.00
5 2 4 1 o 21944.150 20329.170 0.00 1.46947 0.90
1 7 4 2 o 4.609 4.436 0.00 1.47317 0.00
4 2 5 1 o 4978.406 4079.813 0.00 1.46656 0.21
5 2 4 2 o 24643.152 20329.170 0.00 1.46947 0.52
4 2 5 2 o 4226.370 4079.813 0.00 1.46656 0.08
0 9 1 1 o 93543.02 90887.75 180.00 1.46265 2.07
3 8 1 1 o 12129.565 11850.138 180.00 1.46239 0.50
1 8 3 1 o 38339.11 39014.84 0.00 1.45983 1.57
0 9 1 2 o 89069.15 90887.75 180.00 1.46265 0.97
3 8 1 2 o 11640.958 11850.138 180.00 1.46239 0.24
3 7 3 1 o 107598.28 109381.90 0.00 1.45863 4.31
4 6 3 1 o 16.120 17.114 0.00 1.45649 0.00
1 8 3 2 o 38250.64 39014.84 0.00 1.45983 0.78
3 7 3 2 o 106551.55 109381.90 0.00 1.45863 2.12
3 6 4 1 o 784.638 806.932 180.00 1.45428 0.04
4 6 3 2 o 15.466 17.114 0.00 1.45649 0.00
6 4 0 1 o 16006.967 16629.900 180.00 1.45226 0.34
3 6 4 2 o 777.519 806.932 180.00 1.45428 0.02
6 4 0 2 o 16001.123 16629.900 180.00 1.45226 0.17
6 3 2 1 o 441.817 489.488 180.00 1.44614 0.04
1 9 1 1 o 3824.917 4009.258 180.00 1.44624 0.15
5 6 1 1 o 36288.34 37162.23 0.00 1.44274 1.56
6 3 2 2 o 469.574 489.488 180.00 1.44614 0.02
1 9 1 2 o 3930.080 4009.258 180.00 1.44624 0.08
0 4 6 1 o 252024.98 252182.33 0.00 1.44111 5.38
5 6 1 2 o 37331.79 37162.23 0.00 1.44274 0.80
0 4 6 2 o 253542.02 252182.33 0.00 1.44111 2.70
2 3 6 1 o 3703.786 3701.497 0.00 1.43634 0.11
6 4 1 1 o 30335.992 30394.600 180.00 1.43590 1.24
1 6 5 1 o 13368.504 13419.820 0.00 1.43542 0.66
4 5 4 1 o 13930.149 13972.713 180.00 1.43520 0.63
2 3 6 2 o 3834.744 3701.497 0.00 1.43634 0.06
3 0 6 1 o 145756.28 138982.00 180.00 1.43251 2.81
6 1 3 1 o 46519.07 44266.03 0.00 1.43234 1.83
6 4 1 2 o 31984.275 30394.600 180.00 1.43590 0.66
1 6 5 2 o 14243.193 13419.820 0.00 1.43542 0.35
4 5 4 2 o 14742.209 13972.713 180.00 1.43520 0.33
3 0 6 2 o 143539.03 138982.00 180.00 1.43251 1.37
6 1 3 2 o 45648.07 44266.03 0.00 1.43234 0.89
4 7 2 1 o 5843.773 5738.980 0.00 1.42810 0.30
5 3 4 1 o 196.042 198.793 180.00 1.42670 0.00
1 4 6 1 o 114134.24 116994.04 0.00 1.42541 4.42
4 7 2 2 o 5676.735 5738.980 0.00 1.42810 0.15
2 7 4 1 o 22.407 22.441 0.00 1.42454 0.00
3 1 6 1 o 18282.783 18352.531 0.00 1.42429 0.70
4 3 5 1 o 244872.56 245111.44 180.00 1.42403 9.43
5 3 4 2 o 198.879 198.793 180.00 1.42670 0.00
1 4 6 2 o 117765.94 116994.04 0.00 1.42541 2.29
2 7 4 2 o 22.546 22.441 0.00 1.42454 0.00
3 1 6 2 o 18897.877 18352.531 0.00 1.42429 0.36
4 3 5 2 o 253748.03 245111.44 180.00 1.42403 4.90
2 9 0 1 o 155862.25 155197.48 180.00 1.41531 3.20
3 8 2 1 o 7712.081 7556.607 0.00 1.41392 0.30
2 8 3 1 o 16606.695 16440.814 0.00 1.41247 0.67
2 9 0 2 o 157869.58 155197.48 180.00 1.41531 1.62
3 8 2 2 o 7937.528 7556.607 0.00 1.41392 0.15
2 8 3 2 o 17495.904 16440.814 0.00 1.41247 0.35
6 2 3 1 o 19672.994 18439.154 180.00 1.40812 0.74
5 5 3 1 o 183.194 133.446 0.00 1.40666 0.02
6 2 3 2 o 21010.500 18439.154 180.00 1.40812 0.40
5 5 3 2 o 203.461 133.446 0.00 1.40666 0.01
3 5 5 1 o 12018.652 10876.602 0.00 1.40213 0.41
3 2 6 1 o 13646.408 13147.344 180.00 1.40047 0.51
2 9 1 1 o 43195.63 41922.46 0.00 1.40015 1.76
1 9 2 1 o 68885.49 66989.00 0.00 1.39931 2.73
3 5 5 2 o 11220.604 10876.602 0.00 1.40213 0.19
3 2 6 2 o 13563.648 13147.344 180.00 1.40047 0.25
2 9 1 2 o 43235.40 41922.46 0.00 1.40015 0.88
5 6 2 1 o 4518.110 4363.842 180.00 1.39613 0.17
1 9 2 2 o 69764.02 66989.00 0.00 1.39931 1.38
2 6 5 1 o 103046.02 103113.59 180.00 1.39032 3.96
6 4 2 1 o 17836.037 17822.975 180.00 1.38993 0.62
5 6 2 2 o 4637.107 4363.842 180.00 1.39613 0.09
2 6 5 2 o 103430.70 103113.59 180.00 1.39032 1.98
6 4 2 2 o 18006.742 17822.975 180.00 1.38993 0.31
2 4 6 1 o 502.948 562.167 0.00 1.38122 0.05
6 5 0 1 o 175887.42 184916.14 180.00 1.38030 3.31
2 4 6 2 o 517.403 562.167 0.00 1.38122 0.03
6 5 0 2 o 181928.42 184916.14 180.00 1.38030 1.71
5 4 4 1 o 30157.225 29314.670 0.00 1.37264 1.03
4 8 0 1 o 3328.867 3188.933 0.00 1.37181 0.09
6 3 3 1 o 26835.229 25905.811 0.00 1.37036 0.99
4 4 5 1 o 3557.789 3427.104 180.00 1.37027 0.14
5 4 4 2 o 30039.133 29314.670 0.00 1.37264 0.51
4 8 0 2 o 3270.766 3188.933 0.00 1.37181 0.04
0 8 4 1 o 4548.529 4446.452 0.00 1.36760 0.12
6 3 3 2 o 26384.025 25905.811 0.00 1.37036 0.49
4 4 5 2 o 3496.789 3427.104 180.00 1.37027 0.07
6 5 1 1 o 51699.81 50505.83 0.00 1.36623 1.89
0 8 4 2 o 4649.811 4446.452 0.00 1.36760 0.06
3 3 6 1 o 4438.001 4269.211 0.00 1.36330 0.16
0 1 7 1 o 12680.101 12136.440 180.00 1.36301 0.22
6 5 1 2 o 52950.77 50505.83 0.00 1.36623 0.97
7 1 1 1 o 52.644 50.116 180.00 1.36195 0.00
3 3 6 2 o 4677.528 4269.211 0.00 1.36330 0.08
0 1 7 2 o 13193.092 12136.440 180.00 1.36301 0.12
7 1 1 2 o 51.568 50.116 180.00 1.36195 0.00
4 8 1 1 o 8192.505 7963.401 180.00 1.35799 0.34
2 9 2 1 o 13786.374 13423.115 180.00 1.35743 0.54
1 5 6 1 o 39403.96 38311.11 0.00 1.35718 1.39
5 1 5 1 o 12500.994 12049.398 180.00 1.35578 0.41
4 7 3 1 o 3.272 2.353 0.00 1.35498 0.00
4 8 1 2 o 8185.338 7963.401 180.00 1.35799 0.17
1 8 4 1 o 32292.258 31722.004 0.00 1.35416 1.16
2 9 2 2 o 13668.002 13423.115 180.00 1.35743 0.27
1 5 6 2 o 38842.18 38311.11 0.00 1.35718 0.68
3 7 4 1 o 343.457 341.778 0.00 1.35320 0.02
5 1 5 2 o 11949.840 12049.398 180.00 1.35578 0.19
4 7 3 2 o 1.992 2.353 0.00 1.35498 0.00
4 6 4 1 o 109870.47 111012.02 0.00 1.35149 3.75
0 7 5 1 o 286881.53 288004.06 180.00 1.35093 5.17
1 8 4 2 o 31644.172 31722.004 0.00 1.35416 0.56
3 7 4 2 o 345.181 341.778 0.00 1.35320 0.01
1 1 7 1 o 105454.45 104671.23 180.00 1.34971 3.59
4 6 4 2 o 111724.30 111012.02 0.00 1.35149 1.91
0 7 5 2 o 292114.66 288004.06 180.00 1.35093 2.63
1 1 7 2 o 108308.65 104671.23 180.00 1.34971 1.84
5 7 1 1 o 14063.310 13926.565 180.00 1.34389 0.45
0 9 3 1 o 18363.182 18149.564 180.00 1.34305 0.34
3 8 3 1 o 38461.06 37903.67 180.00 1.34284 1.41
7 2 1 1 o 7808.500 7576.096 0.00 1.34108 0.25
5 7 1 2 o 14215.188 13926.565 180.00 1.34389 0.23
0 9 3 2 o 18104.041 18149.564 180.00 1.34305 0.17
3 8 3 2 o 37560.79 37903.67 180.00 1.34284 0.68
6 0 4 1 o 1799.149 1841.647 180.00 1.33885 0.03
1 7 5 1 o 37540.58 39153.34 180.00 1.33797 1.33
7 2 1 2 o 7272.275 7576.096 0.00 1.34108 0.11
6 0 4 2 o 1771.317 1841.647 180.00 1.33885 0.01
5 2 5 1 o 277.188 283.407 0.00 1.33519 0.01
1 7 5 2 o 38111.68 39153.34 180.00 1.33797 0.68
4 0 6 1 o 117183.82 118857.78 0.00 1.33396 1.89
6 1 4 1 o 47980.09 48411.51 180.00 1.33213 1.51
3 9 1 1 o 1444.529 1465.475 0.00 1.33224 0.08
5 2 5 2 o 281.849 283.407 0.00 1.33519 0.00
0 10 0 1 o 32524.051 32835.199 180.00 1.33196 0.30
4 0 6 2 o 118174.13 118857.78 0.00 1.33396 0.95
1 9 3 1 o 25438.461 25511.674 180.00 1.33031 0.90
1 2 7 1 o 26376.578 26267.637 180.00 1.32939 0.72
7 0 2 1 o 136631.50 135773.16 180.00 1.32910 2.23
6 1 4 2 o 48740.89 48411.51 180.00 1.33213 0.77
3 9 1 2 o 1480.821 1465.475 0.00 1.33224 0.04
0 10 0 2 o 33085.426 32835.199 180.00 1.33196 0.15
5 6 3 1 o 27592.195 27237.488 0.00 1.32758 0.85
4 1 6 1 o 3.636 3.365 0.00 1.32732 0.00
1 9 3 2 o 26042.148 25511.674 180.00 1.33031 0.46
6 5 2 1 o 1771.614 1740.701 180.00 1.32645 0.04
1 2 7 2 o 26869.928 26267.637 180.00 1.32939 0.37
7 0 2 2 o 139517.67 135773.16 180.00 1.32910 1.14
5 6 3 2 o 27683.150 27237.488 0.00 1.32758 0.43
4 1 6 2 o 3.619 3.365 0.00 1.32732 0.00
3 6 5 1 o 140.938 135.995 0.00 1.32377 0.01
6 5 2 2 o 1750.358 1740.701 180.00 1.32645 0.02
7 1 2 1 o 30220.977 30393.152 0.00 1.32253 1.05
6 4 3 1 o 10445.953 10594.980 0.00 1.32225 0.38
3 6 5 2 o 122.190 135.995 0.00 1.32377 0.01
7 1 2 2 o 29553.867 30393.152 0.00 1.32253 0.51
6 4 3 2 o 10343.750 10594.980 0.00 1.32225 0.19
2 5 6 1 o 77990.91 79621.88 180.00 1.31888 2.62
4 8 2 1 o 2478.479 2510.563 0.00 1.31891 0.05
2 8 4 1 o 10864.559 11007.102 180.00 1.31610 0.31
3 4 6 1 o 1207.242 1227.955 0.00 1.31591 0.04
2 5 6 2 o 78258.21 79621.88 180.00 1.31888 1.31
4 8 2 2 o 2484.391 2510.563 0.00 1.31891 0.03
2 8 4 2 o 11352.321 11007.102 180.00 1.31610 0.16
3 4 6 2 o 1279.560 1227.955 0.00 1.31591 0.02
6 2 4 1 o 27413.533 26335.332 180.00 1.31258 0.88
2 1 7 1 o 2713.737 2614.933 0.00 1.31201 0.08
5 5 4 1 o 14638.580 14182.933 0.00 1.31140 0.45
6 2 4 2 o 26880.506 26335.332 180.00 1.31258 0.43
4 5 5 1 o 30186.383 29579.502 180.00 1.30933 0.97
0 3 7 1 o 2322.257 2270.098 180.00 1.30927 0.04
2 1 7 2 o 2664.496 2614.933 0.00 1.31201 0.04
7 3 1 1 o 21679.789 21378.750 0.00 1.30833 0.61
5 5 4 2 o 14362.895 14182.933 0.00 1.31140 0.22
4 2 6 1 o 80.193 79.814 0.00 1.30798 0.00
1 10 1 1 o 527.173 528.952 0.00 1.30722 0.01
4 5 5 2 o 29201.008 29579.502 180.00 1.30933 0.46
0 3 7 2 o 2238.427 2270.098 180.00 1.30927 0.02
5 7 2 1 o 5487.927 5571.179 180.00 1.30598 0.22
6 6 0 1 o 92550.73 93449.14 180.00 1.30535 1.58
7 3 1 2 o 21230.520 21378.750 0.00 1.30833 0.29
4 2 6 2 o 79.569 79.814 0.00 1.30798 0.00
1 10 1 2 o 527.879 528.952 0.00 1.30722 0.01
7 2 2 1 o 52.615 52.559 180.00 1.30340 0.00
5 3 5 1 o 44330.14 44062.52 180.00 1.30286 1.52
5 7 2 2 o 5615.911 5571.179 180.00 1.30598 0.11
6 6 0 2 o 94903.98 93449.14 180.00 1.30535 0.81
2 7 5 1 o 7624.165 7404.758 0.00 1.30122 0.25
7 2 2 2 o 58.650 52.559 180.00 1.30340 0.00
5 3 5 2 o 47000.42 44062.52 180.00 1.30286 0.81
2 7 5 2 o 7875.606 7404.758 0.00 1.30122 0.13
1 3 7 1 o 5873.788 5539.683 0.00 1.29747 0.20
0 6 6 1 o 2790.402 2671.021 180.00 1.29724 0.04
3 9 2 1 o 26252.016 26800.541 180.00 1.29528 0.82
1 3 7 2 o 5342.168 5539.683 0.00 1.29747 0.09
2 9 3 1 o 17634.072 18218.455 0.00 1.29417 0.55
0 6 6 2 o 2589.289 2671.021 180.00 1.29724 0.02
6 6 1 1 o 50513.55 52465.16 180.00 1.29343 1.65
2 2 7 1 o 10312.213 10762.619 0.00 1.29332 0.37
3 9 2 2 o 26102.139 26800.541 180.00 1.29528 0.41
2 9 3 2 o 18150.068 18218.455 0.00 1.29417 0.28
6 6 1 2 o 53751.69 52465.16 180.00 1.29343 0.88
2 2 7 2 o 11122.899 10762.619 0.00 1.29332 0.20
1 6 6 1 o 1191.949 1066.731 0.00 1.28575 0.04
2 10 0 1 o 46868.94 45423.86 180.00 1.28425 0.78
0 10 2 1 o 6563.838 6162.133 0.00 1.28338 0.11
1 6 6 2 o 1218.335 1066.731 0.00 1.28575 0.02
6 3 4 1 o 9206.105 7555.979 180.00 1.28183 0.26
2 10 0 2 o 63007.71 45423.86 180.00 1.28425 0.56
0 10 2 2 o 9464.332 6162.133 0.00 1.28338 0.08
6 3 4 2 o 12684.946 7555.979 180.00 1.28183 0.20
4 3 6 1 o 160.981 40.599 180.00 1.27755 0.01
4 3 6 2 o 86.153 40.599 180.00 1.27755 0.00
7 3 2 1 o 5655.582 4986.110 0.00 1.27327 0.18
2 10 1 1 o 17407.094 15863.094 180.00 1.27289 0.61
1 10 2 1 o 37837.77 35770.89 180.00 1.27226 1.29
7 3 2 2 o 5042.249 4986.110 0.00 1.27327 0.08
2 10 1 2 o 15928.608 15863.094 180.00 1.27289 0.28
4 7 4 1 o 907.267 906.449 180.00 1.26922 0.04
1 10 2 2 o 35800.62 35770.89 180.00 1.27226 0.60
6 5 3 1 o 24012.303 23622.713 0.00 1.26724 0.74
7 4 1 1 o 9078.034 8933.057 180.00 1.26627 0.31
4 7 4 2 o 923.190 906.449 180.00 1.26922 0.02
6 5 3 2 o 23760.258 23622.713 0.00 1.26724 0.36
2 3 7 1 o 10500.884 10451.909 0.00 1.26388 0.34
7 1 3 1 o 13812.782 13752.102 180.00 1.26382 0.45
7 4 1 2 o 8930.994 8933.057 180.00 1.26627 0.15
4 9 0 1 o 3217.300 3220.986 180.00 1.26268 0.05
3 5 6 1 o 13222.325 13217.813 180.00 1.26166 0.37
5 4 5 1 o 2631.663 2638.125 180.00 1.26131 0.09
2 3 7 2 o 10317.055 10451.909 0.00 1.26388 0.16
7 1 3 2 o 13554.470 13752.102 180.00 1.26382 0.22
4 8 3 1 o 2390.749 2431.893 0.00 1.26066 0.09
6 6 2 1 o 31011.500 32137.789 180.00 1.25953 0.93
4 9 0 2 o 3112.305 3220.986 180.00 1.26268 0.02
3 8 4 1 o 2303.082 2396.695 180.00 1.25923 0.08
3 5 6 2 o 12884.955 13217.813 180.00 1.26166 0.18
5 4 5 2 o 2574.371 2638.125 180.00 1.26131 0.05
4 8 3 2 o 2415.241 2431.893 0.00 1.26066 0.04
1 4 7 1 o 19758.313 19366.844 0.00 1.25641 0.61
6 6 2 2 o 32751.832 32137.789 180.00 1.25953 0.49
3 8 4 2 o 2455.705 2396.695 180.00 1.25923 0.04
3 1 7 1 o 179.645 174.088 180.00 1.25564 0.01
1 4 7 2 o 19602.740 19366.844 0.00 1.25641 0.30
2 6 6 1 o 17170.930 16999.693 180.00 1.25304 0.53
3 1 7 2 o 175.171 174.088 180.00 1.25564 0.00
4 9 1 1 o 8201.577 8240.972 180.00 1.25188 0.26
5 8 1 1 o 27539.475 27742.299 180.00 1.25171 0.86
2 6 6 2 o 16474.115 16999.693 180.00 1.25304 0.25
5 7 3 1 o 85240.11 87961.01 180.00 1.24936 2.67
1 9 4 1 o 5093.635 5209.165 0.00 1.24888 0.13
4 9 1 2 o 8026.626 8240.972 180.00 1.25188 0.12
5 8 1 2 o 27053.354 27742.299 180.00 1.25171 0.42
7 2 3 1 o 22948.980 23112.730 0.00 1.24710 0.68
1 8 5 1 o 161.175 161.735 180.00 1.24693 0.00
5 6 4 1 o 497.682 498.855 0.00 1.24662 0.01
5 7 3 2 o 87929.79 87961.01 180.00 1.24936 1.38
3 7 5 1 o 9311.350 9305.627 0.00 1.24618 0.29
1 9 4 2 o 5226.062 5209.165 0.00 1.24888 0.07
4 6 5 1 o 3832.720 3781.545 180.00 1.24484 0.12
7 2 3 2 o 23526.877 23112.730 0.00 1.24710 0.35
1 8 5 2 o 163.552 161.735 180.00 1.24693 0.00
5 6 4 2 o 505.338 498.855 0.00 1.24662 0.01
3 7 5 2 o 9423.911 9305.627 0.00 1.24618 0.15
6 4 4 1 o 54279.32 54606.13 180.00 1.24220 1.63
4 6 5 2 o 3713.907 3781.545 180.00 1.24484 0.06
2 10 2 1 o 36301.65 37529.09 180.00 1.24054 1.16
3 9 3 1 o 379.265 394.189 180.00 1.23998 0.02
3 2 7 1 o 65607.02 67116.84 0.00 1.23923 2.02
6 4 4 2 o 53392.10 54606.13 180.00 1.24220 0.80
4 4 6 1 o 6176.146 6374.995 180.00 1.23830 0.15
2 10 2 2 o 35593.82 37529.09 180.00 1.24054 0.56
3 9 3 2 o 365.512 394.189 180.00 1.23998 0.01
3 2 7 2 o 63943.82 67116.84 0.00 1.23923 0.97
4 4 6 2 o 6174.109 6374.995 180.00 1.23830 0.07
7 4 2 1 o 41656.80 42819.32 0.00 1.23441 1.19
5 0 6 1 o 92682.63 93955.70 0.00 1.23282 1.35
7 4 2 2 o 42655.89 42819.32 0.00 1.23441 0.61
6 7 0 1 o 188.525 186.227 180.00 1.23078 0.01
5 0 6 2 o 95440.77 93955.70 0.00 1.23282 0.69
6 1 5 1 o 35124.65 34591.465 0.00 1.22966 1.01
6 7 0 2 o 188.174 186.227 180.00 1.23078 0.00
5 1 6 1 o 38564.88 38433.13 0.00 1.22758 1.14
6 1 5 2 o 34178.188 34591.465 0.00 1.22966 0.49
2 4 7 1 o 75.147 76.254 180.00 1.22584 0.00
5 1 6 2 o 38282.82 38433.13 0.00 1.22758 0.56
2 4 7 2 o 76.355 76.254 180.00 1.22584 0.00
3 10 1 1 o 10438.126 10160.957 180.00 1.22122 0.38
4 9 2 1 o 865.434 841.329 180.00 1.22106 0.03
5 8 2 1 o 428.265 420.611 180.00 1.22091 0.01
6 7 1 1 o 7900.456 7722.695 0.00 1.22077 0.22
7 3 3 1 o 139203.55 135997.94 0.00 1.22063 4.04
1 10 3 2 o 18973.133 19834.289 0.00 1.21973 0.33
1 10 3 1 o 20059.545 19834.289 0.00 1.21973 0.69
2 9 4 2 o 90892.34 95367.37 0.00 1.21884 1.36
0 5 7 2 o 3586.746 3750.665 180.00 1.21847 0.02
2 9 4 1 o 95260.09 95367.37 0.00 1.21884 2.88
0 5 7 1 o 3733.497 3750.665 180.00 1.21847 0.05
7 5 1 2 o -2.734 1.642 180.00 1.21771 0.00
3 10 1 2 o 10067.430 10160.957 180.00 1.22122 0.18
4 9 2 2 o 831.136 841.329 180.00 1.22106 0.01
5 8 2 2 o 416.587 420.611 180.00 1.22091 0.00
1 7 6 1 o 291.317 300.280 180.00 1.21430 0.01
6 2 5 1 o 107295.91 110335.62 180.00 1.21424 2.99
6 7 1 2 o 7607.212 7722.695 0.00 1.22077 0.11
7 5 1 1 o -0.492 1.642 180.00 1.21771 0.00
7 3 3 2 o 133454.08 135997.94 0.00 1.22063 1.91
2 8 5 2 o 71382.36 73213.56 0.00 1.21702 1.01
2 8 5 1 o 70920.63 73213.56 0.00 1.21702 2.02
5 5 5 1 o 28954.520 29758.613 180.00 1.21330 0.88
3 3 7 1 o 194028.55 199182.42 0.00 1.21326 5.52
5 2 6 1 o 16108.942 16700.770 0.00 1.21223 0.46
1 7 6 2 o 289.259 300.280 180.00 1.21430 0.00
6 2 5 2 o 106513.26 110335.62 180.00 1.21424 1.47
8 0 0 1 o 233599.23 242522.83 0.00 1.21038 1.59
5 5 5 2 o 28545.416 29758.613 180.00 1.21330 0.43
3 3 7 2 o 191385.75 199182.42 0.00 1.21326 2.70
5 2 6 2 o 15740.553 16700.770 0.00 1.21223 0.22
1 5 7 1 o 9422.162 10002.764 180.00 1.20894 0.24
6 6 3 1 o 12447.246 13426.950 0.00 1.20851 0.36
8 0 0 2 o 221016.69 242522.83 0.00 1.21038 0.74
1 5 7 2 o 9298.728 10002.764 180.00 1.20894 0.12
6 6 3 2 o 12589.945 13426.950 0.00 1.20851 0.18
8 1 0 1 o 21323.287 22728.586 0.00 1.20541 0.33
3 6 6 1 o 63987.92 65327.04 180.00 1.20366 1.75
8 1 0 2 o 21541.742 22728.586 0.00 1.20541 0.16
0 11 1 1 o 173407.63 183806.23 180.00 1.20134 2.58
3 6 6 2 o 62541.33 65327.04 180.00 1.20366 0.85
0 0 8 1 o 63081.50 65578.68 0.00 1.19893 0.45
0 11 1 2 o 176848.38 183806.23 180.00 1.20134 1.32
7 0 4 1 o 68424.20 71039.55 180.00 1.19820 0.93
6 5 4 1 o 61468.86 60729.92 0.00 1.19626 1.61
8 1 1 1 o 751.965 733.451 180.00 1.19600 0.02
0 0 8 2 o 67158.57 65578.68 0.00 1.19893 0.24
7 0 4 2 o 74111.45 71039.55 180.00 1.19820 0.51
7 1 4 1 o 2571.022 2550.036 0.00 1.19338 0.07
6 5 4 2 o 61082.28 60729.92 0.00 1.19626 0.80
8 1 1 2 o 730.632 733.451 180.00 1.19600 0.01
4 5 6 1 o 681.741 688.320 180.00 1.19277 0.01
3 10 2 1 o 86265.50 87814.35 180.00 1.19257 2.46
6 7 2 1 o 3569.624 3700.485 0.00 1.19214 0.13
1 11 1 1 o 17404.854 17852.496 180.00 1.19220 0.49
2 10 3 1 o 5812.699 6044.608 0.00 1.19170 0.19
8 2 0 1 o 5453.620 5709.288 0.00 1.19087 0.07
4 8 4 1 o 105607.19 111364.84 0.00 1.19072 3.04
7 1 4 2 o 2421.433 2550.036 0.00 1.19338 0.03
1 0 8 1 o 59.001 72.317 0.00 1.18984 0.00
4 5 6 2 o 657.266 688.320 180.00 1.19277 0.01
6 3 5 1 o 33.570 34.699 0.00 1.18977 0.00
3 10 2 2 o 82717.17 87814.35 180.00 1.19257 1.16
7 5 2 1 o 21411.422 22734.268 180.00 1.18929 0.58
6 7 2 2 o 3418.120 3700.485 0.00 1.19214 0.06
1 11 1 2 o 16843.227 17852.496 180.00 1.19220 0.24
2 10 3 2 o 5670.782 6044.608 0.00 1.19170 0.09
8 2 0 2 o 5450.418 5709.288 0.00 1.19087 0.03
5 3 6 1 o 6554.938 6881.896 0.00 1.18788 0.17
4 8 4 2 o 105982.07 111364.84 0.00 1.19072 1.52
4 1 7 1 o 529.283 549.381 180.00 1.18769 0.01
1 0 8 2 o 64.745 72.317 0.00 1.18984 0.00
6 3 5 2 o 34.088 34.699 0.00 1.18977 0.00
2 7 6 1 o 2080.706 2151.837 0.00 1.18663 0.07
7 5 2 2 o 22227.816 22734.268 180.00 1.18929 0.30
7 4 3 1 o 7334.499 7495.180 180.00 1.18626 0.21
1 1 8 1 o 25801.344 26185.053 180.00 1.18512 0.67
5 3 6 2 o 6764.408 6881.896 0.00 1.18788 0.09
4 1 7 2 o 540.292 549.381 180.00 1.18769 0.01
2 7 6 2 o 2036.410 2151.837 0.00 1.18663 0.03
7 4 3 2 o 7090.070 7495.180 180.00 1.18626 0.10
1 1 8 2 o 24632.023 26185.053 180.00 1.18512 0.32
8 2 1 1 o 7534.354 7999.509 0.00 1.18179 0.20
2 5 7 1 o 4662.004 4944.673 0.00 1.18163 0.12
5 7 4 1 o 138.529 150.845 0.00 1.18118 0.01
0 2 8 1 o 92.810 94.877 0.00 1.17996 0.00
4 7 5 1 o 51215.63 51558.05 0.00 1.17967 1.42
3 4 7 1 o 9869.592 9878.904 180.00 1.17949 0.26
7 2 4 1 o 4685.847 4662.407 180.00 1.17927 0.12
8 2 1 2 o 8099.471 7999.509 0.00 1.18179 0.11
2 5 7 2 o 5018.928 4944.673 0.00 1.18163 0.07
5 7 4 2 o 155.640 150.845 0.00 1.18118 0.00
0 2 8 2 o 97.871 94.877 0.00 1.17996 0.00
4 7 5 2 o 52605.57 51558.05 0.00 1.17967 0.73
3 4 7 2 o 10035.404 9878.904 180.00 1.17949 0.13
7 2 4 2 o 4704.953 4662.407 180.00 1.17927 0.06
2 11 0 1 o 44015.25 45447.19 0.00 1.17469 0.65
4 9 3 1 o 31757.398 32643.500 180.00 1.17441 0.86
5 8 3 1 o 42377.01 43486.38 180.00 1.17427 1.14
4 2 7 1 o 145.790 150.174 180.00 1.17377 0.01
8 0 2 1 o 58822.14 59857.93 0.00 1.17358 0.77
3 9 4 1 o 9894.798 10045.410 180.00 1.17325 0.27
0 9 5 1 o 125.153 124.344 0.00 1.17176 0.00
2 11 0 2 o 45583.75 45447.19 0.00 1.17469 0.34
3 8 5 1 o 284.691 282.367 0.00 1.17163 0.01
4 9 3 2 o 33035.598 32643.500 180.00 1.17441 0.45
5 8 3 2 o 44219.36 43486.38 180.00 1.17427 0.60
1 2 8 1 o 46969.41 46034.09 0.00 1.17130 1.24
4 2 7 2 o 158.397 150.174 180.00 1.17377 0.00
8 0 2 2 o 62461.59 59857.93 0.00 1.17358 0.41
3 9 4 2 o 10590.521 10045.410 180.00 1.17325 0.15
8 1 2 1 o 35.998 28.061 180.00 1.16905 0.00
0 9 5 2 o 135.438 124.344 0.00 1.17176 0.00
3 8 5 2 o 296.376 282.367 0.00 1.17163 0.00
1 2 8 2 o 47666.55 46034.09 0.00 1.17130 0.63
8 3 0 1 o 16761.502 16685.877 0.00 1.16776 0.26
5 9 1 1 o 1982.570 2022.834 0.00 1.16716 0.07
4 10 0 1 o 240084.44 244532.39 0.00 1.16697 3.35
8 1 2 2 o 24.583 28.061 180.00 1.16905 0.00
2 11 1 1 o 17872.191 18381.717 0.00 1.16598 0.49
1 11 2 1 o 14632.796 15158.651 180.00 1.16549 0.40
7 6 1 1 o 5256.542 5462.793 180.00 1.16532 0.14
8 3 0 2 o 15846.491 16685.877 0.00 1.16776 0.12
0 10 4 1 o 192594.80 201305.66 0.00 1.16438 2.71
5 9 1 2 o 1909.846 2022.834 0.00 1.16716 0.04
4 10 0 2 o 234541.05 244532.39 0.00 1.16697 1.62
2 0 8 1 o -3.001 0.126 0.00 1.16378 0.00
1 9 5 1 o 7647.208 7907.047 180.00 1.16328 0.19
2 11 1 2 o 17728.836 18381.717 0.00 1.16598 0.24
1 11 2 2 o 14548.114 15158.651 180.00 1.16549 0.20
7 6 1 2 o 5225.805 5462.793 180.00 1.16532 0.07
5 6 5 1 o 16.566 16.868 180.00 1.16145 0.00
0 10 4 2 o 191041.14 201305.66 0.00 1.16438 1.34
2 0 8 2 o -3.603 0.126 0.00 1.16378 0.00
1 9 5 2 o 7622.487 7907.047 180.00 1.16328 0.09
2 1 8 1 o 11410.062 11722.601 180.00 1.15936 0.27
8 3 1 1 o 157156.73 161626.20 180.00 1.15920 4.06
6 8 0 1 o 38085.38 39018.48 180.00 1.15880 0.49
5 6 5 2 o 16.726 16.868 180.00 1.16145 0.00
4 10 1 1 o 441.181 451.880 180.00 1.15843 0.01
6 4 5 1 o 25772.396 26230.129 0.00 1.15787 0.68
1 6 7 1 o 17863.020 18088.838 0.00 1.15762 0.41
7 3 4 1 o 4030.440 4052.821 0.00 1.15682 0.12
2 1 8 2 o 11702.237 11722.601 180.00 1.15936 0.14
8 3 1 2 o 161548.11 161626.20 180.00 1.15920 2.09
5 4 6 1 o 1121.598 1119.983 0.00 1.15613 0.03
1 10 4 1 o 8.316 8.299 180.00 1.15605 0.00
6 8 0 2 o 39132.71 39018.48 180.00 1.15880 0.25
8 2 2 1 o 24199.727 24076.645 0.00 1.15577 0.64
4 10 1 2 o 455.382 451.880 180.00 1.15843 0.01
6 4 5 2 o 26678.078 26230.129 0.00 1.15787 0.35
1 6 7 2 o 18441.092 18088.838 0.00 1.15762 0.21
7 3 4 2 o 4237.479 4052.821 0.00 1.15682 0.06
5 4 6 2 o 1172.351 1119.983 0.00 1.15613 0.02
1 10 4 2 o 8.650 8.299 180.00 1.15605 0.00
0 8 6 1 o 14824.457 14065.286 180.00 1.15311 0.24
8 2 2 2 o 25099.867 24076.645 0.00 1.15577 0.33
4 3 7 1 o 12847.861 12892.638 180.00 1.15163 0.33
6 8 1 1 o 48628.10 49835.00 0.00 1.15044 1.30
0 8 6 2 o 13673.533 14065.286 180.00 1.15311 0.11
1 3 8 1 o 6748.702 6807.684 180.00 1.14929 0.17
3 10 3 1 o 613.998 615.628 180.00 1.14899 0.01
4 3 7 2 o 12851.209 12892.638 180.00 1.15163 0.17
6 7 3 1 o 36257.81 36326.27 0.00 1.14861 0.96
6 8 1 2 o 49901.94 49835.00 0.00 1.15044 0.67
1 3 8 2 o 6923.349 6807.684 180.00 1.14929 0.09
6 6 4 1 o 5400.858 5313.404 180.00 1.14648 0.14
2 2 8 1 o 789.445 777.546 180.00 1.14641 0.02
3 10 3 2 o 623.023 615.628 180.00 1.14899 0.00
7 5 3 1 o 26380.111 25699.766 0.00 1.14606 0.74
6 7 3 2 o 37346.55 36326.27 0.00 1.14861 0.50
1 8 6 1 o 4870.058 4732.805 0.00 1.14502 0.14
3 7 6 1 o 7.177 7.092 0.00 1.14444 0.00
6 6 4 2 o 5397.919 5313.404 180.00 1.14648 0.07
2 2 8 2 o 787.847 777.546 180.00 1.14641 0.01
4 6 6 1 o 62294.16 61384.43 0.00 1.14341 1.62
7 5 3 2 o 26083.762 25699.766 0.00 1.14606 0.36
1 8 6 2 o 4785.856 4732.805 0.00 1.14502 0.07
5 9 2 1 o 59111.23 58504.04 180.00 1.14207 1.54
3 7 6 2 o 7.137 7.092 0.00 1.14444 0.00
2 11 2 1 o 1262.715 1248.726 0.00 1.14096 0.03
4 6 6 2 o 62099.98 61384.43 0.00 1.14341 0.80
7 6 2 1 o 46294.37 45878.10 180.00 1.14034 1.15
3 5 7 1 o 56412.74 56204.84 0.00 1.13995 1.52
5 9 2 2 o 58006.18 58504.04 180.00 1.14207 0.75
2 9 5 1 o 15513.121 15699.408 0.00 1.13888 0.41
2 11 2 2 o 1239.701 1248.726 0.00 1.14096 0.01
8 4 0 1 o 8505.985 8499.368 180.00 1.13756 0.10
7 6 2 2 o 45929.16 45878.10 180.00 1.14034 0.57
3 5 7 2 o 56577.15 56204.84 0.00 1.13995 0.76
2 9 5 2 o 15658.915 15699.408 0.00 1.13888 0.21
6 0 6 1 o 2430.088 2464.515 180.00 1.13572 0.03
8 4 0 2 o 8191.526 8499.368 180.00 1.13756 0.05
8 3 2 1 o 946.377 1010.494 180.00 1.13461 0.04
4 10 2 1 o 50548.80 52666.27 0.00 1.13389 1.31
2 6 7 1 o 1470.437 1525.854 180.00 1.13358 0.04
6 0 6 2 o 2419.840 2464.515 180.00 1.13572 0.02
0 11 3 1 o 1334.852 1339.544 180.00 1.13238 0.02
2 10 4 1 o 8021.725 8026.918 180.00 1.13210 0.20
8 3 2 2 o 1009.711 1010.494 180.00 1.13461 0.02
6 1 6 1 o 48665.71 48758.12 180.00 1.13161 1.29
4 10 2 2 o 52296.39 52666.27 0.00 1.13389 0.68
2 6 7 2 o 1510.634 1525.854 180.00 1.13358 0.02
8 4 1 1 o 2138.509 2140.138 180.00 1.12964 0.05
0 11 3 2 o 1339.768 1339.544 180.00 1.13238 0.01
2 10 4 2 o 8071.786 8026.918 180.00 1.13210 0.10
6 1 6 2 o 49545.63 48758.12 180.00 1.13161 0.66
0 4 8 1 o 35029.617 34508.137 180.00 1.12804 0.50
8 1 3 1 o 34134.504 33796.918 180.00 1.12791 0.81
7 4 4 1 o 419.065 419.798 0.00 1.12744 0.01
8 4 1 2 o 2103.501 2140.138 180.00 1.12964 0.03
6 8 2 1 o 38468.81 39428.36 180.00 1.12639 1.03
3 11 1 1 o 15028.542 15359.191 180.00 1.12588 0.42
2 3 8 1 o 3701.597 3767.281 180.00 1.12575 0.09
0 4 8 2 o 34256.195 34508.137 180.00 1.12804 0.25
8 1 3 2 o 33716.828 33796.918 180.00 1.12791 0.40
7 4 4 2 o 423.580 419.798 0.00 1.12744 0.00
1 11 3 1 o 46564.39 46180.41 180.00 1.12472 1.18
3 0 8 1 o 135938.91 133935.50 180.00 1.12390 1.66
6 8 2 2 o 39905.98 39428.36 180.00 1.12639 0.54
3 11 1 2 o 15395.036 15359.191 180.00 1.12588 0.21
2 3 8 2 o 3767.388 3767.281 180.00 1.12575 0.04
4 4 7 1 o 19.428 19.501 180.00 1.12263 0.00
1 11 3 2 o 46198.05 46180.41 180.00 1.12472 0.58
2 8 6 1 o 21365.750 21270.244 180.00 1.12174 0.61
3 0 8 2 o 136003.83 133935.50 180.00 1.12390 0.83
1 4 8 1 o 97172.58 94995.70 0.00 1.12046 2.38
6 5 5 1 o 6073.762 5942.830 0.00 1.12040 0.14
3 1 8 1 o 22918.293 22364.391 0.00 1.11992 0.58
4 4 7 2 o 19.998 19.501 180.00 1.12263 0.00
6 2 6 1 o 20063.998 19563.770 180.00 1.11956 0.53
2 8 6 2 o 21853.801 21270.244 180.00 1.12174 0.31
5 5 6 1 o 38046.52 37118.67 180.00 1.11882 0.95
7 1 5 1 o 37673.75 36594.54 0.00 1.11804 1.01
1 4 8 2 o 97490.04 94995.70 0.00 1.12046 1.19
6 5 5 2 o 6090.174 5942.830 0.00 1.12040 0.07
3 1 8 2 o 22932.391 22364.391 0.00 1.11992 0.29
4 9 4 1 o 6256.069 6083.467 0.00 1.11724 0.18
5 8 4 1 o 2013.928 1967.609 0.00 1.11713 0.05
6 2 6 2 o 20071.029 19563.770 180.00 1.11956 0.26
5 5 6 2 o 38186.68 37118.67 180.00 1.11882 0.48
8 2 3 1 o 1474.233 1432.899 180.00 1.11597 0.04
4 8 5 1 o 3363.096 3257.205 0.00 1.11585 0.09
7 1 5 2 o 38068.74 36594.54 0.00 1.11804 0.51
5 1 7 1 o 5280.902 5011.925 180.00 1.11462 0.15
4 9 4 2 o 6421.725 6083.467 0.00 1.11724 0.09
5 8 4 2 o 2065.349 1967.609 0.00 1.11713 0.03
8 2 3 2 o 1573.248 1432.899 180.00 1.11597 0.02
4 8 5 2 o 3623.054 3257.205 0.00 1.11585 0.05
5 1 7 2 o 5893.493 5011.925 180.00 1.11462 0.08
0 7 7 1 o 12606.788 10963.302 180.00 1.11192 0.16
7 7 1 1 o 14319.936 12555.694 180.00 1.11134 0.33
0 12 0 1 o 8516.990 7644.316 0.00 1.10997 0.05
0 7 7 2 o 12533.219 10963.302 180.00 1.11192 0.08
7 7 1 2 o 14141.520 12555.694 180.00 1.11134 0.16
3 2 8 1 o 9547.475 8459.330 180.00 1.10823 0.23
5 7 5 1 o 3079.260 2816.484 180.00 1.10798 0.06
0 12 0 2 o 8221.594 7644.316 0.00 1.10997 0.02
8 4 2 1 o 6499.574 6073.103 0.00 1.10685 0.16
7 2 5 1 o 1006.426 952.287 180.00 1.10640 0.03
3 2 8 2 o 8597.985 8459.330 180.00 1.10823 0.10
5 7 5 2 o 2840.674 2816.484 180.00 1.10798 0.03
1 7 7 1 o 135500.45 135129.00 180.00 1.10466 3.37
8 4 2 2 o 6069.478 6073.103 0.00 1.10685 0.07
7 2 5 2 o 950.658 952.287 180.00 1.10640 0.01
5 9 3 1 o 8861.688 8879.131 180.00 1.10362 0.28
3 11 2 1 o 8129.767 8146.802 0.00 1.10331 0.20
5 2 7 1 o 84628.15 84876.20 0.00 1.10309 2.11
2 11 3 1 o 29937.553 30080.154 0.00 1.10262 0.80
7 6 3 1 o 13062.760 13133.535 180.00 1.10206 0.33
8 5 0 1 o 26000.123 26142.561 180.00 1.10196 0.35
1 7 7 2 o 134471.92 135129.00 180.00 1.10466 1.67
3 9 5 2 o 20787.443 20466.648 0.00 1.10143 0.27
2 4 8 1 o 17728.121 17405.961 180.00 1.09861 0.52
3 9 5 1 o 20440.857 20466.648 0.00 1.10143 0.54
5 9 3 2 o 8933.421 8879.131 180.00 1.10362 0.14
6 3 6 2 o 18320.180 17923.859 180.00 1.10029 0.25
3 11 2 2 o 8212.768 8146.802 0.00 1.10331 0.10
5 2 7 2 o 85775.20 84876.20 0.00 1.10309 1.07
6 3 6 1 o 18141.635 17923.859 180.00 1.10029 0.49
8 3 3 1 o 645.607 633.693 180.00 1.09688 0.01
2 11 3 2 o 30466.027 30080.154 0.00 1.10262 0.41
3 6 7 1 o 34520.875 33756.777 180.00 1.09663 0.92
7 6 3 2 o 13316.280 13133.535 180.00 1.10206 0.17
8 5 0 2 o 26535.445 26142.561 180.00 1.10196 0.18
4 10 3 1 o 133.615 130.650 0.00 1.09623 0.00
2 4 8 2 o 17857.873 17405.961 180.00 1.09861 0.26
1 12 1 1 o 24339.664 23736.637 180.00 1.09553 0.65
3 10 4 1 o 42737.18 41594.98 180.00 1.09529 1.07
6 7 4 1 o 8068.400 7736.442 180.00 1.09496 0.25
8 5 1 1 o 44835.84 43209.77 180.00 1.09476 1.11
8 3 3 2 o 660.287 633.693 180.00 1.09688 0.01
3 6 7 2 o 35635.90 33756.777 180.00 1.09663 0.47
4 10 3 2 o 139.050 130.650 0.00 1.09623 0.00
7 5 4 1 o 6457.459 5976.950 180.00 1.09275 0.16
1 12 1 2 o 25602.295 23736.637 180.00 1.09553 0.35
3 10 4 2 o 45013.93 41594.98 180.00 1.09529 0.57
4 7 6 1 o 136.308 116.467 0.00 1.09228 0.01
6 7 4 2 o 8668.661 7736.442 180.00 1.09496 0.14
8 5 1 2 o 47628.40 43209.77 180.00 1.09476 0.59
6 9 0 1 o 116108.13 99565.11 0.00 1.09075 1.53
5 10 1 1 o 6746.579 5607.088 180.00 1.09033 0.19
7 5 4 2 o 7157.692 5976.950 180.00 1.09275 0.09
7 7 2 1 o 3.326 1.318 180.00 1.08961 0.00
4 7 6 2 o 158.998 116.467 0.00 1.09228 0.00
3 3 8 1 o 5704.159 4746.740 0.00 1.08953 0.14
6 8 3 1 o 13091.532 10877.383 180.00 1.08945 0.34
4 5 7 1 o 5791.447 4952.721 180.00 1.08837 0.14
6 9 0 2 o 115757.34 99565.11 0.00 1.09075 0.76
7 3 5 1 o 1403.203 1289.330 0.00 1.08780 0.02
5 10 1 2 o 6483.161 5607.088 180.00 1.09033 0.09
1 10 5 1 o 11863.122 10259.797 180.00 1.08716 0.39
7 7 2 2 o 2.394 1.318 180.00 1.08961 0.00
3 3 8 2 o 5242.494 4746.740 0.00 1.08953 0.06
6 8 3 2 o 11986.476 10877.383 180.00 1.08945 0.15
1 5 8 1 o 46082.84 42437.84 0.00 1.08640 1.13
3 8 6 1 o 54775.99 51184.01 180.00 1.08590 1.35
4 5 7 2 o 5283.856 4952.721 180.00 1.08837 0.06
7 3 5 2 o 1336.041 1289.330 0.00 1.08780 0.01
5 3 7 1 o 68670.55 65350.94 180.00 1.08465 1.56
1 10 5 2 o 10947.052 10259.797 180.00 1.08716 0.18
1 5 8 2 o 43824.69 42437.84 0.00 1.08640 0.53
6 9 1 1 o 30655.211 29672.039 0.00 1.08377 0.76
2 7 7 1 o 2883.697 2798.362 0.00 1.08370 0.07
3 8 6 2 o 52178.99 51184.01 180.00 1.08590 0.63
4 11 0 1 o 4481.642 4409.181 0.00 1.08295 0.07
5 3 7 2 o 65514.98 65350.94 180.00 1.08465 0.73
2 12 0 1 o 53995.92 53852.40 180.00 1.08190 0.76
0 12 2 1 o 39925.77 39796.43 0.00 1.08138 0.56
6 9 1 2 o 29808.832 29672.039 0.00 1.08377 0.36
2 7 7 2 o 2812.081 2798.362 0.00 1.08370 0.03
8 0 4 1 o 19125.484 18958.176 180.00 1.08052 0.23
4 11 0 2 o 4461.100 4409.181 0.00 1.08295 0.03
1 9 6 1 o 20944.943 20658.105 180.00 1.07924 0.50
6 6 5 1 o 52777.94 52016.11 0.00 1.07919 1.27
2 12 0 2 o 54701.15 53852.40 180.00 1.08190 0.39
0 12 2 2 o 40600.30 39796.43 0.00 1.08138 0.29
8 0 4 2 o 19463.668 18958.176 180.00 1.08052 0.12
5 6 6 1 o 42041.73 40951.76 0.00 1.07778 1.00
8 1 4 1 o 897.427 882.917 180.00 1.07698 0.01
1 9 6 2 o 21341.641 20658.105 180.00 1.07924 0.26
6 6 5 2 o 53813.16 52016.11 0.00 1.07919 0.65
4 11 1 1 o 4040.621 3882.012 0.00 1.07611 0.11
5 6 6 2 o 43191.24 40951.76 0.00 1.07778 0.51
2 12 1 1 o 58331.76 55272.13 0.00 1.07508 1.48
6 4 6 1 o 14334.123 13587.479 180.00 1.07492 0.32
1 12 2 1 o 1792.127 1681.115 0.00 1.07470 0.05
4 0 8 1 o 7114.330 6755.368 180.00 1.07438 0.07
8 1 4 2 o 912.050 882.917 180.00 1.07698 0.01
1 11 4 1 o 3601.480 3395.667 180.00 1.07421 0.09
8 5 2 1 o 13.255 8.472 0.00 1.07398 0.00
4 11 1 2 o 4077.778 3882.012 0.00 1.07611 0.05
2 12 1 2 o 57324.77 55272.13 0.00 1.07508 0.72
6 4 6 2 o 14061.519 13587.479 180.00 1.07492 0.16
1 12 2 2 o 1746.821 1681.115 0.00 1.07470 0.02
4 0 8 2 o 6944.071 6755.368 180.00 1.07438 0.03
8 4 3 1 o 8.722 8.511 0.00 1.07174 0.00
1 11 4 2 o 3494.619 3395.667 180.00 1.07421 0.04
8 5 2 2 o 10.392 8.472 0.00 1.07398 0.00
4 1 8 1 o 302.547 298.103 0.00 1.07090 0.01
5 10 2 1 o 48010.50 49123.93 0.00 1.06979 1.20
8 4 3 2 o 8.386 8.511 0.00 1.07174 0.00
3 11 3 1 o 7556.357 7678.367 180.00 1.06853 0.16
4 1 8 2 o 288.050 298.103 0.00 1.07090 0.01
2 10 5 1 o 11267.434 11357.718 0.00 1.06717 0.28
5 10 2 2 o 48733.62 49123.93 0.00 1.06979 0.61
8 2 4 1 o 30844.711 30899.789 0.00 1.06658 0.70
2 5 8 1 o 14691.909 14710.252 0.00 1.06645 0.32
3 11 3 2 o 7649.583 7678.367 180.00 1.06853 0.08
9 1 1 1 o 1810.702 1824.802 0.00 1.06576 0.05
3 4 8 1 o 1309.091 1328.435 0.00 1.06488 0.03
2 10 5 2 o 11218.626 11357.718 0.00 1.06717 0.14
8 2 4 2 o 30962.348 30899.789 0.00 1.06658 0.35
2 5 8 2 o 14788.307 14710.252 0.00 1.06645 0.16
6 9 2 1 o 3156.547 3121.934 0.00 1.06359 0.07
7 4 5 1 o 1191.011 1162.542 0.00 1.06326 0.03
9 1 1 2 o 1874.966 1824.802 0.00 1.06576 0.03
8 6 0 1 o 103287.97 101209.44 0.00 1.06268 1.19
0 1 9 1 o 22710.352 22410.934 0.00 1.06232 0.26
3 4 8 2 o 1344.128 1328.435 0.00 1.06488 0.02
6 9 2 2 o 3073.343 3121.934 0.00 1.06359 0.03
4 2 8 1 o 7030.876 7149.539 0.00 1.06067 0.17
7 4 5 2 o 1139.838 1162.542 0.00 1.06326 0.02
5 4 7 1 o 16783.531 16992.178 180.00 1.06032 0.39
8 6 0 2 o 100295.09 101209.44 0.00 1.06268 0.57
0 1 9 2 o 22271.082 22410.934 0.00 1.06232 0.12
2 9 6 1 o 43603.45 43875.36 0.00 1.05967 1.04
4 2 8 2 o 7153.940 7149.539 0.00 1.06067 0.08
5 4 7 2 o 17065.895 16992.178 180.00 1.06032 0.20
7 8 1 1 o 4470.125 4441.229 0.00 1.05749 0.10
2 9 6 2 o 44329.44 43875.36 0.00 1.05967 0.53
4 11 2 1 o 859.112 845.592 180.00 1.05635 0.03
8 6 1 1 o 4417.328 4376.452 180.00 1.05622 0.10
7 7 3 1 o 44026.26 43683.67 180.00 1.05607 1.09
1 1 9 1 o 42839.55 42573.71 180.00 1.05598 0.98
5 9 4 1 o 14130.986 14087.028 180.00 1.05578 0.33
9 2 1 1 o 32393.102 32348.682 0.00 1.05567 0.76
2 12 2 1 o 9220.499 9242.557 180.00 1.05538 0.19
0 6 8 1 o 20410.859 20555.633 0.00 1.05491 0.24
7 8 1 2 o 4409.984 4441.229 0.00 1.05749 0.05
2 11 4 1 o 16738.943 16853.832 180.00 1.05491 0.39
4 9 5 1 o 35656.76 35922.18 180.00 1.05470 0.84
5 8 5 1 o 4796.141 4838.599 0.00 1.05460 0.13
7 6 4 1 o 29468.693 29666.230 180.00 1.05442 0.67
4 11 2 2 o 841.902 845.592 180.00 1.05635 0.02
8 6 1 2 o 4366.744 4376.452 180.00 1.05622 0.05
7 7 3 2 o 43607.25 43683.67 180.00 1.05607 0.54
1 1 9 2 o 42510.97 42573.71 180.00 1.05598 0.49
5 9 4 2 o 14067.314 14087.028 180.00 1.05578 0.17
9 2 1 2 o 32294.014 32348.682 0.00 1.05567 0.38
2 12 2 2 o 9220.468 9242.557 180.00 1.05538 0.09
0 6 8 2 o 20418.932 20555.633 0.00 1.05491 0.12
2 11 4 2 o 16745.025 16853.832 180.00 1.05491 0.20
4 9 5 2 o 35611.95 35922.18 180.00 1.05470 0.42
5 8 5 2 o 4782.911 4838.599 0.00 1.05460 0.07
7 6 4 2 o 29336.344 29666.230 180.00 1.05442 0.33
1 8 7 1 o 38221.05 38698.04 180.00 1.05173 0.92
3 7 7 1 o 13009.030 13208.639 180.00 1.05128 0.32
4 6 7 1 o 48.673 49.578 180.00 1.05048 0.00
8 3 4 1 o 12.934 16.886 0.00 1.04988 0.00
9 0 2 1 o 26598.764 27385.629 0.00 1.04980 0.30
4 10 4 1 o 14389.793 15025.836 180.00 1.04931 0.34
1 8 7 2 o 36814.35 38698.04 180.00 1.05173 0.44
1 6 8 1 o 1027.114 1092.422 0.00 1.04871 0.02
3 7 7 2 o 12410.123 13208.639 180.00 1.05128 0.15
4 6 7 2 o 46.686 49.578 180.00 1.05048 0.00
8 3 4 2 o 10.940 16.886 0.00 1.04988 0.00
9 0 2 2 o 26339.516 27385.629 0.00 1.04980 0.15
4 10 4 2 o 14587.984 15025.836 180.00 1.04931 0.17
9 1 2 1 o 43034.31 44254.64 0.00 1.04655 0.96
1 2 9 1 o 19543.018 20139.004 180.00 1.04617 0.51
1 6 8 2 o 1063.633 1092.422 0.00 1.04871 0.01
7 0 6 1 o 4726.825 4849.296 0.00 1.04603 0.05
6 5 6 1 o 56822.06 57109.50 0.00 1.04474 1.38
4 3 8 1 o 1668.100 1654.178 0.00 1.04424 0.06
9 1 2 2 o 44719.72 44254.64 0.00 1.04655 0.50
1 2 9 2 o 20534.438 20139.004 180.00 1.04617 0.27
7 0 6 2 o 4943.330 4849.296 0.00 1.04603 0.03
6 8 4 1 o 3113.231 3060.394 180.00 1.04336 0.06
3 12 1 1 o 7219.852 7094.754 0.00 1.04341 0.16
7 1 6 1 o 7115.515 6922.285 180.00 1.04282 0.17
1 12 3 1 o 32343.832 31471.348 180.00 1.04248 0.75
6 5 6 2 o 58833.15 57109.50 0.00 1.04474 0.72
8 5 3 1 o 12993.354 12683.929 180.00 1.04182 0.30
4 3 8 2 o 1708.243 1654.178 0.00 1.04424 0.03
6 1 7 1 o 7706.842 7587.832 0.00 1.04131 0.19
4 8 6 1 o 34182.938 33880.336 0.00 1.04104 0.77
6 8 4 2 o 3073.837 3060.394 180.00 1.04336 0.03
3 12 1 2 o 7132.875 7094.754 0.00 1.04341 0.08
7 1 6 2 o 6918.864 6922.285 180.00 1.04282 0.08
1 12 3 2 o 31396.143 31471.348 180.00 1.04248 0.36
9 3 1 1 o 18013.586 18108.064 180.00 1.03947 0.46
8 5 3 2 o 12611.045 12683.929 180.00 1.04182 0.14
6 1 7 2 o 7511.971 7587.832 0.00 1.04131 0.09
7 8 2 1 o 33427.246 33745.816 180.00 1.03872 0.77
4 8 6 2 o 33498.496 33880.336 0.00 1.04104 0.37
5 10 3 1 o 1586.027 1602.885 180.00 1.03800 0.03
2 1 9 1 o 382.116 387.822 0.00 1.03764 0.01
8 6 2 1 o 45203.44 45997.96 0.00 1.03752 1.06
9 2 2 1 o 615.386 625.383 0.00 1.03699 0.01
9 3 1 2 o 17797.568 18108.064 180.00 1.03947 0.23
0 3 9 1 o 76383.23 77341.59 180.00 1.03628 0.87
7 8 2 2 o 33351.852 33745.816 180.00 1.03872 0.38
3 10 5 1 o 979.504 997.990 180.00 1.03617 0.04
6 7 5 1 o 31093.934 31447.975 0.00 1.03589 0.71
3 5 8 1 o 26046.682 26367.385 180.00 1.03551 0.60
5 10 3 2 o 1589.513 1602.885 180.00 1.03800 0.01
2 1 9 2 o 383.066 387.822 0.00 1.03764 0.00
8 6 2 2 o 45316.79 45997.96 0.00 1.03752 0.53
5 7 6 1 o 237.635 241.351 0.00 1.03464 0.01
9 2 2 2 o 616.210 625.383 0.00 1.03699 0.01
7 5 5 1 o 1934.066 1947.755 0.00 1.03402 0.02
0 3 9 2 o 76446.71 77341.59 180.00 1.03628 0.43
2 8 7 1 o 1335.142 1351.221 0.00 1.03360 0.03
3 10 5 2 o 980.186 997.990 180.00 1.03617 0.02
7 2 6 1 o 28188.650 28529.650 180.00 1.03336 0.63
6 7 5 2 o 31070.836 31447.975 0.00 1.03589 0.35
3 5 8 2 o 26000.104 26367.385 180.00 1.03551 0.30
6 9 3 1 o 13323.040 13506.672 0.00 1.03233 0.31
5 7 6 2 o 238.192 241.351 0.00 1.03464 0.00
6 2 7 1 o 1704.217 1723.958 180.00 1.03190 0.04
7 5 5 2 o 1938.619 1947.755 0.00 1.03402 0.01
5 5 7 1 o 13739.182 13832.742 180.00 1.03132 0.27
2 8 7 2 o 1338.983 1351.221 0.00 1.03360 0.02
7 2 6 2 o 28221.998 28529.650 180.00 1.03336 0.31
2 6 8 1 o 1925.235 1951.178 180.00 1.03073 0.05
1 3 9 1 o 12770.539 12987.076 180.00 1.03040 0.31
6 9 3 2 o 13350.353 13506.672 0.00 1.03233 0.15
6 2 7 2 o 1726.367 1723.958 180.00 1.03190 0.02
3 9 6 1 o 17102.494 17043.271 0.00 1.02930 0.41
5 5 7 2 o 14111.985 13832.742 180.00 1.03132 0.14
2 2 9 1 o 70638.10 68390.45 180.00 1.02832 1.59
2 6 8 2 o 2024.393 1951.178 180.00 1.03073 0.03
1 3 9 2 o 13402.766 12987.076 180.00 1.03040 0.17
8 4 4 1 o 116615.09 113543.62 0.00 1.02777 2.66
6 10 0 1 o 3339.478 3303.176 180.00 1.02727 0.04
3 9 6 2 o 17084.146 17043.271 0.00 1.02930 0.20
2 2 9 2 o 69266.31 68390.45 180.00 1.02832 0.77
4 11 3 1 o 47371.79 46704.45 180.00 1.02571 1.12
3 12 2 1 o 6659.944 6523.764 180.00 1.02536 0.17
8 4 4 2 o 115994.98 113543.62 0.00 1.02777 1.32
3 11 4 1 o 2324.851 2273.848 0.00 1.02493 0.06
2 12 3 1 o 9215.011 9026.424 180.00 1.02481 0.21
6 10 0 2 o 3368.150 3303.176 180.00 1.02727 0.02
0 11 5 1 o 24176.260 23904.242 0.00 1.02394 0.29
0 10 6 1 o 61906.05 61840.20 0.00 1.02330 0.70
4 11 3 2 o 46685.54 46704.45 180.00 1.02571 0.55
3 12 2 2 o 6494.663 6523.764 180.00 1.02536 0.08
4 4 8 1 o 10799.730 10864.384 0.00 1.02248 0.19
3 11 4 2 o 2256.202 2273.848 0.00 1.02493 0.03
2 12 3 2 o 8956.406 9026.424 180.00 1.02481 0.10
9 3 2 1 o 7522.334 7528.939 0.00 1.02163 0.16
6 10 1 1 o 5795.567 5766.921 0.00 1.02143 0.14
0 11 5 2 o 24027.063 23904.242 0.00 1.02394 0.14
8 7 0 1 o 3361.167 3310.343 180.00 1.02127 0.06
5 11 1 1 o 439.333 433.871 0.00 1.02087 0.01
0 10 6 2 o 63547.01 61840.20 0.00 1.02330 0.36
8 1 5 1 o 82758.86 80057.45 180.00 1.02063 1.89
4 4 8 2 o 11234.527 10864.384 0.00 1.02248 0.10
5 0 8 1 o 79739.98 76900.36 0.00 1.01939 0.89
9 3 2 2 o 7751.168 7528.939 0.00 1.02163 0.08
6 10 1 2 o 5924.099 5766.921 0.00 1.02143 0.07
8 7 0 2 o 3424.373 3310.343 180.00 1.02127 0.03
0 13 1 1 o 1267.152 1233.876 0.00 1.01879 0.02
0 13 1 2 o 1240.203 1233.876 0.00 1.01879 0.01
5 11 1 2 o 437.188 433.871 0.00 1.02087 0.00
1 11 5 1 o 8424.830 8305.063 180.00 1.01827 0.20
7 3 6 1 o 3476.990 3429.844 180.00 1.01815 0.09
1 11 5 2 o 8256.826 8305.063 180.00 1.01827 0.10
8 1 5 2 o 81030.26 80057.45 180.00 1.02063 0.92
7 3 6 2 o 3400.239 3429.844 180.00 1.01815 0.04
9 4 1 1 o 7041.181 6966.468 180.00 1.01800 0.16
8 7 1 1 o 5496.136 5550.954 0.00 1.01553 0.13
9 4 1 2 o 6892.881 6966.468 180.00 1.01800 0.08
1 10 6 1 o 74566.75 73918.52 0.00 1.01763 1.78
1 10 6 2 o 72830.69 73918.52 0.00 1.01763 0.86
5 0 8 2 o 77681.38 76900.36 0.00 1.01939 0.43
6 3 7 1 o 1162.469 1152.627 0.00 1.01675 0.02
9 1 3 1 o 2571.134 2537.819 180.00 1.01673 0.08
6 3 7 2 o 1134.203 1152.627 0.00 1.01675 0.01
9 1 3 2 o 2474.098 2537.819 180.00 1.01673 0.04
5 1 8 1 o 24018.998 23862.160 0.00 1.01642 0.52
5 1 8 2 o 23370.729 23862.160 0.00 1.01642 0.25
7 7 4 1 o 254.327 261.090 0.00 1.01392 0.01
2 3 9 1 o 193.820 199.987 180.00 1.01333 0.00
1 13 1 1 o 2470.046 2537.232 0.00 1.01320 0.05
8 7 1 2 o 5380.964 5550.954 0.00 1.01553 0.06
8 2 5 1 o 9930.971 10257.937 180.00 1.01176 0.22
7 7 4 2 o 249.821 261.090 0.00 1.01392 0.00
6 6 6 1 o 1315.874 1368.183 180.00 1.01108 0.03
2 3 9 2 o 190.092 199.987 180.00 1.01333 0.00
1 13 1 2 o 2429.704 2537.232 0.00 1.01320 0.03
4 7 7 1 o 326.029 342.035 180.00 1.01042 0.01
7 8 3 1 o 14739.372 15574.035 0.00 1.00955 0.35
1 4 9 1 o 629.194 656.691 0.00 1.00947 0.01
8 2 5 2 o 9771.996 10257.937 180.00 1.01176 0.11
3 1 9 1 o 10673.894 11184.623 0.00 1.00907 0.25
4 12 0 1 o 22616.248 23507.563 0.00 1.00896 0.25
1 7 8 1 o 75.752 78.264 180.00 1.00884 0.00
6 6 6 2 o 1329.053 1368.183 180.00 1.01108 0.01
8 6 3 1 o 691.166 708.940 0.00 1.00844 0.02
9 2 3 1 o 52474.80 53113.38 0.00 1.00795 1.13
4 7 7 2 o 338.233 342.035 180.00 1.01042 0.00
5 2 8 1 o 11587.766 11651.500 0.00 1.00765 0.26
0 12 4 1 o 5474.412 5472.832 0.00 1.00728 0.05
7 8 3 2 o 15616.563 15574.035 0.00 1.00955 0.19
1 4 9 2 o 658.407 656.691 0.00 1.00947 0.01
3 1 9 2 o 11240.731 11184.623 0.00 1.00907 0.13
4 12 0 2 o 23617.125 23507.563 0.00 1.00896 0.13
1 7 8 2 o 78.614 78.264 180.00 1.00884 0.00
8 6 3 2 o 713.013 708.940 0.00 1.00844 0.01
9 2 3 2 o 53414.08 53113.38 0.00 1.00795 0.58
0 9 7 1 o 1659.936 1650.910 180.00 1.00545 0.02
3 8 7 1 o 18449.432 18349.340 0.00 1.00536 0.41
5 2 8 2 o 11713.022 11651.500 0.00 1.00765 0.13
7 9 1 1 o 14769.223 14684.595 0.00 1.00502 0.39
0 12 4 2 o 5489.725 5472.832 0.00 1.00728 0.02
6 10 2 1 o 11712.023 11675.607 180.00 1.00448 0.27
5 11 2 1 o 18480.676 18490.070 0.00 1.00395 0.44
4 12 1 1 o 2994.798 3008.778 0.00 1.00342 0.08
0 9 7 2 o 1640.743 1650.910 180.00 1.00545 0.01
3 8 7 2 o 18229.133 18349.340 0.00 1.00536 0.20
3 6 8 1 o 78947.91 79526.88 180.00 1.00272 1.78
7 9 1 2 o 14554.615 14684.595 0.00 1.00502 0.19
5 9 5 1 o 4752.651 4780.838 180.00 1.00253 0.08
2 13 0 1 o 51930.52 52362.39 0.00 1.00239 0.64
6 10 2 2 o 11578.264 11675.607 180.00 1.00448 0.13
1 12 4 1 o 5595.102 5643.172 0.00 1.00188 0.13
2 11 5 1 o 12515.702 12623.127 0.00 1.00178 0.29
5 11 2 2 o 18326.119 18490.070 0.00 1.00395 0.22
7 6 5 1 o 1054.296 1065.471 0.00 1.00136 0.03
8 5 4 1 o 2910.839 2930.416 0.00 1.00129 0.05
9 4 2 1 o 2345.282 2365.942 180.00 1.00122 0.05
2 10 6 1 o 5307.744 5356.381 180.00 1.00118 0.13
4 12 1 2 o 2981.372 3008.778 0.00 1.00342 0.04
3 2 9 1 o 236.601 236.884 0.00 1.00049 0.00
3 6 8 2 o 78975.12 79526.88 180.00 1.00272 0.89
1 9 7 1 o 7755.800 7804.477 180.00 1.00007 0.19
5 9 5 2 o 4759.329 4780.838 180.00 1.00253 0.04
2 13 0 2 o 52105.18 52362.39 0.00 1.00239 0.32
1 12 4 2 o 5648.915 5643.172 0.00 1.00188 0.07
2 11 5 2 o 12652.281 12623.127 0.00 1.00178 0.15
5 6 7 1 o 45976.80 45592.86 180.00 0.99891 1.10
7 6 5 2 o 1075.853 1065.471 0.00 1.00136 0.01
8 7 2 1 o 1707.667 1687.469 0.00 0.99887 0.06
8 5 4 2 o 2950.501 2930.416 0.00 1.00129 0.03
9 4 2 2 o 2388.836 2365.942 180.00 1.00122 0.03
2 10 6 2 o 5411.890 5356.381 180.00 1.00118 0.07
3 2 9 2 o 237.187 236.884 0.00 1.00049 0.00
7 4 6 1 o 80331.43 79743.98 180.00 0.99795 1.79
5 10 4 1 o 31834.631 31615.549 0.00 0.99790 0.76
1 9 7 2 o 7824.752 7804.477 180.00 1.00007 0.10
8 3 5 1 o 20005.119 19998.234 0.00 0.99747 0.44
3 12 3 1 o 34547.621 34642.895 0.00 0.99727 0.86
4 10 5 1 o 45.097 45.260 0.00 0.99698 0.00
2 13 1 1 o 26068.893 26221.555 0.00 0.99696 0.63
6 4 7 1 o 29.499 30.111 180.00 0.99663 0.00
1 13 2 1 o 17020.658 17134.393 180.00 0.99665 0.40
5 6 7 2 o 45277.76 45592.86 180.00 0.99891 0.54
4 5 8 1 o 239.915 241.030 0.00 0.99640 0.00
8 7 2 2 o 1672.016 1687.469 0.00 0.99887 0.03
7 4 6 2 o 79330.19 79743.98 180.00 0.99795 0.88
5 10 4 2 o 31439.969 31615.549 0.00 0.99790 0.37
8 3 5 2 o 19826.727 19998.234 0.00 0.99747 0.22
3 12 3 2 o 34261.348 34642.895 0.00 0.99727 0.42
4 10 5 2 o 44.885 45.260 0.00 0.99698 0.00
2 13 1 2 o 25880.570 26221.555 0.00 0.99696 0.31
6 4 7 2 o 28.807 30.111 180.00 0.99663 0.00
1 13 2 2 o 16892.283 17134.393 180.00 0.99665 0.20
4 5 8 2 o 238.324 241.030 0.00 0.99640 0.00
9 3 3 1 o 16465.943 16703.879 180.00 0.99383 0.33
5 3 8 1 o 4844.269 4920.482 0.00 0.99354 0.10
2 4 9 1 o 18755.203 19089.861 0.00 0.99340 0.43
6 9 4 1 o 39919.73 40676.96 180.00 0.99286 0.86
2 7 8 1 o 229.288 235.123 180.00 0.99281 0.01
9 5 1 1 o 7579.326 7784.383 180.00 0.99225 0.21
6 8 5 1 o 58138.05 59523.01 180.00 0.99188 1.34
9 3 3 2 o 16284.228 16703.879 180.00 0.99383 0.16
5 3 8 2 o 4773.150 4920.482 0.00 0.99354 0.05
2 4 9 2 o 18418.148 19089.861 0.00 0.99340 0.21
4 9 6 1 o -1.417 0.000 180.00 0.99086 0.00
5 8 6 1 o 30362.389 31537.578 0.00 0.99078 0.68
6 9 4 2 o 38960.64 40676.96 180.00 0.99286 0.42
2 7 8 2 o 221.743 235.123 180.00 0.99281 0.00
9 5 1 2 o 7233.156 7784.383 180.00 0.99225 0.10
0 5 9 1 o 5054.046 5425.382 180.00 0.98947 0.06
6 8 5 2 o 55574.94 59523.01 180.00 0.99188 0.63
7 9 2 1 o 12152.567 13149.870 0.00 0.98886 0.27
4 9 6 2 o -3.293 0.000 180.00 0.99086 0.00
5 8 6 2 o 28889.678 31537.578 0.00 0.99078 0.32
4 12 2 1 o 28895.715 31727.363 0.00 0.98735 0.72
0 5 9 2 o 4966.225 5425.382 180.00 0.98947 0.03
4 11 4 1 o 61.662 81.026 0.00 0.98696 0.01
3 3 9 1 o 33993.859 36614.86 0.00 0.98667 0.69
7 9 2 2 o 12188.647 13149.870 0.00 0.98886 0.13
2 12 4 1 o 21388.705 23272.299 180.00 0.98617 0.55
4 12 2 2 o 29392.799 31727.363 0.00 0.98735 0.37
4 11 4 2 o 64.285 81.026 0.00 0.98696 0.00
2 9 7 1 o 3896.081 4189.517 0.00 0.98444 0.09
1 5 9 1 o 14726.964 15807.771 180.00 0.98435 0.32
3 3 9 2 o 34227.719 36614.86 0.00 0.98667 0.35
2 12 4 2 o 21371.285 23272.299 180.00 0.98617 0.28
2 9 7 2 o 4033.970 4189.517 0.00 0.98444 0.05
1 5 9 2 o 15306.846 15807.771 180.00 0.98435 0.17
9 0 4 1 o 23949.006 24432.824 0.00 0.98161 0.27
2 13 2 1 o 5806.011 5867.905 0.00 0.98118 0.15
9 0 4 2 o 24463.844 24432.824 0.00 0.98161 0.14
8 8 0 1 o 85898.75 85721.22 0.00 0.97901 0.98
9 1 4 1 o 6799.640 6786.214 0.00 0.97895 0.14
2 13 2 2 o 5879.924 5867.905 0.00 0.98118 0.08
8 4 5 1 o 3293.757 3291.347 0.00 0.97845 0.08
6 10 3 1 o 587.486 586.706 180.00 0.97802 0.01
5 11 3 1 o 4157.813 4125.571 0.00 0.97753 0.11
9 5 2 1 o 56557.38 55694.98 180.00 0.97669 1.24
8 8 0 2 o 87080.75 85721.22 0.00 0.97901 0.50
9 1 4 2 o 6885.598 6786.214 0.00 0.97895 0.07
8 4 5 2 o 3343.874 3291.347 0.00 0.97845 0.04
3 11 5 1 o 16628.551 16385.164 0.00 0.97601 0.38
0 13 3 1 o 46268.75 45546.30 180.00 0.97571 0.56
6 10 3 2 o 594.845 586.706 180.00 0.97802 0.01
3 10 6 1 o 1267.067 1246.042 0.00 0.97545 0.03
6 7 6 1 o 1325.582 1291.810 0.00 0.97522 0.05
5 11 3 2 o 4197.455 4125.571 0.00 0.97753 0.05
9 4 3 1 o 11229.949 11069.373 180.00 0.97501 0.24
5 4 8 1 o 1089.627 1076.460 0.00 0.97474 0.03
9 5 2 2 o 55872.48 55694.98 180.00 0.97669 0.61
8 8 1 1 o 7018.263 7020.726 0.00 0.97395 0.17
7 5 6 1 o 8428.164 8431.079 0.00 0.97366 0.19
3 11 5 2 o 16384.303 16385.164 0.00 0.97601 0.19
0 13 3 2 o 45690.03 45546.30 180.00 0.97571 0.28
3 10 6 2 o 1255.022 1246.042 0.00 0.97545 0.01
0 8 8 1 o 18805.311 18623.029 0.00 0.97293 0.23
8 7 3 1 o 50976.67 50454.59 180.00 0.97284 1.15
6 7 6 2 o 1314.122 1291.810 0.00 0.97522 0.02
4 1 9 1 o 29873.871 29535.068 180.00 0.97277 0.66
9 4 3 2 o 11221.277 11069.373 180.00 0.97501 0.12
7 8 4 1 o 25425.922 25043.791 180.00 0.97254 0.58
6 5 7 1 o 1875.159 1846.577 0.00 0.97243 0.04
5 4 8 2 o 1098.335 1076.460 0.00 0.97474 0.01
8 6 4 1 o 599.114 583.170 180.00 0.97155 0.01
8 8 1 2 o 7276.752 7020.726 0.00 0.97395 0.09
3 13 1 1 o 6736.377 6551.241 0.00 0.97154 0.13
7 5 6 2 o 8765.631 8431.079 0.00 0.97366 0.10
9 2 4 1 o 7013.837 6730.197 0.00 0.97112 0.16
7 1 7 1 o 60429.06 58207.56 0.00 0.97088 1.26
1 13 3 1 o 4837.066 4641.997 0.00 0.97079 0.12
0 8 8 2 o 19338.375 18623.029 0.00 0.97293 0.12
8 7 3 2 o 52116.07 50454.59 180.00 0.97284 0.59
4 1 9 2 o 30453.576 29535.068 180.00 0.97277 0.34
7 8 4 2 o 25639.912 25043.791 180.00 0.97254 0.29
6 5 7 2 o 1880.925 1846.577 0.00 0.97243 0.02
2 5 9 1 o 10.993 10.940 0.00 0.96943 0.00
4 8 7 1 o 116.908 115.874 0.00 0.96945 0.00
8 6 4 2 o 586.270 583.170 180.00 0.97155 0.01
3 13 1 2 o 6587.130 6551.241 0.00 0.97154 0.06
9 2 4 2 o 6787.805 6730.197 0.00 0.97112 0.08
7 1 7 2 o 58654.50 58207.56 0.00 0.97088 0.61
6 11 0 1 o 17129.574 16996.086 180.00 0.96856 0.19
10 0 0 1 o 624.964 619.901 180.00 0.96830 0.00
1 13 3 2 o 4679.660 4641.997 0.00 0.97079 0.06
3 4 9 1 o 1604.643 1593.859 180.00 0.96825 0.04
1 8 8 1 o 1849.798 1844.296 0.00 0.96805 0.04
3 7 8 1 o 38.180 38.338 0.00 0.96770 0.00
4 6 8 1 o 1866.170 1897.307 180.00 0.96708 0.04
2 5 9 2 o 10.812 10.940 0.00 0.96943 0.00
4 8 7 2 o 113.440 115.874 0.00 0.96945 0.00
7 7 5 1 o 31207.982 31920.744 0.00 0.96649 0.76
6 11 0 2 o 16656.797 16996.086 180.00 0.96856 0.09
10 0 0 2 o 602.697 619.901 180.00 0.96830 0.00
3 4 9 2 o 1553.034 1593.859 180.00 0.96825 0.02
10 1 0 1 o 31964.379 32744.680 180.00 0.96575 0.33
1 8 8 2 o 1796.556 1844.296 0.00 0.96805 0.02
3 7 8 2 o 37.314 38.338 0.00 0.96770 0.00
4 2 9 1 o 1739.728 1808.959 180.00 0.96508 0.04
8 0 6 1 o 10854.171 11318.384 180.00 0.96497 0.12
4 6 8 2 o 1816.541 1897.307 180.00 0.96708 0.02
5 7 7 1 o 2.660 5.023 180.00 0.96428 0.00
7 7 5 2 o 30269.229 31920.744 0.00 0.96649 0.37
6 11 1 1 o 34603.934 36111.64 0.00 0.96366 0.80
7 9 3 1 o 8084.618 8357.759 0.00 0.96359 0.15
10 1 0 2 o 31579.738 32744.680 180.00 0.96575 0.16
9 6 1 1 o 18813.090 19560.645 180.00 0.96328 0.44
7 2 7 1 o 13296.705 13775.914 180.00 0.96324 0.28
4 2 9 2 o 1752.885 1808.959 180.00 0.96508 0.02
8 0 6 2 o 10966.223 11318.384 180.00 0.96497 0.06
8 1 6 1 o 13781.674 14325.662 180.00 0.96245 0.37
6 0 8 1 o 2891.947 2973.863 180.00 0.96241 0.03
4 12 3 1 o 89.019 91.191 180.00 0.96219 0.00
5 7 7 2 o 3.490 5.023 180.00 0.96428 0.00
3 12 4 1 o 7484.630 7684.260 180.00 0.96155 0.17
6 11 1 2 o 35389.29 36111.64 0.00 0.96366 0.41
7 9 3 2 o 8237.963 8357.759 0.00 0.96359 0.08
10 1 1 1 o 47630.19 47913.14 0.00 0.96089 1.08
9 6 1 2 o 19427.582 19560.645 180.00 0.96328 0.23
7 2 7 2 o 13712.518 13775.914 180.00 0.96324 0.15
1 11 6 1 o 7544.244 7462.657 0.00 0.96047 0.18
8 1 6 2 o 14722.393 14325.662 180.00 0.96245 0.20
6 0 8 2 o 3036.514 2973.863 180.00 0.96241 0.01
6 1 8 1 o 26164.541 25372.057 0.00 0.95991 0.65
3 9 7 1 o 29978.203 29244.252 0.00 0.95995 0.65
4 12 3 2 o 93.235 91.191 180.00 0.96219 0.00
8 8 2 1 o 31387.988 30104.887 0.00 0.95923 0.73
0 0 10 1 o 43079.26 41460.20 0.00 0.95914 0.22
3 12 4 2 o 8004.813 7684.260 180.00 0.96155 0.09
8 8 2 2 o 30610.910 30104.887 0.00 0.95923 0.35
3 13 2 1 o 16314.917 16020.013 0.00 0.95693 0.40
0 0 10 2 o 42015.68 41460.20 0.00 0.95914 0.10
10 1 1 2 o 50299.84 47913.14 0.00 0.96089 0.58
2 13 3 1 o 13595.264 13463.615 0.00 0.95648 0.33
9 3 4 1 o 2888.711 2756.031 0.00 0.95846 0.07
9 3 4 2 o 2767.231 2756.031 0.00 0.95846 0.03
10 2 0 1 o 44106.37 42051.32 180.00 0.95823 0.52
1 6 9 1 o 7210.114 7183.462 0.00 0.95605 0.19
1 12 5 1 o 7.889 7.879 0.00 0.95604 0.00
5 12 1 1 o 11797.592 11334.358 0.00 0.95819 0.25
1 11 6 2 o 7806.010 7462.657 0.00 0.96047 0.09
10 2 0 2 o 42066.31 42051.32 180.00 0.95823 0.25
5 12 1 2 o 11331.943 11334.358 0.00 0.95819 0.12
8 5 5 1 o 2447.435 2458.598 180.00 0.95553 0.05
6 1 8 2 o 26313.705 25372.057 0.00 0.95991 0.33
3 9 7 2 o 30178.877 29244.252 0.00 0.95995 0.33
8 2 6 1 o 12445.737 12522.973 0.00 0.95500 0.27
7 10 1 1 o 258.598 259.203 0.00 0.95471 0.00
1 0 10 1 o 47700.19 47631.20 0.00 0.95447 0.55
3 13 2 2 o 16009.774 16020.013 0.00 0.95693 0.20
2 13 3 2 o 13591.805 13463.615 0.00 0.95648 0.16
2 8 8 1 o 218.375 209.583 0.00 0.95386 0.01
1 6 9 2 o 7348.096 7183.462 0.00 0.95605 0.10
1 12 5 2 o 7.945 7.879 0.00 0.95604 0.00
10 2 1 1 o 32736.246 32001.566 180.00 0.95348 0.71
8 5 5 2 o 2522.697 2458.598 180.00 0.95553 0.03
4 3 9 1 o 52836.00 51718.09 0.00 0.95266 1.20
8 2 6 2 o 12782.041 12522.973 0.00 0.95500 0.14
6 2 8 1 o 62.268 61.660 180.00 0.95252 0.00
5 10 5 1 o 410.574 397.342 180.00 0.95258 0.02
9 5 3 1 o 1913.961 1896.190 180.00 0.95232 0.03
7 10 1 2 o 262.219 259.203 0.00 0.95471 0.00
1 0 10 2 o 48113.58 47631.20 0.00 0.95447 0.28
5 5 8 1 o 36177.91 35879.42 180.00 0.95206 0.80
1 1 10 1 o 1234.021 1225.027 0.00 0.95203 0.03
2 8 8 2 o 210.166 209.583 0.00 0.95386 0.01
0 14 0 1 o 154462.50 154380.58 0.00 0.95140 0.92
10 2 1 2 o 32017.668 32001.566 180.00 0.95348 0.35
7 3 7 1 o 3376.761 3373.101 180.00 0.95089 0.06
1 10 7 1 o 18.445 17.555 0.00 0.95046 0.01
4 3 9 2 o 51860.63 51718.09 0.00 0.95266 0.59
6 2 8 2 o 61.739 61.660 180.00 0.95252 0.00
5 10 5 2 o 399.063 397.342 180.00 0.95258 0.01
9 5 3 2 o 1898.126 1896.190 180.00 0.95232 0.01
5 5 8 2 o 35883.33 35879.42 180.00 0.95206 0.40
1 1 10 2 o 1224.958 1225.027 0.00 0.95203 0.01
0 2 10 1 o 6871.628 6881.553 180.00 0.94935 0.08
6 11 2 1 o 6343.904 6354.356 180.00 0.94939 0.18
10 0 2 1 o 6416.785 6425.498 180.00 0.94915 0.06
9 6 2 1 o 8595.392 8605.699 0.00 0.94903 0.18
0 14 0 2 o 154175.48 154380.58 0.00 0.95140 0.46
7 3 7 2 o 3376.637 3373.101 180.00 0.95089 0.03
6 9 5 1 o 7287.232 7257.497 0.00 0.94819 0.18
1 10 7 2 o 18.950 17.555 0.00 0.95046 0.00
5 9 6 1 o 26184.777 25798.686 0.00 0.94723 0.61
0 2 10 2 o 7014.659 6881.553 180.00 0.94935 0.04
6 11 2 2 o 6495.761 6354.356 180.00 0.94939 0.09
10 0 2 2 o 6556.255 6425.498 180.00 0.94915 0.03
10 1 2 1 o 7606.954 7398.973 180.00 0.94675 0.20
9 6 2 2 o 8808.657 8605.699 0.00 0.94903 0.09
2 11 6 1 o 20679.396 20079.213 180.00 0.94660 0.54
7 6 6 1 o 53.608 50.983 180.00 0.94624 0.00
10 3 0 1 o 5666.231 5482.564 180.00 0.94606 0.05
3 5 9 1 o 14707.969 14192.353 0.00 0.94602 0.30
6 9 5 2 o 7590.518 7257.497 0.00 0.94819 0.09
6 6 7 1 o 572.450 545.185 0.00 0.94512 0.01
5 9 6 2 o 27144.252 25798.686 0.00 0.94723 0.32
1 2 10 1 o 17262.580 16404.854 0.00 0.94482 0.39
10 1 2 2 o 7850.364 7398.973 180.00 0.94675 0.10
6 10 4 1 o 30909.959 29376.703 180.00 0.94426 0.73
2 11 6 2 o 21227.744 20079.213 180.00 0.94660 0.28
5 12 2 1 o 4152.800 3943.450 0.00 0.94416 0.10
7 6 6 2 o 54.842 50.983 180.00 0.94624 0.00
5 11 4 1 o 5143.901 4880.634 0.00 0.94382 0.13
10 3 0 2 o 5725.465 5482.564 180.00 0.94606 0.03
3 5 9 2 o 14859.126 14192.353 0.00 0.94602 0.15
4 13 0 1 o 109.457 93.250 180.00 0.94355 0.00
4 11 5 1 o 126040.78 119410.20 180.00 0.94305 3.07
8 3 6 1 o 7456.182 6972.663 180.00 0.94296 0.21
6 6 7 2 o 574.491 545.185 0.00 0.94512 0.01
1 2 10 2 o 17306.336 16404.854 0.00 0.94482 0.20
4 10 6 1 o 15967.590 15094.719 180.00 0.94255 0.40
2 6 9 1 o 40736.38 38623.30 0.00 0.94237 0.95
2 12 5 1 o 81056.20 76879.16 180.00 0.94236 1.97
1 14 1 1 o 8352.594 7803.503 0.00 0.94226 0.27
6 10 4 2 o 30848.754 29376.703 180.00 0.94426 0.37
5 12 2 2 o 4139.331 3943.450 0.00 0.94416 0.05
9 4 4 1 o 1148.672 1101.647 0.00 0.94155 0.02
10 3 1 1 o 858.116 828.499 0.00 0.94149 0.02
5 11 4 2 o 5105.291 4880.634 0.00 0.94382 0.06
4 13 0 2 o 106.141 93.250 180.00 0.94355 0.00
2 0 10 1 o 3.287 0.786 0.00 0.94086 0.00
7 10 2 1 o 27940.533 26896.650 0.00 0.94083 0.64
4 11 5 2 o 124253.38 119410.20 180.00 0.94305 1.51
8 3 6 2 o 7322.508 6972.663 180.00 0.94296 0.10
6 3 8 1 o 11283.717 10777.776 0.00 0.94057 0.30
4 10 6 2 o 15706.331 15094.719 180.00 0.94255 0.20
2 6 9 2 o 40089.59 38623.30 0.00 0.94237 0.47
2 12 5 2 o 79776.39 76879.16 180.00 0.94236 0.97
1 14 1 2 o 8183.081 7803.503 0.00 0.94226 0.13
10 2 2 1 o 17230.666 16663.758 180.00 0.93965 0.38
8 7 4 1 o 1820.487 1736.635 180.00 0.93960 0.06
9 4 4 2 o 1135.045 1101.647 0.00 0.94155 0.01
10 3 1 2 o 849.654 828.499 0.00 0.94149 0.01
4 13 1 1 o 87474.43 84849.92 180.00 0.93902 2.13
2 0 10 2 o 2.512 0.786 0.00 0.94086 0.00
2 1 10 1 o 55368.30 53842.33 180.00 0.93852 1.30
7 10 2 2 o 27608.953 26896.650 0.00 0.94083 0.32
6 3 8 2 o 11076.859 10777.776 0.00 0.94057 0.15
6 8 6 1 o 3404.491 3322.052 180.00 0.93822 0.09
1 13 4 1 o 4767.837 4708.114 180.00 0.93775 0.11
10 2 2 2 o 16767.451 16663.758 180.00 0.93965 0.18
8 7 4 2 o 1751.075 1736.635 180.00 0.93960 0.03
2 10 7 1 o 4.248 4.234 0.00 0.93702 0.00
8 9 0 1 o 16389.254 16287.461 0.00 0.93693 0.21
4 13 1 2 o 85468.31 84849.92 180.00 0.93902 1.03
2 1 10 2 o 54498.87 53842.33 180.00 0.93852 0.64
8 8 3 1 o 872.153 861.885 180.00 0.93611 0.02
9 1 5 1 o 2349.971 2333.217 180.00 0.93606 0.03
4 4 9 1 o 516.688 510.405 0.00 0.93605 0.01
6 8 6 2 o 3364.110 3322.052 180.00 0.93822 0.04
4 7 8 1 o 1678.931 1664.117 180.00 0.93555 0.05
1 13 4 2 o 4726.237 4708.114 180.00 0.93775 0.06
2 10 7 2 o 4.203 4.234 0.00 0.93702 0.00
8 9 0 2 o 16078.436 16287.461 0.00 0.93693 0.10
7 4 7 1 o 2945.113 2973.477 0.00 0.93436 0.07
3 13 3 1 o 54922.40 54945.64 0.00 0.93397 1.39
8 8 3 2 o 865.747 861.885 180.00 0.93611 0.01
9 1 5 2 o 2341.811 2333.217 180.00 0.93606 0.02
4 4 9 2 o 513.760 510.405 0.00 0.93605 0.01
2 14 0 1 o 17329.543 17102.625 180.00 0.93355 0.22
4 7 8 2 o 1712.207 1664.117 180.00 0.93555 0.03
1 3 10 1 o 1050.576 1024.941 0.00 0.93315 0.03
0 14 2 1 o 55835.22 54607.99 0.00 0.93321 0.72
8 9 1 1 o 34018.867 33104.875 180.00 0.93250 0.78
9 7 1 1 o 5284.688 5130.915 0.00 0.93211 0.14
7 4 7 2 o 3045.640 2973.477 0.00 0.93436 0.03
2 2 10 1 o 42.660 41.253 180.00 0.93161 0.00
3 13 3 2 o 56120.88 54945.64 0.00 0.93397 0.71
3 8 8 1 o 55472.59 54421.13 180.00 0.93153 1.29
5 1 9 1 o 3330.612 3286.192 180.00 0.93139 0.06
7 9 4 1 o 4206.364 4129.477 0.00 0.93125 0.10
2 14 0 2 o 17430.188 17102.625 180.00 0.93355 0.11
1 3 10 2 o 1045.320 1024.941 0.00 0.93315 0.01
0 14 2 2 o 55636.88 54607.99 0.00 0.93321 0.36
7 8 5 1 o 10.198 10.117 180.00 0.93044 0.00
8 9 1 2 o 33782.934 33104.875 180.00 0.93250 0.39
4 12 4 1 o 2041.167 2010.533 0.00 0.92999 0.03
9 7 1 2 o 5272.445 5130.915 0.00 0.93211 0.07
0 7 9 1 o 59817.53 58451.52 0.00 0.92981 0.70
10 4 0 1 o 51224.50 50089.55 180.00 0.92979 0.57
8 6 5 1 o 5653.880 5517.150 0.00 0.92958 0.13
2 2 10 2 o 43.039 41.253 180.00 0.93161 0.00
3 8 8 2 o 55806.14 54421.13 180.00 0.93153 0.65
9 2 5 1 o 56.141 55.883 180.00 0.92920 0.00
5 1 9 2 o 3347.900 3286.192 180.00 0.93139 0.03
2 14 1 1 o 1860.394 1809.833 180.00 0.92916 0.05
7 9 4 2 o 4240.497 4129.477 0.00 0.93125 0.05
1 14 2 1 o 49938.45 48660.58 0.00 0.92891 1.24
4 9 7 1 o 8173.358 7943.170 180.00 0.92854 0.21
5 8 7 1 o 28987.307 28263.080 0.00 0.92847 0.65
10 3 2 1 o 5662.823 5476.400 180.00 0.92817 0.16
7 8 5 2 o 10.228 10.117 180.00 0.93044 0.00
4 12 4 2 o 2049.354 2010.533 0.00 0.92999 0.02
0 7 9 2 o 60203.70 58451.52 0.00 0.92981 0.35
10 4 0 2 o 51550.85 50089.55 180.00 0.92979 0.29
1 9 8 1 o 23532.086 22808.322 180.00 0.92731 0.54
8 6 5 2 o 5702.406 5517.150 0.00 0.92958 0.07
9 2 5 2 o 56.278 55.883 180.00 0.92920 0.00
6 11 3 1 o 10735.491 10330.718 0.00 0.92695 0.26
8 4 6 1 o 57265.44 55042.94 0.00 0.92684 1.32
2 14 1 2 o 1888.252 1809.833 180.00 0.92916 0.03
9 6 3 1 o 27254.896 26156.750 180.00 0.92662 0.62
1 14 2 2 o 50765.25 48660.58 0.00 0.92891 0.63
5 6 8 1 o 55913.98 53463.41 0.00 0.92639 1.33
4 9 7 2 o 8331.546 7943.170 180.00 0.92854 0.11
5 8 7 2 o 29479.949 28263.080 0.00 0.92847 0.33
10 3 2 2 o 5774.246 5476.400 180.00 0.92817 0.08
4 13 2 1 o 1114.846 1057.333 0.00 0.92580 0.04
1 7 9 1 o 32672.531 31512.902 180.00 0.92556 0.73
10 4 1 1 o 12233.849 11773.940 0.00 0.92545 0.30
1 9 8 2 o 23508.996 22808.322 180.00 0.92731 0.27
2 13 4 1 o 39765.03 38569.30 180.00 0.92483 1.03
3 11 6 1 o 4829.527 4692.225 180.00 0.92476 0.12
5 2 9 1 o 2005.023 1968.556 0.00 0.92463 0.03
6 11 3 2 o 10618.313 10330.718 0.00 0.92695 0.13
6 4 8 1 o 602.984 581.957 180.00 0.92457 0.02
8 4 6 2 o 56469.05 55042.94 0.00 0.92684 0.65
10 1 3 1 o 8194.683 7996.771 0.00 0.92450 0.19
9 6 3 2 o 26723.299 26156.750 180.00 0.92662 0.30
5 6 8 2 o 54397.08 53463.41 0.00 0.92639 0.64
4 13 2 2 o 1057.775 1057.333 0.00 0.92580 0.02
1 7 9 2 o 31344.674 31512.902 180.00 0.92556 0.35
10 4 1 2 o 11681.685 11773.940 0.00 0.92545 0.14
2 13 4 2 o 38253.76 38569.30 180.00 0.92483 0.49
3 11 6 2 o 4659.302 4692.225 180.00 0.92476 0.06
5 2 9 2 o 1961.810 1968.556 0.00 0.92463 0.02
6 4 8 2 o 578.723 581.957 180.00 0.92457 0.01
10 1 3 2 o 7973.233 7996.771 0.00 0.92450 0.09
5 12 3 1 o 42691.76 42749.27 0.00 0.92209 1.03
0 4 10 1 o 33036.848 33066.266 180.00 0.92167 0.33
9 5 4 1 o 15210.188 15483.955 180.00 0.92107 0.35
3 6 9 1 o 34.093 41.923 0.00 0.92082 0.01
3 12 5 1 o 378.168 389.960 180.00 0.92080 0.01
2 3 10 1 o 13142.169 13734.274 180.00 0.92042 0.31
5 12 3 2 o 40885.70 42749.27 0.00 0.92209 0.49
8 9 2 1 o 4.973 7.528 180.00 0.91955 0.00
3 0 10 1 o 5843.285 6052.527 180.00 0.91941 0.07
0 4 10 2 o 32067.500 33066.266 180.00 0.92167 0.16
9 7 2 1 o 149.927 153.836 0.00 0.91918 0.00
7 10 3 1 o 2400.821 2466.778 0.00 0.91898 0.06
9 5 4 2 o 15142.414 15483.955 180.00 0.92107 0.17
3 6 9 2 o 36.029 41.923 0.00 0.92082 0.00
3 12 5 2 o 381.192 389.960 180.00 0.92080 0.00
2 3 10 2 o 13328.554 13734.274 180.00 0.92042 0.16
9 3 5 1 o 15958.010 16525.299 180.00 0.91809 0.41
10 2 3 1 o 6533.311 6796.107 0.00 0.91789 0.14
1 4 10 1 o 4893.241 5187.690 0.00 0.91752 0.10
8 9 2 2 o 2.346 7.528 180.00 0.91955 0.00
3 1 10 1 o 1449.649 1584.792 180.00 0.91723 0.03
3 0 10 2 o 5531.420 6052.527 180.00 0.91941 0.03
9 7 2 2 o 140.586 153.836 0.00 0.91918 0.00
7 10 3 2 o 2182.226 2466.778 0.00 0.91898 0.03
7 7 6 1 o 721.216 836.622 180.00 0.91665 0.02
6 12 0 1 o 14647.630 15364.364 180.00 0.91454 0.18
7 7 6 2 o 799.782 836.622 180.00 0.91665 0.01
7 5 7 1 o 17168.004 17782.229 0.00 0.91434 0.46
2 14 2 1 o 7972.174 8876.646 180.00 0.91635 0.17
4 5 9 1 o 727.581 819.623 0.00 0.91591 0.02
2 14 2 2 o 8779.243 8876.646 180.00 0.91635 0.10
9 3 5 2 o 14404.491 16525.299 180.00 0.91809 0.18
3 10 7 1 o 11034.275 12782.408 0.00 0.91582 0.31
10 2 3 2 o 6072.632 6796.107 0.00 0.91789 0.07
6 7 7 1 o 4856.327 5485.560 0.00 0.91563 0.12
5 3 9 1 o 49284.27 48881.52 180.00 0.91369 1.22
4 5 9 2 o 826.676 819.623 0.00 0.91591 0.01
3 10 7 2 o 12956.733 12782.408 0.00 0.91582 0.19
6 7 7 2 o 5567.855 5485.560 0.00 0.91563 0.07
1 4 10 2 o 4725.896 5187.690 0.00 0.91752 0.05
2 7 9 1 o 1361.109 1341.133 0.00 0.91313 0.03
3 1 10 2 o 1452.494 1584.792 180.00 0.91723 0.02
2 9 8 1 o 8172.425 8694.333 180.00 0.91481 0.17
10 4 2 1 o 34975.004 34591.668 180.00 0.91279 0.87
2 9 8 2 o 8740.800 8694.333 180.00 0.91481 0.09
6 12 0 2 o 15373.648 15364.364 180.00 0.91454 0.09
7 5 7 2 o 17717.422 17782.229 0.00 0.91434 0.24
0 12 6 1 o 22727.262 22950.674 0.00 0.91174 0.32
5 3 9 2 o 48249.05 48881.52 180.00 0.91369 0.60
2 7 9 2 o 1309.995 1341.133 0.00 0.91313 0.02
3 2 10 1 o 23072.998 23682.709 180.00 0.91077 0.54
10 4 2 2 o 33428.340 34591.668 180.00 0.91279 0.41
6 12 1 1 o 40221.39 41690.36 180.00 0.91041 0.98
10 5 0 1 o 38791.50 40496.88 0.00 0.91005 0.42
0 12 6 2 o 21409.924 22950.674 0.00 0.91174 0.15
3 2 10 2 o 22275.559 23682.709 180.00 0.91077 0.26
3 14 1 1 o 1751.033 1926.017 0.00 0.90848 0.07
6 12 1 2 o 39521.18 41690.36 180.00 0.91041 0.48
10 5 0 2 o 38855.59 40496.88 0.00 0.91005 0.21
1 14 3 1 o 739.580 809.203 180.00 0.90787 0.04
1 12 6 1 o 12712.006 13249.648 0.00 0.90772 0.30
0 11 7 1 o 46.272 52.703 0.00 0.90734 0.00
8 5 6 1 o 11756.160 12252.395 0.00 0.90728 0.32
10 3 3 1 o 29514.584 30585.637 0.00 0.90718 0.70
7 11 1 1 o 13482.595 13903.992 0.00 0.90703 0.30
8 8 4 1 o 154.190 159.105 180.00 0.90638 0.00
3 14 1 2 o 1832.176 1926.017 0.00 0.90848 0.04
7 0 8 1 o 5967.028 6146.905 0.00 0.90599 0.07
10 5 1 1 o 12040.469 12393.685 0.00 0.90598 0.28
6 10 5 1 o 9273.775 9511.834 180.00 0.90559 0.23
1 14 3 2 o 770.957 809.203 180.00 0.90787 0.02
2 4 10 1 o 1643.713 1701.788 0.00 0.90541 0.06
1 12 6 2 o 12956.026 13249.648 0.00 0.90772 0.16
6 5 8 1 o 20827.881 21259.732 180.00 0.90515 0.52
5 11 5 1 o 18147.908 18535.105 180.00 0.90520 0.47
0 11 7 2 o 49.281 52.703 0.00 0.90734 0.00
8 1 7 1 o 8688.656 8863.380 180.00 0.90504 0.22
8 5 6 2 o 11988.984 12252.395 0.00 0.90728 0.16
10 3 3 2 o 30018.752 30585.637 0.00 0.90718 0.36
4 13 3 1 o 3716.151 3790.747 180.00 0.90496 0.10
7 11 1 2 o 13681.299 13903.992 0.00 0.90703 0.15
5 10 6 1 o 130.626 132.650 0.00 0.90476 0.00
3 13 4 1 o 860.900 871.995 0.00 0.90443 0.02
8 8 4 2 o 156.872 159.105 180.00 0.90638 0.00
7 1 8 1 o 6125.504 6190.257 180.00 0.90390 0.14
7 0 8 2 o 6099.701 6146.905 0.00 0.90599 0.04
10 5 1 2 o 12304.580 12393.685 0.00 0.90598 0.14
0 13 5 1 o 81066.93 81672.76 180.00 0.90375 1.02
1 11 7 1 o 690.884 689.123 0.00 0.90339 0.02
6 10 5 2 o 9544.109 9511.834 180.00 0.90559 0.12
9 4 5 1 o 922.138 913.505 0.00 0.90320 0.03
2 4 10 2 o 1724.512 1701.788 0.00 0.90541 0.03
6 5 8 2 o 21609.105 21259.732 180.00 0.90515 0.27
5 11 5 2 o 18815.396 18535.105 180.00 0.90520 0.25
8 1 7 2 o 9036.050 8863.380 180.00 0.90504 0.11
4 8 8 1 o 2.375 0.768 0.00 0.90274 0.00
4 13 3 2 o 3872.943 3790.747 180.00 0.90496 0.05
5 10 6 2 o 135.444 132.650 0.00 0.90476 0.00
3 13 4 2 o 891.988 871.995 0.00 0.90443 0.01
7 1 8 2 o 6410.039 6190.257 180.00 0.90390 0.08
5 13 1 1 o 16554.072 15897.345 180.00 0.90164 0.48
8 7 5 1 o 128645.74 124109.95 180.00 0.90147 3.16
0 13 5 2 o 84645.93 81672.76 180.00 0.90375 0.54
1 11 7 2 o 711.367 689.123 0.00 0.90339 0.01
9 4 5 2 o 944.248 913.505 0.00 0.90320 0.01
6 9 6 1 o 47484.59 46037.99 180.00 0.90099 1.25
4 8 8 2 o 2.148 0.768 0.00 0.90274 0.00
3 3 10 1 o 37.303 37.037 180.00 0.90031 0.00
1 13 5 1 o 16857.197 16739.320 180.00 0.89984 0.45
9 8 1 1 o 9513.797 9449.359 0.00 0.89966 0.21
5 13 1 2 o 16087.917 15897.345 180.00 0.90164 0.23
8 7 5 2 o 125829.62 124109.95 180.00 0.90147 1.54
8 9 3 1 o 12378.010 12160.155 180.00 0.89912 0.32
5 4 9 1 o 186.456 184.170 180.00 0.89901 0.00
8 2 7 1 o 295.925 288.220 180.00 0.89884 0.01
9 7 3 1 o 136.247 134.566 0.00 0.89878 0.00
6 9 6 2 o 47309.21 46037.99 180.00 0.90099 0.63
5 7 8 1 o 22.704 22.302 0.00 0.89856 0.00
1 5 10 1 o 5013.860 4846.124 180.00 0.89854 0.13
6 12 2 1 o 12446.609 12038.146 180.00 0.89835 0.30
3 3 10 2 o 37.922 37.037 180.00 0.90031 0.00
6 11 4 1 o 35797.42 34244.758 0.00 0.89806 1.02
10 0 4 1 o 59945.66 57511.97 180.00 0.89786 0.76
9 6 4 1 o 18797.975 18051.889 0.00 0.89776 0.48
7 2 8 1 o 33636.926 32366.148 180.00 0.89772 0.81
1 13 5 2 o 17404.361 16739.320 180.00 0.89984 0.23
9 8 1 2 o 9752.844 9449.359 0.00 0.89966 0.11
8 9 3 2 o 12520.293 12160.155 180.00 0.89912 0.17
5 4 9 2 o 187.331 184.170 180.00 0.89901 0.00
8 2 7 2 o 296.897 288.220 180.00 0.89884 0.00
9 7 3 2 o 136.360 134.566 0.00 0.89878 0.00
4 11 6 1 o 3062.691 2958.317 180.00 0.89658 0.10
3 14 2 1 o 23984.461 23344.992 0.00 0.89650 0.61
5 7 8 2 o 22.670 22.302 0.00 0.89856 0.00
1 5 10 2 o 4997.510 4846.124 180.00 0.89854 0.07
6 12 2 2 o 12373.767 12038.146 180.00 0.89835 0.15
2 14 3 1 o 555.372 537.584 0.00 0.89613 0.02
2 12 6 1 o 618.996 612.174 180.00 0.89599 0.01
10 1 4 1 o 41904.77 40692.37 0.00 0.89582 1.08
6 11 4 2 o 35340.74 34244.758 0.00 0.89806 0.51
8 10 0 1 o 14671.522 14269.541 180.00 0.89577 0.19
10 0 4 2 o 58973.82 57511.97 180.00 0.89786 0.37
9 6 4 2 o 18450.977 18051.889 0.00 0.89776 0.24
7 2 8 2 o 33011.883 32366.148 180.00 0.89772 0.40
7 11 2 1 o 8490.869 8480.673 180.00 0.89510 0.24
3 9 8 1 o 16739.688 16760.572 0.00 0.89506 0.41
4 11 6 2 o 2828.750 2958.317 180.00 0.89658 0.05
3 14 2 2 o 22496.695 23344.992 0.00 0.89650 0.28
10 5 2 1 o 7359.529 7725.424 0.00 0.89409 0.20
7 9 5 1 o 20411.166 21450.582 0.00 0.89410 0.58
2 14 3 2 o 510.779 537.584 0.00 0.89613 0.01
1 8 9 1 o 2674.731 2793.322 180.00 0.89375 0.06
2 12 6 2 o 601.541 612.174 180.00 0.89599 0.00
10 1 4 2 o 38689.21 40692.37 0.00 0.89582 0.49
5 12 4 1 o 8664.325 9090.312 0.00 0.89363 0.22
8 10 0 2 o 13588.044 14269.541 180.00 0.89577 0.09
3 7 9 1 o 6327.048 6666.467 0.00 0.89348 0.17
4 6 9 1 o 1584.958 1642.354 0.00 0.89298 0.04
4 12 5 1 o 4225.911 4381.960 180.00 0.89298 0.12
7 11 2 2 o 8204.791 8480.673 180.00 0.89510 0.11
3 9 8 2 o 16302.638 16760.572 0.00 0.89506 0.20
10 4 3 1 o 3370.635 3464.548 180.00 0.89280 0.09
9 0 6 1 o 1558.391 1579.125 0.00 0.89256 0.02
5 9 7 1 o 38547.61 38626.30 180.00 0.89235 1.02
10 5 2 2 o 7885.145 7725.424 0.00 0.89409 0.11
7 9 5 2 o 21900.314 21450.582 0.00 0.89410 0.32
8 10 1 1 o 1204.895 1181.386 0.00 0.89189 0.03
2 11 7 1 o 2710.620 2657.425 0.00 0.89182 0.07
4 0 10 1 o 88644.69 86490.76 180.00 0.89170 1.12
1 8 9 2 o 2862.796 2793.322 180.00 0.89375 0.03
7 6 7 1 o 6564.310 6396.968 0.00 0.89152 0.16
5 12 4 2 o 9356.005 9090.312 0.00 0.89363 0.12
3 7 9 2 o 6893.562 6666.467 0.00 0.89348 0.10
0 10 8 1 o 7031.697 6833.031 180.00 0.89110 0.08
4 6 9 2 o 1695.683 1642.354 0.00 0.89298 0.02
7 10 4 1 o 236.892 231.579 0.00 0.89080 0.00
4 12 5 2 o 4528.506 4381.960 180.00 0.89298 0.06
10 4 3 2 o 3577.261 3464.548 180.00 0.89280 0.05
9 1 6 1 o 18158.500 17638.277 180.00 0.89057 0.44
9 0 6 2 o 1624.882 1579.125 0.00 0.89256 0.01
5 9 7 2 o 39807.16 38626.30 180.00 0.89235 0.54
5 13 2 1 o 20512.096 19962.660 0.00 0.88992 0.52
10 2 4 1 o 5029.011 4898.881 180.00 0.88981 0.12
4 1 10 1 o 3573.233 3461.214 180.00 0.88971 0.10
8 10 1 2 o 1216.891 1181.386 0.00 0.89189 0.02
2 11 7 2 o 2728.225 2657.425 0.00 0.89182 0.03
4 0 10 2 o 88945.45 86490.76 180.00 0.89170 0.57
