#------------------------------------------------------------------------------
#$Date: 2016-03-21 01:21:50 +0200 (Mon, 21 Mar 2016) $
#$Revision: 178377 $
#$URL: svn://www.crystallography.net/cod/cif/4/00/11/4001194.cif $
#------------------------------------------------------------------------------
#
# This file is available in the Crystallography Open Database (COD),
# http://www.crystallography.net/
#
# All data on this site have been placed in the public domain by the
# contributors.
#
data_4001194
loop_
_publ_author_name
'Zhou, Yongkai'
'Adams, Stefan'
'Rao, R. Prasada'
'Edwards, Doreen D.'
'Neiman, Arkady'
'Pestereva, N.'
_publ_section_title
;
 Charge Transport by Polyatomic Anion Diffusion in Sc2(WO4)3
;
_journal_issue                   20
_journal_name_full               'Chemistry of Materials'
_journal_page_first              6335
_journal_paper_doi               10.1021/cm800466y
_journal_volume                  20
_journal_year                    2008
_chemical_formula_moiety         ' Sc2(WO4)3 '
_chemical_formula_sum            'O12 Sc2 W3'
_chemical_formula_weight         833.45
_chemical_melting_point          1913
_chemical_name_common            ' Scandium Tungstate '
_chemical_name_systematic        ' Scandium Tungstate '
_space_group_IT_number           60
_symmetry_cell_setting           orthorhombic
_symmetry_space_group_name_Hall  '-P 2a 2n'
_symmetry_space_group_name_H-M   'P n c a'
_audit_creation_date             2008-01-25T12:03
_audit_creation_method           'from EXP file using GSAS2CIF'
_audit_update_record
' 2008-01-25T12:03  Initial CIF as created by GSAS2CIF'
_cell_angle_alpha                90.0
_cell_angle_beta                 90.0
_cell_angle_gamma                90.0
_cell_formula_units_Z            4
_cell_length_a                   9.64871(5)
_cell_length_b                   13.34598(7)
_cell_length_c                   9.56563(5)
_cell_measurement_temperature    600
_cell_volume                     1231.780(11)
_computing_structure_refinement  GSAS
_diffrn_radiation_polarisn_ratio 0.68
_diffrn_radiation_probe          x-ray
_exptl_absorpt_correction_T_max  1.00000
_exptl_absorpt_correction_T_min  1.00000
_exptl_absorpt_process_details
;   GSAS Absorption/surface roughness correction: function number 0
 No correction is applied.
;
_pd_block_id
2008-01-25T12:03|T11K|Zhou_Yongkai|Philips_Xpert
_pd_calc_method                  'Rietveld Refinement'
_pd_instr_location               ' ?'
_pd_meas_2theta_range_inc        0.017
_pd_meas_2theta_range_max        119.9874
_pd_meas_2theta_range_min        10.0144
_pd_meas_number_of_points        6470
_pd_proc_2theta_range_inc        0.017
_pd_proc_2theta_range_max        119.9874
_pd_proc_2theta_range_min        10.0144
_pd_proc_info_datetime           2008-01-25T12:27:49
_pd_proc_info_excluded_regions   ' ?'
_pd_proc_ls_background_function
;   GSAS Background function number 1 with 12 terms.
 Shifted Chebyshev function of 1st kind
      1:    346.208     2:   -44.4362     3:    26.2583     4:    38.7521    
      5:   -6.38911     6:    12.4859     7:   -10.3327     8:    5.00756    
      9:    8.57861    10:   -22.4220    11:    21.4381    12:   -8.24039    
;
_pd_proc_ls_peak_cutoff          0.00250
_pd_proc_ls_pref_orient_corr
;   March-Dollase
 AXIS  1 Ratio=   0.95090  h= 0.000  k= 1.000  l= 0.000
 Prefered orientation correction range: Min=   0.92726, Max=   1.16304
;
_pd_proc_ls_profile_function
;
 CW Profile function number 3 with  19 terms
 Pseudovoigt profile coefficients as parameterized in
 P. Thompson, D.E. Cox & J.B. Hastings (1987). J. Appl. Cryst.,20,79-83.
 Asymmetry correction of L.W. Finger, D.E. Cox & A. P. Jephcoat (1994).
 J. Appl. Cryst.,27,892-900.
 Peak tails are ignored  where the intensity is below 0.0025 times the peak
   Aniso. broadening axis   0.0   0.0   1.0
;
_pd_proc_ls_prof_R_factor        0.0484
_pd_proc_ls_prof_wR_expected     0.0357
_pd_proc_ls_prof_wR_factor       0.0641
_pd_proc_number_of_points        6470
_pd_spec_mounting                ' ?'
_refine_ls_goodness_of_fit_all   1.85
_refine_ls_matrix_type           full
_refine_ls_number_parameters     51
_refine_ls_number_restraints     0
_refine_ls_R_Fsqd_factor         0.05444
_refine_ls_shift/su_max          0.03
_refine_ls_shift/su_mean         0.01
_reflns_d_resolution_high        0.890
_reflns_d_resolution_low         6.673
_reflns_limit_h_max              10
_reflns_limit_h_min              0
_reflns_limit_k_max              15
_reflns_limit_k_min              0
_reflns_limit_l_max              10
_reflns_limit_l_min              0
_reflns_number_total             1833
_cod_data_source_file            cm800466y_si_013.cif
_cod_data_source_block           T600K
_cod_depositor_comments
;
The following automatic conversions were performed:

'_chemical_melting_point' value ' 1913K ' was changed to '1913' - the
value should be numeric and without a unit
designator.

'_geom_bond_publ_flag' value 'N' changed to 'n'
according to /home/saulius/struct/CIF-dictionaries/cif_core.dic
dictionary named 'cif_core.dic' version 2.4.1 from 2010-06-29 (26
times).

'_geom_angle_publ_flag' value 'N' changed to 'n' according
to /home/saulius/struct/CIF-dictionaries/cif_core.dic dictionary
named 'cif_core.dic' version 2.4.1 from 2010-06-29 (33 times).

Automatic conversion script
Id: cif_fix_values 1715 2011-07-08 13:25:40Z adriana 
;
_cod_original_cell_volume        1231.781(13)
_cod_database_code               4001194
#BEGIN Tags that were not found in dictionaries:
_gsas_exptl_extinct_corr_t_min   1.00000
_gsas_exptl_extinct_corr_t_max   1.00000
#END Tags that were not found in dictionaries
loop_
_symmetry_equiv_pos_site_id
_symmetry_equiv_pos_as_xyz
1 +x,+y,+z
2 -x+1/2,+y+1/2,+z+1/2
3 +x,-y+1/2,+z+1/2
4 -x+1/2,-y,+z
-1 -x,-y,-z
-2 +x+1/2,-y+1/2,-z+1/2
-3 -x,+y+1/2,-z+1/2
-4 +x+1/2,+y,-z
loop_
_atom_site_type_symbol
_atom_site_label
_atom_site_fract_x
_atom_site_fract_y
_atom_site_fract_z
_atom_site_occupancy
_atom_site_thermal_displace_type
_atom_site_U_iso_or_equiv
_atom_site_symmetry_multiplicity
Sc Sc1 0.46870(33) 0.38129(22) 0.2482(4) 1.0 Uiso 0.0217(11) 8
W W1 0.25 0.0 0.47185(14) 1.0 Uiso 0.02227(26) 4
W W2 0.11426(10) 0.35637(7) 0.39242(10) 1.0 Uiso 0.02227(26) 8
O O1 0.0915(11) 0.1324(8) 0.0721(11) 1.0 Uiso 0.0416(16) 8
O O2 0.1410(12) 0.0719(7) 0.3681(12) 1.0 Uiso 0.0416(16) 8
O O3 0.0071(11) 0.2648(8) 0.3169(10) 1.0 Uiso 0.0416(16) 8
O O4 0.3342(11) 0.4072(7) 0.0768(11) 1.0 Uiso 0.0416(16) 8
O O5 0.0632(10) 0.4758(8) 0.3230(11) 1.0 Uiso 0.0416(16) 8
O O6 0.2922(12) 0.3430(8) 0.3487(11) 1.0 Uiso 0.0416(16) 8
loop_
_atom_type_symbol
_atom_type_number_in_cell
_atom_type_scat_dispersion_real
_atom_type_scat_dispersion_imag
_atom_type_scat_Cromer_Mann_a1
_atom_type_scat_Cromer_Mann_a2
_atom_type_scat_Cromer_Mann_a3
_atom_type_scat_Cromer_Mann_a4
_atom_type_scat_Cromer_Mann_b1
_atom_type_scat_Cromer_Mann_b2
_atom_type_scat_Cromer_Mann_b3
_atom_type_scat_Cromer_Mann_b4
_atom_type_scat_Cromer_Mann_c
_atom_type_scat_source
Sc 8.0 0.000 0.000 9.18900 9.02130 7.36790 0.57290 1.64090 136.108 1.46800
51.3531 1.33290 International_Tables_Vol_C
W 12.0 0.000 0.000 29.0818 1.72029 15.4300 9.22590 14.4327 0.32170 5.11982
57.0560 9.88750 International_Tables_Vol_C
O 48.0 0.000 0.000 3.04850 13.2771 2.28680 5.70110 1.54630 0.32390 0.86700
32.9089 0.25080 International_Tables_Vol_C
loop_
_diffrn_radiation_wavelength
_diffrn_radiation_wavelength_wt
_diffrn_radiation_type
_diffrn_radiation_wavelength_id
1.540500 1.000 K\a~1~ 1
1.544300 0.000 K\a~2~ 2
loop_
_geom_angle_atom_site_label_1
_geom_angle_atom_site_label_2
_geom_angle_atom_site_label_3
_geom_angle
_geom_angle_site_symmetry_1
_geom_angle_site_symmetry_3
_geom_angle_publ_flag
O1 Sc1 O2 90.7(4) -2_666 -2_666 n
O1 Sc1 O3 93.6(4) -2_666 -2_666 n
O1 Sc1 O4 174.2(5) -2_666 1_555 n
O1 Sc1 O5 83.1(4) -2_666 4_565 n
O1 Sc1 O6 93.7(4) -2_666 1_555 n
O2 Sc1 O3 88.8(4) -2_666 -2_666 n
O2 Sc1 O4 91.5(4) -2_666 1_555 n
O2 Sc1 O5 91.5(4) -2_666 4_565 n
O2 Sc1 O6 175.0(5) -2_666 1_555 n
O3 Sc1 O4 91.7(4) -2_666 1_555 n
O3 Sc1 O5 176.7(4) -2_666 4_565 n
O3 Sc1 O6 93.2(4) -2_666 1_555 n
O4 Sc1 O5 91.5(4) 1_555 4_565 n
O4 Sc1 O6 83.9(4) 1_555 1_555 n
O5 Sc1 O6 86.7(4) 4_565 1_555 n
O2 W1 O2 110.2(7) 1_555 4_555 n
O2 W1 O4 115.4(5) 1_555 2_545 n
O2 W1 O4 102.3(5) 1_555 3_555 n
O2 W1 O4 102.3(5) 4_555 2_545 n
O2 W1 O4 115.4(5) 4_555 3_555 n
O4 W1 O4 111.7(7) 2_545 3_555 n
O1 W2 O3 113.1(5) 3_555 1_555 n
O1 W2 O5 104.7(4) 3_555 1_555 n
O1 W2 O6 111.3(5) 3_555 1_555 n
O3 W2 O5 107.7(5) 1_555 1_555 n
O3 W2 O6 113.7(5) 1_555 1_555 n
O5 W2 O6 105.5(4) 1_555 1_555 n
Sc1 O1 W2 152.8(6) -2_466 3_554 n
Sc1 O2 W1 161.7(6) -2_555 1_555 n
Sc1 O3 W2 151.7(6) -2_466 1_555 n
Sc1 O4 W1 145.6(6) 1_555 2_554 n
Sc1 O5 W2 172.4(6) 4_565 1_555 n
Sc1 O6 W2 154.3(6) 1_555 1_555 n
loop_
_geom_bond_atom_site_label_1
_geom_bond_atom_site_label_2
_geom_bond_distance
_geom_bond_site_symmetry_2
_geom_bond_publ_flag
Sc1 O1 2.096(11) -2_555 n
Sc1 O2 2.096(11) -2_555 n
Sc1 O3 2.080(11) -2_555 n
Sc1 O4 2.119(10) 1_555 n
Sc1 O5 2.061(10) 4_565 n
Sc1 O6 2.021(11) 1_555 n
W1 O2 1.735(11) 1_555 n
W1 O2 1.735(11) 4_555 n
W1 O4 1.790(10) 2_545 n
W1 O4 1.790(10) 3_555 n
W2 O1 1.739(10) 3_555 n
W2 O3 1.756(11) 1_555 n
W2 O5 1.795(10) 1_555 n
W2 O6 1.776(11) 1_555 n
O1 Sc1 2.096(11) -2_455 n
O1 W2 1.739(10) 3_554 n
O2 Sc1 2.096(11) -2_455 n
O2 W1 1.735(11) 1_555 n
O3 Sc1 2.080(11) -2_455 n
O3 W2 1.756(11) 1_555 n
O4 Sc1 2.119(10) 1_555 n
O4 W1 1.790(10) 2_554 n
O5 Sc1 2.061(10) 4_565 n
O5 W2 1.795(10) 1_555 n
O6 Sc1 2.021(11) 1_555 n
O6 W2 1.776(11) 1_555 n
loop_
_pd_meas_counts_total
_pd_proc_ls_weight
_pd_proc_intensity_bkg_calc
_pd_calc_intensity_total
335.0 0.0 698.93475 .
333.0 0.0 694.98395 .
336.0 0.0 691.06342 .
360.0 0.0 687.17261 .
317.0 0.0 683.31122 .
327.0 0.0 679.47998 .
316.0 0.0 675.67786 .
313.0 0.0 671.90479 .
322.0 0.0 668.16125 .
326.0 0.0 664.44604 .
328.0 0.0 660.76019 .
318.0 0.0 657.10272 .
332.0 0.0 653.47388 .
318.0 0.0 649.87341 .
320.0 0.0 646.30109 .
339.0 0.0 642.75684 .
315.0 0.0 639.24048 .
329.0 0.0 635.75153 .
323.0 0.0 632.29095 .
319.0 0.0 628.85760 .
323.0 0.0 625.45166 .
316.0 0.0 622.07263 .
311.0 0.0 618.72058 .
306.0 0.0 615.39581 .
299.0 0.0 612.09790 .
300.0 0.0 608.82648 .
309.0 0.0 605.58142 .
318.0 0.0 602.36273 .
333.0 0.0 599.17023 .
321.0 0.0 596.00427 .
315.0 0.0 592.86377 .
321.0 0.0 589.74915 .
341.0 0.0 586.66016 .
332.0 0.0 583.59705 .
327.0 0.0 580.55920 .
326.0 0.0 577.54651 .
315.0 0.0 574.55896 .
324.0 0.0 571.59613 .
322.0 0.0 568.65857 .
337.0 0.0 565.74585 .
331.0 0.0 562.85754 .
327.0 0.0 559.99365 .
321.0 0.0 557.15381 .
320.0 0.0 554.33862 .
325.0 0.0 551.54761 .
325.0 0.0 548.78015 .
339.0 0.0 546.03656 .
300.0 0.0 543.31659 .
313.0 0.0 540.62048 .
344.0 0.0 537.94769 .
361.0 0.0 535.29828 .
330.0 0.0 532.67181 .
344.0 0.0 530.06836 .
326.0 0.0 527.48810 .
319.0 0.0 524.93048 .
375.0 0.0 522.39569 .
333.0 0.0 519.88318 .
336.0 0.0 517.39307 .
311.0 0.0 514.92548 .
343.0 0.0 512.48022 .
349.0 0.0 510.05682 .
329.0 0.0 507.65509 .
347.0 0.0 505.27530 .
346.0 0.0 502.91736 .
342.0 0.0 500.58112 .
333.0 0.0 498.26614 .
355.0 0.0 495.97235 .
381.0 0.0 493.69983 .
339.0 0.0 491.44849 .
341.0 0.0 489.21814 .
345.0 0.0 487.00873 .
355.0 0.0 484.81976 .
345.0 0.0 482.65158 .
352.0 0.0 480.50378 .
336.0 0.0 478.37665 .
345.0 0.0 476.26968 .
341.0 0.0 474.18259 .
345.0 0.0 472.11588 .
338.0 0.0 470.06882 .
345.0 0.0 468.04178 .
360.0 0.0 466.03455 .
358.0 0.0 464.04663 .
358.0 0.0 462.07816 .
335.0 0.0 460.12915 .
324.0 0.0 458.19958 .
364.0 0.0 456.28903 .
364.0 0.0 454.39746 .
341.0 0.0 452.52475 .
361.0 0.0 450.67090 .
388.0 0.0 448.83588 .
379.0 0.0 447.01935 .
348.0 0.0 445.22119 .
369.0 0.0 443.44150 .
384.0 0.0 441.68002 .
364.0 0.0 439.93683 .
326.0 0.0 438.21176 .
320.0 0.0 436.50439 .
342.0 0.0 434.81491 .
349.0 0.0 433.14319 .
349.0 0.0 431.48926 .
331.0 0.0 429.85275 .
320.0 0.0 428.23358 .
334.0 0.0 426.63174 .
341.0 0.0 425.04727 .
339.0 0.0 423.47980 .
337.0 0.0 421.92947 .
329.0 0.0 420.39581 .
339.0 0.0 418.87912 .
357.0 0.0 417.37912 .
368.0 0.0 415.89566 .
349.0 0.0 414.42883 .
346.0 0.0 412.97827 .
339.0 0.0 411.54398 .
357.0 0.0 410.12616 .
370.0 0.0 408.72424 .
370.0 0.0 407.33832 .
360.0 0.0 405.96841 .
339.0 0.002950 404.61407 404.60464
340.0 0.002941 403.27579 403.26657
377.0 0.002653 401.95297 401.94382
377.0 0.002653 400.64572 400.63663
380.0 0.002632 399.35385 399.34491
337.0 0.002967 398.07727 398.06839
347.0 0.002882 396.81601 396.80725
351.0 0.002849 395.56995 395.56125
326.0 0.003067 394.33887 394.33032
343.0 0.002915 393.12268 393.11420
341.0 0.002933 391.92136 391.91302
342.0 0.002924 390.73483 390.72662
330.0 0.003030 389.56305 389.55496
368.0 0.002717 388.40582 388.39789
365.0 0.002740 387.26312 387.25516
368.0 0.002717 386.13470 386.12686
346.0 0.002890 385.02069 385.01294
332.0 0.003012 383.92081 383.91321
348.0 0.002874 382.83517 382.82761
348.0 0.002874 381.76355 381.75607
374.0 0.002674 380.70575 380.69836
368.0 0.002717 379.66196 379.65469
343.0 0.002915 378.63196 378.62476
361.0 0.002770 377.61557 377.60846
361.0 0.002770 376.61273 376.60571
355.0 0.002817 375.62341 375.61646
351.0 0.002849 374.64755 374.64072
353.0 0.002833 373.68509 373.67828
355.0 0.002817 372.73575 372.72913
352.0 0.002841 371.79968 371.79297
377.0 0.002653 370.87646 370.86996
374.0 0.002674 369.96658 369.95999
357.0 0.002801 369.06937 369.06293
349.0 0.002865 368.18500 368.17871
367.0 0.002725 367.31345 367.30725
368.0 0.002717 366.45444 366.44818
371.0 0.002695 365.60803 365.60196
361.0 0.002770 364.77417 364.76816
347.0 0.002882 363.95276 363.94672
342.0 0.002924 363.14355 363.13763
360.0 0.002778 362.34647 362.34067
352.0 0.002841 361.56174 361.55603
370.0 0.002703 360.78912 360.78333
401.0 0.002494 360.02835 360.02267
377.0 0.002653 359.27948 363.71402
354.0 0.002825 358.54254 363.37177
387.0 0.002584 357.81735 365.32413
377.0 0.002653 357.10385 365.34705
366.0 0.002732 356.40179 365.51895
378.0 0.002646 355.71136 365.88773
431.0 0.002320 355.03226 366.53210
429.0 0.002331 354.36469 367.62512
393.0 0.002545 353.70828 369.82892
424.0 0.002358 353.06305 375.34317
434.0 0.002304 352.42905 387.20929
459.0 0.002179 351.80603 406.08017
472.0 0.002119 351.19388 430.97394
456.0 0.002193 350.59280 460.65402
458.0 0.002183 350.00250 493.89124
499.0 0.002004 349.42291 530.35797
537.0 0.001862 348.85388 570.27509
578.0 0.001730 348.29559 614.05890
599.0 0.001669 347.74783 662.29309
634.0 0.001577 347.21048 715.76703
707.0 0.001414 346.68338 775.49139
787.0 0.001271 346.16666 842.66913
837.0 0.001195 345.66025 918.85400
896.0 0.001116 345.16388 1006.31146
1046.0 0.000956 344.67767 1108.08350
1225.0 0.000816 344.20142 1228.43420
1424.0 0.000702 343.73502 1373.95032
1699.0 0.000589 343.27859 1554.69104
2126.0 0.000470 342.83191 1788.32141
2576.0 0.000388 342.39499 2109.70288
3270.0 0.0003058 341.96765 2604.62231
4024.0 0.0002485 341.54990 3407.47412
4446.0 0.0002249 341.14169 4135.06934
3908.0 0.0002559 340.74292 3567.07007
2710.0 0.000369 340.35352 2498.78589
1672.0 0.000598 339.97336 1514.44238
848.0 0.001179 339.60251 781.75140
543.0 0.001842 339.24078 524.01453
478.0 0.002092 338.88815 452.06836
436.0 0.002294 338.54456 419.52634
418.0 0.002392 338.20987 399.60913
407.0 0.002457 337.88416 386.24347
393.0 0.002545 337.56726 376.75659
390.0 0.002564 337.25909 369.72858
373.0 0.002681 336.95959 364.34351
371.0 0.002695 336.66870 360.10242
374.0 0.002674 336.38644 356.68570
368.0 0.002717 336.11267 353.88000
370.0 0.002703 335.84732 351.53757
353.0 0.002833 335.59030 349.55435
363.0 0.002755 335.34161 347.85419
388.0 0.002577 335.10110 346.38101
401.0 0.002494 334.86887 345.09256
398.0 0.002513 334.64468 343.95599
372.0 0.002688 334.42856 337.58868
343.0 0.002915 334.22040 337.10883
366.0 0.002732 334.02023 334.01663
385.0 0.002597 333.82788 333.82434
363.0 0.002755 333.64331 333.63980
355.0 0.002817 333.46646 333.46295
362.0 0.002762 333.29727 333.29382
359.0 0.002786 333.13568 333.13226
359.0 0.002786 332.98175 332.97830
361.0 0.002770 332.83524 332.83182
370.0 0.002703 332.69611 332.69272
371.0 0.002695 332.56442 332.56107
356.0 0.002809 332.44003 332.43665
367.0 0.002725 332.32288 332.31949
408.0 0.002451 332.21295 332.20956
365.0 0.002740 332.11011 332.10675
369.0 0.002710 332.01434 332.01102
348.0 0.002874 331.92566 331.92230
353.0 0.002833 331.84384 331.84055
365.0 0.002740 331.76898 331.76563
377.0 0.002653 331.70093 331.69763
399.0 0.002506 331.63968 331.63644
393.0 0.002545 331.58524 331.58188
393.0 0.002545 331.53735 331.53406
375.0 0.002667 331.49615 331.49286
377.0 0.002653 331.46143 331.45819
348.0 0.002874 331.43326 337.81073
368.0 0.002717 331.41159 338.31149
405.0 0.002469 331.39627 342.03271
375.0 0.002667 331.38718 342.96274
410.0 0.002439 331.38458 344.04398
409.0 0.002445 331.38809 345.31268
420.0 0.002381 331.39777 346.82034
419.0 0.002387 331.41360 348.64209
429.0 0.002331 331.43546 350.89713
448.0 0.002232 331.46335 353.80310
468.0 0.002137 331.49725 358.00571
491.0 0.002037 331.53702 366.00674
505.0 0.001980 331.58261 383.28513
498.0 0.002008 331.63403 413.25241
518.0 0.001931 331.69125 454.92719
561.0 0.001783 331.75406 506.99536
619.0 0.001616 331.82257 567.53235
666.0 0.001502 331.89673 635.07031
717.0 0.001395 331.97641 709.75690
764.0 0.001309 332.06149 792.56488
836.0 0.001196 332.15210 884.91693
947.0 0.001056 332.24808 988.65063
1028.0 0.000973 332.34949 1106.10449
1104.0 0.000906 332.45593 1240.43420
1279.0 0.000782 332.56790 1396.22180
1455.0 0.000687 332.68494 1579.97998
1678.0 0.000596 332.80713 1800.80115
2021.0 0.000495 332.93442 2073.53735
2524.0 0.000396 333.06671 2423.13403
3103.0 0.0003223 333.20410 2897.54907
4019.0 0.0002488 333.34641 3612.07056
5163.0 0.0001937 333.49359 4777.29688
5893.0 0.0001697 333.64560 6005.47314
5189.0 0.0001927 333.80249 5429.30469
3726.0 0.0002684 333.96408 3844.55151
2409.0 0.000415 334.13040 2597.04102
1259.0 0.000794 334.30142 1301.95557
684.0 0.001462 334.47702 703.91302
523.0 0.001912 334.65717 537.23816
478.0 0.002092 334.84192 475.12952
447.0 0.002237 335.03113 439.74707
395.0 0.002532 335.22479 416.79636
399.0 0.002506 335.42279 400.97546
387.0 0.002584 335.62512 389.57974
421.0 0.002375 335.83182 381.09186
382.0 0.002618 336.04282 374.60083
407.0 0.002457 336.25790 369.53186
418.0 0.002392 336.47723 365.50549
363.0 0.002755 336.70068 362.26227
402.0 0.002488 336.92819 359.62000
350.0 0.002857 337.15976 357.44708
337.0 0.002967 337.39536 355.64700
370.0 0.002703 337.63486 354.14719
384.0 0.002604 337.87827 352.89200
373.0 0.002681 338.12561 343.28168
388.0 0.002577 338.37668 343.08017
387.0 0.002584 338.63168 338.62775
350.0 0.002857 338.89026 338.88638
376.0 0.002660 339.15259 339.14871
354.0 0.002825 339.41861 339.41464
403.0 0.002481 339.68823 339.68427
397.0 0.002519 339.96146 339.95746
397.0 0.002519 340.23819 340.23416
370.0 0.002703 340.51840 340.51437
377.0 0.002653 340.80203 340.79803
363.0 0.002755 341.08917 341.08517
385.0 0.002597 341.37970 341.37555
375.0 0.002667 341.67349 341.66937
374.0 0.002674 341.97058 341.96646
367.0 0.002725 342.27097 342.26675
389.0 0.002571 342.57452 342.57040
347.0 0.002882 342.88135 342.87714
344.0 0.002907 343.19128 343.18704
354.0 0.002825 343.50424 343.49994
362.0 0.002762 343.82028 343.81601
384.0 0.002604 344.13943 344.13510
380.0 0.002632 344.46158 344.45718
355.0 0.002817 344.78659 344.78226
340.0 0.002941 345.11453 345.11017
352.0 0.002841 345.44531 345.44098
361.0 0.002770 345.77908 345.77463
353.0 0.002833 346.11554 346.11115
335.0 0.002985 346.45483 346.45035
344.0 0.002907 346.79678 346.79230
367.0 0.002725 347.14148 347.13696
365.0 0.002740 347.48880 347.48428
350.0 0.002857 347.83881 347.83417
353.0 0.002833 348.19135 348.18677
347.0 0.002882 348.54642 348.54175
323.0 0.003096 348.90402 348.89935
362.0 0.002762 349.26416 349.25949
343.0 0.002915 349.62671 349.62201
390.0 0.002564 349.99170 349.98700
379.0 0.002639 350.35904 350.35428
338.0 0.002959 350.72876 350.72397
325.0 0.003077 351.10083 351.09595
370.0 0.002703 351.47510 351.47025
343.0 0.002915 351.85165 351.84674
339.0 0.002950 352.23035 352.22552
371.0 0.002695 352.61130 352.60635
372.0 0.002688 352.99435 352.98941
355.0 0.002817 353.37958 353.37460
356.0 0.002809 353.76688 353.76181
379.0 0.002639 354.15613 354.15112
364.0 0.002747 354.54745 354.54239
341.0 0.002933 354.94080 354.93573
361.0 0.002770 355.33609 355.33096
329.0 0.003040 355.73331 355.72815
347.0 0.002882 356.13232 356.12717
332.0 0.003012 356.53326 356.52808
358.0 0.002793 356.93610 356.93085
376.0 0.002660 357.34064 357.33542
341.0 0.002933 357.74698 357.74164
351.0 0.002849 358.15506 358.14966
336.0 0.002976 358.56482 358.55945
346.0 0.002890 358.97629 358.97089
367.0 0.002725 359.38934 359.38397
357.0 0.002801 359.80411 359.79865
357.0 0.002801 360.22040 360.21484
363.0 0.002755 360.63824 360.63263
373.0 0.002681 361.05762 361.05206
360.0 0.002778 361.47852 361.47299
360.0 0.002778 361.90088 361.89520
350.0 0.002857 362.32465 362.31897
361.0 0.002770 362.74976 362.74414
376.0 0.002660 363.17642 363.17072
349.0 0.002865 363.60437 363.59863
341.0 0.002933 364.03363 364.02789
358.0 0.002793 364.46423 364.45837
363.0 0.002755 364.89603 364.89020
368.0 0.002717 365.32907 365.32327
366.0 0.002732 365.76352 365.75760
363.0 0.002755 366.19897 366.19302
360.0 0.002778 366.63562 366.62964
364.0 0.002747 367.07336 367.06741
362.0 0.002762 367.51233 367.50635
364.0 0.002747 367.95233 367.94629
364.0 0.002747 368.39337 368.38730
346.0 0.002890 368.83542 368.82932
356.0 0.002809 369.27856 369.27237
354.0 0.002825 369.72256 369.71643
349.0 0.002865 370.16763 370.16141
361.0 0.002770 370.61359 370.60736
333.0 0.003003 371.06042 371.05420
340.0 0.002941 371.50815 371.50183
367.0 0.002725 371.95679 371.95044
344.0 0.002907 372.40619 372.39981
339.0 0.002950 372.85638 372.85001
353.0 0.002833 373.30734 373.30096
346.0 0.002890 373.75909 373.75266
351.0 0.002849 374.21161 374.20511
368.0 0.002717 374.66476 374.65833
334.0 0.002994 375.11865 375.11206
345.0 0.002899 375.57318 375.56662
358.0 0.002793 376.02829 376.02167
365.0 0.002740 376.48413 376.47751
351.0 0.002849 376.94052 376.93378
330.0 0.003030 377.39743 377.39072
346.0 0.002890 377.85489 377.84805
340.0 0.002941 378.31287 378.30612
356.0 0.002809 378.77136 378.76447
315.0 0.003175 379.23032 379.22348
316.0 0.003165 379.68976 379.68283
338.0 0.002959 380.14957 380.14267
401.0 0.002494 380.60977 380.60281
368.0 0.002717 381.07047 381.06345
329.0 0.003040 381.53149 381.52451
335.0 0.002985 381.99280 381.98581
359.0 0.002786 382.45447 382.44742
349.0 0.002865 382.91644 382.90927
343.0 0.002915 383.37866 383.37149
361.0 0.002770 383.84119 383.83405
346.0 0.002890 384.30392 384.29672
349.0 0.002865 384.76688 384.75967
363.0 0.002755 385.22998 385.22278
358.0 0.002793 385.69333 385.68604
348.0 0.002874 386.15683 386.14951
365.0 0.002740 386.62042 386.61310
374.0 0.002674 387.08414 387.07672
367.0 0.002725 387.54800 387.54053
376.0 0.002660 388.01190 388.00446
390.0 0.002564 388.47583 388.46832
385.0 0.002597 388.93985 388.93228
362.0 0.002762 389.40384 389.39633
346.0 0.002890 389.86780 389.86020
328.0 0.003049 390.33185 390.32422
343.0 0.002915 390.79575 390.78812
332.0 0.003012 391.25961 391.25189
338.0 0.002959 391.72345 391.71573
347.0 0.002882 392.18713 392.17938
347.0 0.002882 392.65073 392.64294
353.0 0.002833 393.11417 393.10635
333.0 0.003003 393.57755 393.56967
343.0 0.002915 394.04062 394.03275
357.0 0.002801 394.50354 394.49561
365.0 0.002740 394.96628 394.95831
367.0 0.002725 395.42886 395.42090
352.0 0.002841 395.89111 395.88309
372.0 0.002688 396.35306 396.34506
374.0 0.002674 396.81488 396.80679
362.0 0.002762 397.27634 397.26813
372.0 0.002688 397.73752 397.72940
391.0 0.002558 398.19830 398.19012
386.0 0.002591 398.65878 398.65057
374.0 0.002674 399.11884 399.11063
341.0 0.002933 399.57864 399.57031
343.0 0.002915 400.03806 400.02969
390.0 0.002564 400.49695 400.48862
361.0 0.002770 400.95544 400.94708
356.0 0.002809 401.41348 401.40515
360.0 0.002778 401.87122 401.86279
359.0 0.002786 402.32834 402.31992
345.0 0.002899 402.78503 402.77658
369.0 0.002710 403.24115 403.23260
362.0 0.002762 403.69678 403.68826
351.0 0.002849 404.15192 404.14337
346.0 0.002890 404.60657 404.59790
356.0 0.002809 405.06046 405.05182
364.0 0.002747 405.51395 405.50525
366.0 0.002732 405.96677 405.95807
365.0 0.002740 406.41901 406.41025
357.0 0.002801 406.87061 406.88144
336.0 0.002976 407.32153 407.33383
368.0 0.002717 407.77188 407.79510
353.0 0.002833 408.22147 408.24725
356.0 0.002809 408.67053 408.69907
381.0 0.002625 409.11887 409.15060
330.0 0.003030 409.56647 409.60184
377.0 0.002653 410.01324 410.05289
377.0 0.002653 410.45941 410.50400
393.0 0.002545 410.90479 412.48593
347.0 0.002882 411.34943 413.04965
360.0 0.002778 411.79327 413.62729
404.0 0.002475 412.23633 414.99872
387.0 0.002584 412.67856 415.67087
362.0 0.002762 413.12006 416.37558
373.0 0.002681 413.56076 417.69196
403.0 0.002481 414.00043 418.55792
380.0 0.002632 414.43948 419.80328
368.0 0.002717 414.87750 420.92749
379.0 0.002639 415.31470 422.19342
363.0 0.002755 415.75101 423.62863
375.0 0.002667 416.18646 425.26773
380.0 0.002632 416.62091 427.16534
370.0 0.002703 417.05457 429.42886
388.0 0.002577 417.48712 432.33688
431.0 0.002320 417.91891 436.85858
430.0 0.002326 418.34952 445.14282
450.0 0.002222 418.77930 458.65909
447.0 0.002237 419.20813 477.13376
434.0 0.002304 419.63599 500.73874
479.0 0.002088 420.06281 530.35468
501.0 0.001996 420.48856 566.93866
532.0 0.001880 420.91333 609.33960
590.0 0.001695 421.33698 652.44702
634.0 0.001577 421.75974 702.54584
676.0 0.001479 422.18134 766.01788
802.0 0.001247 422.60187 841.86005
915.0 0.001093 423.02133 938.21478
1048.0 0.000954 423.43970 1066.40356
1305.0 0.000766 423.85699 1247.92688
1598.0 0.000626 424.27316 1531.79041
1927.0 0.000519 424.68823 1904.44177
1975.0 0.000506 425.10208 1974.03845
1615.0 0.000619 425.51489 1589.23157
1454.0 0.000688 425.92651 1424.60254
1297.0 0.000771 426.33701 1296.78271
1159.0 0.000863 426.74631 1115.84314
993.0 0.001007 427.15442 1022.71155
843.0 0.001186 427.56128 844.34314
727.0 0.001376 427.96716 735.88385
651.0 0.001536 428.37164 664.73328
554.0 0.001805 428.77496 549.64874
467.0 0.002141 429.17703 485.34439
391.0 0.002558 429.57788 464.50342
400.0 0.002500 429.97745 456.10031
403.0 0.002481 430.37585 451.14331
418.0 0.002392 430.77301 447.80817
400.0 0.002500 431.16882 445.47818
375.0 0.002667 431.56332 443.79443
380.0 0.002632 431.95667 442.55652
416.0 0.002404 432.34866 441.63901
433.0 0.002309 432.73932 440.95911
435.0 0.002299 433.12863 440.45978
415.0 0.002410 433.51669 437.60236
390.0 0.002564 433.90347 437.55923
413.0 0.002421 434.28882 437.58051
419.0 0.002387 434.67291 436.43881
395.0 0.002532 435.05560 436.65152
377.0 0.002653 435.43692 436.88629
409.0 0.002445 435.81696 449.95917
398.0 0.002513 436.19559 451.29132
412.0 0.002427 436.57275 452.31335
434.0 0.002304 436.94861 460.79352
440.0 0.002273 437.32300 463.08731
449.0 0.002227 437.69611 465.63034
427.0 0.002342 438.06778 468.47003
429.0 0.002331 438.43793 471.66684
452.0 0.002212 438.80682 475.29889
455.0 0.002198 439.17416 479.46820
493.0 0.002028 439.54010 484.31268
564.0 0.001773 439.90463 490.02216
575.0 0.001739 440.26764 496.86920
590.0 0.001695 440.62933 505.26697
598.0 0.001672 440.98944 515.88922
607.0 0.001647 441.34811 530.12335
658.0 0.001520 441.70529 552.53546
723.0 0.001383 442.06110 597.46198
821.0 0.001218 442.41525 685.71155
924.0 0.001082 442.76804 821.80005
1062.0 0.000942 443.11926 1000.17969
1197.0 0.000835 443.46912 1224.93835
1394.0 0.000717 443.81729 1498.28577
1642.0 0.000609 444.16403 1819.50818
1907.0 0.000524 444.50922 2195.02319
2351.0 0.000425 444.85287 2638.85620
2950.0 0.0003390 445.19507 3172.84253
3713.0 0.0002693 445.53561 3831.92236
4583.0 0.0002182 445.87479 4676.08252
5918.0 0.0001690 446.21222 5820.24170
7918.0 0.0001263 446.54822 7537.07813
10622.0 0.0000941 446.88266 10256.94336
13000.0 0.0000769 447.21552 12902.88281
11004.0 0.0000909 447.54681 11224.04395
7902.0 0.0001266 447.87662 7771.02686
6590.0 0.0001517 448.20471 6625.94043
4311.0 0.0002320 448.53128 4511.03906
1983.0 0.000504 448.85626 2122.68945
1031.0 0.000970 449.17966 1162.81714
780.0 0.001282 449.50146 880.61804
668.0 0.001497 449.82156 757.49548
642.0 0.001558 450.14026 683.55377
569.0 0.001757 450.45718 634.47565
545.0 0.001835 450.77258 600.03284
518.0 0.001931 451.08636 574.84827
515.0 0.001942 451.39850 555.83789
518.0 0.001931 451.70901 541.12225
507.0 0.001972 452.01797 529.49548
489.0 0.002045 452.32513 520.15076
498.0 0.002008 452.63077 512.53229
532.0 0.001880 452.93478 506.24487
544.0 0.001838 453.23718 501.00238
523.0 0.001912 453.53784 496.59213
460.0 0.002174 453.83688 492.85278
477.0 0.002096 454.13431 468.11511
464.0 0.002155 454.43008 467.12222
446.0 0.002242 454.72415 466.29907
466.0 0.002146 455.01657 455.00513
486.0 0.002058 455.30731 455.29581
481.0 0.002079 455.59634 455.58490
434.0 0.002304 455.88385 455.87228
463.0 0.002160 456.16959 456.15805
486.0 0.002058 456.45361 456.44208
486.0 0.002058 456.73593 456.72443
456.0 0.002193 457.01669 457.00519
454.0 0.002203 457.29568 457.28412
452.0 0.002212 457.57306 457.56143
477.0 0.002096 457.84869 457.83707
471.0 0.002123 458.12262 475.27371
462.0 0.002165 458.39487 476.77505
473.0 0.002114 458.66537 478.41470
506.0 0.001976 458.93427 488.73645
500.0 0.002000 459.20145 491.33371
501.0 0.001996 459.46677 494.22208
514.0 0.001946 459.73050 497.45447
503.0 0.001988 459.99258 501.09763
481.0 0.002079 460.25281 505.23541
510.0 0.001961 460.51144 509.97574
554.0 0.001805 460.76828 515.46033
577.0 0.001733 461.02338 521.87921
571.0 0.001751 461.27682 529.49469
588.0 0.001701 461.52863 538.67993
644.0 0.001553 461.77853 549.99261
709.0 0.001410 462.02682 564.32703
796.0 0.001256 462.27338 583.38300
890.0 0.001124 462.51813 612.24780
931.0 0.001074 462.76132 667.87805
1054.0 0.000949 463.00259 780.17822
1218.0 0.000821 463.24222 961.98383
1356.0 0.000737 463.48004 1205.61792
1435.0 0.000697 463.71622 1515.23560
1700.0 0.000588 463.95068 1900.19385
2045.0 0.000489 464.18323 2362.78198
2503.0 0.000400 464.41425 2911.99756
3021.0 0.0003310 464.64331 3570.53271
3747.0 0.0002669 464.87082 4377.91406
4848.0 0.0002063 465.09653 5400.02100
6355.0 0.0001574 465.32050 6757.22949
8644.0 0.0001157 465.54279 8722.22949
11769.0 0.0000850 465.76318 11840.39941
15977.0 0.0000626 465.98187 15660.19629
15744.0 0.0000635 466.19885 15426.13086
10332.0 0.0000968 466.41415 10552.30273
8360.0 0.0001196 466.62756 8592.23047
7124.0 0.0001404 466.83929 7183.10742
3625.0 0.0002759 467.04929 3799.93652
1546.0 0.000647 467.25760 1780.98962
983.0 0.001017 467.46402 1149.67883
858.0 0.001166 467.66879 929.31799
745.0 0.001342 467.87173 810.16205
657.0 0.001522 468.07300 733.74121
665.0 0.001504 468.27249 681.24786
649.0 0.001541 468.47018 643.47418
624.0 0.001603 468.66617 615.27631
583.0 0.001715 468.86041 593.63403
543.0 0.001842 469.05286 576.63074
551.0 0.001815 469.24368 563.01563
575.0 0.001739 469.43259 551.94635
563.0 0.001776 469.61981 542.81793
570.0 0.001754 469.80527 535.20593
582.0 0.001718 469.98898 528.79102
575.0 0.001739 470.17099 523.33594
576.0 0.001736 470.35120 489.62027
566.0 0.001767 470.52969 487.97855
542.0 0.001845 470.70636 502.46677
582.0 0.001718 470.88135 487.88397
570.0 0.001754 471.05457 489.31635
575.0 0.001739 471.22607 498.70554
552.0 0.001812 471.39572 501.00705
550.0 0.001818 471.56375 503.57068
601.0 0.001664 471.72989 522.64081
625.0 0.001600 471.89447 527.03369
670.0 0.001493 472.05722 531.99622
715.0 0.001399 472.21820 545.60394
734.0 0.001362 472.37744 552.64581
747.0 0.001339 472.53491 560.77679
774.0 0.001292 472.69073 570.26611
808.0 0.001238 472.84473 581.47345
827.0 0.001209 472.99701 594.92773
857.0 0.001167 473.14755 611.40125
937.0 0.001067 473.29636 632.17059
1010.0 0.000990 473.44345 659.93921
1076.0 0.000929 473.58875 703.42444
1191.0 0.000840 473.73233 786.63232
1355.0 0.000738 473.87421 937.00336
1525.0 0.000656 474.01428 1195.92224
1823.0 0.000549 474.15277 1485.45996
2183.0 0.000458 474.28937 1853.37952
2460.0 0.000407 474.42435 2317.71045
2921.0 0.0003423 474.55753 2925.27075
3606.0 0.0002773 474.68896 3686.19287
4671.0 0.0002141 474.81879 4662.96338
5811.0 0.0001721 474.94678 5910.48145
7455.0 0.0001341 475.07312 7559.52734
10167.0 0.0000984 475.19766 9894.39453
14131.0 0.0000708 475.32059 13422.49512
18105.0 0.0000552 475.44174 17469.88477
18048.0 0.0000554 475.56116 17421.41992
14543.0 0.0000688 475.67886 13937.60449
14043.0 0.0000712 475.79492 13770.42285
14815.0 0.0000675 475.90918 14649.40820
15118.0 0.0000661 476.02188 14610.47070
16478.0 0.0000607 476.13275 16296.16113
15383.0 0.0000650 476.24188 15403.01172
10693.0 0.0000935 476.34933 10710.71777
9058.0 0.0001104 476.45514 9140.88574
8607.0 0.0001162 476.55923 8683.77734
6107.0 0.0001637 476.66159 6205.34814
4626.0 0.0002162 476.76230 4812.88184
4691.0 0.0002132 476.86133 5067.86621
5381.0 0.0001858 476.95862 6029.26270
6721.0 0.0001488 477.05426 7368.18018
8138.0 0.0001229 477.14816 9097.86426
10238.0 0.0000977 477.24048 11352.50000
13743.0 0.0000728 477.33099 14415.25781
18747.0 0.0000533 477.41983 18951.84961
25886.0 0.0000386 477.50705 26125.93555
32336.0 0.00003093 477.59259 33950.70313
30498.0 0.00003279 477.67642 31213.45508
21379.0 0.0000468 477.75864 20752.99414
16879.0 0.0000592 477.83914 17586.09570
14322.0 0.0000698 477.91803 15299.24219
8509.0 0.0001175 477.99521 8159.11572
3673.0 0.0002723 478.07071 3561.59619
2033.0 0.000492 478.14462 2039.45471
1493.0 0.000670 478.21680 1528.05945
1284.0 0.000779 478.28738 1256.74390
1164.0 0.000859 478.35623 1074.95459
1047.0 0.000955 478.42361 957.55505
896.0 0.001116 478.48914 873.31921
845.0 0.001183 478.55313 813.36279
831.0 0.001203 478.61551 765.57214
781.0 0.001280 478.67618 728.26581
710.0 0.001408 478.73523 698.62549
693.0 0.001443 478.79266 674.78546
667.0 0.001499 478.84851 658.93292
670.0 0.001493 478.90271 643.38306
701.0 0.001427 478.95520 630.76703
677.0 0.001477 479.00616 622.31232
646.0 0.001548 479.05551 614.41956
640.0 0.001563 479.10318 550.00269
655.0 0.001527 479.14932 550.55176
666.0 0.001502 479.19379 552.50073
681.0 0.001468 479.23669 526.43787
724.0 0.001381 479.27795 534.85522
718.0 0.001393 479.31763 547.52112
756.0 0.001323 479.35571 571.25836
819.0 0.001221 479.39224 617.51276
868.0 0.001152 479.42715 690.91174
939.0 0.001065 479.46045 788.29883
1044.0 0.000958 479.49219 912.23138
1154.0 0.000867 479.52234 1069.24329
1283.0 0.000779 479.55093 1263.69556
1520.0 0.000658 479.57785 1503.70813
1770.0 0.000565 479.60330 1808.72729
2221.0 0.000450 479.62717 2213.35986
2814.0 0.000355 479.64951 2775.32178
3834.0 0.0002608 479.67023 3621.66943
5089.0 0.0001965 479.68945 4879.45996
5691.0 0.0001757 479.70706 5825.39648
4654.0 0.0002149 479.72311 4857.91699
3569.0 0.0002802 479.73761 3747.89990
3562.0 0.0002807 479.75064 3751.70923
3294.0 0.0003036 479.76208 3501.11377
2698.0 0.000371 479.77203 2815.36084
2691.0 0.000372 479.78040 2822.16479
3271.0 0.0003057 479.78726 3408.86816
3434.0 0.0002912 479.79260 3616.04492
2646.0 0.000378 479.79642 2693.18652
2064.0 0.000484 479.79871 2093.89185
1862.0 0.000537 479.79947 2020.53271
1551.0 0.000645 479.79877 1566.71301
995.0 0.001005 479.79648 969.81854
714.0 0.001401 479.79282 709.46973
625.0 0.001600 479.78748 626.93542
616.0 0.001623 479.78079 589.79187
592.0 0.001689 479.77249 566.77136
570.0 0.001754 479.76279 550.93390
541.0 0.001848 479.75153 539.40540
551.0 0.001815 479.73889 530.67450
592.0 0.001689 479.72473 523.85352
573.0 0.001745 479.70908 509.22159
588.0 0.001701 479.69202 505.51169
571.0 0.001751 479.67343 502.47330
544.0 0.001838 479.65338 495.24103
535.0 0.001869 479.63190 493.50446
523.0 0.001912 479.60898 492.03812
518.0 0.001931 479.58450 490.78787
499.0 0.002004 479.55875 489.71063
523.0 0.001912 479.53143 483.26581
539.0 0.001855 479.50272 482.88864
527.0 0.001898 479.47253 482.55664
520.0 0.001923 479.44092 479.42960
504.0 0.001984 479.40796 479.39664
505.0 0.001980 479.37347 479.36224
513.0 0.001949 479.33771 489.94897
503.0 0.001988 479.30038 490.65341
532.0 0.001880 479.26181 491.43750
521.0 0.001919 479.22162 492.31448
486.0 0.002058 479.18018 498.76105
484.0 0.002066 479.13727 500.25961
518.0 0.001931 479.09305 501.95056
540.0 0.001852 479.04736 503.86749
566.0 0.001767 479.00027 506.05478
550.0 0.001818 478.95190 508.56519
559.0 0.001789 478.90219 511.46890
574.0 0.001742 478.85098 514.85577
546.0 0.001832 478.79837 518.84131
603.0 0.001658 478.74457 523.58679
634.0 0.001577 478.68924 529.30933
561.0 0.001783 478.63263 536.32605
680.0 0.001471 478.57465 545.10980
675.0 0.001481 478.51538 556.40472
702.0 0.001425 478.45468 571.60333
788.0 0.001269 478.39270 594.52655
865.0 0.001156 478.32944 637.65466
959.0 0.001043 478.26468 724.75964
1061.0 0.000943 478.19873 867.33984
1210.0 0.000826 478.13141 1064.44971
1457.0 0.000686 478.06287 1318.56921
1636.0 0.000611 477.99295 1642.23621
2117.0 0.000472 477.92166 2049.65894
2502.0 0.000400 477.84915 2557.27393
2997.0 0.0003337 477.77533 3203.70093
3884.0 0.0002575 477.70020 4064.64673
5542.0 0.0001804 477.62378 5308.88379
7699.0 0.0001299 477.54605 7251.20850
9628.0 0.0001039 477.46713 9559.07617
9538.0 0.0001048 477.38690 9378.35449
6735.0 0.0001485 477.30533 6325.66992
5173.0 0.0001933 477.22250 5098.58643
4855.0 0.0002060 477.13846 5045.36133
3775.0 0.0002649 477.05310 3517.06543
1976.0 0.000506 476.96661 1764.41699
1112.0 0.000899 476.87878 1047.60400
844.0 0.001185 476.78970 825.03693
751.0 0.001332 476.69943 748.51422
698.0 0.001433 476.60788 690.44263
699.0 0.001431 476.51517 652.37134
682.0 0.001466 476.42114 636.95111
654.0 0.001529 476.32593 619.18909
661.0 0.001513 476.22952 606.79016
648.0 0.001543 476.13190 598.23181
627.0 0.001595 476.03302 592.66254
589.0 0.001698 475.93298 589.53638
598.0 0.001672 475.83179 588.55048
651.0 0.001536 475.72931 589.49841
682.0 0.001466 475.62570 592.37225
689.0 0.001451 475.52084 597.27020
704.0 0.001420 475.41492 604.42297
734.0 0.001362 475.30774 596.81384
749.0 0.001335 475.19940 611.33868
804.0 0.001244 475.08990 630.05878
882.0 0.001134 474.97928 645.67340
935.0 0.001070 474.86743 680.49603
1058.0 0.000945 474.75452 734.80835
1225.0 0.000816 474.64035 840.08514
1456.0 0.000687 474.52512 1047.44421
1701.0 0.000588 474.40872 1375.84741
2016.0 0.000496 474.29120 1819.51721
2510.0 0.000398 474.17261 2394.62329
3034.0 0.0003296 474.05280 3130.77148
3771.0 0.0002652 473.93195 4062.46680
4798.0 0.0002084 473.80988 5240.10840
6496.0 0.0001539 473.68683 6775.53076
8875.0 0.0001127 473.56259 8905.08789
12601.0 0.0000794 473.43732 12151.94238
17873.0 0.0000560 473.31091 16851.43555
21073.0 0.0000475 473.18338 19749.49805
15935.0 0.0000628 473.05484 15018.92871
10382.0 0.0000963 472.92526 10228.46387
10274.0 0.0000973 472.79443 9811.64160
9279.0 0.0001078 472.66269 8838.40332
5031.0 0.0001988 472.52979 4876.74756
2081.0 0.000481 472.39590 2286.91187
1235.0 0.000810 472.26096 1406.24988
1016.0 0.000984 472.12488 1100.50806
852.0 0.001174 471.98779 941.60956
781.0 0.001280 471.84964 833.56403
729.0 0.001372 471.71063 756.68652
628.0 0.001592 471.57040 703.64508
587.0 0.001704 471.42917 665.29376
585.0 0.001709 471.28696 636.09058
573.0 0.001745 471.14374 613.14380
564.0 0.001773 470.99951 594.73773
566.0 0.001767 470.85428 579.71045
533.0 0.001876 470.70795 567.25989
517.0 0.001934 470.56067 556.82092
523.0 0.001912 470.41248 547.96490
499.0 0.002004 470.26321 540.38281
516.0 0.001938 470.11301 496.50888
495.0 0.002020 469.96179 493.83279
475.0 0.002105 469.80957 491.50424
477.0 0.002096 469.65646 469.81900
455.0 0.002198 469.50241 469.64822
477.0 0.002096 469.34732 469.39612
493.0 0.002028 469.19131 469.23450
502.0 0.001992 469.03436 469.07263
479.0 0.002088 468.87640 468.91052
463.0 0.002160 468.71762 468.70816
487.0 0.002053 468.55780 468.54846
490.0 0.002041 468.39713 468.38773
464.0 0.002155 468.23550 468.22617
449.0 0.002227 468.07297 468.06357
458.0 0.002183 467.90958 467.90021
472.0 0.002119 467.74524 467.73587
465.0 0.002151 467.57983 467.57059
461.0 0.002169 467.41376 467.40451
473.0 0.002114 467.24677 467.23743
477.0 0.002096 467.07880 467.06955
467.0 0.002141 466.90994 466.90076
476.0 0.002101 466.74014 466.73102
491.0 0.002037 466.56964 466.56046
481.0 0.002079 466.39816 466.38898
463.0 0.002160 466.22592 466.21677
453.0 0.002208 466.05270 466.04355
488.0 0.002049 465.87860 465.86960
457.0 0.002188 465.70370 465.69473
458.0 0.002183 465.52808 465.51901
457.0 0.002188 465.35144 465.34250
474.0 0.002110 465.17407 465.16516
475.0 0.002105 464.99582 464.98682
516.0 0.001938 464.81674 464.80783
469.0 0.002132 464.63681 464.62790
468.0 0.002137 464.45624 464.44736
459.0 0.002179 464.27469 464.26587
484.0 0.002066 464.09238 464.08353
486.0 0.002058 463.90930 463.90042
444.0 0.002252 463.72531 463.71658
451.0 0.002217 463.54071 463.53195
428.0 0.002336 463.35526 463.34650
479.0 0.002088 463.16891 463.16016
456.0 0.002193 462.98187 470.78052
473.0 0.002114 462.79407 471.13510
477.0 0.002096 462.60556 471.54785
511.0 0.001957 462.41620 472.02798
437.0 0.002288 462.22607 476.50720
435.0 0.002299 462.03525 477.43005
456.0 0.002193 461.84363 478.49030
456.0 0.002193 461.65128 479.71140
474.0 0.002110 461.45831 481.12402
455.0 0.002198 461.26428 482.76559
467.0 0.002141 461.06995 484.68240
494.0 0.002024 460.87463 486.93613
476.0 0.002101 460.67874 489.60446
517.0 0.001934 460.48203 492.79297
522.0 0.001916 460.28458 496.64462
534.0 0.001873 460.08649 501.35413
550.0 0.001818 459.88773 507.21024
538.0 0.001859 459.68820 514.63867
577.0 0.001733 459.48807 524.33038
654.0 0.001529 459.28717 537.56616
658.0 0.001520 459.08566 557.81500
718.0 0.001393 458.88345 595.97180
851.0 0.001175 458.68063 672.39508
963.0 0.001038 458.47714 797.31866
1120.0 0.000893 458.27283 972.31500
1327.0 0.000754 458.06799 1198.99841
1532.0 0.000653 457.86246 1491.23389
1839.0 0.000544 457.65637 1870.72473
2362.0 0.000423 457.44958 2369.95117
3096.0 0.0003230 457.24216 3055.06567
4314.0 0.0002318 457.03412 4060.34912
6193.0 0.0001615 456.82544 5586.03564
7590.0 0.0001318 456.61612 7042.05615
6475.0 0.0001544 456.40622 6201.71777
4401.0 0.0002272 456.19562 4100.23438
3853.0 0.0002595 455.98456 3537.09937
3887.0 0.0002573 455.77283 3698.28906
2939.0 0.0003403 455.56052 2810.42017
1599.0 0.000625 455.34766 1515.65308
890.0 0.001124 455.13406 925.05188
659.0 0.001517 454.92001 738.45239
574.0 0.001742 454.70526 661.40118
571.0 0.001751 454.49014 617.27582
592.0 0.001689 454.27432 589.22742
571.0 0.001751 454.05792 570.84680
556.0 0.001799 453.84100 558.97144
551.0 0.001815 453.62347 551.99066
537.0 0.001862 453.40546 549.28442
573.0 0.001745 453.18695 551.29822
617.0 0.001621 452.96777 561.32892
663.0 0.001508 452.74814 590.25342
721.0 0.001387 452.52798 645.07343
763.0 0.001311 452.30731 730.80585
915.0 0.001093 452.08609 843.19061
1011.0 0.000989 451.86426 978.87225
1187.0 0.000842 451.64209 1177.30444
1429.0 0.000700 451.41934 1437.49438
1815.0 0.000551 451.19608 1785.85950
2406.0 0.000416 450.97238 2283.88330
3367.0 0.0002970 450.74805 3063.05664
4439.0 0.0002253 450.52338 3975.69409
4199.0 0.0002382 450.29807 3936.72314
2911.0 0.0003435 450.07239 2718.68750
2245.0 0.000445 449.84622 2155.14355
2401.0 0.000416 449.61951 2251.76025
2179.0 0.000459 449.39246 2018.96631
1364.0 0.000733 449.16492 1253.09521
756.0 0.001323 448.93701 793.91058
587.0 0.001704 448.70853 641.09802
577.0 0.001733 448.47955 587.43384
531.0 0.001883 448.25015 560.89124
519.0 0.001927 448.02032 547.75885
512.0 0.001953 447.79019 546.79498
563.0 0.001776 447.55951 559.36316
555.0 0.001802 447.32843 585.63196
564.0 0.001773 447.09698 623.36804
613.0 0.001631 446.86502 675.53528
669.0 0.001495 446.63278 747.01624
792.0 0.001263 446.40002 843.34741
959.0 0.001043 446.16690 975.32434
1163.0 0.000860 445.93341 1170.88989
1468.0 0.000681 445.69946 1470.05383
1736.0 0.000576 445.46521 1777.31055
1678.0 0.000596 445.23056 1664.94250
1314.0 0.000761 444.99545 1278.42761
1178.0 0.000849 444.76013 1194.05725
1283.0 0.000779 444.52420 1309.44324
1257.0 0.000796 444.28818 1277.90271
1088.0 0.000919 444.05161 1131.14429
1087.0 0.000920 443.81470 1150.95093
1264.0 0.000791 443.57755 1332.95898
1653.0 0.000605 443.33987 1663.87415
2169.0 0.000461 443.10211 2130.89746
2244.0 0.000446 442.86383 2340.77661
1740.0 0.000575 442.62518 1803.28113
1292.0 0.000774 442.38629 1350.43787
1249.0 0.000801 442.14703 1332.94714
1219.0 0.000820 441.90756 1346.95483
963.0 0.001038 441.66772 1011.63647
684.0 0.001462 441.42749 688.87512
515.0 0.001942 441.18701 560.35065
491.0 0.002037 440.94626 517.62769
463.0 0.002160 440.70517 497.27686
426.0 0.002347 440.46384 484.57901
434.0 0.002304 440.22211 473.05264
421.0 0.002375 439.98016 466.94788
400.0 0.002500 439.73798 462.34772
435.0 0.002299 439.49551 458.76517
411.0 0.002433 439.25269 454.49985
393.0 0.002545 439.00961 452.26541
435.0 0.002299 438.76633 450.40530
416.0 0.002404 438.52277 448.82861
392.0 0.002551 438.27902 447.47232
406.0 0.002463 438.03497 446.28928
413.0 0.002421 437.79053 445.24429
433.0 0.002309 437.54608 440.40067
363.0 0.002755 437.30127 439.87753
359.0 0.002786 437.05624 439.39316
364.0 0.002747 436.81097 438.94043
420.0 0.002381 436.56543 436.55975
395.0 0.002532 436.31989 436.31409
414.0 0.002415 436.07385 436.06821
401.0 0.002494 435.82782 435.82211
439.0 0.002278 435.58154 435.57581
411.0 0.002433 435.33484 435.32928
390.0 0.002564 435.08823 435.08255
424.0 0.002358 434.84125 434.83569
386.0 0.002591 434.59424 434.58859
413.0 0.002421 434.34686 434.34137
439.0 0.002278 434.09930 434.09381
406.0 0.002463 433.85172 433.84622
418.0 0.002392 433.60385 433.59836
410.0 0.002439 433.35587 433.35046
384.0 0.002604 433.10776 433.10226
417.0 0.002398 432.85934 432.85394
431.0 0.002320 432.61090 432.60553
430.0 0.002326 432.36215 432.35684
426.0 0.002347 432.11343 432.10818
418.0 0.002392 431.86447 431.85919
415.0 0.002410 431.61536 431.61011
437.0 0.002288 431.36618 431.36093
402.0 0.002488 431.11676 431.11163
408.0 0.002451 430.86734 430.86212
420.0 0.002381 430.61774 430.61261
411.0 0.002433 430.36795 430.36279
422.0 0.002370 430.11816 430.11304
423.0 0.002364 429.86816 429.86304
395.0 0.002532 429.61813 429.61304
387.0 0.002584 429.36789 429.36295
388.0 0.002577 429.11758 429.11264
401.0 0.002494 428.86734 435.37848
391.0 0.002558 428.61679 435.57834
400.0 0.002500 428.36630 435.82675
413.0 0.002421 428.11566 436.13116
409.0 0.002445 427.86484 444.09274
418.0 0.002392 427.61404 445.06241
412.0 0.002427 427.36319 446.17746
398.0 0.002513 427.11230 447.46161
417.0 0.002398 426.86124 453.60513
438.0 0.002283 426.61011 455.64508
385.0 0.002597 426.35901 458.00055
384.0 0.002604 426.10782 460.73651
421.0 0.002375 425.85660 463.93207
439.0 0.002278 425.60535 469.00113
442.0 0.002262 425.35388 473.55704
475.0 0.002105 425.10260 479.00839
443.0 0.002257 424.85110 485.61584
479.0 0.002088 424.59976 493.74194
532.0 0.001880 424.34830 503.93307
601.0 0.001664 424.09674 517.05048
660.0 0.001515 423.84525 534.64746
663.0 0.001508 423.59366 560.79346
733.0 0.001364 423.34216 607.15833
833.0 0.001200 423.09061 694.45056
976.0 0.001025 422.83908 833.46997
1046.0 0.000956 422.58752 1032.69995
1353.0 0.000739 422.33594 1303.43091
1645.0 0.000608 422.08438 1675.94299
2136.0 0.000468 421.83286 2195.02515
2697.0 0.000371 421.58124 2926.31274
3854.0 0.0002595 421.32980 4003.53076
5560.0 0.0001799 421.07828 5548.75488
6714.0 0.0001489 420.82678 6865.66260
6059.0 0.0001650 420.57535 6303.14648
5336.0 0.0001874 420.32388 5482.06445
6204.0 0.0001612 420.07251 6159.03320
6810.0 0.0001468 419.82111 6946.56592
5633.0 0.0001775 419.56992 5705.95752
4212.0 0.0002374 419.31860 4082.35083
4046.0 0.0002472 419.06741 3899.80127
4474.0 0.0002235 418.81625 4344.29102
3906.0 0.0002560 418.56512 3725.44531
2513.0 0.000398 418.31415 2327.06348
1753.0 0.000570 418.06311 1667.72266
1627.0 0.000615 417.81213 1617.16357
1518.0 0.000659 417.56128 1559.02075
1106.0 0.000904 417.31052 1137.87378
737.0 0.001357 417.05981 783.10803
579.0 0.001727 416.80923 637.66742
538.0 0.001859 416.55862 581.38342
477.0 0.002096 416.30820 550.63745
479.0 0.002088 416.05783 530.12457
494.0 0.002024 415.80762 515.53107
487.0 0.002053 415.55740 504.82642
465.0 0.002151 415.30734 496.88519
452.0 0.002212 415.05734 491.04788
464.0 0.002155 414.80743 486.91290
475.0 0.002105 414.55774 484.25925
484.0 0.002066 414.30807 482.99255
504.0 0.001984 414.05850 483.13757
507.0 0.001972 413.80914 484.84967
507.0 0.001972 413.55988 488.46686
539.0 0.001855 413.31076 496.54059
555.0 0.001802 413.06174 500.84283
558.0 0.001792 412.81271 519.87244
617.0 0.001621 412.56406 559.09869
705.0 0.001418 412.31537 631.18158
811.0 0.001233 412.06696 745.07593
932.0 0.001073 411.81863 906.18085
1074.0 0.000931 411.57040 1120.85376
1344.0 0.000744 411.32236 1403.82458
1738.0 0.000575 411.07446 1793.23730
2409.0 0.000415 410.82681 2378.66211
3389.0 0.0002951 410.57922 3266.60352
4312.0 0.0002319 410.33188 4275.30664
4158.0 0.0002405 410.08463 4219.99707
2763.0 0.000362 409.83762 2864.67822
2085.0 0.000480 409.59076 2175.96021
2268.0 0.000441 409.34409 2293.15015
2379.0 0.000420 409.09747 2378.87524
1591.0 0.000629 408.85120 1689.16711
882.0 0.001134 408.60501 987.91351
639.0 0.001565 408.35916 700.05121
558.0 0.001792 408.11337 609.81470
577.0 0.001733 407.86771 578.92792
662.0 0.001511 407.62241 578.13623
618.0 0.001618 407.37723 601.22272
651.0 0.001536 407.13223 647.15039
669.0 0.001495 406.88754 714.21082
720.0 0.001389 406.64294 807.64435
867.0 0.001153 406.39865 942.72565
1067.0 0.000937 406.15451 1145.09460
1404.0 0.000712 405.91068 1454.94006
1782.0 0.000561 405.66699 1828.64880
1771.0 0.000565 405.42349 1869.02405
1376.0 0.000727 405.18030 1397.39392
1107.0 0.000903 404.93729 1122.74756
1140.0 0.000877 404.69458 1165.56665
1290.0 0.000775 404.45209 1261.28064
1165.0 0.000858 404.20975 1124.04565
973.0 0.001028 403.96780 971.79266
1011.0 0.000989 403.72595 1016.39276
1123.0 0.000890 403.48453 1199.22705
1389.0 0.000720 403.24316 1479.52502
1889.0 0.000529 403.00214 1888.43176
2681.0 0.000373 402.76138 2508.06812
3683.0 0.0002715 402.52084 3451.45532
4488.0 0.0002228 402.28061 4405.89990
4109.0 0.0002434 402.04068 4066.18945
2754.0 0.000363 401.80087 2691.20142
2106.0 0.000475 401.56146 2134.98828
2289.0 0.000437 401.32224 2309.47607
2307.0 0.000433 401.08340 2360.47827
1646.0 0.000608 400.84479 1632.04785
919.0 0.001088 400.60638 951.92834
618.0 0.001618 400.36838 679.74231
543.0 0.001842 400.13065 593.74225
536.0 0.001866 399.89313 562.20465
549.0 0.001821 399.65594 554.20776
550.0 0.001818 399.41901 554.11652
548.0 0.001825 399.18246 531.68311
481.0 0.002079 398.94614 494.48694
447.0 0.002237 398.71017 476.77341
453.0 0.002208 398.47452 474.56955
429.0 0.002331 398.23907 470.24780
418.0 0.002392 398.00400 449.54129
410.0 0.002439 397.76932 432.74710
410.0 0.002439 397.53488 424.51599
407.0 0.002457 397.30081 420.24741
381.0 0.002625 397.06696 416.41736
393.0 0.002545 396.83347 414.08627
380.0 0.002632 396.60025 412.13724
371.0 0.002695 396.36755 410.46539
385.0 0.002597 396.13501 409.00421
367.0 0.002725 395.90280 407.70926
368.0 0.002717 395.67102 406.54947
333.0 0.003003 395.43948 405.50064
357.0 0.002801 395.20831 404.54498
378.0 0.002646 394.97760 398.76413
381.0 0.002625 394.74710 398.25092
388.0 0.002577 394.51700 397.76950
387.0 0.002584 394.28717 397.31522
408.0 0.002451 394.05780 394.36749
370.0 0.002703 393.82883 394.11127
374.0 0.002674 393.60001 393.85876
379.0 0.002639 393.37177 393.60962
372.0 0.002688 393.14374 393.36325
346.0 0.002890 392.91614 393.11935
362.0 0.002762 392.68887 392.87747
331.0 0.003021 392.46194 392.63751
333.0 0.003003 392.23553 392.30078
369.0 0.002710 392.00928 392.06995
368.0 0.002717 391.78363 391.84009
344.0 0.002907 391.55820 391.61093
329.0 0.003040 391.33319 391.33179
374.0 0.002674 391.10852 391.10724
357.0 0.002801 390.88434 390.88300
340.0 0.002941 390.66046 390.65915
336.0 0.002976 390.43704 390.43573
356.0 0.002809 390.21384 390.21265
346.0 0.002890 389.99124 389.98993
341.0 0.002933 389.76895 389.76773
321.0 0.003115 389.54703 389.54590
334.0 0.002994 389.32556 389.32440
344.0 0.002907 389.10443 389.10324
362.0 0.002762 388.88376 388.88263
358.0 0.002793 388.66345 388.66235
361.0 0.002770 388.44360 388.44250
375.0 0.002667 388.22409 388.22308
384.0 0.002604 388.00500 388.00400
359.0 0.002786 387.78638 387.78546
357.0 0.002801 387.56818 387.56717
362.0 0.002762 387.35031 387.34937
360.0 0.002778 387.13300 387.13205
373.0 0.002681 386.91595 386.91504
360.0 0.002778 386.69949 386.69858
353.0 0.002833 386.48331 386.48242
361.0 0.002770 386.26770 386.26666
359.0 0.002786 386.05237 386.05151
354.0 0.002825 385.83746 385.83664
368.0 0.002717 385.62314 385.62231
353.0 0.002833 385.40918 385.40839
363.0 0.002755 385.19568 385.19485
367.0 0.002725 384.98251 384.98178
357.0 0.002801 384.76984 384.76910
346.0 0.002890 384.55768 384.55698
358.0 0.002793 384.34586 384.34521
391.0 0.002558 384.13461 384.13391
378.0 0.002646 383.92377 383.92313
378.0 0.002646 383.71326 383.71271
397.0 0.002519 383.50333 383.50269
379.0 0.002639 383.29379 383.29315
375.0 0.002667 383.08472 383.08423
372.0 0.002688 382.87613 382.87558
376.0 0.002660 382.66794 382.66739
333.0 0.003003 382.46030 382.45981
376.0 0.002660 382.25308 382.25259
376.0 0.002660 382.04636 382.04584
379.0 0.002639 381.84006 381.83960
356.0 0.002809 381.63422 381.63373
366.0 0.002732 381.42883 381.42844
362.0 0.002762 381.22394 381.22354
356.0 0.002809 381.01950 381.01920
356.0 0.002809 380.81564 380.81528
357.0 0.002801 380.61212 380.61172
400.0 0.002500 380.40921 382.88593
392.0 0.002551 380.20657 382.84970
399.0 0.002506 380.00467 382.83151
359.0 0.002786 379.80310 382.83359
394.0 0.002538 379.60196 382.85925
382.0 0.002618 379.40137 384.16080
365.0 0.002740 379.20135 384.32928
376.0 0.002660 379.00174 384.54306
369.0 0.002710 378.80264 384.81042
350.0 0.002857 378.60394 385.14059
347.0 0.002882 378.40582 385.54538
390.0 0.002564 378.20813 395.21899
383.0 0.002611 378.01111 396.43338
384.0 0.002604 377.81448 397.84421
378.0 0.002646 377.61832 399.49243
381.0 0.002625 377.42270 401.42990
403.0 0.002481 377.22754 408.34705
409.0 0.002445 377.03293 411.40891
415.0 0.002410 376.83884 415.09097
413.0 0.002421 376.64511 419.59091
425.0 0.002353 376.45209 425.20117
440.0 0.002273 376.25943 436.60739
478.0 0.002092 376.06735 446.65033
508.0 0.001969 375.87576 461.92328
546.0 0.001832 375.68460 489.29047
599.0 0.001669 375.49411 538.59131
623.0 0.001605 375.30405 617.54352
713.0 0.001403 375.11459 723.37671
857.0 0.001167 374.92560 865.61237
1088.0 0.000919 374.73706 1059.72473
1429.0 0.000700 374.54907 1348.11694
1897.0 0.000527 374.36166 1789.61902
2375.0 0.000421 374.17474 2301.43066
2387.0 0.000419 373.98834 2349.77319
1865.0 0.000536 373.80246 1750.97986
1596.0 0.000627 373.61716 1437.91138
1788.0 0.000559 373.43225 1601.50525
2036.0 0.000491 373.24805 1983.23523
2079.0 0.000481 373.06427 2205.82104
2097.0 0.000477 372.88104 2289.23486
2454.0 0.000407 372.69843 2702.11865
3396.0 0.0002945 372.51624 3579.70435
4837.0 0.0002067 372.33463 5031.77295
6656.0 0.0001502 372.15356 6922.02197
7103.0 0.0001408 371.97296 7599.45557
4943.0 0.0002023 371.79297 5491.37207
3312.0 0.0003019 371.61356 3771.14502
3426.0 0.0002919 371.43463 3714.80273
4164.0 0.0002402 371.25626 4444.68213
4311.0 0.0002320 371.07840 4560.83008
3503.0 0.0002855 370.90115 3537.29980
2958.0 0.0003381 370.72440 3083.33960
3578.0 0.0002795 370.54816 3516.86865
3964.0 0.0002523 370.37259 3907.85425
3040.0 0.0003289 370.19748 3149.39209
2148.0 0.000466 370.02295 2276.35107
1996.0 0.000501 369.84894 2170.30298
2494.0 0.000401 369.67548 2564.72583
2746.0 0.000364 369.50253 2839.45483
2280.0 0.000439 369.33023 2272.98975
1346.0 0.000743 369.15848 1422.49365
939.0 0.001065 368.98724 1010.67236
870.0 0.001149 368.81659 935.87640
929.0 0.001076 368.64651 959.76019
812.0 0.001232 368.47687 873.27380
576.0 0.001736 368.30795 667.51837
456.0 0.002193 368.13947 538.52423
445.0 0.002247 367.97159 485.88559
445.0 0.002247 367.80432 460.46732
386.0 0.002591 367.63754 445.39948
388.0 0.002577 367.47141 434.59348
386.0 0.002591 367.30569 426.41666
409.0 0.002445 367.14069 420.05222
419.0 0.002387 366.97626 415.02972
416.0 0.002404 366.81235 401.59576
416.0 0.002404 366.64899 399.20642
411.0 0.002433 366.48621 400.70447
398.0 0.002513 366.32401 401.31271
391.0 0.002558 366.16245 404.96405
398.0 0.002513 366.00131 407.50333
417.0 0.002398 365.84085 419.70081
436.0 0.002294 365.68088 437.56790
441.0 0.002268 365.52155 461.42688
456.0 0.002193 365.36288 498.16251
524.0 0.001908 365.20456 549.98993
555.0 0.001802 365.04697 611.29657
562.0 0.001779 364.88989 605.02863
521.0 0.001919 364.73349 522.24115
471.0 0.002123 364.57761 476.79788
464.0 0.002155 364.42233 477.51782
453.0 0.002208 364.26764 497.40112
460.0 0.002174 364.11343 484.82922
450.0 0.002222 363.95993 436.73892
419.0 0.002387 363.80695 406.90985
407.0 0.002457 363.65451 396.93073
412.0 0.002427 363.50269 395.65625
414.0 0.002415 363.35147 397.42108
423.0 0.002364 363.20084 401.40289
431.0 0.002320 363.05084 408.02628
493.0 0.002028 362.90128 419.13596
489.0 0.002045 362.75244 442.28152
566.0 0.001767 362.60413 485.41580
618.0 0.001618 362.45639 558.11359
666.0 0.001502 362.30927 669.13947
827.0 0.001209 362.16269 816.04669
1002.0 0.000998 362.01672 1027.00891
1433.0 0.000698 361.87134 1338.32825
2047.0 0.000489 361.72662 1811.06238
2591.0 0.000386 361.58243 2365.77124
2545.0 0.000393 361.43881 2415.63989
1728.0 0.000579 361.29587 1711.89746
1183.0 0.000845 361.15341 1246.90381
1288.0 0.000776 361.01163 1232.73694
1460.0 0.000685 360.87045 1406.67432
1450.0 0.000690 360.72977 1367.81787
973.0 0.001028 360.58978 950.74634
607.0 0.001647 360.45029 634.79138
477.0 0.002096 360.31146 510.66470
419.0 0.002387 360.17319 467.81329
432.0 0.002315 360.03549 448.56107
450.0 0.002222 359.89850 438.61844
431.0 0.002320 359.76199 435.03281
458.0 0.002183 359.62607 435.21246
448.0 0.002232 359.49078 442.06335
473.0 0.002114 359.35614 454.94366
518.0 0.001931 359.22205 482.79156
524.0 0.001908 359.08856 532.25201
633.0 0.001580 358.95569 609.44360
740.0 0.001351 358.82352 719.00690
882.0 0.001134 358.69171 882.57947
1144.0 0.000874 358.56061 1132.80579
1552.0 0.000644 358.43008 1516.14014
1922.0 0.000520 358.30029 1981.45532
2001.0 0.000500 358.17096 2175.01172
1935.0 0.000517 358.04221 1954.64941
2023.0 0.000494 357.91415 2000.96948
2401.0 0.000416 357.78668 2402.72339
2524.0 0.000396 357.65976 2576.60278
2047.0 0.000489 357.53354 2058.99170
1471.0 0.000680 357.40778 1441.74377
1249.0 0.000801 357.28281 1214.03125
1249.0 0.000801 357.15829 1279.31555
1237.0 0.000808 357.03436 1294.16907
1046.0 0.000956 356.91110 1048.19531
859.0 0.001164 356.78839 874.22021
856.0 0.001168 356.66638 889.91150
1026.0 0.000975 356.54489 1031.96838
1369.0 0.000730 356.42398 1298.94482
1715.0 0.000583 356.30371 1675.07141
1791.0 0.000558 356.18402 1882.34229
1487.0 0.000672 356.06494 1572.69788
1213.0 0.000824 355.94647 1284.65454
1308.0 0.000765 355.82867 1343.62866
1647.0 0.000607 355.71140 1651.43481
2109.0 0.000474 355.59470 2034.78076
2343.0 0.000427 355.47867 2184.57788
1961.0 0.000510 355.36322 1909.81946
1260.0 0.000794 355.24835 1314.15808
940.0 0.001064 355.13419 987.61792
958.0 0.001044 355.02051 969.68671
1156.0 0.000865 354.90747 1078.14746
1079.0 0.000927 354.79504 1056.82886
742.0 0.001348 354.68326 782.57635
487.0 0.002053 354.57196 560.81873
425.0 0.002353 354.46133 470.07080
416.0 0.002404 354.35135 436.40280
404.0 0.002475 354.24194 419.60120
421.0 0.002375 354.13321 406.98764
356.0 0.002809 354.02496 399.23871
392.0 0.002551 353.91733 394.70398
430.0 0.002326 353.81030 391.69949
371.0 0.002695 353.70392 389.89661
414.0 0.002415 353.59818 389.19354
406.0 0.002463 353.49295 388.54266
425.0 0.002353 353.38840 390.15448
417.0 0.002398 353.28439 393.20850
477.0 0.002096 353.18100 398.36374
425.0 0.002353 353.07825 407.47034
490.0 0.002041 352.97614 425.76361
501.0 0.001996 352.87448 460.97272
513.0 0.001949 352.77356 522.28864
603.0 0.001658 352.67310 616.98993
742.0 0.001348 352.57339 743.26715
895.0 0.001117 352.47424 931.03198
1173.0 0.000853 352.37561 1211.74207
1561.0 0.000641 352.27774 1612.10388
1902.0 0.000526 352.18027 1912.68420
1642.0 0.000609 352.08362 1623.55762
1093.0 0.000915 351.98749 1117.02893
920.0 0.001087 351.89188 935.28613
993.0 0.001007 351.79694 1009.95349
1066.0 0.000938 351.70258 1133.11658
985.0 0.001015 351.60883 1015.87762
717.0 0.001395 351.51575 699.65662
525.0 0.001905 351.42307 507.97256
428.0 0.002336 351.33121 436.29581
385.0 0.002597 351.23984 408.64581
388.0 0.002577 351.14908 393.88199
410.0 0.002439 351.05890 384.40128
392.0 0.002551 350.96936 377.83432
375.0 0.002667 350.88037 373.06128
399.0 0.002506 350.79202 371.00320
383.0 0.002611 350.70432 368.30493
385.0 0.002597 350.61707 366.18649
391.0 0.002558 350.53052 364.49716
390.0 0.002564 350.44452 363.13644
362.0 0.002762 350.35910 362.78540
362.0 0.002762 350.27441 361.93863
381.0 0.002625 350.19022 361.26862
388.0 0.002577 350.10657 360.75092
380.0 0.002632 350.02362 360.36917
370.0 0.002703 349.94119 368.02731
368.0 0.002717 349.85934 368.41486
376.0 0.002660 349.77817 368.97687
389.0 0.002571 349.69754 369.72687
389.0 0.002571 349.61752 370.68420
390.0 0.002564 349.53806 371.87869
364.0 0.002747 349.45929 375.32718
382.0 0.002618 349.38095 377.53659
360.0 0.002778 349.30331 380.17514
413.0 0.002421 349.22623 383.35660
382.0 0.002618 349.14981 387.25043
378.0 0.002646 349.07388 391.03415
418.0 0.002392 348.99863 397.33652
417.0 0.002398 348.92380 405.84750
450.0 0.002222 348.84973 418.80420
440.0 0.002273 348.77618 441.66757
524.0 0.001908 348.70325 481.97479
555.0 0.001802 348.63092 543.32202
654.0 0.001529 348.55908 633.17816
764.0 0.001309 348.48792 755.58533
916.0 0.001092 348.41733 935.89459
1244.0 0.000804 348.34732 1208.62622
1633.0 0.000612 348.27783 1507.83057
1678.0 0.000596 348.20898 1518.51196
1303.0 0.000767 348.14078 1184.83496
1109.0 0.000902 348.07303 1035.73572
1275.0 0.000784 348.00598 1185.43225
1589.0 0.000629 347.93945 1539.13843
1968.0 0.000508 347.87350 1969.13245
2261.0 0.000442 347.80811 2319.63208
2892.0 0.0003458 347.74332 2925.37573
4228.0 0.0002365 347.67908 4057.51807
5835.0 0.0001714 347.61551 5545.41992
5933.0 0.0001685 347.55246 6038.22559
4119.0 0.0002428 347.49002 4311.55713
2543.0 0.000393 347.42810 2780.11816
2268.0 0.000441 347.36679 2472.75244
2817.0 0.000355 347.30606 2893.49707
3116.0 0.0003209 347.24591 3277.75806
2478.0 0.000404 347.18631 2617.02783
1472.0 0.000679 347.12729 1491.83508
845.0 0.001183 347.06885 891.55322
632.0 0.001582 347.01099 677.20715
565.0 0.001770 346.95374 599.43280
536.0 0.001866 346.89697 568.40930
525.0 0.001905 346.84079 563.19598
553.0 0.001808 346.78528 581.03229
597.0 0.001675 346.73019 627.08667
673.0 0.001486 346.67578 707.33600
766.0 0.001305 346.62192 779.99609
756.0 0.001323 346.56860 759.83899
710.0 0.001408 346.51587 719.04999
749.0 0.001335 346.46368 768.89398
928.0 0.001078 346.41202 913.54071
1118.0 0.000894 346.36105 1104.83008
1131.0 0.000884 346.31052 1148.99182
937.0 0.001067 346.26062 964.65619
828.0 0.001208 346.21127 871.08887
934.0 0.001071 346.16245 957.71240
1197.0 0.000835 346.11417 1181.65540
1602.0 0.000624 346.06656 1460.54260
1596.0 0.000627 346.01941 1526.29980
1203.0 0.000831 345.97290 1185.52075
790.0 0.001266 345.92682 830.55548
708.0 0.001412 345.88138 721.28717
779.0 0.001284 345.83649 764.95062
919.0 0.001088 345.79218 842.07831
779.0 0.001284 345.74835 784.42426
587.0 0.001704 345.70511 591.09021
462.0 0.002165 345.66245 459.73849
395.0 0.002532 345.62030 409.36621
404.0 0.002475 345.57880 389.63049
375.0 0.002667 345.53772 379.10257
343.0 0.002915 345.49722 372.26566
356.0 0.002809 345.45731 367.46210
361.0 0.002770 345.41797 363.91675
375.0 0.002667 345.37912 361.20490
381.0 0.002625 345.34088 359.06958
375.0 0.002667 345.30310 357.34912
349.0 0.002865 345.26593 355.93762
341.0 0.002933 345.22919 354.35379
344.0 0.002907 345.19315 353.38361
371.0 0.002695 345.15759 352.86807
361.0 0.002770 345.12250 352.17410
355.0 0.002817 345.08807 351.57550
363.0 0.002755 345.05411 350.23294
358.0 0.002793 345.02063 349.63443
337.0 0.002967 344.98779 349.29483
351.0 0.002849 344.95544 349.15866
362.0 0.002762 344.92365 348.91193
340.0 0.002941 344.89240 348.27872
349.0 0.002865 344.86160 346.71002
357.0 0.002801 344.83139 346.67285
358.0 0.002793 344.80176 346.65463
364.0 0.002747 344.77261 346.65634
361.0 0.002770 344.74396 346.67944
366.0 0.002732 344.71588 346.72647
344.0 0.002907 344.68832 346.11972
309.0 0.003236 344.66125 346.26846
301.0 0.003322 344.63486 346.45316
314.0 0.003185 344.60886 346.68457
312.0 0.003205 344.58337 346.97791
328.0 0.003049 344.55841 348.07483
328.0 0.003049 344.53403 348.61713
346.0 0.002890 344.51013 349.33539
364.0 0.002747 344.48679 350.32565
377.0 0.002653 344.46393 351.80389
371.0 0.002695 344.44156 354.38681
367.0 0.002725 344.41974 359.83255
401.0 0.002494 344.39850 369.00296
409.0 0.002445 344.37769 382.82758
444.0 0.002252 344.35736 404.05789
435.0 0.002299 344.33765 433.61057
483.0 0.002070 344.31839 480.60165
590.0 0.001695 344.29965 539.88605
617.0 0.001621 344.28137 569.15393
534.0 0.001873 344.26367 511.79913
447.0 0.002237 344.24643 446.32065
407.0 0.002457 344.22980 427.71317
442.0 0.002262 344.21356 441.62906
487.0 0.002053 344.19788 463.09683
464.0 0.002155 344.18265 456.21103
426.0 0.002347 344.16800 413.84583
411.0 0.002433 344.15381 383.89822
397.0 0.002519 344.14008 373.13745
396.0 0.002525 344.12686 371.35135
407.0 0.002457 344.11417 373.18820
410.0 0.002439 344.10199 379.01373
410.0 0.002439 344.09024 391.92737
423.0 0.002364 344.07907 414.95792
482.0 0.002075 344.06830 450.41162
506.0 0.001976 344.05807 502.98056
535.0 0.001869 344.04840 580.05609
705.0 0.001418 344.03915 693.97687
920.0 0.001087 344.03040 826.67389
950.0 0.001053 344.02216 847.94019
718.0 0.001393 344.01437 692.86719
589.0 0.001698 344.00708 579.00562
543.0 0.001842 344.00024 575.57928
652.0 0.001534 343.99387 646.11865
786.0 0.001272 343.98804 742.76245
824.0 0.001214 343.98270 788.55798
783.0 0.001277 343.97781 812.40491
957.0 0.001045 343.97336 939.40668
1195.0 0.000837 343.96951 1185.63904
1421.0 0.000704 343.96603 1451.70044
1403.0 0.000713 343.96304 1399.22632
1043.0 0.000959 343.96048 1031.63440
797.0 0.001255 343.95850 828.46033
810.0 0.001235 343.95688 851.16211
995.0 0.001005 343.95581 1000.55481
1138.0 0.000879 343.95523 1138.17786
1027.0 0.000974 343.95502 1024.37817
779.0 0.001284 343.95535 733.06732
540.0 0.001852 343.95609 549.61224
518.0 0.001931 343.95740 490.23889
515.0 0.001942 343.95911 487.92239
496.0 0.002016 343.96127 500.10565
472.0 0.002119 343.96387 486.00146
434.0 0.002304 343.96698 432.86322
411.0 0.002433 343.97052 396.21075
374.0 0.002674 343.97452 380.39063
368.0 0.002717 343.97894 373.58450
355.0 0.002817 343.98386 372.05017
355.0 0.002817 343.98920 369.76523
350.0 0.002857 343.99503 367.56750
363.0 0.002755 344.00131 366.77454
353.0 0.002833 344.00803 366.44888
353.0 0.002833 344.01526 366.52121
367.0 0.002725 344.02280 366.95905
354.0 0.002825 344.03085 367.75775
366.0 0.002732 344.03937 369.32361
387.0 0.002584 344.04831 370.99286
396.0 0.002525 344.05771 373.15430
396.0 0.002525 344.06747 375.90945
381.0 0.002625 344.07779 379.41174
413.0 0.002421 344.08850 382.20700
442.0 0.002262 344.09961 388.45856
445.0 0.002247 344.11118 396.15790
484.0 0.002066 344.12320 406.48709
480.0 0.002083 344.13568 420.94180
500.0 0.002000 344.14859 442.95062
588.0 0.001701 344.16177 480.89011
649.0 0.001541 344.17563 558.19354
753.0 0.001328 344.18973 697.37726
959.0 0.001043 344.20435 912.95953
1221.0 0.000819 344.21930 1239.37732
1865.0 0.000536 344.23477 1719.25354
2736.0 0.000365 344.25067 2423.47144
3676.0 0.0002720 344.26691 3197.74438
3572.0 0.0002800 344.28360 3196.55957
2333.0 0.000429 344.30072 2189.14551
1464.0 0.000683 344.31830 1492.19336
1385.0 0.000722 344.33621 1391.03052
1705.0 0.000587 344.35464 1625.02405
1978.0 0.000506 344.37341 1900.94788
1858.0 0.000538 344.39255 1710.25598
1239.0 0.000807 344.41214 1120.62366
780.0 0.001282 344.43222 748.58917
643.0 0.001555 344.45258 622.82422
612.0 0.001634 344.47342 609.70984
671.0 0.001490 344.49463 646.17883
780.0 0.001282 344.51636 730.06036
943.0 0.001060 344.53833 856.39459
1048.0 0.000954 344.56073 951.75366
932.0 0.001073 344.58356 857.97058
738.0 0.001355 344.60687 681.89636
659.0 0.001517 344.63049 607.02637
641.0 0.001560 344.65454 622.61084
735.0 0.001361 344.67892 681.13190
808.0 0.001238 344.70377 719.23578
750.0 0.001333 344.72897 662.73425
696.0 0.001437 344.75455 585.94727
677.0 0.001477 344.78055 567.31732
771.0 0.001297 344.80698 600.87115
887.0 0.001127 344.83368 693.30682
971.0 0.001030 344.86087 885.51563
1278.0 0.000782 344.88837 1209.73706
1745.0 0.000573 344.91626 1723.70728
2402.0 0.000416 344.94455 2462.45313
3722.0 0.0002687 344.97330 3597.27417
5364.0 0.0001864 345.00229 5077.08789
6073.0 0.0001647 345.03177 5935.55957
4791.0 0.0002087 345.06152 4634.56543
2915.0 0.0003431 345.09174 2873.91943
2154.0 0.000464 345.12225 2220.13306
2397.0 0.000417 345.15317 2424.10059
2967.0 0.0003370 345.18448 2995.81445
3271.0 0.0003057 345.21613 3212.58374
2531.0 0.000395 345.24817 2348.58984
1484.0 0.000674 345.28052 1365.40259
902.0 0.001109 345.31332 899.96228
767.0 0.001304 345.34637 763.87506
794.0 0.001259 345.37988 761.94751
913.0 0.001095 345.41367 837.01733
1067.0 0.000937 345.44794 983.46869
1292.0 0.000774 345.48242 1235.22961
1727.0 0.000579 345.51733 1567.62842
1944.0 0.000514 345.55261 1756.90259
1642.0 0.000609 345.58826 1520.37195
1251.0 0.000799 345.62424 1267.75989
1254.0 0.000797 345.66049 1258.52881
1596.0 0.000627 345.69714 1493.57080
2081.0 0.000481 345.73413 1859.96094
2297.0 0.000435 345.77145 1980.95557
1646.0 0.000608 345.80917 1518.35950
1072.0 0.000933 345.84729 1049.91748
838.0 0.001193 345.88562 863.02393
948.0 0.001055 345.92429 870.11511
1068.0 0.000936 345.96344 957.20203
1078.0 0.000928 346.00281 975.21588
922.0 0.001085 346.04254 828.69977
785.0 0.001274 346.08264 704.96069
813.0 0.001230 346.12302 722.90814
887.0 0.001127 346.16370 854.92621
1096.0 0.000912 346.20474 1100.35071
1513.0 0.000661 346.24612 1488.91626
2207.0 0.000453 346.28781 2101.53247
2975.0 0.0003361 346.32986 2917.91943
3535.0 0.0002829 346.37219 3539.85620
3301.0 0.0003029 346.41492 3324.59985
2822.0 0.000354 346.45792 2984.18262
2918.0 0.0003427 346.50119 3093.62256
2830.0 0.000353 346.54489 3002.07593
2470.0 0.000405 346.58881 2591.55566
2175.0 0.000460 346.63312 2355.63721
1831.0 0.000546 346.67767 1998.45251
1587.0 0.000630 346.72260 1683.26953
1462.0 0.000684 346.76776 1600.54236
1334.0 0.000750 346.81323 1388.51013
1047.0 0.000955 346.85913 977.94885
759.0 0.001318 346.90524 720.57330
672.0 0.001488 346.95169 641.09406
701.0 0.001427 346.99838 657.98572
783.0 0.001277 347.04544 735.55676
912.0 0.001096 347.09277 878.41882
1157.0 0.000864 347.14041 1113.43347
1476.0 0.000678 347.18839 1422.74548
1629.0 0.000614 347.23657 1616.02295
1419.0 0.000705 347.28510 1373.89038
1036.0 0.000965 347.33392 991.95526
842.0 0.001188 347.38303 831.68982
876.0 0.001142 347.43240 876.39185
1010.0 0.000990 347.48209 1031.03210
1169.0 0.000855 347.53204 1170.82983
1140.0 0.000877 347.58231 1133.14319
1056.0 0.000947 347.63287 1047.60925
1092.0 0.000916 347.68369 1095.57520
1169.0 0.000855 347.73486 1141.55371
1005.0 0.000995 347.78619 962.13043
803.0 0.001245 347.83777 748.33954
728.0 0.001374 347.88980 683.42560
781.0 0.001280 347.94199 735.17957
868.0 0.001152 347.99451 867.14160
967.0 0.001034 348.04724 1017.70776
1114.0 0.000898 348.10025 1108.42944
1226.0 0.000816 348.15359 1244.02039
1507.0 0.000664 348.20712 1566.69287
2064.0 0.000484 348.26096 1948.05078
2108.0 0.000474 348.31506 1953.71826
1462.0 0.000684 348.36945 1436.21240
1071.0 0.000934 348.42410 1082.58130
1035.0 0.000966 348.47894 1079.18823
1407.0 0.000711 348.53409 1315.48718
1890.0 0.000529 348.58948 1687.89136
2212.0 0.000452 348.64508 2005.99854
2539.0 0.000394 348.70105 2181.86182
2988.0 0.0003347 348.75720 2422.20923
2848.0 0.000351 348.81360 2357.33301
2008.0 0.000498 348.87027 1676.38257
1245.0 0.000803 348.92719 1148.84509
1096.0 0.000912 348.98431 1017.60602
1243.0 0.000805 349.04169 1127.43591
1520.0 0.000658 349.09937 1327.70300
1657.0 0.000604 349.15726 1361.71985
1236.0 0.000809 349.21536 1026.98071
813.0 0.001230 349.27374 693.09180
623.0 0.001605 349.33237 533.78455
505.0 0.001980 349.39124 474.30612
471.0 0.002123 349.45032 448.83716
435.0 0.002299 349.50955 439.76721
437.0 0.002288 349.56915 444.26401
469.0 0.002132 349.62891 464.13184
543.0 0.001842 349.68890 501.71997
563.0 0.001776 349.74915 566.36377
655.0 0.001527 349.80957 662.59790
782.0 0.001279 349.87033 782.01923
834.0 0.001199 349.93115 828.70178
739.0 0.001353 349.99228 699.58990
581.0 0.001721 350.05362 557.15094
485.0 0.002062 350.11523 510.61359
509.0 0.001965 350.17697 526.92120
546.0 0.001832 350.23892 574.75018
587.0 0.001704 350.30109 602.83514
546.0 0.001832 350.36356 544.67346
469.0 0.002132 350.42621 457.61209
439.0 0.002278 350.48904 412.21429
417.0 0.002398 350.55200 397.90231
389.0 0.002571 350.61536 399.11600
405.0 0.002469 350.67880 408.55426
442.0 0.002262 350.74243 432.21393
458.0 0.002183 350.80630 473.30124
523.0 0.001912 350.87033 533.76959
599.0 0.001669 350.93463 612.91974
629.0 0.001590 350.99908 656.00635
579.0 0.001727 351.06372 583.54230
495.0 0.002020 351.12857 486.67905
446.0 0.002242 351.19360 448.38904
438.0 0.002283 351.25882 454.28076
469.0 0.002132 351.32428 484.02936
510.0 0.001961 351.38986 508.05182
453.0 0.002208 351.45569 480.64099
407.0 0.002457 351.52167 422.14407
407.0 0.002457 351.58783 386.13708
369.0 0.002710 351.65414 371.45532
391.0 0.002558 351.72067 365.50388
346.0 0.002890 351.78738 362.36047
391.0 0.002558 351.85428 359.56970
386.0 0.002591 351.92136 358.22449
352.0 0.002841 351.98856 357.26117
372.0 0.002688 352.05603 356.54892
316.0 0.003165 352.12357 356.00970
347.0 0.002882 352.19135 355.59409
341.0 0.002933 352.25928 354.88455
379.0 0.002639 352.32733 354.65372
359.0 0.002786 352.39563 354.47409
393.0 0.002545 352.46402 354.33478
348.0 0.002874 352.53265 354.22739
367.0 0.002725 352.60141 354.28241
334.0 0.002994 352.67026 354.23126
344.0 0.002907 352.73929 354.37146
352.0 0.002841 352.80856 354.36658
313.0 0.003195 352.87793 354.37701
366.0 0.002732 352.94745 354.40140
370.0 0.002703 353.01715 353.99374
354.0 0.002825 353.08698 354.08054
348.0 0.002874 353.15695 354.26184
359.0 0.002786 353.22717 354.37646
381.0 0.002625 353.29733 354.50528
354.0 0.002825 353.36780 354.65125
342.0 0.002924 353.43842 354.81918
352.0 0.002841 353.50909 354.77527
345.0 0.002899 353.57996 355.04080
365.0 0.002740 353.65091 355.40762
362.0 0.002762 353.72205 355.96265
348.0 0.002874 353.79337 356.77209
352.0 0.002841 353.86472 357.97000
383.0 0.002611 353.93619 359.67154
379.0 0.002639 354.00793 362.00290
358.0 0.002793 354.07974 364.12466
341.0 0.002933 354.15161 364.24341
354.0 0.002825 354.22369 362.35910
377.0 0.002653 354.29581 361.79663
374.0 0.002674 354.36816 363.00439
356.0 0.002809 354.44061 365.83469
371.0 0.002695 354.51321 370.74500
377.0 0.002653 354.58578 378.30997
383.0 0.002611 354.65857 389.37552
430.0 0.002326 354.73157 408.75681
465.0 0.002151 354.80457 438.82040
495.0 0.002020 354.87769 478.83463
523.0 0.001912 354.95090 509.99185
518.0 0.001931 355.02426 513.17426
531.0 0.001883 355.09775 501.72354
475.0 0.002105 355.17130 461.87241
421.0 0.002375 355.24503 434.05457
436.0 0.002294 355.31888 433.55930
434.0 0.002304 355.39270 444.78046
459.0 0.002179 355.46671 448.22473
453.0 0.002208 355.54080 440.97818
397.0 0.002519 355.61505 423.84344
387.0 0.002584 355.68933 400.22067
398.0 0.002513 355.76373 387.54108
341.0 0.002933 355.83823 383.46869
376.0 0.002660 355.91290 383.27664
354.0 0.002825 355.98749 385.06870
402.0 0.002488 356.06229 389.00601
380.0 0.002632 356.13712 396.61395
346.0 0.002890 356.21210 410.09116
463.0 0.002160 356.28717 431.10056
455.0 0.002198 356.36230 464.30429
485.0 0.002062 356.43744 511.54977
594.0 0.001684 356.51279 566.40454
669.0 0.001495 356.58817 586.17578
586.0 0.001706 356.66360 537.56079
533.0 0.001876 356.73914 494.42157
557.0 0.001795 356.81476 490.67099
508.0 0.001969 356.89038 517.84015
589.0 0.001698 356.96619 568.06927
650.0 0.001538 357.04202 633.38281
763.0 0.001311 357.11792 705.67340
853.0 0.001172 357.19388 832.48816
1059.0 0.000944 357.26996 1082.70398
1489.0 0.000672 357.34607 1526.98242
2223.0 0.000450 357.42224 2194.54907
3138.0 0.0003187 357.49844 3068.55200
3728.0 0.0002682 357.57477 3590.07227
3083.0 0.0003244 357.65112 2904.40283
1866.0 0.000536 357.72757 1830.22229
1258.0 0.000795 357.80405 1339.12671
1229.0 0.000814 357.88058 1354.61609
1572.0 0.000636 357.95715 1643.54016
2003.0 0.000499 358.03384 1981.65356
1951.0 0.000513 358.11053 1919.24719
1442.0 0.000693 358.18729 1322.48071
881.0 0.001135 358.26413 838.79205
582.0 0.001718 358.34100 619.03168
493.0 0.002028 358.41785 534.82587
452.0 0.002212 358.49484 497.56479
456.0 0.002193 358.57187 479.16681
458.0 0.002183 358.64893 475.05350
479.0 0.002088 358.72595 482.40851
524.0 0.001908 358.80307 510.90799
570.0 0.001754 358.88025 567.52631
690.0 0.001449 358.95746 666.03693
865.0 0.001156 359.03470 818.51141
1121.0 0.000892 359.11191 1026.07190
1304.0 0.000767 359.18924 1177.72571
1168.0 0.000856 359.26657 1055.46594
850.0 0.001176 359.34406 786.89197
661.0 0.001513 359.42139 645.68701
666.0 0.001502 359.49878 637.05090
723.0 0.001383 359.57629 701.32581
843.0 0.001186 359.65378 793.32416
901.0 0.001110 359.73129 814.49622
789.0 0.001267 359.80884 693.84369
669.0 0.001495 359.88635 569.53442
577.0 0.001733 359.96393 522.73895
578.0 0.001730 360.04156 525.19714
624.0 0.001603 360.11914 562.58374
730.0 0.001370 360.19678 651.54779
879.0 0.001138 360.27448 828.38843
1101.0 0.000908 360.35205 1122.98511
1572.0 0.000636 360.42972 1604.98328
2224.0 0.000450 360.50739 2306.41699
3072.0 0.0003255 360.58514 3107.77051
3430.0 0.0002915 360.66275 3320.75171
2484.0 0.000403 360.74054 2438.55176
1597.0 0.000626 360.81821 1593.52368
1229.0 0.000814 360.89600 1332.48889
1347.0 0.000742 360.97366 1486.27405
1734.0 0.000577 361.05139 1836.13782
1968.0 0.000508 361.12909 2087.84790
1847.0 0.000541 361.20685 1837.11316
1222.0 0.000818 361.28458 1222.44287
790.0 0.001266 361.36224 815.93701
587.0 0.001704 361.44003 657.79065
571.0 0.001751 361.51767 615.48480
580.0 0.001724 361.59540 594.71143
510.0 0.001961 361.67300 550.76489
476.0 0.002101 361.75076 517.99854
513.0 0.001949 361.82837 521.25098
577.0 0.001733 361.90604 554.26147
637.0 0.001570 361.98364 601.85657
653.0 0.001531 362.06131 610.74707
538.0 0.001859 362.13885 544.86792
467.0 0.002141 362.21652 479.95810
458.0 0.002183 362.29407 455.19803
466.0 0.002146 362.37161 459.33734
491.0 0.002037 362.44919 479.11664
486.0 0.002058 362.52667 500.14655
471.0 0.002123 362.60416 492.10236
435.0 0.002299 362.68158 453.62411
432.0 0.002315 362.75903 426.35745
403.0 0.002481 362.83643 417.43011
397.0 0.002519 362.91388 420.33057
433.0 0.002309 362.99115 425.89282
466.0 0.002146 363.06848 445.78415
513.0 0.001949 363.14575 478.50464
550.0 0.001818 363.22305 517.24097
572.0 0.001748 363.30023 540.35724
544.0 0.001838 363.37738 515.50854
486.0 0.002058 363.45450 481.69150
488.0 0.002049 363.53162 474.05563
536.0 0.001866 363.60870 498.56873
610.0 0.001639 363.68573 555.07782
703.0 0.001422 363.76266 655.95441
818.0 0.001222 363.83960 800.28656
1063.0 0.000941 363.91650 1008.62006
1446.0 0.000692 363.99335 1353.73389
1963.0 0.000509 364.07016 1782.79688
2270.0 0.000441 364.14688 2025.89514
1853.0 0.000540 364.22357 1747.87354
1436.0 0.000696 364.30014 1430.03906
1361.0 0.000735 364.37680 1404.64441
1377.0 0.000726 364.45331 1485.33386
1404.0 0.000712 364.52975 1437.77087
1406.0 0.000711 364.60617 1405.83386
1293.0 0.000773 364.68253 1340.01807
1162.0 0.000861 364.75888 1125.82422
998.0 0.001002 364.83514 1002.17084
1016.0 0.000984 364.91135 1046.09827
1088.0 0.000919 364.98734 1122.78333
1092.0 0.000916 365.06342 1128.06506
1041.0 0.000961 365.13950 1059.46143
829.0 0.001206 365.21539 842.96704
655.0 0.001527 365.29123 650.51624
535.0 0.001869 365.36703 571.34094
562.0 0.001779 365.44269 574.63684
568.0 0.001761 365.51837 621.48126
627.0 0.001595 365.59402 678.67651
717.0 0.001395 365.66943 667.95941
543.0 0.001842 365.74487 566.44604
452.0 0.002212 365.82022 479.80481
413.0 0.002421 365.89557 438.50095
408.0 0.002451 365.97073 422.15726
416.0 0.002404 366.04587 414.92966
417.0 0.002398 366.12088 411.19525
402.0 0.002488 366.19592 409.67325
409.0 0.002445 366.27078 409.73279
402.0 0.002488 366.34552 411.23157
409.0 0.002445 366.42029 411.51147
439.0 0.002278 366.49487 416.61066
420.0 0.002381 366.56946 424.32474
443.0 0.002257 366.64386 437.56979
467.0 0.002141 366.71826 458.93701
537.0 0.001862 366.79251 497.53616
647.0 0.001546 366.86667 567.52875
750.0 0.001333 366.94080 678.91052
971.0 0.001030 367.01477 870.33539
1232.0 0.000812 367.08865 1130.24988
1422.0 0.000703 367.16248 1389.47070
1548.0 0.000646 367.23615 1472.92468
1555.0 0.000643 367.30984 1541.65796
1719.0 0.000582 367.38333 1732.29089
1878.0 0.000532 367.45670 1872.18347
1776.0 0.000563 367.53003 1726.61670
1462.0 0.000684 367.60321 1383.23743
1214.0 0.000824 367.67633 1178.69507
1088.0 0.000919 367.74930 1060.35718
1034.0 0.000967 367.82224 1035.80835
1063.0 0.000941 367.89505 1086.39355
1101.0 0.000908 367.96771 1096.17639
964.0 0.001037 368.04028 941.11517
751.0 0.001332 368.11273 702.75421
584.0 0.001712 368.18509 555.30414
512.0 0.001953 368.25732 494.29639
497.0 0.002012 368.32941 472.08591
468.0 0.002137 368.40143 459.79752
466.0 0.002146 368.47330 451.72192
476.0 0.002101 368.54504 456.30539
497.0 0.002012 368.61685 481.58539
540.0 0.001852 368.68826 534.14648
625.0 0.001600 368.75974 622.91040
723.0 0.001383 368.83102 763.27759
902.0 0.001109 368.90219 919.27240
917.0 0.001091 368.97327 976.31903
809.0 0.001236 369.04419 813.22986
651.0 0.001536 369.11493 623.97540
526.0 0.001901 369.18564 542.27362
490.0 0.002041 369.25623 544.06061
502.0 0.001992 369.32663 600.25946
650.0 0.001538 369.39688 666.58252
708.0 0.001412 369.46707 682.18060
599.0 0.001669 369.53711 592.59369
477.0 0.002096 369.60703 491.73322
445.0 0.002247 369.67685 439.08511
360.0 0.002778 369.74643 416.09174
388.0 0.002577 369.81598 409.24673
392.0 0.002551 369.88531 404.18619
417.0 0.002398 369.95459 401.80463
404.0 0.002475 370.02365 402.29379
377.0 0.002653 370.09256 402.20789
391.0 0.002558 370.16135 401.86914
389.0 0.002571 370.23004 403.19788
373.0 0.002681 370.29858 405.13889
417.0 0.002398 370.36694 407.72357
411.0 0.002433 370.43524 411.03238
429.0 0.002331 370.50327 415.16751
406.0 0.002463 370.57123 420.39343
456.0 0.002193 370.63904 426.97247
442.0 0.002262 370.70673 435.34094
453.0 0.002208 370.77417 446.16580
486.0 0.002058 370.84158 460.50073
541.0 0.001848 370.90872 480.12360
578.0 0.001730 370.97577 508.60623
625.0 0.001600 371.04269 554.84235
711.0 0.001406 371.10944 638.58521
864.0 0.001157 371.17603 798.64130
1169.0 0.000855 371.24249 1071.33557
1620.0 0.000617 371.30875 1529.84204
2228.0 0.000449 371.37488 2221.80444
2957.0 0.0003382 371.44080 3002.32764
3313.0 0.0003018 371.50656 3337.20166
3156.0 0.0003169 371.57227 3139.58716
3032.0 0.0003298 371.63779 3108.22681
2967.0 0.0003370 371.70309 2999.78174
2462.0 0.000406 371.76822 2411.35962
1981.0 0.000505 371.83325 2019.95300
1924.0 0.000520 371.89813 2035.63293
1940.0 0.000515 371.96274 2052.32227
1795.0 0.000557 372.02725 1869.71313
1723.0 0.000580 372.09158 1773.08594
1592.0 0.000628 372.15576 1641.52515
1188.0 0.000842 372.21970 1231.19739
830.0 0.001205 372.28357 849.94739
632.0 0.001582 372.34714 651.87671
543.0 0.001842 372.41068 567.81458
491.0 0.002037 372.47397 532.78381
503.0 0.001988 372.53714 511.71158
505.0 0.001980 372.60007 499.77127
486.0 0.002058 372.66281 494.04633
500.0 0.002000 372.72546 493.33142
487.0 0.002053 372.78790 497.35257
492.0 0.002033 372.85016 506.60211
515.0 0.001942 372.91220 524.34692
515.0 0.001942 372.97406 550.50275
654.0 0.001529 373.03580 593.96234
741.0 0.001350 373.09738 675.82782
892.0 0.001121 373.15866 840.89899
1128.0 0.000887 373.21985 1154.09058
1626.0 0.000615 373.28082 1670.22070
2394.0 0.000418 373.34161 2512.12842
3417.0 0.0002927 373.40219 3530.46973
4076.0 0.0002453 373.46268 4141.21631
3239.0 0.0003087 373.52292 3384.11938
2034.0 0.000492 373.58301 2117.50903
1339.0 0.000747 373.64273 1449.28125
1246.0 0.000803 373.70248 1353.63977
1463.0 0.000684 373.76193 1615.54639
1947.0 0.000514 373.82120 2052.60278
2207.0 0.000453 373.88034 2372.61230
1978.0 0.000506 373.93924 2054.67163
1394.0 0.000717 373.99792 1378.48950
917.0 0.001091 374.05646 954.73871
790.0 0.001266 374.11478 819.43701
877.0 0.001140 374.17282 865.07593
996.0 0.001004 374.23080 1051.18286
1303.0 0.000767 374.28848 1401.30957
1800.0 0.000556 374.34607 1933.27197
2346.0 0.000426 374.40341 2459.98291
2361.0 0.000424 374.46051 2450.91504
1766.0 0.000566 374.51740 1755.77100
1127.0 0.000887 374.57419 1176.27197
903.0 0.001107 374.63068 977.52979
966.0 0.001035 374.68701 1043.35938
1137.0 0.000880 374.74310 1284.71521
1448.0 0.000691 374.79898 1580.74438
1584.0 0.000631 374.85477 1667.65430
1291.0 0.000775 374.91025 1317.65491
901.0 0.001110 374.96558 901.04541
632.0 0.001582 375.02063 673.30627
568.0 0.001761 375.07553 588.34619
531.0 0.001883 375.13016 569.87488
542.0 0.001845 375.18463 577.93701
580.0 0.001724 375.23889 615.71661
666.0 0.001502 375.29288 663.44147
733.0 0.001364 375.34674 732.89624
824.0 0.001214 375.40030 879.69958
1090.0 0.000917 375.45374 1133.29944
1442.0 0.000693 375.50696 1401.99683
1487.0 0.000672 375.55991 1431.49658
1151.0 0.000869 375.61267 1092.98267
790.0 0.001266 375.66519 781.83289
650.0 0.001538 375.71747 658.14307
664.0 0.001506 375.76959 667.69617
736.0 0.001359 375.82153 762.48810
818.0 0.001222 375.87317 887.62408
901.0 0.001110 375.92459 935.36432
859.0 0.001164 375.97577 788.31720
610.0 0.001639 376.02689 601.48151
484.0 0.002066 376.07758 491.65765
438.0 0.002283 376.12820 447.12497
439.0 0.002278 376.17850 428.36868
408.0 0.002451 376.22864 419.35550
437.0 0.002288 376.27850 415.19580
429.0 0.002331 376.32822 415.79318
420.0 0.002381 376.37759 417.98645
422.0 0.002370 376.42682 417.57260
410.0 0.002439 376.47580 414.95837
423.0 0.002364 376.52457 414.53873
412.0 0.002427 376.57312 421.86554
427.0 0.002342 376.62137 438.69891
515.0 0.001942 376.66943 460.16660
495.0 0.002020 376.71732 470.56006
467.0 0.002141 376.76495 455.10110
447.0 0.002237 376.81232 429.54535
411.0 0.002433 376.85944 415.01019
435.0 0.002299 376.90631 412.22415
380.0 0.002632 376.95306 417.57977
399.0 0.002506 376.99945 427.38300
461.0 0.002169 377.04572 433.42114
414.0 0.002415 377.09167 430.83844
415.0 0.002410 377.13739 421.35709
392.0 0.002551 377.18289 419.55579
398.0 0.002513 377.22821 428.84839
439.0 0.002278 377.27322 452.27420
463.0 0.002160 377.31793 492.09125
510.0 0.001961 377.36258 549.26111
551.0 0.001815 377.40686 615.28973
609.0 0.001642 377.45096 658.98279
685.0 0.001460 377.49472 675.52625
663.0 0.001508 377.53836 639.52893
590.0 0.001695 377.58170 575.02795
547.0 0.001828 377.62488 557.87781
578.0 0.001730 377.66769 603.71655
653.0 0.001531 377.71033 702.31195
760.0 0.001316 377.75272 831.11951
901.0 0.001110 377.79486 933.63666
928.0 0.001078 377.83676 900.32019
791.0 0.001264 377.87836 737.01892
653.0 0.001531 377.91977 623.25452
623.0 0.001605 377.96094 609.91248
694.0 0.001441 378.00183 686.38672
856.0 0.001168 378.04248 855.21234
1077.0 0.000929 378.08292 1120.52319
1370.0 0.000730 378.12305 1445.52454
1579.0 0.000633 378.16296 1676.21338
1433.0 0.000698 378.20267 1572.32043
1057.0 0.000946 378.24210 1149.64197
795.0 0.001258 378.28122 833.46429
699.0 0.001431 378.32019 728.90375
738.0 0.001355 378.35883 771.18622
916.0 0.001092 378.39722 924.44183
1095.0 0.000913 378.43536 1149.98621
1295.0 0.000772 378.47327 1343.33020
1385.0 0.000722 378.51096 1401.57373
1413.0 0.000708 378.54828 1437.61841
1419.0 0.000705 378.58548 1406.20178
1199.0 0.000834 378.62234 1166.05640
941.0 0.001063 378.65903 974.49799
956.0 0.001046 378.69537 984.44214
1173.0 0.000853 378.73151 1121.08875
1287.0 0.000777 378.76730 1222.38696
1201.0 0.000833 378.80295 1163.28613
1039.0 0.000962 378.83829 1059.32690
848.0 0.001179 378.87332 906.32135
763.0 0.001311 378.90820 745.27179
685.0 0.001460 378.94281 681.61884
716.0 0.001397 378.97714 700.97986
747.0 0.001339 379.01117 731.57727
719.0 0.001391 379.04495 680.69415
602.0 0.001661 379.07843 577.81183
525.0 0.001905 379.11176 509.80661
476.0 0.002101 379.14481 486.53409
497.0 0.002012 379.17755 495.08713
489.0 0.002045 379.20996 532.81030
579.0 0.001727 379.24222 600.76990
676.0 0.001479 379.27420 708.13654
822.0 0.001217 379.30588 830.99982
896.0 0.001116 379.33728 862.45007
766.0 0.001305 379.36838 754.07709
693.0 0.001443 379.39932 662.89386
701.0 0.001427 379.42999 674.20526
869.0 0.001151 379.46036 779.77863
1064.0 0.000940 379.49045 947.35431
1174.0 0.000852 379.52032 1062.67810
1098.0 0.000911 379.54984 990.48370
887.0 0.001127 379.57925 797.31793
645.0 0.001550 379.60822 635.09241
549.0 0.001821 379.63699 567.24969
586.0 0.001706 379.66547 569.53058
624.0 0.001603 379.69376 618.15381
677.0 0.001477 379.72165 669.27130
706.0 0.001416 379.74939 659.13611
650.0 0.001538 379.77679 587.84705
551.0 0.001815 379.80392 542.16656
545.0 0.001835 379.83081 555.19397
630.0 0.001587 379.85742 617.76074
749.0 0.001335 379.88379 732.42700
865.0 0.001156 379.90982 871.36560
866.0 0.001155 379.93561 944.77307
839.0 0.001192 379.96118 922.55573
904.0 0.001106 379.98642 961.63135
1014.0 0.000986 380.01135 1093.65686
1085.0 0.000922 380.03610 1140.95337
921.0 0.001086 380.06052 987.14948
807.0 0.001239 380.08466 831.90485
735.0 0.001361 380.10861 768.10913
650.0 0.001538 380.13208 726.71326
638.0 0.001567 380.15555 691.98920
640.0 0.001563 380.17853 722.68781
692.0 0.001445 380.20132 764.88116
673.0 0.001486 380.22385 723.79102
565.0 0.001770 380.24609 602.32544
490.0 0.002041 380.26801 512.52100
411.0 0.002433 380.28976 473.96204
474.0 0.002110 380.31110 466.97763
479.0 0.002088 380.33228 480.63968
492.0 0.002033 380.35312 511.68878
544.0 0.001838 380.37372 559.27960
615.0 0.001626 380.39401 595.09723
594.0 0.001684 380.41397 585.20648
509.0 0.001965 380.43375 557.15222
563.0 0.001776 380.45316 577.88879
622.0 0.001608 380.47238 667.82184
756.0 0.001323 380.49124 827.88196
1067.0 0.000937 380.50995 1056.53186
1258.0 0.000795 380.52823 1202.08386
1124.0 0.000890 380.54636 1083.53687
814.0 0.001229 380.56406 810.98871
611.0 0.001637 380.58160 632.95972
536.0 0.001866 380.59879 577.29321
569.0 0.001757 380.61572 600.51959
645.0 0.001550 380.63245 675.17279
766.0 0.001305 380.64880 769.41736
759.0 0.001318 380.66486 794.32074
731.0 0.001368 380.68069 704.57172
626.0 0.001597 380.69623 616.40375
630.0 0.001587 380.71149 614.63043
669.0 0.001495 380.72647 696.36804
793.0 0.001261 380.74115 851.72925
949.0 0.001054 380.75555 1033.99158
1024.0 0.000977 380.76968 1072.01074
880.0 0.001136 380.78348 878.59552
667.0 0.001499 380.79703 665.95190
521.0 0.001919 380.81033 563.72235
539.0 0.001855 380.82330 550.84918
557.0 0.001795 380.83600 590.87836
629.0 0.001590 380.84845 671.39807
698.0 0.001433 380.86057 743.86414
694.0 0.001441 380.87241 720.83490
582.0 0.001718 380.88397 602.25928
494.0 0.002024 380.89532 505.50723
446.0 0.002242 380.90622 457.97281
427.0 0.002342 380.91693 443.28497
417.0 0.002398 380.92746 436.01514
419.0 0.002387 380.93759 433.49274
429.0 0.002331 380.94742 432.28720
447.0 0.002237 380.95700 434.99536
453.0 0.002208 380.96628 441.67902
443.0 0.002257 380.97531 450.43576
440.0 0.002273 380.98398 463.95984
499.0 0.002004 380.99240 488.17419
554.0 0.001805 381.00052 528.95538
625.0 0.001600 381.00839 611.13556
789.0 0.001267 381.01599 771.69556
1003.0 0.000997 381.02325 1043.58240
1352.0 0.000740 381.03033 1449.66467
1872.0 0.000534 381.03699 1885.90149
1999.0 0.000500 381.04337 1955.19812
1545.0 0.000647 381.04956 1489.28528
1002.0 0.000998 381.05542 1012.48035
777.0 0.001287 381.06088 790.73755
731.0 0.001368 381.06622 769.50433
819.0 0.001221 381.07123 872.52173
996.0 0.001004 381.07590 1067.31396
1232.0 0.000812 381.08032 1248.30164
1208.0 0.000828 381.08441 1212.92383
987.0 0.001013 381.08829 952.24994
759.0 0.001318 381.09180 743.03711
653.0 0.001531 381.09506 658.55634
694.0 0.001441 381.09805 663.95660
798.0 0.001253 381.10074 749.64539
1006.0 0.000994 381.10309 951.06213
1258.0 0.000795 381.10519 1313.77100
1825.0 0.000548 381.10703 1872.55225
2594.0 0.000386 381.10858 2531.78589
2977.0 0.0003359 381.10980 2757.79639
2417.0 0.000414 381.11078 2216.43823
1577.0 0.000634 381.11142 1588.88306
1328.0 0.000753 381.11179 1365.46167
1432.0 0.000698 381.11194 1496.50928
1747.0 0.000572 381.11169 1734.14172
1896.0 0.000527 381.11118 1891.38379
2045.0 0.000489 381.11044 2002.31958
2010.0 0.000498 381.10934 1992.23328
1862.0 0.000537 381.10797 1781.74475
1713.0 0.000584 381.10638 1722.50232
1814.0 0.000551 381.10440 1844.54675
1793.0 0.000558 381.10220 1813.60852
1467.0 0.000682 381.09970 1480.37146
1075.0 0.000930 381.09689 1106.10938
866.0 0.001155 381.09375 872.61157
819.0 0.001221 381.09042 812.63776
872.0 0.001147 381.08670 881.49323
1042.0 0.000960 381.08279 1058.58240
1274.0 0.000785 381.07861 1275.17578
1440.0 0.000694 381.07404 1414.64282
1559.0 0.000641 381.06918 1499.73865
1561.0 0.000641 381.06412 1531.63489
1367.0 0.000732 381.05869 1338.37488
1135.0 0.000881 381.05301 1039.08130
988.0 0.001012 381.04700 903.46240
1074.0 0.000931 381.04074 984.31421
1359.0 0.000736 381.03415 1276.49805
1811.0 0.000552 381.02728 1768.66272
2417.0 0.000414 381.02020 2385.37817
2659.0 0.000376 381.01279 2620.72974
2210.0 0.000452 381.00507 2103.91431
1459.0 0.000685 380.99707 1396.65820
992.0 0.001008 380.98880 1015.61426
934.0 0.001071 380.98019 933.75250
977.0 0.001024 380.97134 1010.23920
1103.0 0.000907 380.96222 1155.31189
1287.0 0.000777 380.95279 1324.90125
1329.0 0.000752 380.94305 1337.66125
1136.0 0.000880 380.93301 1077.37061
774.0 0.001292 380.92270 787.88409
603.0 0.001658 380.91208 630.41101
522.0 0.001916 380.90115 569.74658
524.0 0.001908 380.89005 543.56128
513.0 0.001949 380.87857 510.79059
452.0 0.002212 380.86688 475.17865
458.0 0.002183 380.85483 454.92236
456.0 0.002193 380.84250 442.28790
424.0 0.002358 380.82983 435.47574
431.0 0.002320 380.81705 431.55484
433.0 0.002309 380.80386 428.35455
422.0 0.002370 380.79034 427.93402
420.0 0.002381 380.77661 428.55484
410.0 0.002439 380.76251 428.74893
452.0 0.002212 380.74820 434.09268
433.0 0.002309 380.73355 440.02420
461.0 0.002169 380.71872 449.02307
487.0 0.002053 380.70352 463.12555
508.0 0.001969 380.68808 488.27664
528.0 0.001894 380.67224 536.01459
633.0 0.001580 380.65625 632.41119
817.0 0.001224 380.63983 807.27136
1110.0 0.000901 380.62326 1082.99780
1543.0 0.000648 380.60629 1433.39648
1790.0 0.000559 380.58920 1611.44238
1593.0 0.000628 380.57166 1377.42737
1091.0 0.000917 380.55392 984.41046
778.0 0.001285 380.53583 744.51306
646.0 0.001548 380.51755 672.49121
752.0 0.001330 380.49893 713.01227
868.0 0.001152 380.47995 832.60236
1052.0 0.000951 380.46085 1004.53217
1217.0 0.000822 380.44131 1106.31641
1194.0 0.000838 380.42163 1024.23743
1017.0 0.000983 380.40149 898.20673
1014.0 0.000986 380.38116 923.66504
1173.0 0.000853 380.36057 1146.70862
1511.0 0.000662 380.33966 1547.02441
1997.0 0.000501 380.31848 2002.12048
2194.0 0.000456 380.29709 2090.69312
1756.0 0.000569 380.27527 1623.68896
1183.0 0.000845 380.25323 1129.21472
899.0 0.001112 380.23093 901.27081
874.0 0.001144 380.20834 895.53448
1013.0 0.000987 380.18546 1011.85956
1158.0 0.000864 380.16232 1179.11035
1280.0 0.000781 380.13889 1364.38367
1393.0 0.000718 380.11511 1410.60498
1316.0 0.000760 380.09116 1227.34473
1134.0 0.000882 380.06689 1066.90149
1093.0 0.000915 380.04233 1076.03223
1204.0 0.000831 380.01746 1156.34424
1213.0 0.000824 379.99228 1182.12341
1236.0 0.000809 379.96686 1193.57166
1228.0 0.000814 379.94116 1156.65491
1042.0 0.000960 379.91525 983.33453
826.0 0.001211 379.88898 791.77344
684.0 0.001462 379.86243 710.51465
677.0 0.001477 379.83560 725.69360
749.0 0.001335 379.80856 770.69434
800.0 0.001250 379.78113 791.76727
854.0 0.001171 379.75348 824.92474
886.0 0.001129 379.72552 873.88654
859.0 0.001164 379.69742 885.54236
875.0 0.001143 379.66888 895.22046
866.0 0.001155 379.64011 901.64435
788.0 0.001269 379.61105 807.51129
646.0 0.001548 379.58176 652.91821
523.0 0.001912 379.55215 551.01532
504.0 0.001984 379.52228 508.19193
521.0 0.001919 379.49216 512.13501
575.0 0.001739 379.46170 545.48975
584.0 0.001712 379.43103 601.29846
613.0 0.001631 379.40002 649.41620
634.0 0.001577 379.36880 639.65106
590.0 0.001695 379.33725 592.62805
625.0 0.001600 379.30539 588.76550
704.0 0.001420 379.27335 662.87561
818.0 0.001222 379.24097 831.38647
1067.0 0.000937 379.20831 1085.73950
1299.0 0.000770 379.17545 1328.72302
1249.0 0.000801 379.14227 1310.42139
959.0 0.001043 379.10880 1006.65765
724.0 0.001381 379.07504 737.35382
592.0 0.001689 379.04108 612.33752
580.0 0.001724 379.00684 597.07672
653.0 0.001531 378.97229 649.24030
709.0 0.001410 378.93747 748.59021
779.0 0.001284 378.90234 863.95416
846.0 0.001182 378.86700 877.49158
717.0 0.001395 378.83139 734.18677
571.0 0.001751 378.79547 580.14404
498.0 0.002008 378.75931 492.56839
442.0 0.002262 378.72281 454.98026
394.0 0.002538 378.68613 437.43100
388.0 0.002577 378.64908 425.02353
395.0 0.002532 378.61191 419.81729
396.0 0.002525 378.57431 414.58618
380.0 0.002632 378.53659 411.89200
389.0 0.002571 378.49854 410.89743
402.0 0.002488 378.46021 411.25403
395.0 0.002532 378.42157 413.03134
399.0 0.002506 378.38266 416.77606
395.0 0.002532 378.34354 424.04651
409.0 0.002445 378.30420 440.43616
455.0 0.002198 378.26456 469.37173
510.0 0.001961 378.22455 520.84882
599.0 0.001669 378.18436 598.40662
668.0 0.001497 378.14389 684.78809
689.0 0.001451 378.10318 729.88849
698.0 0.001433 378.06216 705.20996
654.0 0.001529 378.02097 663.53613
657.0 0.001522 377.97940 655.37799
615.0 0.001626 377.93765 644.56671
563.0 0.001776 377.89560 601.82544
557.0 0.001795 377.85330 577.09668
551.0 0.001815 377.81067 589.24109
591.0 0.001692 377.76782 608.59369
610.0 0.001639 377.72479 603.49567
552.0 0.001812 377.68143 584.40179
565.0 0.001770 377.63776 583.58789
561.0 0.001783 377.59387 594.00867
617.0 0.001621 377.54971 593.40045
642.0 0.001558 377.50531 607.67279
701.0 0.001427 377.46072 681.32379
941.0 0.001063 377.41574 865.85199
1182.0 0.000846 377.37054 1230.47461
1710.0 0.000585 377.32504 1799.84277
2429.0 0.000412 377.27942 2482.97754
2855.0 0.0003503 377.23346 2765.85986
2292.0 0.000436 377.18719 2227.00366
1372.0 0.000729 377.14075 1454.32666
892.0 0.001121 377.09399 993.20087
774.0 0.001292 377.04703 838.30725
767.0 0.001304 376.99985 888.65607
986.0 0.001014 376.95233 1088.33191
1308.0 0.000765 376.90448 1398.79736
1552.0 0.000644 376.85654 1622.17395
1450.0 0.000690 376.80829 1470.36401
1053.0 0.000950 376.75974 1060.38684
708.0 0.001412 376.71094 751.52838
535.0 0.001869 376.66199 597.22577
500.0 0.002000 376.61267 532.75745
467.0 0.002141 376.56317 507.46262
469.0 0.002132 376.51343 504.99326
520.0 0.001923 376.46341 527.99420
564.0 0.001773 376.41302 573.43292
603.0 0.001658 376.36249 638.70062
647.0 0.001546 376.31174 686.41699
613.0 0.001631 376.26071 668.29932
588.0 0.001701 376.20944 626.85870
613.0 0.001631 376.15787 629.75623
663.0 0.001508 376.10608 672.51044
711.0 0.001406 376.05417 692.25500
659.0 0.001517 376.00186 651.56470
622.0 0.001608 375.94931 610.54230
615.0 0.001626 375.89648 601.32928
554.0 0.001805 375.84351 591.33801
505.0 0.001980 375.79022 567.59125
538.0 0.001859 375.73672 557.24756
596.0 0.001678 375.68298 581.72229
612.0 0.001634 375.62900 613.43268
616.0 0.001623 375.57474 623.14508
664.0 0.001506 375.52026 631.20050
746.0 0.001340 375.46558 694.80585
899.0 0.001112 375.41058 870.06171
1229.0 0.000814 375.35532 1235.29358
1894.0 0.000528 375.29990 1828.34009
2743.0 0.000365 375.24417 2580.83301
3077.0 0.0003250 375.18826 3000.90405
2537.0 0.000394 375.13208 2533.50562
1633.0 0.000612 375.07562 1670.56409
1032.0 0.000969 375.01898 1102.64136
810.0 0.001235 374.96207 879.38702
845.0 0.001183 374.90494 890.42413
1013.0 0.000987 374.84760 1073.67175
1343.0 0.000745 374.78995 1386.95190
1647.0 0.000607 374.73209 1691.40173
1635.0 0.000612 374.67401 1653.57263
1290.0 0.000775 374.61569 1235.59546
815.0 0.001227 374.55716 847.42914
571.0 0.001751 374.49835 632.78284
497.0 0.002012 374.43930 535.91888
437.0 0.002288 374.38007 490.69952
434.0 0.002304 374.32059 464.83865
441.0 0.002268 374.26086 448.49203
380.0 0.002632 374.20087 437.35858
422.0 0.002370 374.14069 429.46631
400.0 0.002500 374.08032 424.48987
456.0 0.002193 374.01959 421.80026
426.0 0.002347 373.95871 421.59229
392.0 0.002551 373.89761 425.20258
438.0 0.002283 373.83627 435.72879
452.0 0.002212 373.77469 465.13971
515.0 0.001942 373.71286 515.81268
602.0 0.001661 373.65085 593.42535
709.0 0.001410 373.58853 678.49060
750.0 0.001333 373.52600 698.38391
638.0 0.001567 373.46335 615.97253
514.0 0.001946 373.40045 516.91656
447.0 0.002237 373.33722 463.21332
492.0 0.002033 373.27377 446.08206
446.0 0.002242 373.21021 455.53668
444.0 0.002252 373.14636 482.46274
497.0 0.002012 373.08234 523.16608
548.0 0.001825 373.01801 555.24286
547.0 0.001828 372.95352 540.36951
516.0 0.001938 372.88876 487.35770
480.0 0.002083 372.82382 453.07584
448.0 0.002232 372.75861 436.65198
434.0 0.002304 372.69330 435.21381
451.0 0.002217 372.62766 444.69315
459.0 0.002179 372.56177 464.77008
475.0 0.002105 372.49576 493.90396
518.0 0.001931 372.42947 521.37909
518.0 0.001931 372.36295 525.37073
513.0 0.001949 372.29626 507.51559
513.0 0.001949 372.22931 499.36728
510.0 0.001961 372.16214 509.37964
540.0 0.001852 372.09491 540.67548
625.0 0.001600 372.02725 604.43555
789.0 0.001267 371.95947 731.93793
983.0 0.001017 371.89145 977.58002
1338.0 0.000747 371.82327 1380.47205
1805.0 0.000554 371.75482 1850.23108
2204.0 0.000454 371.68613 2261.18433
2139.0 0.000468 371.61734 2173.67188
1823.0 0.000549 371.54822 1698.89563
1555.0 0.000643 371.47897 1473.21545
1579.0 0.000633 371.40948 1601.67407
1925.0 0.000519 371.33978 1920.85046
2135.0 0.000468 371.26984 2182.40308
2124.0 0.000471 371.19977 2041.25964
1871.0 0.000534 371.12943 1823.24805
1651.0 0.000606 371.05899 1699.05530
1465.0 0.000683 370.98816 1429.65051
1212.0 0.000825 370.91721 1189.48254
1164.0 0.000859 370.84607 1188.77271
1415.0 0.000707 370.77469 1422.17834
1712.0 0.000584 370.70322 1780.90222
1995.0 0.000501 370.63141 2010.80811
1982.0 0.000505 370.55945 1897.65491
1411.0 0.000709 370.48724 1450.91553
1006.0 0.000994 370.41495 1035.64587
812.0 0.001232 370.34232 823.56799
750.0 0.001333 370.26959 786.76221
819.0 0.001221 370.19659 869.32648
1043.0 0.000959 370.12341 1023.05927
1171.0 0.000854 370.05008 1157.75024
1174.0 0.000852 369.97650 1166.19678
1044.0 0.000958 369.90271 1049.10645
843.0 0.001186 369.82874 826.75067
656.0 0.001524 369.75458 656.58917
566.0 0.001767 369.68024 576.78363
541.0 0.001848 369.60568 564.39374
534.0 0.001873 369.53091 585.73523
578.0 0.001730 369.45596 608.59100
584.0 0.001712 369.38083 596.38257
559.0 0.001789 369.30554 535.32098
481.0 0.002079 369.23001 485.17990
449.0 0.002227 369.15430 461.66238
437.0 0.002288 369.07837 457.65875
451.0 0.002217 369.00226 467.95682
498.0 0.002008 368.92599 507.32800
537.0 0.001862 368.84949 588.70648
632.0 0.001582 368.77283 709.37543
800.0 0.001250 368.69589 838.01349
854.0 0.001171 368.61887 894.24396
745.0 0.001342 368.54169 771.33356
601.0 0.001664 368.46429 613.28729
510.0 0.001961 368.38666 519.92804
492.0 0.002033 368.30884 482.99170
492.0 0.002033 368.23080 490.96921
528.0 0.001894 368.15268 532.80005
587.0 0.001704 368.07434 600.36548
651.0 0.001536 367.99588 677.43170
691.0 0.001447 367.91705 721.66730
695.0 0.001439 367.83823 705.67090
738.0 0.001355 367.75912 695.50787
749.0 0.001335 367.67984 691.58954
684.0 0.001462 367.60043 627.73340
577.0 0.001733 367.52078 540.09143
496.0 0.002016 367.44095 483.18219
445.0 0.002247 367.36099 460.34781
434.0 0.002304 367.28082 461.21405
483.0 0.002070 367.20059 480.59940
540.0 0.001852 367.12009 514.74615
574.0 0.001742 367.03937 553.76624
599.0 0.001669 366.95853 579.51086
582.0 0.001718 366.87750 573.60809
602.0 0.001661 366.79626 578.74835
677.0 0.001477 366.71484 644.13745
797.0 0.001255 366.63330 804.23065
1112.0 0.000899 366.55161 1056.95898
1487.0 0.000672 366.46973 1334.23364
1765.0 0.000567 366.38766 1502.60022
1612.0 0.000620 366.30539 1394.86462
1335.0 0.000749 366.22299 1314.52979
1397.0 0.000716 366.14041 1420.11829
1564.0 0.000639 366.05771 1604.76013
1507.0 0.000664 365.97473 1579.75439
1288.0 0.000776 365.89169 1307.59436
1103.0 0.000907 365.80844 1128.34937
1080.0 0.000926 365.72510 1090.57471
1166.0 0.000858 365.64145 1075.86462
1126.0 0.000888 365.55774 982.98669
971.0 0.001030 365.47382 959.20734
1021.0 0.000979 365.38974 1051.96216
1103.0 0.000907 365.30548 1180.21216
1143.0 0.000875 365.22113 1160.78857
1035.0 0.000966 365.13660 947.31488
760.0 0.001316 365.05182 721.11969
618.0 0.001618 364.96701 581.68427
515.0 0.001942 364.88196 520.35999
476.0 0.002101 364.79681 506.89209
518.0 0.001931 364.71143 520.84692
548.0 0.001825 364.62592 549.51361
596.0 0.001678 364.54028 567.60315
566.0 0.001767 364.45444 562.99738
534.0 0.001873 364.36847 526.69690
497.0 0.002012 364.28229 476.59549
452.0 0.002212 364.19604 443.85266
434.0 0.002304 364.10962 430.26257
410.0 0.002439 364.02304 429.45825
413.0 0.002421 363.93622 434.66290
433.0 0.002309 363.84937 438.60861
433.0 0.002309 363.76230 436.31204
427.0 0.002342 363.67511 428.52704
410.0 0.002439 363.58777 425.49994
429.0 0.002331 363.50037 429.63177
451.0 0.002217 363.41269 442.74045
487.0 0.002053 363.32486 469.12653
562.0 0.001779 363.23694 530.11963
675.0 0.001481 363.14883 639.87103
834.0 0.001199 363.06064 787.59821
928.0 0.001078 362.97229 925.36566
958.0 0.001044 362.88370 939.04187
828.0 0.001208 362.79504 789.70404
685.0 0.001460 362.70633 658.69141
681.0 0.001468 362.61737 619.05585
756.0 0.001323 362.52829 685.85529
872.0 0.001147 362.43903 875.33868
1137.0 0.000880 362.34958 1179.21582
1450.0 0.000690 362.26013 1503.21057
1571.0 0.000637 362.17050 1644.38831
1431.0 0.000699 362.08069 1382.31775
996.0 0.001004 361.99072 1000.95093
765.0 0.001307 361.90067 757.84711
647.0 0.001546 361.81052 675.84479
714.0 0.001401 361.72021 709.79724
839.0 0.001192 361.62973 820.73566
968.0 0.001033 361.53912 962.79651
1032.0 0.000969 361.44836 1050.09509
1001.0 0.000999 361.35751 1038.85730
920.0 0.001087 361.26651 878.34436
738.0 0.001355 361.17535 700.40637
559.0 0.001789 361.08414 586.26129
547.0 0.001828 360.99268 542.43109
521.0 0.001919 360.90118 548.34735
568.0 0.001761 360.80948 585.62842
653.0 0.001531 360.71774 642.35864
765.0 0.001307 360.62579 696.45551
788.0 0.001269 360.53381 748.60516
864.0 0.001157 360.44165 777.48743
788.0 0.001269 360.34940 750.80469
776.0 0.001289 360.25696 760.34424
810.0 0.001235 360.16440 848.01257
931.0 0.001074 360.07175 960.10229
923.0 0.001083 359.97900 983.73230
865.0 0.001156 359.88611 857.39587
706.0 0.001416 359.79303 750.24091
743.0 0.001346 359.69989 734.46124
806.0 0.001241 359.60660 799.60974
866.0 0.001155 359.51321 926.49872
1039.0 0.000962 359.41974 1120.19531
1284.0 0.000779 359.32608 1316.94885
1296.0 0.000772 359.23233 1326.92981
1104.0 0.000906 359.13843 1106.44897
849.0 0.001178 359.04446 838.99542
639.0 0.001565 358.95044 657.84387
550.0 0.001818 358.85623 579.43262
514.0 0.001946 358.76193 576.61346
555.0 0.001802 358.66745 632.76697
681.0 0.001468 358.57294 729.19800
814.0 0.001229 358.47824 828.01990
880.0 0.001136 358.38348 866.23926
901.0 0.001110 358.28860 852.97955
920.0 0.001087 358.19357 929.58282
1087.0 0.000920 358.09851 1103.84290
1302.0 0.000768 358.00330 1268.72498
1248.0 0.000801 357.90799 1213.21118
970.0 0.001031 357.81250 947.25220
715.0 0.001399 357.71707 739.35443
635.0 0.001575 357.62137 653.58954
640.0 0.001563 357.52567 649.10333
664.0 0.001506 357.42981 674.05054
659.0 0.001517 357.33383 703.81372
738.0 0.001355 357.23779 765.04932
815.0 0.001227 357.14160 834.47382
824.0 0.001214 357.04538 819.60260
688.0 0.001453 356.94901 687.07196
544.0 0.001838 356.85257 567.86151
537.0 0.001862 356.75592 509.64410
516.0 0.001938 356.65936 491.33740
480.0 0.002083 356.56256 482.69211
406.0 0.002463 356.46570 458.47473
398.0 0.002513 356.36877 431.65253
381.0 0.002625 356.27173 416.10480
392.0 0.002551 356.17459 412.99976
437.0 0.002288 356.07733 422.34134
470.0 0.002128 355.97995 448.54141
472.0 0.002119 355.88254 488.60410
523.0 0.001912 355.78503 525.33588
547.0 0.001828 355.68744 528.69495
526.0 0.001901 355.58975 484.00522
444.0 0.002252 355.49188 437.06186
405.0 0.002469 355.39404 408.69153
387.0 0.002584 355.29605 398.09970
356.0 0.002809 355.19803 398.23740
357.0 0.002801 355.09985 408.20782
413.0 0.002421 355.00159 426.81226
451.0 0.002217 354.90326 446.69672
451.0 0.002217 354.80484 454.74939
466.0 0.002146 354.70636 437.66504
418.0 0.002392 354.60782 414.25970
401.0 0.002494 354.50912 399.76395
393.0 0.002545 354.41034 394.86670
379.0 0.002639 354.31149 395.87854
377.0 0.002653 354.21259 401.32941
392.0 0.002551 354.11362 409.67542
427.0 0.002342 354.01453 427.58615
448.0 0.002232 353.91541 463.94168
555.0 0.001802 353.81613 539.04718
651.0 0.001536 353.71683 673.60406
810.0 0.001235 353.61743 852.87085
968.0 0.001033 353.51797 1006.25360
960.0 0.001042 353.41843 998.05396
810.0 0.001235 353.31876 829.27405
687.0 0.001456 353.21912 697.43536
649.0 0.001541 353.11938 651.05145
666.0 0.001502 353.01950 648.07208
662.0 0.001511 352.91956 634.58868
601.0 0.001664 352.81949 630.99298
637.0 0.001570 352.71945 672.74963
728.0 0.001374 352.61935 738.30096
746.0 0.001340 352.51913 759.98596
699.0 0.001431 352.41888 681.89758
600.0 0.001667 352.31848 592.01056
550.0 0.001818 352.21811 551.28485
592.0 0.001689 352.11768 549.80359
600.0 0.001667 352.01709 562.83813
609.0 0.001642 351.91644 594.48566
639.0 0.001565 351.81580 666.20422
725.0 0.001379 351.71503 754.44543
754.0 0.001326 351.61426 790.71796
664.0 0.001506 351.51331 699.75281
552.0 0.001812 351.41241 573.09119
467.0 0.002141 351.31140 490.43210
419.0 0.002387 351.21033 453.88055
440.0 0.002273 351.10928 447.56012
465.0 0.002151 351.00800 465.18259
487.0 0.002053 350.90677 505.73801
529.0 0.001890 350.80545 559.61108
579.0 0.001727 350.70413 602.17340
600.0 0.001667 350.60278 593.18756
552.0 0.001812 350.50119 556.52582
578.0 0.001730 350.39969 554.12415
569.0 0.001757 350.29810 596.30603
648.0 0.001543 350.19653 665.95520
722.0 0.001385 350.09482 730.85535
777.0 0.001287 349.99304 780.04517
849.0 0.001178 349.89117 838.44580
876.0 0.001142 349.78931 873.50983
849.0 0.001178 349.68747 883.01709
912.0 0.001096 349.58551 932.09644
989.0 0.001011 349.48346 985.57910
934.0 0.001071 349.38150 927.95007
798.0 0.001253 349.27936 802.80164
728.0 0.001374 349.17715 726.06500
667.0 0.001499 349.07501 702.52728
738.0 0.001355 348.97275 720.89453
774.0 0.001292 348.87048 755.11200
776.0 0.001289 348.76813 768.45172
839.0 0.001192 348.66580 804.02521
993.0 0.001007 348.56329 904.49963
1141.0 0.000876 348.46088 1053.40369
1358.0 0.000736 348.35834 1213.02417
1526.0 0.000655 348.25571 1375.69971
1575.0 0.000635 348.15314 1419.99463
1519.0 0.000658 348.05060 1311.48474
1267.0 0.000789 347.94781 1179.72852
990.0 0.001010 347.84515 982.10211
754.0 0.001326 347.74237 781.73804
648.0 0.001543 347.63959 672.52338
715.0 0.001399 347.53683 664.56244
793.0 0.001261 347.43390 739.06049
905.0 0.001105 347.33099 858.23657
1035.0 0.000966 347.22809 963.07080
1024.0 0.000977 347.12509 988.73761
997.0 0.001003 347.02206 995.97375
1014.0 0.000986 346.91910 1005.07294
959.0 0.001043 346.81595 981.39270
865.0 0.001156 346.71286 954.40094
794.0 0.001259 346.60971 877.16412
706.0 0.001416 346.50656 762.44116
670.0 0.001493 346.40335 714.97522
720.0 0.001389 346.30011 755.99268
821.0 0.001218 346.19684 839.99426
871.0 0.001148 346.09351 893.20062
801.0 0.001248 345.99026 864.05084
733.0 0.001364 345.88690 795.71692
684.0 0.001462 345.78348 755.26471
672.0 0.001488 345.68011 736.09692
625.0 0.001600 345.57678 703.88873
655.0 0.001527 345.47333 706.21857
757.0 0.001321 345.36990 805.02869
1028.0 0.000973 345.26636 1039.01392
1329.0 0.000752 345.16278 1402.83923
1659.0 0.000603 345.05933 1785.99084
1881.0 0.000532 344.95581 1977.05579
1736.0 0.000576 344.85220 1787.52673
1377.0 0.000726 344.74863 1392.72693
979.0 0.001021 344.64496 1019.42426
733.0 0.001364 344.54135 774.47083
620.0 0.001613 344.43774 666.52759
631.0 0.001585 344.33405 665.66455
717.0 0.001395 344.23038 758.82666
888.0 0.001126 344.12668 924.17139
1059.0 0.000944 344.02301 1090.21460
1124.0 0.000890 343.91922 1128.89417
1017.0 0.000983 343.81552 989.56635
818.0 0.001222 343.71170 796.98889
630.0 0.001587 343.60788 634.08405
556.0 0.001799 343.50421 538.71375
488.0 0.002049 343.40039 499.97726
481.0 0.002079 343.29660 504.42114
501.0 0.001996 343.19281 551.40515
621.0 0.001610 343.08896 638.55054
683.0 0.001464 342.98508 731.54980
746.0 0.001340 342.88138 761.91333
661.0 0.001513 342.77750 674.30054
580.0 0.001724 342.67365 560.54272
486.0 0.002058 342.56976 488.78760
461.0 0.002169 342.46594 459.84000
474.0 0.002110 342.36206 461.89850
559.0 0.001789 342.25824 496.28406
601.0 0.001664 342.15430 577.09406
746.0 0.001340 342.05035 715.16656
911.0 0.001098 341.94653 880.61688
1032.0 0.000969 341.84271 979.47388
994.0 0.001006 341.73877 913.93634
756.0 0.001323 341.63489 728.23108
551.0 0.001815 341.53101 571.63458
480.0 0.002083 341.42712 483.69910
466.0 0.002146 341.32324 447.06531
446.0 0.002242 341.21936 441.83127
485.0 0.002062 341.11551 461.38409
530.0 0.001887 341.01166 507.25314
579.0 0.001727 340.90768 566.91748
600.0 0.001667 340.80392 604.54156
577.0 0.001733 340.70007 575.59137
532.0 0.001880 340.59625 508.93436
474.0 0.002110 340.49237 466.12088
483.0 0.002070 340.38855 463.58533
501.0 0.001996 340.28464 505.12405
549.0 0.001821 340.18085 584.85669
640.0 0.001563 340.07709 669.06567
671.0 0.001490 339.97327 694.28894
609.0 0.001642 339.86948 613.80939
500.0 0.002000 339.76572 510.30560
426.0 0.002347 339.66187 443.54333
400.0 0.002500 339.55804 412.04132
432.0 0.002315 339.45435 403.87506
428.0 0.002336 339.35062 412.83655
434.0 0.002304 339.24695 440.12695
464.0 0.002155 339.14319 482.43463
511.0 0.001957 339.03958 520.04944
488.0 0.002049 338.93582 518.70300
460.0 0.002174 338.83221 470.66794
438.0 0.002283 338.72858 423.00217
390.0 0.002564 338.62497 393.78143
363.0 0.002755 338.52130 380.40366
370.0 0.002703 338.41776 375.16464
347.0 0.002882 338.31421 373.73489
362.0 0.002762 338.21069 374.44620
366.0 0.002732 338.10709 376.94177
357.0 0.002801 338.00357 381.39468
349.0 0.002865 337.90009 388.61273
383.0 0.002611 337.79660 399.68994
405.0 0.002469 337.69321 418.17310
467.0 0.002141 337.58978 453.05704
523.0 0.001912 337.48636 524.29309
640.0 0.001563 337.38297 657.13879
801.0 0.001248 337.27975 856.69989
1008.0 0.000992 337.17642 1062.97534
1100.0 0.000909 337.07312 1154.07788
1000.0 0.001000 336.96985 1065.87939
935.0 0.001070 336.86658 938.71155
815.0 0.001227 336.76343 839.93097
676.0 0.001479 336.66025 717.63409
607.0 0.001647 336.55707 607.39990
511.0 0.001957 336.45392 561.32910
578.0 0.001730 336.35086 586.43988
609.0 0.001642 336.24777 664.88947
744.0 0.001344 336.14481 749.98364
744.0 0.001344 336.04184 770.42535
680.0 0.001471 335.93887 710.80463
641.0 0.001560 335.83585 644.24097
589.0 0.001698 335.73303 589.65472
535.0 0.001869 335.63019 520.54944
451.0 0.002217 335.52734 458.55176
404.0 0.002475 335.42459 419.82974
385.0 0.002597 335.32178 400.23239
377.0 0.002653 335.21909 392.19302
389.0 0.002571 335.11646 391.95294
413.0 0.002421 335.01376 398.63651
425.0 0.002353 334.91116 417.88681
440.0 0.002273 334.80865 458.81857
506.0 0.001976 334.70609 524.01471
601.0 0.001664 334.60364 591.29663
628.0 0.001592 334.50122 613.18787
578.0 0.001730 334.39880 555.77887
490.0 0.002041 334.29642 480.50208
432.0 0.002315 334.19412 431.99744
406.0 0.002463 334.09183 411.26514
424.0 0.002358 333.98972 410.61771
409.0 0.002445 333.88742 419.91895
417.0 0.002398 333.78525 440.12982
452.0 0.002212 333.68323 472.53326
507.0 0.001972 333.58115 507.22119
505.0 0.001980 333.47922 520.46838
497.0 0.002012 333.37726 499.75296
490.0 0.002041 333.27530 480.29486
524.0 0.001908 333.17349 490.06241
552.0 0.001812 333.07172 547.26556
672.0 0.001488 332.96988 674.69000
851.0 0.001175 332.86819 881.71576
1039.0 0.000962 332.76651 1103.72766
1070.0 0.000935 332.66501 1195.13159
945.0 0.001058 332.56345 1036.40906
778.0 0.001285 332.46191 805.44684
663.0 0.001508 332.36041 657.13904
619.0 0.001616 332.25906 601.57062
694.0 0.001441 332.15775 617.17609
697.0 0.001435 332.05646 711.04663
889.0 0.001125 331.95523 923.51263
1133.0 0.000883 331.85400 1258.09436
1459.0 0.000685 331.75290 1587.00061
1527.0 0.000655 331.65182 1659.30737
1350.0 0.000741 331.55081 1364.38245
951.0 0.001052 331.44989 1017.28180
801.0 0.001248 331.34903 800.49451
704.0 0.001420 331.24811 685.43744
623.0 0.001605 331.14734 619.98083
626.0 0.001597 331.04666 604.98688
617.0 0.001621 330.94595 654.92645
722.0 0.001385 330.84537 765.18982
898.0 0.001114 330.74484 885.33649
865.0 0.001156 330.64438 921.02936
833.0 0.001200 330.54395 832.14771
733.0 0.001364 330.44370 715.48029
653.0 0.001531 330.34335 637.75934
618.0 0.001618 330.24310 605.70850
615.0 0.001626 330.14294 616.42999
683.0 0.001464 330.04291 698.27124
904.0 0.001106 329.94284 894.64276
1177.0 0.000850 329.84290 1220.87683
1459.0 0.000685 329.74298 1576.31824
1624.0 0.000616 329.64319 1724.37537
1480.0 0.000676 329.54337 1489.00793
1098.0 0.000911 329.44370 1108.40991
804.0 0.001244 329.34402 816.01660
659.0 0.001517 329.24451 661.39880
618.0 0.001618 329.14508 611.27332
682.0 0.001466 329.04559 639.41766
773.0 0.001294 328.94623 747.52509
872.0 0.001147 328.84698 933.01154
1035.0 0.000966 328.74774 1130.39111
1110.0 0.000901 328.64868 1201.34949
1054.0 0.000949 328.54959 1060.57422
899.0 0.001112 328.45065 854.12708
758.0 0.001319 328.35162 714.15613
691.0 0.001447 328.25284 673.84155
730.0 0.001370 328.15408 726.21265
857.0 0.001167 328.05539 855.30170
1046.0 0.000956 327.95679 1017.91956
1142.0 0.000876 327.85818 1136.28589
1203.0 0.000831 327.75977 1189.13000
1358.0 0.000736 327.66138 1318.03662
1724.0 0.000580 327.56308 1703.35669
2302.0 0.000434 327.46481 2363.18530
2944.0 0.0003397 327.36667 2991.15405
3005.0 0.0003328 327.26855 3033.58813
2367.0 0.000422 327.17059 2363.58008
1702.0 0.000588 327.07266 1678.90063
1262.0 0.000792 326.97488 1284.79553
1109.0 0.000902 326.87708 1098.50818
1014.0 0.000986 326.77939 988.02332
1004.0 0.000996 326.68173 958.06384
1067.0 0.000937 326.58432 1081.63269
1263.0 0.000792 326.48688 1365.62000
1541.0 0.000649 326.38953 1671.86438
1736.0 0.000576 326.29224 1731.82654
1477.0 0.000677 326.19504 1404.61902
1019.0 0.000981 326.09799 1008.83160
742.0 0.001348 326.00101 743.03589
625.0 0.001600 325.90402 601.25897
545.0 0.001835 325.80719 524.86053
473.0 0.002114 325.71045 475.42270
423.0 0.002364 325.61383 444.64148
430.0 0.002326 325.51721 424.64063
417.0 0.002398 325.42068 410.43402
406.0 0.002463 325.32425 400.05408
408.0 0.002451 325.22794 392.74698
426.0 0.002347 325.13181 388.62082
420.0 0.002381 325.03561 385.40408
417.0 0.002398 324.93954 383.63516
406.0 0.002463 324.84360 383.37842
408.0 0.002451 324.74774 383.67279
389.0 0.002571 324.65198 387.17664
411.0 0.002433 324.55621 393.95758
445.0 0.002247 324.46063 406.48480
495.0 0.002020 324.36514 431.31201
534.0 0.001873 324.26981 481.84244
622.0 0.001608 324.17444 576.20807
760.0 0.001316 324.07922 717.24646
911.0 0.001098 323.98407 856.20081
971.0 0.001030 323.88901 893.53644
880.0 0.001136 323.79410 787.80133
722.0 0.001385 323.69931 652.23016
632.0 0.001582 323.60455 573.14313
595.0 0.001681 323.50992 553.70642
579.0 0.001727 323.41531 565.25690
609.0 0.001642 323.32083 580.49866
680.0 0.001471 323.22656 621.90228
769.0 0.001300 323.13217 702.17963
847.0 0.001181 323.03812 811.69995
970.0 0.001031 322.94403 920.63947
973.0 0.001028 322.85004 965.58569
910.0 0.001099 322.75616 917.06146
821.0 0.001218 322.66238 795.70074
729.0 0.001372 322.56873 701.36176
717.0 0.001395 322.47513 690.89764
818.0 0.001222 322.38171 778.02740
984.0 0.001016 322.28842 986.16663
1233.0 0.000811 322.19510 1289.42065
1449.0 0.000690 322.10187 1539.89575
1411.0 0.000709 322.00888 1518.65369
1152.0 0.000868 321.91586 1247.14197
877.0 0.001140 321.82306 948.94757
678.0 0.001475 321.73029 719.90033
598.0 0.001672 321.63770 590.79150
587.0 0.001704 321.54510 544.96844
525.0 0.001905 321.45276 570.05988
621.0 0.001610 321.36038 669.95160
745.0 0.001342 321.26813 829.34198
847.0 0.001181 321.17606 942.13562
851.0 0.001175 321.08408 857.72180
760.0 0.001316 320.99219 676.63153
603.0 0.001658 320.90039 535.73761
492.0 0.002033 320.80869 457.75497
412.0 0.002427 320.71707 422.54257
409.0 0.002445 320.62567 401.35352
414.0 0.002415 320.53424 384.34360
353.0 0.002833 320.44308 372.20660
410.0 0.002439 320.35190 364.13049
386.0 0.002591 320.26083 359.03275
384.0 0.002604 320.16995 355.32916
357.0 0.002801 320.07913 352.96805
384.0 0.002604 319.98840 353.60364
387.0 0.002584 319.89789 358.01849
410.0 0.002439 319.80737 368.11777
431.0 0.002320 319.71698 384.84467
432.0 0.002315 319.62683 403.31061
449.0 0.002227 319.53662 412.24503
447.0 0.002237 319.44669 397.79428
410.0 0.002439 319.35672 375.38644
403.0 0.002481 319.26697 359.07053
385.0 0.002597 319.17722 350.52060
376.0 0.002660 319.08768 347.04083
380.0 0.002632 318.99820 346.21088
371.0 0.002695 318.90894 348.84570
396.0 0.002525 318.81964 355.21860
387.0 0.002584 318.73062 365.59961
409.0 0.002445 318.64157 375.89395
398.0 0.002513 318.55280 376.80688
400.0 0.002500 318.46402 369.16852
391.0 0.002558 318.37540 362.65936
384.0 0.002604 318.28687 359.07938
388.0 0.002577 318.19843 361.96518
423.0 0.002364 318.11014 369.04736
427.0 0.002342 318.02197 382.28998
452.0 0.002212 317.93399 404.89395
482.0 0.002075 317.84607 448.22131
520.0 0.001923 317.75830 525.55463
617.0 0.001621 317.67056 646.98871
718.0 0.001393 317.58304 784.06049
805.0 0.001242 317.49557 819.66156
768.0 0.001302 317.40826 719.48627
665.0 0.001504 317.32108 616.54730
640.0 0.001563 317.23401 584.19696
657.0 0.001522 317.14703 649.05640
748.0 0.001337 317.06021 828.47467
956.0 0.001046 316.97354 1100.91931
1169.0 0.000855 316.88690 1307.99097
1193.0 0.000838 316.80048 1232.55859
1045.0 0.000957 316.71414 1027.98865
908.0 0.001101 316.62796 864.65857
765.0 0.001307 316.54187 721.16193
625.0 0.001600 316.45590 605.29517
579.0 0.001727 316.37000 540.34357
578.0 0.001730 316.28421 532.07745
589.0 0.001698 316.19873 585.40509
649.0 0.001541 316.11325 705.18134
764.0 0.001309 316.02792 862.13513
872.0 0.001147 315.94278 944.61188
921.0 0.001086 315.85764 893.69568
881.0 0.001135 315.77267 785.59033
751.0 0.001332 315.68787 684.83148
647.0 0.001546 315.60318 654.05658
688.0 0.001453 315.51862 694.63452
785.0 0.001274 315.43417 750.57715
754.0 0.001326 315.34985 755.65045
785.0 0.001274 315.26566 699.82898
698.0 0.001433 315.18164 613.18915
586.0 0.001706 315.09775 555.61774
559.0 0.001789 315.01392 544.98627
585.0 0.001709 314.93024 553.58264
584.0 0.001712 314.84665 554.21295
598.0 0.001672 314.76337 564.61255
644.0 0.001553 314.68002 618.66956
710.0 0.001408 314.59689 735.11597
853.0 0.001172 314.51389 914.16620
1093.0 0.000915 314.43109 1148.75439
1334.0 0.000750 314.34830 1361.39673
1478.0 0.000677 314.26566 1390.82642
1343.0 0.000745 314.18317 1290.97461
1210.0 0.000826 314.10077 1136.75635
1029.0 0.000972 314.01859 912.17529
797.0 0.001255 313.93655 719.92334
635.0 0.001575 313.85458 608.53711
566.0 0.001767 313.77271 570.38416
595.0 0.001681 313.69107 594.05865
664.0 0.001506 313.60950 677.34650
765.0 0.001307 313.52808 809.32880
896.0 0.001116 313.44681 923.09259
1024.0 0.000977 313.36569 953.30194
1036.0 0.000965 313.28470 961.20886
1064.0 0.000940 313.20386 983.83459
1070.0 0.000935 313.12308 1079.68677
1209.0 0.000827 313.04248 1316.20581
1442.0 0.000693 312.96194 1589.06335
1518.0 0.000659 312.88162 1584.82483
1359.0 0.000736 312.80145 1306.25476
1149.0 0.000870 312.72144 1072.75781
1043.0 0.000959 312.64151 1038.93994
1120.0 0.000893 312.56171 1258.33105
1493.0 0.000670 312.48206 1722.71973
2068.0 0.000484 312.40259 2247.69897
2327.0 0.000430 312.32318 2353.62256
2123.0 0.000471 312.24402 1989.84119
1716.0 0.000583 312.16492 1641.34241
1467.0 0.000682 312.08591 1437.76636
1265.0 0.000791 312.00717 1231.55505
1127.0 0.000887 311.92850 1049.01855
1011.0 0.000989 311.84998 1009.60535
1112.0 0.000899 311.77148 1164.35364
1417.0 0.000706 311.69327 1488.02344
1660.0 0.000602 311.61520 1795.70068
1881.0 0.000532 311.53717 1850.13147
1786.0 0.000560 311.45938 1577.56738
1403.0 0.000713 311.38165 1164.05225
1008.0 0.000992 311.30414 846.14496
760.0 0.001316 311.22672 669.82733
699.0 0.001431 311.14948 602.08020
693.0 0.001443 311.07230 606.18805
738.0 0.001355 310.99533 665.58807
851.0 0.001175 310.91846 752.12958
886.0 0.001129 310.84180 841.95715
959.0 0.001043 310.76523 869.77087
902.0 0.001109 310.68875 811.90894
797.0 0.001255 310.61255 708.08435
714.0 0.001401 310.53635 586.99628
561.0 0.001783 310.46042 495.36035
513.0 0.001949 310.38455 443.49991
470.0 0.002128 310.30884 421.51450
466.0 0.002146 310.23328 418.75833
459.0 0.002179 310.15790 422.95331
449.0 0.002227 310.08261 421.74442
506.0 0.001976 310.00745 421.31436
470.0 0.002128 309.93250 432.36633
450.0 0.002222 309.85773 446.66895
470.0 0.002128 309.78296 435.87946
475.0 0.002105 309.70844 405.90002
442.0 0.002262 309.63397 378.22086
391.0 0.002558 309.55975 360.54294
348.0 0.002874 309.48560 351.13525
353.0 0.002833 309.41168 346.49121
364.0 0.002747 309.33786 344.21213
360.0 0.002778 309.26413 340.03073
348.0 0.002874 309.19064 340.13965
373.0 0.002681 309.11725 340.97809
351.0 0.002849 309.04407 342.65457
353.0 0.002833 308.97098 344.39624
377.0 0.002653 308.89804 348.49246
392.0 0.002551 308.82523 354.81592
387.0 0.002584 308.75250 365.48260
378.0 0.002646 308.68002 384.95197
409.0 0.002445 308.60770 419.62973
464.0 0.002155 308.53549 473.02777
543.0 0.001842 308.46347 530.35590
574.0 0.001742 308.39151 559.67542
610.0 0.001639 308.31970 562.03949
644.0 0.001553 308.24811 598.36169
712.0 0.001404 308.17670 705.41748
833.0 0.001200 308.10535 873.53046
1012.0 0.000988 308.03418 1021.69293
1162.0 0.000861 307.96313 1115.86426
1203.0 0.000831 307.89230 1136.70239
1173.0 0.000853 307.82159 1001.91095
993.0 0.001007 307.75095 825.78149
780.0 0.001282 307.68054 718.69928
660.0 0.001515 307.61026 663.91895
665.0 0.001504 307.54007 618.42224
651.0 0.001536 307.47015 586.70428
653.0 0.001531 307.40039 599.14490
647.0 0.001546 307.33069 654.73834
721.0 0.001387 307.26108 709.71173
739.0 0.001353 307.19174 746.15588
801.0 0.001248 307.12247 749.53998
768.0 0.001302 307.05344 681.49298
752.0 0.001330 306.98450 602.50934
677.0 0.001477 306.91574 559.56750
589.0 0.001698 306.84711 529.42175
519.0 0.001927 306.77859 482.83224
483.0 0.002070 306.71030 431.13565
431.0 0.002320 306.64212 392.49841
388.0 0.002577 306.57410 369.55112
392.0 0.002551 306.50620 358.00302
366.0 0.002732 306.43854 353.57611
379.0 0.002639 306.37094 354.02774
396.0 0.002525 306.30350 358.56561
365.0 0.002740 306.23624 367.44891
363.0 0.002755 306.16919 377.90082
401.0 0.002494 306.10217 379.08252
456.0 0.002193 306.03537 368.28244
426.0 0.002347 305.96872 356.82138
376.0 0.002660 305.90213 350.36398
363.0 0.002755 305.83585 349.11154
390.0 0.002564 305.76965 352.03864
376.0 0.002660 305.70355 358.52655
415.0 0.002410 305.63763 368.94955
438.0 0.002283 305.57190 387.80081
475.0 0.002105 305.50638 422.00421
507.0 0.001972 305.44092 492.21631
617.0 0.001621 305.37558 624.30603
724.0 0.001381 305.31049 826.10974
852.0 0.001174 305.24542 1025.74268
919.0 0.001088 305.18066 1036.36682
819.0 0.001221 305.11600 846.67041
667.0 0.001499 305.05142 645.40533
529.0 0.001890 304.98709 515.49133
474.0 0.002110 304.92276 453.84354
440.0 0.002273 304.85873 439.95081
449.0 0.002227 304.79489 459.99219
528.0 0.001894 304.73111 509.49194
615.0 0.001626 304.66745 577.28662
655.0 0.001527 304.60400 651.51642
692.0 0.001445 304.54071 721.50940
682.0 0.001466 304.47760 713.83832
593.0 0.001686 304.41461 609.93750
530.0 0.001887 304.35172 499.02240
468.0 0.002137 304.28903 424.97018
418.0 0.002392 304.22647 386.09042
416.0 0.002404 304.16415 371.00671
396.0 0.002525 304.10193 370.42944
407.0 0.002457 304.03986 377.45331
395.0 0.002532 303.97787 381.04614
403.0 0.002481 303.91614 370.93622
423.0 0.002364 303.85455 355.47293
422.0 0.002370 303.79312 343.29150
386.0 0.002591 303.73181 336.24155
336.0 0.002976 303.67059 333.04929
335.0 0.002985 303.60965 332.17017
357.0 0.002801 303.54880 332.69562
337.0 0.002967 303.48810 334.53934
360.0 0.002778 303.42752 337.84409
352.0 0.002841 303.36725 343.11581
368.0 0.002717 303.30692 351.63919
384.0 0.002604 303.24692 365.96677
424.0 0.002358 303.18698 390.22516
428.0 0.002336 303.12723 432.15363
520.0 0.001923 303.06760 503.55530
580.0 0.001724 303.00818 621.18201
713.0 0.001403 302.94885 790.47253
861.0 0.001161 302.88977 937.74976
905.0 0.001105 302.83072 907.82776
804.0 0.001244 302.77191 734.78040
639.0 0.001565 302.71323 569.47089
544.0 0.001838 302.65472 466.51593
418.0 0.002392 302.59628 415.56107
393.0 0.002545 302.53812 397.71335
413.0 0.002421 302.48001 401.00192
430.0 0.002326 302.42215 423.30652
493.0 0.002028 302.36441 469.38290
504.0 0.001984 302.30676 543.99268
592.0 0.001689 302.24930 622.16956
617.0 0.001621 302.19202 628.53955
582.0 0.001718 302.13495 549.49890
470.0 0.002128 302.07794 461.69568
455.0 0.002198 302.02112 401.54584
420.0 0.002381 301.96445 370.88095
366.0 0.002732 301.90790 357.82709
367.0 0.002725 301.85153 352.24506
386.0 0.002591 301.79529 346.93967
360.0 0.002778 301.73929 342.06989
348.0 0.002874 301.68335 339.87689
364.0 0.002747 301.62762 342.20273
373.0 0.002681 301.57205 352.17407
408.0 0.002451 301.51660 374.16467
467.0 0.002141 301.46133 412.22650
531.0 0.001883 301.40619 460.52405
543.0 0.001842 301.35123 487.75085
540.0 0.001852 301.29636 464.82611
498.0 0.002008 301.24167 422.44196
425.0 0.002353 301.18726 390.18237
384.0 0.002604 301.13281 373.49030
393.0 0.002545 301.07861 370.20276
388.0 0.002577 301.02457 379.50165
399.0 0.002506 300.97067 399.52826
414.0 0.002415 300.91696 429.59277
475.0 0.002105 300.86334 470.64017
524.0 0.001908 300.80997 508.42441
545.0 0.001835 300.75665 510.58633
541.0 0.001848 300.70352 474.67001
493.0 0.002028 300.65063 429.77255
451.0 0.002217 300.59778 399.27274
448.0 0.002232 300.54514 391.14188
435.0 0.002299 300.49255 405.07190
455.0 0.002198 300.44022 448.46490
534.0 0.001873 300.38794 531.34308
574.0 0.001742 300.33597 651.44629
687.0 0.001456 300.28403 760.60016
702.0 0.001425 300.23230 758.01111
647.0 0.001546 300.18073 649.43561
574.0 0.001742 300.12924 528.50079
459.0 0.002179 300.07794 446.04922
418.0 0.002392 300.02682 400.66895
381.0 0.002625 299.97583 382.04181
408.0 0.002451 299.92505 380.20557
414.0 0.002415 299.87439 394.10828
421.0 0.002375 299.82388 429.02042
501.0 0.001996 299.77347 488.88327
513.0 0.001949 299.72324 561.32422
569.0 0.001757 299.67322 597.78210
581.0 0.001721 299.62329 572.89294
574.0 0.001742 299.57358 537.89661
531.0 0.001883 299.52393 515.82977
539.0 0.001855 299.47449 495.86389
477.0 0.002096 299.42517 479.57434
462.0 0.002165 299.37604 465.84479
481.0 0.002079 299.32709 442.26791
412.0 0.002427 299.27817 417.10345
437.0 0.002288 299.22952 404.11880
458.0 0.002183 299.18100 405.29886
438.0 0.002283 299.13260 418.94174
477.0 0.002096 299.08432 445.09506
529.0 0.001890 299.03625 495.14581
625.0 0.001600 298.98831 583.72351
721.0 0.001387 298.94055 711.22418
823.0 0.001215 298.89285 847.33258
857.0 0.001167 298.84546 910.47687
868.0 0.001152 298.79810 861.11737
806.0 0.001241 298.75098 733.86694
671.0 0.001490 298.70389 600.76556
575.0 0.001739 298.65701 510.62994
505.0 0.001980 298.61026 465.13199
485.0 0.002062 298.56375 452.73199
482.0 0.002075 298.51736 466.15182
517.0 0.001934 298.47107 507.36453
586.0 0.001706 298.42493 583.66351
695.0 0.001439 298.37900 696.86871
820.0 0.001220 298.33307 822.98846
972.0 0.001029 298.28751 929.00616
1112.0 0.000899 298.24197 1053.57678
1267.0 0.000789 298.19656 1264.54041
1486.0 0.000673 298.15137 1552.94519
1670.0 0.000599 298.10632 1728.53821
1686.0 0.000593 298.06134 1683.26489
1546.0 0.000647 298.01657 1494.25134
1290.0 0.000775 297.97202 1188.32605
970.0 0.001031 297.92749 901.80493
724.0 0.001381 297.88315 719.44788
659.0 0.001517 297.83902 635.07208
617.0 0.001621 297.79501 619.60260
656.0 0.001524 297.75107 656.44067
726.0 0.001377 297.70734 755.69354
870.0 0.001149 297.66382 927.47632
1037.0 0.000964 297.62036 1127.85339
1207.0 0.000829 297.57712 1271.70459
1380.0 0.000725 297.53391 1378.82751
1454.0 0.000688 297.49094 1436.31592
1443.0 0.000693 297.44809 1341.67419
1165.0 0.000858 297.40546 1087.33411
878.0 0.001139 297.36285 830.80780
674.0 0.001484 297.32053 662.29700
565.0 0.001770 297.27823 579.09662
530.0 0.001887 297.23611 546.62280
512.0 0.001953 297.19421 534.70258
538.0 0.001859 297.15237 549.85754
567.0 0.001764 297.11063 616.09735
711.0 0.001406 297.06921 744.20532
900.0 0.001111 297.02783 900.40686
937.0 0.001067 296.98660 977.35339
900.0 0.001111 296.94547 894.10156
797.0 0.001255 296.90460 724.16943
606.0 0.001650 296.86383 578.49066
508.0 0.001969 296.82318 490.52753
455.0 0.002198 296.78271 448.45514
461.0 0.002169 296.74231 428.95953
424.0 0.002358 296.70212 418.58966
412.0 0.002427 296.66208 421.54443
423.0 0.002364 296.62213 443.46350
461.0 0.002169 296.58237 480.47650
506.0 0.001976 296.54276 507.59329
549.0 0.001821 296.50327 494.86969
495.0 0.002020 296.46390 457.63684
436.0 0.002294 296.42474 427.88962
435.0 0.002299 296.38568 420.34085
464.0 0.002155 296.34683 447.67059
487.0 0.002053 296.30801 513.91992
538.0 0.001859 296.26941 616.79034
606.0 0.001650 296.23093 711.02625
633.0 0.001580 296.19260 706.60211
614.0 0.001629 296.15445 611.53040
500.0 0.002000 296.11636 513.07422
431.0 0.002320 296.07849 442.21109
410.0 0.002439 296.04074 400.76422
394.0 0.002538 296.00305 381.99350
389.0 0.002571 295.96558 378.86655
409.0 0.002445 295.92825 392.43707
461.0 0.002169 295.89111 424.11847
516.0 0.001938 295.85403 473.81085
551.0 0.001815 295.81717 529.58630
558.0 0.001792 295.78033 560.72229
539.0 0.001855 295.74371 537.16345
486.0 0.002058 295.70724 484.65054
447.0 0.002237 295.67093 439.20807
426.0 0.002347 295.63467 411.06366
440.0 0.002273 295.59866 405.66443
461.0 0.002169 295.56268 425.98138
499.0 0.002004 295.52692 471.54822
581.0 0.001721 295.49127 529.85999
573.0 0.001745 295.45581 561.73053
583.0 0.001715 295.42038 542.20807
547.0 0.001828 295.38519 509.17017
495.0 0.002020 295.35013 499.77640
561.0 0.001783 295.31522 529.71930
591.0 0.001692 295.28033 584.25287
629.0 0.001590 295.24570 609.83655
609.0 0.001642 295.21112 570.07123
551.0 0.001815 295.17679 513.72632
502.0 0.001992 295.14249 486.34073
501.0 0.001996 295.10837 501.05975
560.0 0.001786 295.07440 552.60443
605.0 0.001653 295.04053 615.79236
675.0 0.001481 295.00684 668.62146
704.0 0.001420 294.97321 680.57574
692.0 0.001445 294.93982 640.46521
583.0 0.001715 294.90649 605.34137
560.0 0.001786 294.87332 608.62274
650.0 0.001538 294.84030 636.42371
677.0 0.001477 294.80743 675.07080
721.0 0.001387 294.77460 725.32312
697.0 0.001435 294.74207 754.32874
728.0 0.001374 294.70956 747.35846
741.0 0.001350 294.67715 744.88544
701.0 0.001427 294.64499 802.67578
831.0 0.001203 294.61285 910.06104
902.0 0.001109 294.58096 954.57031
876.0 0.001142 294.54910 848.11774
690.0 0.001449 294.51746 687.72754
574.0 0.001742 294.48587 569.02295
516.0 0.001938 294.45450 513.28979
499.0 0.002004 294.42322 508.99606
525.0 0.001905 294.39209 528.34448
509.0 0.001965 294.36105 538.44580
484.0 0.002066 294.33011 527.20306
523.0 0.001912 294.29944 515.12018
491.0 0.002037 294.26883 528.78693
502.0 0.001992 294.23831 564.24066
540.0 0.001852 294.20795 575.73975
523.0 0.001912 294.17773 529.38983
463.0 0.002160 294.14764 463.87033
393.0 0.002545 294.11768 414.14420
364.0 0.002747 294.08780 387.28882
358.0 0.002793 294.05811 380.37314
394.0 0.002538 294.02853 389.76254
418.0 0.002392 293.99905 412.12250
448.0 0.002232 293.96976 439.00763
446.0 0.002242 293.94058 457.50879
481.0 0.002079 293.91156 471.07965
500.0 0.002000 293.88263 490.27240
518.0 0.001931 293.85385 505.52332
520.0 0.001923 293.82513 518.77374
561.0 0.001783 293.79657 560.58484
619.0 0.001616 293.76819 641.22369
676.0 0.001479 293.73990 719.38489
683.0 0.001464 293.71173 717.54187
631.0 0.001585 293.68375 641.20691
577.0 0.001733 293.65579 554.01868
480.0 0.002083 293.62802 489.50647
429.0 0.002331 293.60040 450.28983
442.0 0.002262 293.57288 430.74213
432.0 0.002315 293.54547 426.08591
405.0 0.002469 293.51819 426.34521
408.0 0.002451 293.49100 428.97244
451.0 0.002217 293.46399 448.55383
496.0 0.002016 293.43713 490.13843
521.0 0.001919 293.41037 532.10620
517.0 0.001934 293.38373 535.44659
450.0 0.002222 293.35715 494.53937
434.0 0.002304 293.33078 437.89777
384.0 0.002604 293.30450 389.84985
348.0 0.002874 293.27835 358.82614
317.0 0.003155 293.25229 341.65939
344.0 0.002907 293.22635 332.87259
313.0 0.003195 293.20062 329.04059
340.0 0.002941 293.17493 327.92392
338.0 0.002959 293.14938 329.75940
309.0 0.003236 293.12393 333.93243
343.0 0.002915 293.09866 341.18997
351.0 0.002849 293.07349 353.06168
346.0 0.002890 293.04849 369.10358
374.0 0.002674 293.02347 392.43433
420.0 0.002381 292.99869 430.78891
446.0 0.002242 292.97397 485.81525
525.0 0.001905 292.94940 538.18738
509.0 0.001965 292.92493 549.94073
478.0 0.002092 292.90060 511.68887
459.0 0.002179 292.87640 465.67081
421.0 0.002375 292.85226 445.76682
424.0 0.002358 292.82834 457.83722
492.0 0.002033 292.80441 490.38614
491.0 0.002037 292.78073 509.07880
500.0 0.002000 292.75708 492.31781
457.0 0.002188 292.73355 466.37936
436.0 0.002294 292.71021 454.65860
433.0 0.002309 292.68692 462.68341
471.0 0.002123 292.66376 486.76898
504.0 0.001984 292.64075 509.12668
508.0 0.001969 292.61780 523.41968
505.0 0.001980 292.59497 546.07953
510.0 0.001961 292.57233 584.40710
554.0 0.001805 292.54971 620.54218
602.0 0.001661 292.52722 649.41742
649.0 0.001541 292.50488 692.63324
686.0 0.001458 292.48264 743.25073
666.0 0.001502 292.46048 754.44574
606.0 0.001650 292.43854 679.53156
517.0 0.001934 292.41656 568.58539
459.0 0.002179 292.39484 482.60727
402.0 0.002488 292.37314 434.85132
386.0 0.002591 292.35159 420.73441
390.0 0.002564 292.33017 430.09421
411.0 0.002433 292.30884 452.18857
451.0 0.002217 292.28751 474.23914
464.0 0.002155 292.26645 491.94925
475.0 0.002105 292.24554 523.18011
545.0 0.001835 292.22464 577.96490
623.0 0.001605 292.20380 642.02032
639.0 0.001565 292.18311 685.67969
635.0 0.001575 292.16260 700.71716
618.0 0.001618 292.14209 662.62524
520.0 0.001923 292.12186 571.30994
449.0 0.002227 292.10156 481.29681
375.0 0.002667 292.08145 419.45251
351.0 0.002849 292.06152 385.14764
344.0 0.002907 292.04156 370.35577
370.0 0.002703 292.02176 369.13770
334.0 0.002994 292.00208 378.66986
391.0 0.002558 291.98245 400.25021
471.0 0.002123 291.96304 439.53979
511.0 0.001957 291.94363 500.03897
525.0 0.001905 291.92441 566.94836
563.0 0.001776 291.90524 595.32581
583.0 0.001715 291.88617 568.13861
510.0 0.001961 291.86731 531.99329
434.0 0.002304 291.84839 509.31122
484.0 0.002066 291.82968 481.51007
393.0 0.002545 291.81104 442.32294
361.0 0.002770 291.79248 408.04904
346.0 0.002890 291.77405 383.38181
340.0 0.002941 291.75577 368.68063
326.0 0.003067 291.73758 365.43573
353.0 0.002833 291.71939 373.50009
387.0 0.002584 291.70145 388.74780
387.0 0.002584 291.68347 401.41162
409.0 0.002445 291.66571 406.28894
395.0 0.002532 291.64798 417.64044
408.0 0.002451 291.63037 445.88501
451.0 0.002217 291.61292 489.22552
515.0 0.001942 291.59558 542.47034
570.0 0.001754 291.57825 596.43121
560.0 0.001786 291.56107 605.68054
531.0 0.001883 291.54391 546.60565
446.0 0.002242 291.52698 469.48935
389.0 0.002571 291.51004 411.87741
361.0 0.002770 291.49319 378.38095
342.0 0.002924 291.47650 360.26981
328.0 0.003049 291.45990 349.32556
330.0 0.003030 291.44342 344.04575
352.0 0.002841 291.42697 347.30649
363.0 0.002755 291.41074 360.83453
377.0 0.002653 291.39447 387.65131
391.0 0.002558 291.37833 422.69727
408.0 0.002451 291.36237 446.17935
405.0 0.002469 291.34644 435.25461
403.0 0.002481 291.33060 405.42819
376.0 0.002660 291.31488 383.62790
365.0 0.002740 291.29919 380.80478
376.0 0.002660 291.28366 397.42429
386.0 0.002591 291.26819 426.10910
400.0 0.002500 291.25290 447.98642
404.0 0.002475 291.23761 439.18680
407.0 0.002457 291.22241 408.97079
373.0 0.002681 291.20734 379.97467
349.0 0.002865 291.19235 357.37872
325.0 0.003077 291.17749 340.72379
297.0 0.003367 291.16263 331.32953
294.0 0.003401 291.14798 328.27039
304.0 0.003289 291.13336 328.80835
295.0 0.003390 291.11877 331.39856
318.0 0.003145 291.10443 338.10950
348.0 0.002874 291.09006 350.72025
347.0 0.002882 291.07584 365.05582
376.0 0.002660 291.06161 368.73120
341.0 0.002933 291.04758 357.40250
329.0 0.003040 291.03357 342.25864
327.0 0.003058 291.01968 329.68982
287.0 0.003484 291.00586 319.91187
306.0 0.003268 290.99216 313.27158
298.0 0.003356 290.97852 309.85217
313.0 0.003195 290.96503 308.26227
301.0 0.003322 290.95157 306.18094
292.0 0.003425 290.93823 304.15646
296.0 0.003378 290.92490 302.29221
281.0 0.00356 290.91168 301.12994
309.0 0.003236 290.89853 300.65607
330.0 0.003030 290.88559 300.85013
304.0 0.003289 290.87262 301.92194
288.0 0.003472 290.85980 304.32574
282.0 0.00355 290.84702 308.85974
342.0 0.002924 290.83432 316.15704
330.0 0.003030 290.82169 325.39093
327.0 0.003058 290.80914 332.17691
317.0 0.003155 290.79675 330.49414
315.0 0.003175 290.78442 322.67361
309.0 0.003236 290.77216 315.63992
286.0 0.003497 290.75992 311.48395
272.0 0.00368 290.74783 310.23157
282.0 0.00355 290.73584 311.24435
319.0 0.003135 290.72382 314.33130
301.0 0.003322 290.71201 320.12762
301.0 0.003322 290.70023 330.68500
350.0 0.002857 290.68851 349.53638
378.0 0.002646 290.67685 382.19455
423.0 0.002364 290.66541 431.69272
498.0 0.002008 290.65396 491.39230
516.0 0.001938 290.64252 540.91217
530.0 0.001887 290.63123 566.80170
567.0 0.001764 290.62000 562.68701
539.0 0.001855 290.60883 514.17133
454.0 0.002203 290.59775 447.27454
363.0 0.002755 290.58676 393.20529
348.0 0.002874 290.57578 359.19519
327.0 0.003058 290.56500 341.84717
333.0 0.003003 290.55423 336.32462
357.0 0.002801 290.54355 339.98340
357.0 0.002801 290.53290 353.09323
359.0 0.002786 290.52243 375.74509
400.0 0.002500 290.51193 402.83258
415.0 0.002410 290.50153 423.48526
445.0 0.002247 290.49121 432.59604
443.0 0.002257 290.48099 423.26520
402.0 0.002488 290.47076 394.06140
348.0 0.002874 290.46072 362.82990
340.0 0.002941 290.45071 341.20883
331.0 0.003021 290.44073 330.21835
336.0 0.002976 290.43085 326.99835
329.0 0.003040 290.42108 327.10760
312.0 0.003205 290.41129 325.15683
333.0 0.003003 290.40164 320.20792
323.0 0.003096 290.39206 315.91763
319.0 0.003135 290.38257 314.04236
298.0 0.003356 290.37308 313.89069
263.0 0.00380 290.36365 313.07660
306.0 0.003268 290.35440 310.69421
297.0 0.003367 290.34509 307.85818
286.0 0.003497 290.33597 306.26575
290.0 0.003448 290.32684 306.47482
293.0 0.003413 290.31781 308.37384
317.0 0.003155 290.30881 311.44693
302.0 0.003311 290.29990 314.47375
309.0 0.003236 290.29108 316.10641
319.0 0.003135 290.28226 317.87567
317.0 0.003155 290.27356 323.18439
307.0 0.003257 290.26492 334.95221
351.0 0.002849 290.25641 354.82593
364.0 0.002747 290.24786 381.11011
433.0 0.002309 290.23938 404.84381
430.0 0.002326 290.23102 407.70206
398.0 0.002513 290.22272 389.92255
393.0 0.002545 290.21445 370.57370
350.0 0.002857 290.20624 362.04919
351.0 0.002849 290.19809 363.30551
336.0 0.002976 290.19003 366.53900
372.0 0.002688 290.18201 365.68970
367.0 0.002725 290.17410 359.31451
345.0 0.002899 290.16626 350.84454
349.0 0.002865 290.15842 347.39194
359.0 0.002786 290.15063 353.03091
369.0 0.002710 290.14291 367.52466
383.0 0.002611 290.13531 384.95654
421.0 0.002375 290.12772 395.75018
428.0 0.002336 290.12024 400.04803
410.0 0.002439 290.11273 403.38516
393.0 0.002545 290.10538 412.43304
432.0 0.002315 290.09802 432.14209
457.0 0.002188 290.09070 462.75674
469.0 0.002132 290.08350 499.57642
490.0 0.002041 290.07629 520.62360
488.0 0.002049 290.06921 504.50366
463.0 0.002160 290.06210 465.45706
432.0 0.002315 290.05518 428.71506
416.0 0.002404 290.04819 408.03873
387.0 0.002584 290.04135 407.52872
397.0 0.002519 290.03452 423.31409
400.0 0.002500 290.02774 454.57367
442.0 0.002262 290.02097 492.51843
469.0 0.002132 290.01437 513.51691
445.0 0.002247 290.00772 499.59476
429.0 0.002331 290.00113 472.82657
405.0 0.002469 289.99463 455.11902
400.0 0.002500 289.98819 441.51367
393.0 0.002545 289.98181 420.54349
374.0 0.002674 289.97546 396.07422
372.0 0.002688 289.96918 376.49338
350.0 0.002857 289.96292 366.32895
364.0 0.002747 289.95673 367.04495
413.0 0.002421 289.95056 378.07092
386.0 0.002591 289.94449 401.50775
403.0 0.002481 289.93839 435.92496
418.0 0.002392 289.93246 467.70441
457.0 0.002188 289.92648 480.58517
445.0 0.002247 289.92056 467.84998
392.0 0.002551 289.91473 436.08875
370.0 0.002703 289.90891 407.11386
378.0 0.002646 289.90317 394.68805
390.0 0.002564 289.89755 399.92618
386.0 0.002591 289.89188 417.04205
401.0 0.002494 289.88620 434.38260
443.0 0.002257 289.88068 449.33594
430.0 0.002326 289.87515 476.33405
480.0 0.002083 289.86972 520.09558
528.0 0.001894 289.86426 563.37561
583.0 0.001715 289.85886 573.38367
515.0 0.001942 289.85358 541.48523
433.0 0.002309 289.84827 491.04108
404.0 0.002475 289.84299 443.61890
409.0 0.002445 289.83783 413.04776
396.0 0.002525 289.83267 402.80453
416.0 0.002404 289.82758 407.46112
407.0 0.002457 289.82251 420.05072
452.0 0.002212 289.81744 438.43460
475.0 0.002105 289.81250 469.53928
510.0 0.001961 289.80753 530.39337
607.0 0.001647 289.80264 626.57330
694.0 0.001441 289.79776 734.02435
694.0 0.001441 289.79291 783.63458
697.0 0.001435 289.78815 721.52264
606.0 0.001650 289.78342 603.97333
494.0 0.002024 289.77875 500.50531
407.0 0.002457 289.77405 432.38617
376.0 0.002660 289.76944 395.42020
353.0 0.002833 289.76489 377.54126
358.0 0.002793 289.76028 369.51477
356.0 0.002809 289.75580 369.65491
387.0 0.002584 289.75140 381.52936
432.0 0.002315 289.74692 408.70084
457.0 0.002188 289.74255 453.23254
501.0 0.001996 289.73819 505.37164
519.0 0.001927 289.73386 534.77722
487.0 0.002053 289.72952 514.40314
450.0 0.002222 289.72537 465.60492
421.0 0.002375 289.72113 420.77240
399.0 0.002506 289.71689 394.46460
394.0 0.002538 289.71277 388.76776
403.0 0.002481 289.70862 400.71487
451.0 0.002217 289.70456 426.96744
472.0 0.002119 289.70053 459.74133
473.0 0.002114 289.69653 489.41852
478.0 0.002092 289.69257 521.89099
540.0 0.001852 289.68863 566.13312
531.0 0.001883 289.68469 597.57666
505.0 0.001980 289.68082 574.83026
460.0 0.002174 289.67694 512.10901
428.0 0.002336 289.67322 450.03546
411.0 0.002433 289.66940 407.23834
383.0 0.002611 289.66565 385.34152
378.0 0.002646 289.66196 380.84460
387.0 0.002584 289.65817 389.81808
435.0 0.002299 289.65457 411.16507
451.0 0.002217 289.65091 445.87634
481.0 0.002079 289.64734 496.19931
599.0 0.001669 289.64374 570.97247
662.0 0.001511 289.64023 673.99469
803.0 0.001245 289.63663 769.92517
890.0 0.001124 289.63321 778.85504
726.0 0.001377 289.62973 686.01172
574.0 0.001742 289.62625 567.50159
465.0 0.002151 289.62289 475.66550
375.0 0.002667 289.61942 418.80475
380.0 0.002632 289.61615 389.84036
358.0 0.002793 289.61276 379.21219
388.0 0.002577 289.60944 381.55237
381.0 0.002625 289.60617 398.22601
447.0 0.002237 289.60297 436.74271
497.0 0.002012 289.59973 506.79562
623.0 0.001605 289.59656 611.62366
738.0 0.001355 289.59329 728.72406
817.0 0.001224 289.59018 788.28156
742.0 0.001348 289.58698 732.87878
626.0 0.001597 289.58389 616.51904
520.0 0.001923 289.58078 509.18539
431.0 0.002320 289.57770 433.73215
391.0 0.002558 289.57468 389.11984
386.0 0.002591 289.57166 365.75272
346.0 0.002890 289.56860 355.23819
332.0 0.003012 289.56561 353.30038
352.0 0.002841 289.56262 359.54880
372.0 0.002688 289.55969 376.29318
390.0 0.002564 289.55676 405.37695
420.0 0.002381 289.55383 443.12360
439.0 0.002278 289.55106 472.54651
468.0 0.002137 289.54810 469.83099
440.0 0.002273 289.54532 441.11859
385.0 0.002597 289.54239 413.72375
395.0 0.002532 289.53958 402.63553
410.0 0.002439 289.53680 414.90845
428.0 0.002336 289.53397 452.51346
489.0 0.002045 289.53128 509.92328
572.0 0.001748 289.52853 560.99268
584.0 0.001712 289.52576 563.30640
528.0 0.001894 289.52310 514.80322
462.0 0.002165 289.52039 457.97104
409.0 0.002445 289.51767 419.43472
397.0 0.002519 289.51498 406.48352
404.0 0.002475 289.51233 418.56287
433.0 0.002309 289.50974 453.68051
508.0 0.001969 289.50711 501.52570
517.0 0.001934 289.50446 532.94043
502.0 0.001992 289.50186 525.05487
455.0 0.002198 289.49933 497.61743
435.0 0.002299 289.49673 481.59225
467.0 0.002141 289.49417 480.24658
461.0 0.002169 289.49158 474.39200
445.0 0.002247 289.48901 448.72141
418.0 0.002392 289.48654 416.74167
393.0 0.002545 289.48401 394.15375
385.0 0.002597 289.48151 387.33420
365.0 0.002740 289.47900 398.18185
426.0 0.002347 289.47653 431.67419
452.0 0.002212 289.47400 486.54092
527.0 0.001898 289.47165 550.21289
582.0 0.001718 289.46912 592.50928
604.0 0.001656 289.46667 582.85370
513.0 0.001949 289.46420 528.67944
495.0 0.002020 289.46182 469.82562
421.0 0.002375 289.45941 431.22070
390.0 0.002564 289.45697 419.85828
430.0 0.002326 289.45462 435.94946
501.0 0.001996 289.45218 476.05258
552.0 0.001812 289.44983 528.48035
580.0 0.001724 289.44739 563.32898
589.0 0.001698 289.44504 553.37982
530.0 0.001887 289.44269 521.60107
530.0 0.001887 289.44025 502.96960
476.0 0.002101 289.43793 506.68372
508.0 0.001969 289.43558 517.86621
559.0 0.001789 289.43320 511.03601
513.0 0.001949 289.43085 486.43234
448.0 0.002232 289.42850 463.12509
484.0 0.002066 289.42615 460.23505
505.0 0.001980 289.42389 483.72977
527.0 0.001898 289.42148 528.37854
555.0 0.001802 289.41919 573.00549
626.0 0.001597 289.41684 589.33618
643.0 0.001555 289.41458 571.31665
565.0 0.001770 289.41220 540.72949
592.0 0.001689 289.40994 530.20422
648.0 0.001543 289.40756 561.14923
714.0 0.001401 289.40524 640.83057
767.0 0.001304 289.40295 757.11395
843.0 0.001186 289.40057 859.46539
858.0 0.001166 289.39828 867.89197
776.0 0.001289 289.39597 779.30072
660.0 0.001515 289.39368 674.90265
616.0 0.001623 289.39139 605.17188
593.0 0.001686 289.38901 578.03766
581.0 0.001721 289.38666 582.68799
600.0 0.001667 289.38437 620.46692
723.0 0.001383 289.38208 713.09155
896.0 0.001116 289.37973 879.82031
1163.0 0.000860 289.37744 1111.92944
1354.0 0.000739 289.37512 1331.42285
1413.0 0.000708 289.37280 1409.09167
1282.0 0.000780 289.37042 1317.36694
1091.0 0.000917 289.36810 1131.24548
919.0 0.001088 289.36569 917.41565
716.0 0.001397 289.36343 729.05756
573.0 0.001745 289.36105 596.76575
516.0 0.001938 289.35864 518.08905
483.0 0.002070 289.35632 481.02145
453.0 0.002208 289.35403 474.36249
474.0 0.002110 289.35159 497.51556
531.0 0.001883 289.34918 554.09479
634.0 0.001577 289.34683 644.86505
732.0 0.001366 289.34445 751.79559
802.0 0.001247 289.34204 819.06177
780.0 0.001282 289.33969 795.58905
717.0 0.001395 289.33725 701.74084
599.0 0.001669 289.33481 595.92126
511.0 0.001957 289.33240 514.14801
449.0 0.002227 289.33005 463.81024
411.0 0.002433 289.32755 439.18857
391.0 0.002558 289.32516 432.21204
408.0 0.002451 289.32263 439.33020
442.0 0.002262 289.32016 459.88089
490.0 0.002041 289.31772 500.98553
583.0 0.001715 289.31525 577.09442
727.0 0.001376 289.31277 709.37750
972.0 0.001029 289.31027 917.98596
1145.0 0.000873 289.30774 1197.40405
1482.0 0.000675 289.30524 1485.86377
1679.0 0.000596 289.30267 1670.39893
1613.0 0.000620 289.30017 1639.21753
1312.0 0.000762 289.29755 1389.01367
986.0 0.001014 289.29498 1078.50867
715.0 0.001399 289.29242 832.76062
597.0 0.001675 289.28986 680.79547
538.0 0.001859 289.28720 607.62604
559.0 0.001789 289.28464 585.30774
549.0 0.001821 289.28198 586.67645
565.0 0.001770 289.27930 601.95532
643.0 0.001555 289.27670 647.09845
719.0 0.001391 289.27402 738.12207
873.0 0.001145 289.27133 868.61926
1017.0 0.000983 289.26862 999.64258
1108.0 0.000903 289.26596 1075.08203
1054.0 0.000949 289.26318 1047.88721
955.0 0.001047 289.26041 941.98212
833.0 0.001200 289.25766 838.29175
781.0 0.001280 289.25497 780.00562
790.0 0.001266 289.25211 761.62109
779.0 0.001284 289.24936 743.11926
727.0 0.001376 289.24649 689.41486
647.0 0.001546 289.24365 610.63824
575.0 0.001739 289.24081 537.35284
494.0 0.002024 289.23798 485.30219
460.0 0.002174 289.23502 459.52527
463.0 0.002160 289.23215 457.99481
504.0 0.001984 289.22928 484.62204
552.0 0.001812 289.22632 546.15106
634.0 0.001577 289.22339 649.28418
797.0 0.001255 289.22034 787.64685
918.0 0.001089 289.21735 918.51599
910.0 0.001099 289.21436 962.16907
795.0 0.001258 289.21130 899.56055
740.0 0.001351 289.20828 793.38000
669.0 0.001495 289.20523 693.74133
587.0 0.001704 289.20209 635.90430
613.0 0.001631 289.19901 634.11597
674.0 0.001484 289.19586 679.66931
759.0 0.001318 289.19266 737.88837
737.0 0.001357 289.18954 752.12659
675.0 0.001481 289.18631 716.06165
656.0 0.001524 289.18317 677.62262
660.0 0.001515 289.17987 663.36414
561.0 0.001783 289.17670 667.63464
645.0 0.001550 289.17337 670.63208
664.0 0.001506 289.17010 638.22095
505.0 0.001980 289.16675 570.68372
528.0 0.001894 289.16339 504.25137
451.0 0.002217 289.16003 460.90149
410.0 0.002439 289.15665 445.74216
454.0 0.002203 289.15326 456.42368
485.0 0.002062 289.14978 485.79108
508.0 0.001969 289.14633 512.63470
545.0 0.001835 289.14282 512.95776
505.0 0.001980 289.13928 484.64337
447.0 0.002237 289.13580 451.00040
393.0 0.002545 289.13223 420.88095
414.0 0.002415 289.12866 394.24405
361.0 0.002770 289.12503 372.89276
345.0 0.002899 289.12137 358.66367
340.0 0.002941 289.11774 350.53064
349.0 0.002865 289.11411 347.15521
358.0 0.002793 289.11032 347.75943
373.0 0.002681 289.10666 352.35501
362.0 0.002762 289.10287 361.95285
375.0 0.002667 289.09912 377.61209
405.0 0.002469 289.09521 400.71997
438.0 0.002283 289.09140 426.41888
458.0 0.002183 289.08746 444.51138
460.0 0.002174 289.08365 450.63025
491.0 0.002037 289.07974 458.27774
506.0 0.001976 289.07581 485.91452
558.0 0.001792 289.07178 544.76501
659.0 0.001517 289.06781 640.55426
762.0 0.001312 289.06372 764.88287
897.0 0.001115 289.05969 893.01361
1045.0 0.000957 289.05563 1010.71368
1147.0 0.000872 289.05145 1100.01086
1112.0 0.000899 289.04730 1091.21729
991.0 0.001009 289.04306 964.95612
845.0 0.001183 289.03891 807.33423
691.0 0.001447 289.03467 680.73383
588.0 0.001701 289.03043 591.02258
522.0 0.001916 289.02609 529.32776
526.0 0.001901 289.02179 494.04236
517.0 0.001934 289.01743 485.08340
500.0 0.002000 289.01303 503.02499
559.0 0.001789 289.00864 546.19971
629.0 0.001590 289.00415 611.03442
700.0 0.001429 288.99969 689.65808
780.0 0.001282 288.99515 781.85291
897.0 0.001115 288.99057 888.11047
941.0 0.001063 288.98599 981.00970
1041.0 0.000961 288.98145 1037.18665
1067.0 0.000937 288.97678 1057.91235
1021.0 0.000979 288.97211 1002.72339
783.0 0.001277 288.96741 859.60553
618.0 0.001618 288.96265 698.09369
522.0 0.001916 288.95792 568.66656
428.0 0.002336 288.95313 482.47339
409.0 0.002445 288.94821 431.19037
420.0 0.002381 288.94339 403.23364
403.0 0.002481 288.93848 389.97287
386.0 0.002591 288.93356 387.99286
408.0 0.002451 288.92862 398.22592
434.0 0.002304 288.92355 423.74789
446.0 0.002242 288.91852 468.00684
530.0 0.001887 288.91345 527.88171
565.0 0.001770 288.90836 587.03033
595.0 0.001681 288.90317 610.59363
586.0 0.001706 288.89801 581.58685
533.0 0.001876 288.89279 529.09894
491.0 0.002037 288.88757 478.87592
448.0 0.002232 288.88229 434.96692
400.0 0.002500 288.87692 398.89545
396.0 0.002525 288.87161 373.78146
367.0 0.002725 288.86612 359.19147
363.0 0.002755 288.86075 352.99390
365.0 0.002740 288.85532 352.86807
357.0 0.002801 288.84982 357.94513
402.0 0.002488 288.84424 365.25110
400.0 0.002500 288.83865 368.95108
383.0 0.002611 288.83301 365.91333
372.0 0.002688 288.82742 359.93301
366.0 0.002732 288.82169 355.91727
372.0 0.002688 288.81601 355.20999
356.0 0.002809 288.81021 356.12585
362.0 0.002762 288.80450 356.18192
351.0 0.002849 288.79858 354.45358
346.0 0.002890 288.79276 353.71234
365.0 0.002740 288.78680 355.61655
378.0 0.002646 288.78085 363.42880
383.0 0.002611 288.77484 380.07675
401.0 0.002494 288.76886 401.92099
423.0 0.002364 288.76282 417.84070
430.0 0.002326 288.75665 413.93719
415.0 0.002410 288.75058 393.01694
375.0 0.002667 288.74432 368.44702
332.0 0.003012 288.73819 348.66855
332.0 0.003012 288.73187 335.93015
355.0 0.002817 288.72562 329.63306
340.0 0.002941 288.71921 328.27185
320.0 0.003125 288.71289 330.47714
348.0 0.002874 288.70648 335.52759
347.0 0.002882 288.69998 342.83960
358.0 0.002793 288.69354 353.63336
395.0 0.002532 288.68695 369.97906
399.0 0.002506 288.68036 391.25778
414.0 0.002415 288.67374 418.58704
454.0 0.002203 288.66708 450.24490
501.0 0.001996 288.66043 487.63583
535.0 0.001869 288.65366 529.14545
558.0 0.001792 288.64688 552.49231
531.0 0.001883 288.64005 541.77600
507.0 0.001972 288.63315 511.40134
497.0 0.002012 288.62628 476.39545
462.0 0.002165 288.61932 445.49030
437.0 0.002288 288.61227 428.96588
454.0 0.002203 288.60529 429.94885
449.0 0.002227 288.59814 442.32864
461.0 0.002169 288.59106 452.85132
473.0 0.002114 288.58389 449.87238
452.0 0.002212 288.57669 437.36594
466.0 0.002146 288.56943 431.97574
482.0 0.002075 288.56219 440.81589
477.0 0.002096 288.55487 463.21738
494.0 0.002024 288.54752 486.98129
483.0 0.002070 288.54010 496.93433
517.0 0.001934 288.53262 499.17282
494.0 0.002024 288.52515 506.83185
561.0 0.001783 288.51761 523.05212
549.0 0.001821 288.51004 541.42645
558.0 0.001792 288.50229 550.62482
562.0 0.001779 288.49469 557.07068
571.0 0.001751 288.48694 575.52545
565.0 0.001770 288.47922 602.65240
609.0 0.001642 288.47141 615.24329
588.0 0.001701 288.46356 587.43237
549.0 0.001821 288.45566 529.11517
509.0 0.001965 288.44772 470.46497
436.0 0.002294 288.43967 427.23245
422.0 0.002370 288.43170 400.37402
409.0 0.002445 288.42365 387.85849
425.0 0.002353 288.41553 387.89322
424.0 0.002358 288.40738 397.78195
424.0 0.002358 288.39917 412.40323
444.0 0.002252 288.39096 423.01337
466.0 0.002146 288.38263 426.95032
448.0 0.002232 288.37427 432.56522
447.0 0.002237 288.36584 445.66046
479.0 0.002088 288.35751 462.25131
478.0 0.002092 288.34897 468.84589
466.0 0.002146 288.34048 458.88135
484.0 0.002066 288.33191 445.67261
482.0 0.002075 288.32333 442.28738
489.0 0.002045 288.31464 450.88007
499.0 0.002004 288.30600 463.62891
507.0 0.001972 288.29718 470.56509
511.0 0.001957 288.28839 477.46381
570.0 0.001754 288.27960 501.34265
636.0 0.001572 288.27069 555.55499
695.0 0.001439 288.26181 645.82721
838.0 0.001193 288.25281 762.49994
948.0 0.001055 288.24377 881.86340
971.0 0.001030 288.23468 979.02814
928.0 0.001078 288.22559 1004.30371
922.0 0.001085 288.21643 926.89166
788.0 0.001269 288.20724 799.50745
664.0 0.001506 288.19803 679.39856
592.0 0.001689 288.18866 592.14008
541.0 0.001848 288.17932 541.80304
547.0 0.001828 288.16998 520.83362
513.0 0.001949 288.16052 525.02844
588.0 0.001701 288.15103 559.78882
651.0 0.001536 288.14148 636.03229
843.0 0.001186 288.13190 755.60767
941.0 0.001063 288.12231 896.92480
1018.0 0.000982 288.11258 997.99274
971.0 0.001030 288.10291 1008.92310
912.0 0.001096 288.09311 951.83917
785.0 0.001274 288.08331 853.43579
655.0 0.001527 288.07346 736.73889
612.0 0.001634 288.06354 634.75562
555.0 0.001802 288.05356 560.94470
490.0 0.002041 288.04355 511.20679
514.0 0.001946 288.03348 478.91147
550.0 0.001818 288.02344 461.56528
441.0 0.002268 288.01328 456.91748
493.0 0.002028 288.00308 463.32214
476.0 0.002101 287.99286 483.84113
514.0 0.001946 287.98254 516.88171
537.0 0.001862 287.97229 547.02258
528.0 0.001894 287.96185 545.90222
506.0 0.001976 287.95145 506.73782
420.0 0.002381 287.94095 455.16309
402.0 0.002488 287.93042 412.38773
408.0 0.002451 287.91980 384.55881
383.0 0.002611 287.90921 370.26480
353.0 0.002833 287.89847 364.47458
328.0 0.003049 287.88779 361.21735
361.0 0.002770 287.87704 358.17133
356.0 0.002809 287.86618 355.04254
353.0 0.002833 287.85535 350.39117
360.0 0.002778 287.84448 343.99634
347.0 0.002882 287.83347 338.20114
329.0 0.003040 287.82248 333.96103
305.0 0.003279 287.81146 332.11050
306.0 0.003268 287.80035 331.84863
342.0 0.002924 287.78915 332.97720
344.0 0.002907 287.77795 334.37494
350.0 0.002857 287.76672 336.14545
364.0 0.002747 287.75540 340.32483
348.0 0.002874 287.74405 349.51996
378.0 0.002646 287.73264 365.63028
413.0 0.002421 287.72122 388.53894
412.0 0.002427 287.70975 414.62253
435.0 0.002299 287.69821 432.09702
432.0 0.002315 287.68661 430.21774
407.0 0.002457 287.67496 415.67908
392.0 0.002551 287.66330 404.73889
412.0 0.002427 287.65158 405.53159
438.0 0.002283 287.63977 422.60284
484.0 0.002066 287.62796 459.62430
508.0 0.001969 287.61609 519.57727
592.0 0.001689 287.60416 600.77820
675.0 0.001481 287.59219 695.45544
811.0 0.001233 287.58017 795.06708
922.0 0.001085 287.56808 879.39777
907.0 0.001103 287.55597 902.43103
779.0 0.001284 287.54379 842.71326
726.0 0.001377 287.53159 746.72778
637.0 0.001570 287.51929 653.65094
582.0 0.001718 287.50696 568.56305
490.0 0.002041 287.49460 498.01538
511.0 0.001957 287.48227 449.96066
485.0 0.002062 287.46976 424.15533
456.0 0.002193 287.45721 418.22147
385.0 0.002597 287.44470 430.55942
506.0 0.001976 287.43207 459.31863
499.0 0.002004 287.41946 500.79608
568.0 0.001761 287.40674 548.51971
616.0 0.001623 287.39398 598.43030
701.0 0.001427 287.38116 640.81140
718.0 0.001393 287.36835 651.84076
666.0 0.001502 287.35547 623.28339
619.0 0.001616 287.34250 580.75848
595.0 0.001681 287.32944 542.72620
509.0 0.001965 287.31647 502.87048
440.0 0.002273 287.30334 457.76645
431.0 0.002320 287.29025 416.38608
399.0 0.002506 287.27704 385.58823
381.0 0.002625 287.26382 366.08658
384.0 0.002604 287.25055 356.09222
365.0 0.002740 287.23724 353.48541
356.0 0.002809 287.22385 356.38013
381.0 0.002625 287.21045 364.63556
403.0 0.002481 287.19690 380.69553
425.0 0.002353 287.18341 407.43457
473.0 0.002114 287.16986 444.26816
529.0 0.001890 287.15622 483.90680
570.0 0.001754 287.14252 509.54669
553.0 0.001808 287.12885 505.12634
494.0 0.002024 287.11505 476.22052
461.0 0.002169 287.10129 438.79407
457.0 0.002188 287.08737 404.76929
418.0 0.002392 287.07349 379.04883
391.0 0.002558 287.05957 363.13040
378.0 0.002646 287.04550 356.54953
376.0 0.002660 287.03149 360.13547
372.0 0.002688 287.01733 374.21194
402.0 0.002488 287.00314 401.35889
452.0 0.002212 286.98901 441.74301
521.0 0.001919 286.97479 489.28696
580.0 0.001724 286.96051 526.34991
567.0 0.001764 286.94614 535.25452
530.0 0.001887 286.93185 516.66803
477.0 0.002096 286.91736 478.38608
429.0 0.002331 286.90286 434.14688
410.0 0.002439 286.88834 397.04205
381.0 0.002625 286.87378 370.13574
356.0 0.002809 286.85916 353.64923
347.0 0.002882 286.84448 344.68640
365.0 0.002740 286.82980 341.74313
359.0 0.002786 286.81509 344.66727
358.0 0.002793 286.80023 353.69940
388.0 0.002577 286.78537 369.61813
407.0 0.002457 286.77048 391.65808
431.0 0.002320 286.75552 416.27621
429.0 0.002331 286.74051 435.75995
473.0 0.002114 286.72552 445.78690
465.0 0.002151 286.71036 452.24118
504.0 0.001984 286.69525 461.94156
509.0 0.001965 286.68005 472.33884
474.0 0.002110 286.66486 471.86456
471.0 0.002123 286.64954 457.10233
471.0 0.002123 286.63425 443.45682
436.0 0.002294 286.61890 445.69772
512.0 0.001953 286.60342 473.03036
590.0 0.001695 286.58801 529.07391
629.0 0.001590 286.57248 609.89539
682.0 0.001466 286.55692 692.49628
772.0 0.001295 286.54129 735.44843
751.0 0.001332 286.52570 715.51263
651.0 0.001536 286.51004 648.17810
537.0 0.001862 286.49432 567.52234
463.0 0.002160 286.47855 502.47104
440.0 0.002273 286.46274 462.25641
450.0 0.002222 286.44684 442.12320
405.0 0.002469 286.43088 430.07083
415.0 0.002410 286.41492 417.70602
390.0 0.002564 286.39893 408.17508
400.0 0.002500 286.38290 408.43399
465.0 0.002151 286.36679 423.83221
487.0 0.002053 286.35065 457.20532
518.0 0.001931 286.33447 509.09659
548.0 0.001825 286.31821 570.24432
602.0 0.001661 286.30191 619.62933
648.0 0.001543 286.28558 640.37585
639.0 0.001565 286.26929 642.55426
621.0 0.001610 286.25284 651.23218
678.0 0.001475 286.23642 681.61688
764.0 0.001309 286.21991 720.38861
765.0 0.001307 286.20334 733.50012
687.0 0.001456 286.18680 698.09674
604.0 0.001656 286.17014 621.52209
518.0 0.001931 286.15350 535.59375
430.0 0.002326 286.13678 465.45010
389.0 0.002571 286.12000 417.94867
387.0 0.002584 286.10318 390.53757
381.0 0.002625 286.08636 378.56287
372.0 0.002688 286.06943 377.21747
377.0 0.002653 286.05255 382.53717
395.0 0.002532 286.03558 391.59378
409.0 0.002445 286.01859 405.69360
417.0 0.002398 286.00150 429.41821
475.0 0.002105 285.98447 466.43652
560.0 0.001786 285.96729 512.09509
617.0 0.001621 285.95004 553.16443
588.0 0.001701 285.93283 577.08484
550.0 0.001818 285.91556 582.11914
533.0 0.001876 285.89825 572.55682
515.0 0.001942 285.88089 545.12701
494.0 0.002024 285.86349 497.60709
450.0 0.002222 285.84601 445.17685
401.0 0.002494 285.82852 400.99326
355.0 0.002817 285.81100 370.24298
355.0 0.002817 285.79346 351.50049
351.0 0.002849 285.77588 341.90347
335.0 0.002985 285.75824 338.41269
355.0 0.002817 285.74054 338.39618
348.0 0.002874 285.72275 338.81238
347.0 0.002882 285.70496 339.40677
330.0 0.003030 285.68723 342.39041
350.0 0.002857 285.66934 350.33755
366.0 0.002732 285.65143 362.44952
382.0 0.002618 285.63351 377.49918
384.0 0.002604 285.61554 386.58990
381.0 0.002625 285.59750 381.85135
362.0 0.002762 285.57947 366.71780
373.0 0.002681 285.56134 349.68607
361.0 0.002770 285.54324 335.52545
329.0 0.003040 285.52502 325.68854
332.0 0.003012 285.50684 320.49875
297.0 0.003367 285.48862 318.12436
331.0 0.003021 285.47031 317.85214
357.0 0.002801 285.45197 318.26639
352.0 0.002841 285.43359 318.18188
336.0 0.002976 285.41516 317.84409
330.0 0.003030 285.39670 318.29626
342.0 0.002924 285.37820 320.19986
326.0 0.003067 285.35968 324.85461
347.0 0.002882 285.34113 333.95395
372.0 0.002688 285.32257 348.88562
405.0 0.002469 285.30392 370.29614
422.0 0.002370 285.28522 397.81125
492.0 0.002033 285.26651 424.12781
501.0 0.001996 285.24774 438.17371
471.0 0.002123 285.22891 435.52628
450.0 0.002222 285.21014 428.20840
474.0 0.002110 285.19128 425.43079
501.0 0.001996 285.17236 428.31287
494.0 0.002024 285.15344 431.62805
479.0 0.002088 285.13446 436.14087
460.0 0.002174 285.11545 450.84311
492.0 0.002033 285.09637 482.47894
529.0 0.001890 285.07730 529.56799
575.0 0.001739 285.05820 579.42700
619.0 0.001616 285.03897 612.46362
614.0 0.001629 285.01984 627.03448
604.0 0.001656 285.00058 641.20264
632.0 0.001582 284.98135 657.12274
617.0 0.001621 284.96201 660.08752
623.0 0.001605 284.94269 634.87659
573.0 0.001745 284.92334 585.73285
536.0 0.001866 284.90396 536.93451
512.0 0.001953 284.88452 506.55612
516.0 0.001938 284.86496 496.87689
548.0 0.001825 284.84552 501.68246
533.0 0.001876 284.82602 512.15405
549.0 0.001821 284.80646 516.70270
542.0 0.001845 284.78683 514.13818
484.0 0.002066 284.76712 512.67212
503.0 0.001988 284.74744 512.39978
509.0 0.001965 284.72772 507.81448
498.0 0.002008 284.70804 501.42621
475.0 0.002105 284.68823 497.16849
472.0 0.002119 284.66843 491.47409
482.0 0.002075 284.64859 479.54230
413.0 0.002421 284.62869 459.39462
419.0 0.002387 284.60883 436.20874
431.0 0.002320 284.58884 420.85800
391.0 0.002558 284.56885 420.27072
400.0 0.002500 284.54895 437.70773
548.0 0.001825 284.52887 472.86075
492.0 0.002033 284.50882 520.29852
574.0 0.001742 284.48877 568.12451
622.0 0.001608 284.46857 603.11017
652.0 0.001534 284.44843 610.26630
607.0 0.001647 284.42822 580.21466
514.0 0.001946 284.40799 524.88232
486.0 0.002058 284.38779 468.17383
408.0 0.002451 284.36749 422.63315
374.0 0.002674 284.34717 390.97321
376.0 0.002660 284.32684 371.87643
363.0 0.002755 284.30652 362.64731
355.0 0.002817 284.28607 361.21060
360.0 0.002778 284.26563 367.22089
392.0 0.002551 284.24524 382.43857
435.0 0.002299 284.22476 411.12787
455.0 0.002198 284.20425 458.02496
567.0 0.001764 284.18369 525.45801
660.0 0.001515 284.16318 608.07147
716.0 0.001397 284.14252 684.94873
755.0 0.001325 284.12186 719.48926
684.0 0.001462 284.10123 689.93634
585.0 0.001709 284.08054 624.05988
514.0 0.001946 284.05984 562.96130
479.0 0.002088 284.03906 527.83594
502.0 0.001992 284.01831 522.05225
503.0 0.001988 283.99750 537.86249
532.0 0.001880 283.97675 563.10999
633.0 0.001580 283.95587 589.70831
633.0 0.001580 283.93503 605.34167
575.0 0.001739 283.91418 594.92780
546.0 0.001832 283.89325 560.75391
511.0 0.001957 283.87225 524.37225
479.0 0.002088 283.85123 503.13852
524.0 0.001908 283.83026 502.52100
531.0 0.001883 283.80930 516.16217
495.0 0.002020 283.78824 529.18915
531.0 0.001883 283.76718 533.00653
541.0 0.001848 283.74603 536.38116
582.0 0.001718 283.72495 547.87598
596.0 0.001678 283.70380 563.22845
621.0 0.001610 283.68259 566.48163
577.0 0.001733 283.66144 551.19983
532.0 0.001880 283.64020 528.35046
529.0 0.001890 283.61899 508.09729
501.0 0.001996 283.59778 488.77429
455.0 0.002198 283.57642 462.81296
418.0 0.002392 283.55515 430.35202
412.0 0.002427 283.53381 399.42203
349.0 0.002865 283.51248 376.21887
350.0 0.002857 283.49106 362.55475
381.0 0.002625 283.46973 359.20255
377.0 0.002653 283.44833 363.21225
385.0 0.002597 283.42685 373.04074
399.0 0.002506 283.40543 386.00284
466.0 0.002146 283.38400 400.44318
443.0 0.002257 283.36243 411.81976
443.0 0.002257 283.34097 413.54077
419.0 0.002387 283.31940 402.69241
426.0 0.002347 283.29782 384.09625
378.0 0.002646 283.27631 363.39487
388.0 0.002577 283.25467 345.42014
330.0 0.003030 283.23303 332.53897
343.0 0.002915 283.21143 324.63672
304.0 0.003289 283.18976 321.25558
344.0 0.002907 283.16815 322.39813
335.0 0.002985 283.14636 327.49158
338.0 0.002959 283.12466 336.69360
361.0 0.002770 283.10297 347.34088
362.0 0.002762 283.08121 355.21579
365.0 0.002740 283.05945 355.39819
370.0 0.002703 283.03772 347.59924
345.0 0.002899 283.01596 337.65121
347.0 0.002882 282.99405 330.50534
317.0 0.003155 282.97226 325.71323
338.0 0.002959 282.95041 321.49612
348.0 0.002874 282.92859 317.00351
334.0 0.002994 282.90668 312.76404
315.0 0.003175 282.88483 309.65909
280.0 0.00357 282.86292 307.72989
293.0 0.003413 282.84094 307.45044
319.0 0.003135 282.81906 308.61676
329.0 0.003040 282.79715 311.89780
336.0 0.002976 282.77515 317.20901
328.0 0.003049 282.75314 323.88214
317.0 0.003155 282.73117 330.02084
343.0 0.002915 282.70914 332.99307
339.0 0.002950 282.68716 332.58279
344.0 0.002907 282.66510 329.87387
359.0 0.002786 282.64301 327.51318
336.0 0.002976 282.62100 327.40921
341.0 0.002933 282.59891 330.64377
346.0 0.002890 282.57684 336.97955
381.0 0.002625 282.55475 346.09460
401.0 0.002494 282.53265 355.48529
403.0 0.002481 282.51059 362.95334
398.0 0.002513 282.48840 370.42288
376.0 0.002660 282.46625 381.99490
424.0 0.002358 282.44409 401.66074
456.0 0.002193 282.42191 430.92902
466.0 0.002146 282.39978 473.62869
534.0 0.001873 282.37753 535.47235
642.0 0.001558 282.35544 617.02734
736.0 0.001359 282.33319 708.17188
830.0 0.001205 282.31100 792.27490
802.0 0.001247 282.28870 842.09955
764.0 0.001309 282.26651 823.97992
666.0 0.001502 282.24432 742.38647
566.0 0.001767 282.22205 639.45599
457.0 0.002188 282.19983 549.29175
445.0 0.002247 282.17755 483.55249
406.0 0.002463 282.15524 441.09720
405.0 0.002469 282.13300 417.64951
377.0 0.002653 282.11066 409.74899
427.0 0.002342 282.08838 415.47705
433.0 0.002309 282.06619 434.02939
468.0 0.002137 282.04382 465.41382
478.0 0.002092 282.02151 510.14444
560.0 0.001786 281.99921 564.07947
600.0 0.001667 281.97687 616.35840
616.0 0.001623 281.95456 659.43225
666.0 0.001502 281.93216 693.05536
718.0 0.001393 281.90991 710.51630
680.0 0.001471 281.88754 712.76038
730.0 0.001370 281.86520 716.17139
710.0 0.001408 281.84293 725.71686
716.0 0.001397 281.82050 720.66565
674.0 0.001484 281.79819 680.32141
593.0 0.001686 281.77579 617.46564
519.0 0.001927 281.75342 558.44031
452.0 0.002212 281.73105 516.06616
462.0 0.002165 281.70871 488.26590
441.0 0.002268 281.68637 466.87381
418.0 0.002392 281.66397 450.03317
434.0 0.002304 281.64157 439.50790
424.0 0.002358 281.61920 434.33652
425.0 0.002353 281.59680 434.40927
450.0 0.002222 281.57449 444.36252
495.0 0.002020 281.55212 469.64969
532.0 0.001880 281.52972 510.86981
572.0 0.001748 281.50732 560.07214
616.0 0.001623 281.48495 601.00269
644.0 0.001553 281.46262 617.22638
617.0 0.001621 281.44019 600.56287
558.0 0.001792 281.41788 560.36780
497.0 0.002012 281.39545 519.46045
483.0 0.002070 281.37308 493.35318
471.0 0.002123 281.35074 485.42746
468.0 0.002137 281.32834 490.60419
470.0 0.002128 281.30588 500.87897
473.0 0.002114 281.28357 512.16315
491.0 0.002037 281.26123 522.13458
494.0 0.002024 281.23895 523.65295
499.0 0.002004 281.21649 513.41766
508.0 0.001969 281.19418 502.56998
509.0 0.001965 281.17184 501.98083
526.0 0.001901 281.14951 510.31976
491.0 0.002037 281.12714 514.00781
489.0 0.002045 281.10477 497.93427
470.0 0.002128 281.08252 466.78912
427.0 0.002342 281.06018 432.35809
379.0 0.002639 281.03781 403.88879
375.0 0.002667 281.01553 386.31924
405.0 0.002469 280.99319 381.04974
408.0 0.002451 280.97086 385.67047
425.0 0.002353 280.94864 396.97961
404.0 0.002475 280.92630 409.86429
417.0 0.002398 280.90408 420.51013
397.0 0.002519 280.88184 425.67816
415.0 0.002410 280.85947 423.98166
392.0 0.002551 280.83725 420.38776
395.0 0.002532 280.81497 423.52094
436.0 0.002294 280.79276 437.20947
458.0 0.002183 280.77051 458.60727
550.0 0.001818 280.74826 475.56140
476.0 0.002101 280.72614 475.76309
453.0 0.002208 280.70389 454.87082
380.0 0.002632 280.68173 423.47580
394.0 0.002538 280.65952 396.11157
389.0 0.002571 280.63724 378.85129
378.0 0.002646 280.61520 374.26620
408.0 0.002451 280.59299 382.01617
410.0 0.002439 280.57086 400.97180
461.0 0.002169 280.54871 427.71988
480.0 0.002083 280.52658 455.73895
501.0 0.001996 280.50449 476.67023
494.0 0.002024 280.48242 480.31522
461.0 0.002169 280.46027 463.38248
439.0 0.002278 280.43826 437.75647
411.0 0.002433 280.41623 416.68869
400.0 0.002500 280.39420 404.61240
425.0 0.002353 280.37213 398.16382
432.0 0.002315 280.35016 391.11127
432.0 0.002315 280.32813 381.53201
395.0 0.002532 280.30609 373.32999
380.0 0.002632 280.28421 371.16220
380.0 0.002632 280.26221 376.12790
401.0 0.002494 280.24026 386.19492
415.0 0.002410 280.21835 398.16171
436.0 0.002294 280.19641 411.27505
459.0 0.002179 280.17456 426.59839
453.0 0.002208 280.15268 440.19073
444.0 0.002252 280.13077 444.37140
421.0 0.002375 280.10895 432.84006
389.0 0.002571 280.08713 410.41388
367.0 0.002725 280.06534 386.79895
354.0 0.002825 280.04355 368.38583
353.0 0.002833 280.02176 356.03223
335.0 0.002985 280.00000 349.28970
350.0 0.002857 279.97824 347.69321
362.0 0.002762 279.95657 351.31998
362.0 0.002762 279.93484 359.63657
376.0 0.002660 279.91315 373.49411
418.0 0.002392 279.89154 395.22183
435.0 0.002299 279.86990 425.79291
459.0 0.002179 279.84833 465.49219
506.0 0.001976 279.82669 512.53210
575.0 0.001739 279.80511 556.22546
561.0 0.001783 279.78357 578.67163
536.0 0.001866 279.76202 573.23877
518.0 0.001931 279.74054 556.61841
517.0 0.001934 279.71899 545.71124
519.0 0.001927 279.69748 541.81366
511.0 0.001957 279.67615 540.19031
535.0 0.001869 279.65469 541.47754
523.0 0.001912 279.63333 547.68439
546.0 0.001832 279.61194 553.76453
520.0 0.001923 279.59058 557.23114
564.0 0.001773 279.56921 559.37018
518.0 0.001931 279.54794 556.04114
513.0 0.001949 279.52667 541.05865
500.0 0.002000 279.50546 519.65704
478.0 0.002092 279.48422 505.30939
529.0 0.001890 279.46298 504.91312
515.0 0.001942 279.44186 515.31018
572.0 0.001748 279.42072 527.26715
559.0 0.001789 279.39957 538.60559
591.0 0.001692 279.37848 552.06635
599.0 0.001669 279.35736 561.82721
563.0 0.001776 279.33627 554.19623
514.0 0.001946 279.31537 529.60760
505.0 0.001980 279.29431 501.27560
456.0 0.002193 279.27341 478.45868
454.0 0.002203 279.25247 461.13306
424.0 0.002358 279.23157 448.49075
413.0 0.002421 279.21072 439.43127
411.0 0.002433 279.18985 429.38455
392.0 0.002551 279.16907 413.89038
390.0 0.002564 279.14822 395.43732
393.0 0.002545 279.12744 380.40451
391.0 0.002558 279.10675 373.16306
377.0 0.002653 279.08612 375.76892
384.0 0.002604 279.06540 388.60474
437.0 0.002288 279.04477 410.48648
456.0 0.002193 279.02417 436.80637
464.0 0.002155 279.00360 456.54807
460.0 0.002174 278.98309 457.22568
421.0 0.002375 278.96255 437.44064
398.0 0.002513 278.94205 409.28943
372.0 0.002688 278.92166 383.96045
341.0 0.002933 278.90131 366.37720
326.0 0.003067 278.88089 358.15527
349.0 0.002865 278.86057 359.38422
385.0 0.002597 278.84021 371.15158
412.0 0.002427 278.81998 395.52930
451.0 0.002217 278.79974 434.46451
517.0 0.001934 278.77954 488.36618
603.0 0.001658 278.75934 551.40698
673.0 0.001486 278.73926 607.60010
691.0 0.001447 278.71915 634.42963
627.0 0.001595 278.69910 621.25049
571.0 0.001751 278.67911 582.12122
517.0 0.001934 278.65906 539.02209
482.0 0.002075 278.63916 504.27997
469.0 0.002132 278.61926 480.88263
465.0 0.002151 278.59937 468.59509
435.0 0.002299 278.57950 460.30072
449.0 0.002227 278.55978 446.31918
423.0 0.002364 278.53992 425.58472
397.0 0.002519 278.52023 405.32004
391.0 0.002558 278.50055 391.04398
374.0 0.002674 278.48093 385.99112
401.0 0.002494 278.46133 391.46991
419.0 0.002387 278.44177 407.84543
472.0 0.002119 278.42227 431.62000
494.0 0.002024 278.40280 453.85031
455.0 0.002198 278.38330 462.77621
446.0 0.002242 278.36392 452.21515
430.0 0.002326 278.34451 428.71817
421.0 0.002375 278.32523 404.03168
360.0 0.002778 278.30600 385.86548
369.0 0.002710 278.28671 376.55688
355.0 0.002817 278.26752 373.92523
435.0 0.002299 278.24835 372.88562
404.0 0.002475 278.22925 368.49139
371.0 0.002695 278.21017 360.33936
364.0 0.002747 278.19116 352.44089
328.0 0.003049 278.17221 347.16766
360.0 0.002778 278.15326 345.22461
343.0 0.002915 278.13437 344.97852
336.0 0.002976 278.11560 343.61972
358.0 0.002793 278.09671 339.31870
338.0 0.002959 278.07800 333.93964
312.0 0.003205 278.05923 330.01523
312.0 0.003205 278.04062 328.19351
300.0 0.003333 278.02200 327.23566
332.0 0.003012 278.00339 325.49542
311.0 0.003215 277.98489 323.16196
313.0 0.003195 277.96637 322.25250
316.0 0.003165 277.94797 324.01474
321.0 0.003115 277.92960 330.28467
342.0 0.002924 277.91122 341.97104
358.0 0.002793 277.89294 359.93643
370.0 0.002703 277.87473 382.93835
399.0 0.002506 277.85648 405.68579
419.0 0.002387 277.83835 419.11298
420.0 0.002381 277.82025 417.99713
394.0 0.002538 277.80222 405.79633
399.0 0.002506 277.78424 386.86044
379.0 0.002639 277.76627 365.94272
340.0 0.002941 277.74835 347.48175
337.0 0.002967 277.73059 334.37912
309.0 0.003236 277.71280 325.76776
311.0 0.003215 277.69501 320.06592
324.0 0.003086 277.67731 316.11322
340.0 0.002941 277.65973 315.13968
330.0 0.003030 277.64203 317.60510
332.0 0.003012 277.62451 324.55496
346.0 0.002890 277.60703 335.70334
365.0 0.002740 277.58966 350.80725
354.0 0.002825 277.57220 366.44852
377.0 0.002653 277.55490 377.18820
387.0 0.002584 277.53757 378.49884
356.0 0.002809 277.52039 370.19617
337.0 0.002967 277.50323 356.53427
325.0 0.003077 277.48615 341.85052
342.0 0.002924 277.46909 328.05801
309.0 0.003236 277.45203 316.54764
313.0 0.003195 277.43512 308.32001
305.0 0.003279 277.41821 302.93896
296.0 0.003378 277.40140 299.86215
266.0 0.00376 277.38461 298.39493
292.0 0.003425 277.36786 298.72388
345.0 0.002899 277.35120 300.59088
297.0 0.003367 277.33453 304.40323
307.0 0.003257 277.31799 310.48630
327.0 0.003058 277.30148 319.28082
323.0 0.003096 277.28506 330.39304
346.0 0.002890 277.26868 342.51395
337.0 0.002967 277.25235 354.14673
391.0 0.002558 277.23611 363.90237
369.0 0.002710 277.21985 368.42001
361.0 0.002770 277.20367 364.44302
324.0 0.003086 277.18759 354.79645
328.0 0.003049 277.17160 345.96329
345.0 0.002899 277.15564 342.25015
338.0 0.002959 277.13971 345.11459
385.0 0.002597 277.12384 353.73773
370.0 0.002703 277.10809 364.87997
394.0 0.002538 277.09229 371.70804
361.0 0.002770 277.07663 368.77313
337.0 0.002967 277.06104 357.67783
339.0 0.002950 277.04544 344.55392
336.0 0.002976 277.02994 333.89923
343.0 0.002915 277.01453 327.57269
312.0 0.003205 276.99921 326.07852
290.0 0.003448 276.98386 328.24539
300.0 0.003333 276.96863 332.76437
304.0 0.003289 276.95343 336.92227
329.0 0.003040 276.93826 338.49768
321.0 0.003115 276.92331 337.04196
324.0 0.003086 276.90833 335.60693
328.0 0.003049 276.89337 337.91785
340.0 0.002941 276.87848 346.42056
363.0 0.002755 276.86371 362.49658
372.0 0.002688 276.84894 386.27020
425.0 0.002353 276.83429 414.65991
469.0 0.002132 276.81970 441.15759
489.0 0.002045 276.80511 457.34586
481.0 0.002079 276.79074 457.76935
453.0 0.002208 276.77628 447.33292
426.0 0.002347 276.76199 437.56503
436.0 0.002294 276.74765 435.41809
434.0 0.002304 276.73346 439.85101
437.0 0.002288 276.71936 443.03201
417.0 0.002398 276.70526 435.82434
383.0 0.002611 276.69128 416.31183
384.0 0.002604 276.67734 391.51144
366.0 0.002732 276.66345 369.35495
340.0 0.002941 276.64963 354.04706
329.0 0.003040 276.63593 346.97894
362.0 0.002762 276.62225 348.42108
383.0 0.002611 276.60864 358.08621
383.0 0.002611 276.59509 375.07678
413.0 0.002421 276.58167 396.53143
400.0 0.002500 276.56830 416.56104
423.0 0.002364 276.55496 426.89392
407.0 0.002457 276.54172 424.79877
413.0 0.002421 276.52856 417.27042
388.0 0.002577 276.51541 412.20398
396.0 0.002525 276.50244 411.46384
385.0 0.002597 276.48944 411.66382
377.0 0.002653 276.47656 407.98102
356.0 0.002809 276.46371 398.56812
357.0 0.002801 276.45093 386.30560
364.0 0.002747 276.43832 376.14117
381.0 0.002625 276.42572 371.03226
408.0 0.002451 276.41315 371.09012
369.0 0.002710 276.40073 374.76984
403.0 0.002481 276.38831 379.58368
393.0 0.002545 276.37607 384.27856
422.0 0.002370 276.36380 390.21686
415.0 0.002410 276.35165 398.09912
430.0 0.002326 276.33945 406.08600
417.0 0.002398 276.32755 413.47830
421.0 0.002375 276.31561 424.55481
456.0 0.002193 276.30377 444.88364
483.0 0.002070 276.29193 475.93735
521.0 0.001919 276.28021 512.67786
572.0 0.001748 276.26855 541.85724
553.0 0.001808 276.25702 549.23407
491.0 0.002037 276.24551 535.73627
480.0 0.002083 276.23407 515.84259
473.0 0.002114 276.22275 500.80292
500.0 0.002000 276.21146 495.01630
522.0 0.001916 276.20032 496.11877
513.0 0.001949 276.18918 497.48062
515.0 0.001942 276.17813 491.50946
486.0 0.002058 276.16721 478.64651
449.0 0.002227 276.15634 467.74673
458.0 0.002183 276.14554 467.18362
476.0 0.002101 276.13483 479.15457
526.0 0.001901 276.12411 501.36740
591.0 0.001692 276.11362 526.31696
591.0 0.001692 276.10315 542.01672
551.0 0.001815 276.09277 542.75171
515.0 0.001942 276.08240 534.84033
512.0 0.001953 276.07214 524.14709
498.0 0.002008 276.06198 511.49713
469.0 0.002132 276.05191 500.88437
488.0 0.002049 276.04190 498.27829
505.0 0.001980 276.03201 504.23053
510.0 0.001961 276.02216 512.03784
528.0 0.001894 276.01236 510.71909
506.0 0.001976 276.00269 496.05692
460.0 0.002174 275.99307 473.15472
443.0 0.002257 275.98361 450.74408
420.0 0.002381 275.97412 436.57556
432.0 0.002315 275.96475 433.38962
415.0 0.002410 275.95547 438.95847
447.0 0.002237 275.94629 447.07935
489.0 0.002045 275.93723 451.28815
441.0 0.002268 275.92819 446.26306
402.0 0.002488 275.91922 429.82236
442.0 0.002262 275.91031 406.57263
357.0 0.002801 275.90158 383.99292
368.0 0.002717 275.89291 367.34549
350.0 0.002857 275.88434 358.49487
362.0 0.002762 275.87573 356.86676
365.0 0.002740 275.86734 359.89401
344.0 0.002907 275.85898 362.87091
355.0 0.002817 275.85071 360.64304
320.0 0.003125 275.84250 352.82675
311.0 0.003215 275.83438 343.25497
311.0 0.003215 275.82642 335.70309
344.0 0.002907 275.81851 331.79892
325.0 0.003077 275.81064 331.33652
333.0 0.003003 275.80283 332.74445
332.0 0.003012 275.79514 333.73560
355.0 0.002817 275.78760 333.28384
335.0 0.002985 275.78009 331.81656
350.0 0.002857 275.77271 328.85892
328.0 0.003049 275.76535 324.98911
313.0 0.003195 275.75812 321.37762
332.0 0.003012 275.75098 318.79434
311.0 0.003215 275.74390 316.75830
297.0 0.003367 275.73694 314.01578
307.0 0.003257 275.73001 310.55453
294.0 0.003401 275.72327 307.14655
290.0 0.003448 275.71649 304.78479
305.0 0.003279 275.70987 303.94824
313.0 0.003195 275.70337 304.75821
326.0 0.003067 275.69687 307.23114
344.0 0.002907 275.69055 311.31046
334.0 0.002994 275.68427 316.76740
332.0 0.003012 275.67810 323.34021
341.0 0.002933 275.67200 331.49335
345.0 0.002899 275.66602 342.56094
365.0 0.002740 275.66006 357.30005
402.0 0.002488 275.65430 374.74973
419.0 0.002387 275.64850 391.84149
417.0 0.002398 275.64285 403.76843
409.0 0.002445 275.63733 409.42508
409.0 0.002445 275.63184 413.11230
422.0 0.002370 275.62650 418.18625
441.0 0.002268 275.62125 426.39044
432.0 0.002315 275.61603 438.61423
461.0 0.002169 275.61093 453.32428
513.0 0.001949 275.60596 463.81924
470.0 0.002128 275.60104 465.00623
492.0 0.002033 275.59622 459.44864
481.0 0.002079 275.59149 452.44342
455.0 0.002198 275.58688 443.78040
433.0 0.002309 275.58237 429.58542
396.0 0.002525 275.57782 410.18878
347.0 0.002882 275.57355 391.44064
349.0 0.002865 275.56924 378.07349
376.0 0.002660 275.56509 371.17697
376.0 0.002660 275.56104 368.64990
393.0 0.002545 275.55704 367.41602
412.0 0.002427 275.55313 365.40970
352.0 0.002841 275.54932 364.05716
366.0 0.002732 275.54559 365.41537
362.0 0.002762 275.54205 370.51718
396.0 0.002525 275.53851 380.12515
388.0 0.002577 275.53510 393.81009
402.0 0.002488 275.53183 408.84464
441.0 0.002268 275.52853 421.39706
431.0 0.002320 275.52542 429.45813
414.0 0.002415 275.52240 431.92163
410.0 0.002439 275.51944 427.15652
402.0 0.002488 275.51657 415.41742
382.0 0.002618 275.51385 399.39648
383.0 0.002611 275.51114 383.34271
341.0 0.002933 275.50858 370.00180
333.0 0.003003 275.50613 359.18140
333.0 0.003003 275.50378 349.10812
329.0 0.003040 275.50153 339.81491
291.0 0.003436 275.49939 332.54135
296.0 0.003378 275.49728 328.42651
304.0 0.003289 275.49530 327.94989
325.0 0.003077 275.49341 331.09476
324.0 0.003086 275.49170 337.75876
358.0 0.002793 275.48993 348.24753
341.0 0.002933 275.48834 363.16418
375.0 0.002667 275.48685 382.76428
434.0 0.002304 275.48544 405.62277
450.0 0.002222 275.48413 426.33286
433.0 0.002309 275.48294 435.95435
403.0 0.002481 275.48190 429.15216
391.0 0.002558 275.48087 410.86337
374.0 0.002674 275.47998 390.50085
355.0 0.002817 275.47913 374.08224
351.0 0.002849 275.47842 363.43002
359.0 0.002786 275.47784 357.83612
357.0 0.002801 275.47736 355.77777
367.0 0.002725 275.47690 355.74551
372.0 0.002688 275.47656 356.21143
361.0 0.002770 275.47644 357.18320
355.0 0.002817 275.47629 360.90680
358.0 0.002793 275.47626 369.68420
402.0 0.002488 275.47635 384.39435
423.0 0.002364 275.47659 404.14966
424.0 0.002358 275.47678 425.52499
466.0 0.002146 275.47720 441.86292
461.0 0.002169 275.47778 449.87738
460.0 0.002174 275.47833 451.37503
449.0 0.002227 275.47903 450.33771
452.0 0.002212 275.47980 450.27838
441.0 0.002268 275.48071 455.20853
462.0 0.002165 275.48172 464.78195
470.0 0.002128 275.48285 473.95712
501.0 0.001996 275.48404 477.34961
466.0 0.002146 275.48535 475.99799
460.0 0.002174 275.48672 469.40823
432.0 0.002315 275.48822 456.47516
423.0 0.002364 275.48981 438.57477
398.0 0.002513 275.49152 418.38809
382.0 0.002618 275.49338 399.07217
358.0 0.002793 275.49524 383.90411
353.0 0.002833 275.49725 374.77487
362.0 0.002762 275.49936 370.96747
373.0 0.002681 275.50156 369.51801
381.0 0.002625 275.50385 366.77844
387.0 0.002584 275.50632 362.91248
364.0 0.002747 275.50888 360.62415
377.0 0.002653 275.51144 362.94302
360.0 0.002778 275.51422 371.02560
392.0 0.002551 275.51703 383.75674
406.0 0.002463 275.51999 397.26999
437.0 0.002288 275.52301 406.25064
398.0 0.002513 275.52618 407.87964
447.0 0.002237 275.52939 403.73364
389.0 0.002571 275.53278 396.22284
392.0 0.002551 275.53622 387.89606
390.0 0.002564 275.53976 381.20844
398.0 0.002513 275.54343 377.72235
388.0 0.002577 275.54721 378.24893
387.0 0.002584 275.55109 382.39111
439.0 0.002278 275.55505 387.10864
403.0 0.002481 275.55914 386.93970
366.0 0.002732 275.56335 379.01010
372.0 0.002688 275.56769 366.62708
359.0 0.002786 275.57202 355.18079
345.0 0.002899 275.57660 348.07266
359.0 0.002786 275.58115 346.78464
360.0 0.002778 275.58585 351.39117
370.0 0.002703 275.59067 360.76111
378.0 0.002646 275.59558 371.91470
384.0 0.002604 275.60056 380.58170
417.0 0.002398 275.60571 383.37259
385.0 0.002597 275.61096 380.02414
352.0 0.002841 275.61633 373.46637
358.0 0.002793 275.62173 367.99850
379.0 0.002639 275.62735 367.38834
383.0 0.002611 275.63297 372.20605
371.0 0.002695 275.63870 380.76138
384.0 0.002604 275.64456 388.87909
395.0 0.002532 275.65063 391.92383
388.0 0.002577 275.65668 388.28113
388.0 0.002577 275.66284 380.37860
381.0 0.002625 275.66910 372.98553
372.0 0.002688 275.67554 370.43152
382.0 0.002618 275.68204 375.41428
416.0 0.002404 275.68863 389.61002
441.0 0.002268 275.69540 413.75919
455.0 0.002198 275.70218 447.31100
493.0 0.002028 275.70917 487.86182
514.0 0.001946 275.71619 530.23499
584.0 0.001712 275.72330 566.44049
576.0 0.001736 275.73056 588.78876
571.0 0.001751 275.73792 597.34204
551.0 0.001815 275.74539 600.74542
568.0 0.001761 275.75296 604.14685
567.0 0.001764 275.76065 603.48566
506.0 0.001976 275.76843 596.06024
569.0 0.001757 275.77634 588.09302
569.0 0.001757 275.78433 588.75616
643.0 0.001555 275.79248 600.07678
663.0 0.001508 275.80066 614.08160
651.0 0.001536 275.80896 615.09241
612.0 0.001634 275.81741 592.84717
500.0 0.002000 275.82599 553.97345
509.0 0.001965 275.83463 512.72302
478.0 0.002092 275.84335 480.03683
416.0 0.002404 275.85226 460.92502
420.0 0.002381 275.86121 455.87378
447.0 0.002237 275.87027 461.83340
477.0 0.002096 275.87952 473.52170
479.0 0.002088 275.88876 484.34241
500.0 0.002000 275.89819 490.67261
498.0 0.002008 275.90768 491.96024
465.0 0.002151 275.91727 487.65875
482.0 0.002075 275.92700 477.20239
464.0 0.002155 275.93692 462.74536
392.0 0.002551 275.94678 450.01794
409.0 0.002445 275.95685 444.41669
429.0 0.002331 275.96704 446.51089
432.0 0.002315 275.97729 451.20593
452.0 0.002212 275.98761 449.78339
421.0 0.002375 275.99817 436.70630
416.0 0.002404 276.00873 414.94983
411.0 0.002433 276.01944 391.19321
356.0 0.002809 276.03024 370.60123
368.0 0.002717 276.04123 355.61862
380.0 0.002632 276.05225 347.01086
338.0 0.002959 276.06332 343.67703
344.0 0.002907 276.07462 343.73541
351.0 0.002849 276.08594 344.74564
367.0 0.002725 276.09741 344.72211
363.0 0.002755 276.10898 342.77960
329.0 0.003040 276.12064 339.19772
323.0 0.003096 276.13245 335.54300
335.0 0.002985 276.14432 333.45813
354.0 0.002825 276.15631 333.43893
352.0 0.002841 276.16843 334.75143
327.0 0.003058 276.18063 335.44434
321.0 0.003115 276.19296 333.81104
313.0 0.003195 276.20551 330.41495
309.0 0.003236 276.21799 327.07846
306.0 0.003268 276.23062 325.21539
311.0 0.003215 276.24344 325.32440
325.0 0.003077 276.25632 327.20624
344.0 0.002907 276.26938 330.71475
317.0 0.003155 276.28238 335.81378
318.0 0.003145 276.29562 342.26880
356.0 0.002809 276.30893 350.08130
366.0 0.002732 276.32230 359.87576
401.0 0.002494 276.33594 372.72662
438.0 0.002283 276.34952 390.24878
445.0 0.002247 276.36322 414.52014
465.0 0.002151 276.37711 447.96750
518.0 0.001931 276.39108 490.90891
550.0 0.001818 276.40515 538.76294
609.0 0.001642 276.41937 579.74316
634.0 0.001577 276.43365 600.98181
632.0 0.001582 276.44809 598.57251
578.0 0.001730 276.46255 576.08606
550.0 0.001818 276.47723 538.86847
473.0 0.002114 276.49194 496.99744
446.0 0.002242 276.50674 461.57892
439.0 0.002278 276.52176 437.18610
405.0 0.002469 276.53680 423.51993
447.0 0.002237 276.55194 416.33990
397.0 0.002519 276.56723 409.09085
418.0 0.002392 276.58261 399.03979
363.0 0.002755 276.59808 387.55902
362.0 0.002762 276.61371 378.65637
377.0 0.002653 276.62946 374.83063
399.0 0.002506 276.64529 377.59256
351.0 0.002849 276.66122 387.72989
416.0 0.002404 276.67725 405.29276
409.0 0.002445 276.69339 427.98010
458.0 0.002183 276.70969 450.04227
462.0 0.002165 276.72601 463.84406
438.0 0.002283 276.74252 465.06134
458.0 0.002183 276.75916 454.71555
440.0 0.002273 276.77582 435.30280
409.0 0.002445 276.79263 411.98190
390.0 0.002564 276.80951 391.31116
395.0 0.002532 276.82654 377.17950
377.0 0.002653 276.84369 370.58807
370.0 0.002703 276.86093 370.32828
390.0 0.002564 276.87833 373.27386
395.0 0.002532 276.89578 376.86719
403.0 0.002481 276.91336 379.47134
384.0 0.002604 276.93097 380.02094
381.0 0.002625 276.94876 376.52625
389.0 0.002571 276.96667 367.86209
338.0 0.002959 276.98465 355.89328
330.0 0.003030 277.00281 343.34564
333.0 0.003003 277.02097 332.47430
313.0 0.003195 277.03934 324.15198
307.0 0.003257 277.05780 318.30328
305.0 0.003279 277.07632 313.83133
292.0 0.003425 277.09500 309.90085
299.0 0.003344 277.11371 306.28409
312.0 0.003205 277.13260 303.26801
325.0 0.003077 277.15164 301.13431
315.0 0.003175 277.17072 300.13202
302.0 0.003311 277.18982 300.44049
285.0 0.00351 277.20920 302.14478
293.0 0.003413 277.22858 305.40976
312.0 0.003205 277.24811 310.10580
321.0 0.003115 277.26776 315.80234
326.0 0.003067 277.28751 321.59201
332.0 0.003012 277.30737 325.91409
335.0 0.002985 277.32733 327.45010
333.0 0.003003 277.34741 326.17133
321.0 0.003115 277.36755 323.68555
307.0 0.003257 277.38779 321.64273
307.0 0.003257 277.40820 321.24396
310.0 0.003226 277.42871 322.48218
328.0 0.003049 277.44931 324.07352
344.0 0.002907 277.47006 324.12943
325.0 0.003077 277.49078 321.51559
280.0 0.00357 277.51175 317.34854
326.0 0.003067 277.53275 313.49063
273.0 0.00366 277.55396 311.58099
325.0 0.003077 277.57523 311.79608
331.0 0.003021 277.59653 314.80475
333.0 0.003003 277.61798 320.14267
332.0 0.003012 277.63956 328.66031
359.0 0.002786 277.66129 338.82883
375.0 0.002667 277.68304 348.85184
386.0 0.002591 277.70490 355.89325
351.0 0.002849 277.72693 357.38760
339.0 0.002950 277.74902 353.63672
364.0 0.002747 277.77127 346.98425
324.0 0.003086 277.79361 339.73953
319.0 0.003135 277.81601 332.91364
314.0 0.003185 277.83856 327.38977
302.0 0.003311 277.86118 323.65173
311.0 0.003215 277.88397 321.14392
305.0 0.003279 277.90683 318.92166
292.0 0.003425 277.92978 316.76691
307.0 0.003257 277.95285 315.45731
325.0 0.003077 277.97598 315.87482
344.0 0.002907 277.99924 318.90851
326.0 0.003067 278.02271 324.82080
343.0 0.002915 278.04611 333.28357
355.0 0.002817 278.06979 344.55777
359.0 0.002786 278.09348 356.50903
379.0 0.002639 278.11725 366.10516
411.0 0.002433 278.14120 370.85095
395.0 0.002532 278.16513 370.23077
360.0 0.002778 278.18933 365.86874
352.0 0.002841 278.21362 360.33551
356.0 0.002809 278.23795 356.38425
363.0 0.002755 278.26239 356.05939
360.0 0.002778 278.28693 361.06491
353.0 0.002833 278.31161 372.61511
396.0 0.002525 278.33633 392.41190
456.0 0.002193 278.36115 421.14648
502.0 0.001992 278.38620 457.75974
534.0 0.001873 278.41122 498.77670
559.0 0.001789 278.43646 538.45410
665.0 0.001504 278.46170 570.19769
643.0 0.001555 278.48712 590.79401
582.0 0.001718 278.51257 599.72009
578.0 0.001730 278.53815 594.36993
557.0 0.001795 278.56390 571.99542
531.0 0.001883 278.58975 535.39600
479.0 0.002088 278.61560 492.44412
454.0 0.002203 278.64166 451.66919
388.0 0.002577 278.66776 417.38815
370.0 0.002703 278.69406 392.01270
370.0 0.002703 278.72037 375.52527
369.0 0.002710 278.74673 366.82315
378.0 0.002646 278.77328 364.36661
384.0 0.002604 278.79993 366.80411
345.0 0.002899 278.82672 373.89169
403.0 0.002481 278.85355 386.00662
416.0 0.002404 278.88052 403.78662
427.0 0.002342 278.90747 426.15247
456.0 0.002193 278.93469 449.89865
479.0 0.002088 278.96194 470.48801
499.0 0.002004 278.98929 484.61395
511.0 0.001957 279.01682 492.53812
556.0 0.001799 279.04434 495.82523
491.0 0.002037 279.07205 494.48972
505.0 0.001980 279.09982 488.68655
518.0 0.001931 279.12772 481.90036
508.0 0.001969 279.15564 479.16833
514.0 0.001946 279.18375 483.43555
528.0 0.001894 279.21191 492.01263
520.0 0.001923 279.24023 497.53101
518.0 0.001931 279.26859 491.06708
429.0 0.002331 279.29709 470.63266
403.0 0.002481 279.32571 442.82239
346.0 0.002890 279.35431 415.56122
362.0 0.002762 279.38315 393.08594
361.0 0.002770 279.41205 377.53619
348.0 0.002874 279.44104 368.78650
345.0 0.002899 279.47018 366.10272
354.0 0.002825 279.49933 367.80908
348.0 0.002874 279.52875 371.91595
374.0 0.002674 279.55801 377.02191
376.0 0.002660 279.58752 382.67865
368.0 0.002717 279.61719 389.67612
375.0 0.002667 279.64682 400.05991
413.0 0.002421 279.67664 416.62793
446.0 0.002242 279.70657 441.42209
493.0 0.002028 279.73657 474.33301
538.0 0.001859 279.76666 511.85617
580.0 0.001724 279.79678 546.16052
623.0 0.001605 279.82718 569.19989
617.0 0.001621 279.85751 574.84277
561.0 0.001783 279.88809 561.31927
514.0 0.001946 279.91870 534.10852
476.0 0.002101 279.94931 503.51334
463.0 0.002160 279.98022 478.08652
462.0 0.002165 280.01105 461.56226
446.0 0.002242 280.04205 453.14246
437.0 0.002288 280.07321 449.72693
437.0 0.002288 280.10434 450.48270
443.0 0.002257 280.13562 456.20044
482.0 0.002075 280.16705 466.14307
485.0 0.002062 280.19855 475.81244
482.0 0.002075 280.23007 478.28824
488.0 0.002049 280.26175 470.46457
422.0 0.002370 280.29355 456.40311
416.0 0.002404 280.32541 443.77142
444.0 0.002252 280.35748 436.84088
437.0 0.002288 280.38947 436.62292
440.0 0.002273 280.42166 441.72394
495.0 0.002020 280.45395 449.83762
466.0 0.002146 280.48630 460.49060
495.0 0.002020 280.51877 473.76785
527.0 0.001898 280.55139 490.23752
534.0 0.001873 280.58395 511.14954
587.0 0.001704 280.61673 536.01501
604.0 0.001656 280.64954 558.52045
638.0 0.001567 280.68253 567.55597
567.0 0.001764 280.71555 556.36255
508.0 0.001969 280.74869 531.01514
464.0 0.002155 280.78195 502.86694
454.0 0.002203 280.81525 479.71106
473.0 0.002114 280.84875 462.66995
434.0 0.002304 280.88220 447.86179
400.0 0.002500 280.91580 430.47635
405.0 0.002469 280.94952 409.96161
379.0 0.002639 280.98331 389.12146
359.0 0.002786 281.01724 370.93393
341.0 0.002933 281.05121 356.84845
357.0 0.002801 281.08533 347.33032
330.0 0.003030 281.11951 342.64401
351.0 0.002849 281.15378 342.59500
339.0 0.002950 281.18817 347.31125
327.0 0.003058 281.22260 356.74194
378.0 0.002646 281.25720 370.41733
404.0 0.002475 281.29181 387.12222
438.0 0.002283 281.32654 403.62799
446.0 0.002242 281.36142 415.81207
427.0 0.002342 281.39636 419.57837
421.0 0.002375 281.43137 416.62338
415.0 0.002410 281.46646 412.64645
416.0 0.002404 281.50168 412.15839
412.0 0.002427 281.53699 416.28958
433.0 0.002309 281.57239 422.88724
428.0 0.002336 281.60782 426.85721
419.0 0.002387 281.64346 423.62469
396.0 0.002525 281.67914 413.84021
366.0 0.002732 281.71494 402.52869
369.0 0.002710 281.75076 394.27667
383.0 0.002611 281.78671 391.47995
407.0 0.002457 281.82275 394.25760
401.0 0.002494 281.85886 401.08475
401.0 0.002494 281.89514 409.82999
444.0 0.002252 281.93146 419.31821
479.0 0.002088 281.96780 429.10385
484.0 0.002066 282.00433 437.20944
472.0 0.002119 282.04089 439.44028
430.0 0.002326 282.07764 433.62985
400.0 0.002500 282.11438 421.90326
406.0 0.002463 282.15118 409.91800
403.0 0.002481 282.18817 403.15189
381.0 0.002625 282.22516 403.68005
419.0 0.002387 282.26230 411.37784
472.0 0.002119 282.29956 423.48795
442.0 0.002262 282.33682 434.37711
418.0 0.002392 282.37424 437.38788
423.0 0.002364 282.41168 429.56433
450.0 0.002222 282.44928 415.06540
368.0 0.002717 282.48697 400.21530
387.0 0.002584 282.52466 390.19559
382.0 0.002618 282.56250 386.85300
385.0 0.002597 282.60046 390.56610
348.0 0.002874 282.63843 400.41367
405.0 0.002469 282.67654 414.83319
420.0 0.002381 282.71472 431.89359
437.0 0.002288 282.75302 448.00159
452.0 0.002212 282.79138 457.34369
417.0 0.002398 282.82986 455.33215
386.0 0.002591 282.86841 443.30896
427.0 0.002342 282.90695 426.88309
380.0 0.002632 282.94571 411.85342
363.0 0.002755 282.98447 401.31323
386.0 0.002591 283.02344 397.48792
448.0 0.002232 283.06238 399.08615
375.0 0.002667 283.10138 402.88940
355.0 0.002817 283.14056 403.90060
362.0 0.002762 283.17975 397.68964
371.0 0.002695 283.21915 384.53955
335.0 0.002985 283.25848 368.38504
331.0 0.003021 283.29791 353.51855
323.0 0.003096 283.33752 341.84497
340.0 0.002941 283.37720 334.23175
327.0 0.003058 283.41699 330.76010
287.0 0.003484 283.45679 330.96582
300.0 0.003333 283.49664 334.06915
339.0 0.002950 283.53668 338.76993
330.0 0.003030 283.57672 343.04492
324.0 0.003086 283.61694 344.68015
330.0 0.003030 283.65717 342.89099
321.0 0.003115 283.69748 338.97137
292.0 0.003425 283.73788 334.73984
311.0 0.003215 283.77835 331.67935
313.0 0.003195 283.81897 330.10898
304.0 0.003289 283.85959 331.07611
335.0 0.002985 283.90036 334.23132
352.0 0.002841 283.94116 338.95206
345.0 0.002899 283.98206 343.74445
357.0 0.002801 284.02304 347.83661
350.0 0.002857 284.06418 351.24118
352.0 0.002841 284.10532 353.97183
366.0 0.002732 284.14651 354.50992
347.0 0.002882 284.18787 351.54166
325.0 0.003077 284.22922 344.97128
319.0 0.003135 284.27075 336.79373
314.0 0.003185 284.31226 328.50848
309.0 0.003236 284.35397 321.26242
324.0 0.003086 284.39563 315.50760
324.0 0.003086 284.43747 311.75476
290.0 0.003448 284.47943 309.98541
303.0 0.003300 284.52127 310.15884
338.0 0.002959 284.56335 312.21133
333.0 0.003003 284.60547 315.93097
329.0 0.003040 284.64771 320.82922
353.0 0.002833 284.68997 326.48773
345.0 0.002899 284.73230 332.12457
339.0 0.002950 284.77484 337.13974
365.0 0.002740 284.81726 340.58438
338.0 0.002959 284.85992 341.30292
328.0 0.003049 284.90265 339.59326
318.0 0.003145 284.94531 336.83969
329.0 0.003040 284.98819 334.18695
332.0 0.003012 285.03104 331.03690
286.0 0.003497 285.07407 326.95877
353.0 0.002833 285.11719 321.87857
317.0 0.003155 285.16031 316.62436
307.0 0.003257 285.20352 311.74576
313.0 0.003195 285.24683 307.66779
285.0 0.00351 285.29028 304.52151
327.0 0.003058 285.33371 302.44235
325.0 0.003077 285.37720 301.42319
291.0 0.003436 285.42084 301.38776
307.0 0.003257 285.46457 302.29544
330.0 0.003030 285.50830 303.92184
325.0 0.003077 285.55219 306.13428
312.0 0.003205 285.59601 308.74100
305.0 0.003279 285.64005 311.20898
332.0 0.003012 285.68408 313.27670
290.0 0.003448 285.72827 314.30637
316.0 0.003165 285.77246 313.71494
325.0 0.003077 285.81674 311.63565
330.0 0.003030 285.86115 308.81216
313.0 0.003195 285.90555 306.11520
302.0 0.003311 285.95013 304.04895
309.0 0.003236 285.99469 302.76831
325.0 0.003077 286.03928 302.35526
313.0 0.003195 286.08408 302.82574
318.0 0.003145 286.12894 304.20615
309.0 0.003236 286.17383 306.48972
309.0 0.003236 286.21881 309.79480
323.0 0.003096 286.26379 314.11008
340.0 0.002941 286.30896 319.03720
321.0 0.003115 286.35410 324.47668
324.0 0.003086 286.39938 330.21964
352.0 0.002841 286.44476 336.69370
362.0 0.002762 286.49011 345.07227
368.0 0.002717 286.53558 356.87079
401.0 0.002494 286.58115 372.63608
453.0 0.002208 286.62683 391.45477
459.0 0.002179 286.67255 410.87320
436.0 0.002294 286.71826 426.34427
435.0 0.002299 286.76413 433.02533
417.0 0.002398 286.81000 428.92920
399.0 0.002506 286.85602 416.22989
375.0 0.002667 286.90213 399.81055
371.0 0.002695 286.94818 384.64651
380.0 0.002632 286.99438 373.66330
367.0 0.002725 287.04065 368.24469
361.0 0.002770 287.08701 367.91254
385.0 0.002597 287.13339 370.99280
381.0 0.002625 287.17987 374.71985
339.0 0.002950 287.22644 376.16864
359.0 0.002786 287.27307 374.77405
372.0 0.002688 287.31976 371.86008
385.0 0.002597 287.36652 369.14154
385.0 0.002597 287.41330 367.29303
377.0 0.002653 287.46021 366.67075
385.0 0.002597 287.50720 367.06143
339.0 0.002950 287.55429 369.50330
387.0 0.002584 287.60141 374.48557
402.0 0.002488 287.64850 381.25470
407.0 0.002457 287.69580 388.11115
418.0 0.002392 287.74304 392.79755
345.0 0.002899 287.79050 394.51669
359.0 0.002786 287.83795 394.23083
379.0 0.002639 287.88541 394.64584
382.0 0.002618 287.93301 398.76343
437.0 0.002288 287.98065 408.42548
456.0 0.002193 288.02844 423.64890
497.0 0.002012 288.07623 441.85559
503.0 0.001988 288.12405 457.51001
509.0 0.001965 288.17206 463.63763
450.0 0.002222 288.21994 456.85986
452.0 0.002212 288.26810 440.10754
419.0 0.002387 288.31622 419.79703
384.0 0.002604 288.36435 400.81348
403.0 0.002481 288.41263 385.35889
386.0 0.002591 288.46097 373.98596
373.0 0.002681 288.50937 366.47791
367.0 0.002725 288.55792 362.03384
345.0 0.002899 288.60632 360.17838
334.0 0.002994 288.65497 360.39920
346.0 0.002890 288.70355 362.69211
392.0 0.002551 288.75235 367.53610
411.0 0.002433 288.80115 374.87775
392.0 0.002551 288.84995 384.11429
418.0 0.002392 288.89883 393.99359
422.0 0.002370 288.94781 403.50009
439.0 0.002278 288.99692 412.49115
465.0 0.002151 289.04602 421.20636
466.0 0.002146 289.09518 429.71002
434.0 0.002304 289.14444 437.59738
447.0 0.002237 289.19376 444.12643
449.0 0.002227 289.24310 448.96390
458.0 0.002183 289.29254 453.46994
480.0 0.002083 289.34201 459.77155
476.0 0.002101 289.39160 467.87244
495.0 0.002020 289.44125 475.25763
499.0 0.002004 289.49097 477.65265
491.0 0.002037 289.54071 471.96924
435.0 0.002299 289.59045 458.71771
415.0 0.002410 289.64035 442.08505
437.0 0.002288 289.69028 426.92209
431.0 0.002320 289.74030 416.09714
423.0 0.002364 289.79037 410.38663
405.0 0.002469 289.84045 408.35468
395.0 0.002532 289.89072 407.55649
403.0 0.002481 289.94092 404.65018
404.0 0.002475 289.99127 398.56830
380.0 0.002632 290.04166 390.49899
358.0 0.002793 290.09204 381.93912
360.0 0.002778 290.14261 374.27258
377.0 0.002653 290.19312 368.11850
324.0 0.003086 290.24384 364.22223
339.0 0.002950 290.29449 363.49213
348.0 0.002874 290.34518 366.63544
341.0 0.002933 290.39606 373.80869
387.0 0.002584 290.44690 384.45404
435.0 0.002299 290.49783 397.61038
425.0 0.002353 290.54886 411.30927
447.0 0.002237 290.59985 423.48120
408.0 0.002451 290.65100 433.44370
432.0 0.002315 290.70218 442.21481
483.0 0.002070 290.75339 452.00745
548.0 0.001825 290.80475 463.15463
487.0 0.002053 290.85602 472.51089
495.0 0.002020 290.90747 474.22275
483.0 0.002070 290.95895 464.66525
450.0 0.002222 291.01050 445.74808
401.0 0.002494 291.06216 422.27069
346.0 0.002890 291.11374 398.80432
324.0 0.003086 291.16547 378.12579
319.0 0.003135 291.21725 361.76202
309.0 0.003236 291.26910 349.63675
309.0 0.003236 291.32098 341.05771
338.0 0.002959 291.37286 334.71112
340.0 0.002941 291.42499 330.53491
330.0 0.003030 291.47693 327.82492
300.0 0.003333 291.52917 326.69089
301.0 0.003322 291.58133 326.88193
301.0 0.003322 291.63354 328.60992
327.0 0.003058 291.68588 331.90128
342.0 0.002924 291.73819 336.91367
319.0 0.003135 291.79068 343.86926
362.0 0.002762 291.84311 352.68594
392.0 0.002551 291.89563 363.31412
395.0 0.002532 291.94827 374.87924
383.0 0.002611 292.00085 385.35605
393.0 0.002545 292.05365 392.12518
396.0 0.002525 292.10635 394.29535
383.0 0.002611 292.15921 393.52271
377.0 0.002653 292.21210 392.34543
390.0 0.002564 292.26498 392.79318
402.0 0.002488 292.31802 395.75092
433.0 0.002309 292.37109 400.62784
463.0 0.002160 292.42416 405.02939
436.0 0.002294 292.47729 405.31903
377.0 0.002653 292.53058 400.35535
387.0 0.002584 292.58386 391.97543
387.0 0.002584 292.63724 383.84317
381.0 0.002625 292.69058 378.84534
391.0 0.002558 292.74405 378.54163
377.0 0.002653 292.79758 382.75885
390.0 0.002564 292.85114 390.79971
386.0 0.002591 292.90479 399.65265
401.0 0.002494 292.95844 405.80872
400.0 0.002500 293.01218 405.47516
376.0 0.002660 293.06595 398.39795
358.0 0.002793 293.11990 387.95438
353.0 0.002833 293.17377 377.99542
374.0 0.002674 293.22766 371.07156
350.0 0.002857 293.28171 368.25906
339.0 0.002950 293.33572 369.95184
375.0 0.002667 293.38989 375.61389
417.0 0.002398 293.44412 384.31244
375.0 0.002667 293.49826 394.56900
392.0 0.002551 293.55264 404.15411
399.0 0.002506 293.60693 410.12372
426.0 0.002347 293.66138 410.11935
401.0 0.002494 293.71582 403.86411
388.0 0.002577 293.77036 393.85382
371.0 0.002695 293.82495 383.48740
378.0 0.002646 293.87955 375.27921
346.0 0.002890 293.93427 370.69406
358.0 0.002793 293.98898 369.98138
358.0 0.002793 294.04367 373.16040
365.0 0.002740 294.09863 379.46823
363.0 0.002755 294.15350 386.84375
363.0 0.002755 294.20847 393.11240
418.0 0.002392 294.26352 397.04636
406.0 0.002463 294.31851 398.43073
368.0 0.002717 294.37369 397.72894
391.0 0.002558 294.42880 394.33456
380.0 0.002632 294.48413 388.97266
389.0 0.002571 294.53940 382.89124
385.0 0.002597 294.59473 377.67224
366.0 0.002732 294.65005 374.17242
395.0 0.002532 294.70554 372.57590
377.0 0.002653 294.76111 372.66058
370.0 0.002703 294.81668 374.09149
396.0 0.002525 294.87219 376.69653
393.0 0.002545 294.92783 380.79755
392.0 0.002551 294.98361 386.94501
409.0 0.002445 295.03940 395.41904
416.0 0.002404 295.09528 405.50781
417.0 0.002398 295.15112 415.43539
422.0 0.002370 295.20706 423.11270
442.0 0.002262 295.26303 426.86905
432.0 0.002315 295.31909 426.82620
421.0 0.002375 295.37521 424.77557
401.0 0.002494 295.43130 422.82651
407.0 0.002457 295.48758 421.54926
407.0 0.002457 295.54385 420.97940
419.0 0.002387 295.60016 421.27066
449.0 0.002227 295.65659 422.84760
456.0 0.002193 295.71289 426.47708
447.0 0.002237 295.76944 432.75598
456.0 0.002193 295.82596 441.96637
468.0 0.002137 295.88251 454.61514
488.0 0.002049 295.93924 470.98727
510.0 0.001961 295.99588 489.97095
538.0 0.001859 296.05264 508.35773
526.0 0.001901 296.10944 521.22894
524.0 0.001908 296.16638 524.78656
528.0 0.001894 296.22324 519.33643
520.0 0.001923 296.28018 509.04721
522.0 0.001916 296.33725 497.63428
478.0 0.002092 296.39432 485.75522
477.0 0.002096 296.45142 472.18436
429.0 0.002331 296.50861 456.61407
434.0 0.002304 296.56573 440.14078
418.0 0.002392 296.62314 424.18610
418.0 0.002392 296.68048 409.89325
399.0 0.002506 296.73785 397.69052
391.0 0.002558 296.79535 387.49124
385.0 0.002597 296.85272 379.41196
330.0 0.003030 296.91037 374.24380
387.0 0.002584 296.96793 372.18323
377.0 0.002653 297.02570 373.58914
374.0 0.002674 297.08344 378.14139
388.0 0.002577 297.14108 385.59079
386.0 0.002591 297.19901 395.87704
428.0 0.002336 297.25687 408.58777
431.0 0.002320 297.31485 422.47208
448.0 0.002232 297.37280 435.16675
453.0 0.002208 297.43085 443.96945
460.0 0.002174 297.48898 446.93112
469.0 0.002132 297.54712 444.12930
431.0 0.002320 297.60532 436.50476
447.0 0.002237 297.66364 425.48499
413.0 0.002421 297.72189 412.70139
425.0 0.002353 297.78033 399.37231
416.0 0.002404 297.83875 387.08411
364.0 0.002747 297.89719 376.75702
321.0 0.003115 297.95581 368.56903
331.0 0.003021 298.01431 362.41470
340.0 0.002941 298.07306 358.55435
350.0 0.002857 298.13174 357.50058
377.0 0.002653 298.19052 359.61078
382.0 0.002618 298.24927 365.18454
393.0 0.002545 298.30807 373.86099
413.0 0.002421 298.36700 384.85837
431.0 0.002320 298.42603 396.19568
426.0 0.002347 298.48508 404.82239
419.0 0.002387 298.54410 407.71652
414.0 0.002415 298.60321 404.32321
390.0 0.002564 298.66248 396.98019
361.0 0.002770 298.72177 388.75555
371.0 0.002695 298.78104 381.76035
360.0 0.002778 298.84042 376.73819
353.0 0.002833 298.89978 373.74438
364.0 0.002747 298.95932 372.49597
382.0 0.002618 299.01880 373.08380
417.0 0.002398 299.07843 375.82968
428.0 0.002336 299.13803 380.48544
413.0 0.002421 299.19769 386.07883
434.0 0.002304 299.25748 390.63788
402.0 0.002488 299.31729 391.60638
396.0 0.002525 299.37720 388.25381
386.0 0.002591 299.43707 382.06387
360.0 0.002778 299.49695 375.52686
371.0 0.002695 299.55710 370.68973
361.0 0.002770 299.61716 368.69699
403.0 0.002481 299.67728 370.33466
387.0 0.002584 299.73755 374.66537
395.0 0.002532 299.79776 381.61755
378.0 0.002646 299.85806 389.48410
403.0 0.002481 299.91843 397.59213
413.0 0.002421 299.97894 406.42505
435.0 0.002299 300.03937 417.77750
444.0 0.002252 300.09995 433.10431
470.0 0.002128 300.16052 452.63315
542.0 0.001845 300.22116 474.37061
579.0 0.001727 300.28189 494.11615
550.0 0.001818 300.34271 506.48755
539.0 0.001855 300.40347 508.67419
542.0 0.001845 300.46439 502.06177
492.0 0.002033 300.52533 489.59134
497.0 0.002012 300.58633 473.61581
459.0 0.002179 300.64746 455.93967
419.0 0.002387 300.70853 437.98434
431.0 0.002320 300.76971 420.02405
413.0 0.002421 300.83093 403.06494
398.0 0.002513 300.89224 387.67761
363.0 0.002755 300.95361 374.39536
348.0 0.002874 301.01495 363.55191
331.0 0.003021 301.07648 355.22998
331.0 0.003021 301.13800 350.07639
340.0 0.002941 301.19958 347.41953
315.0 0.003175 301.26129 347.30640
332.0 0.003012 301.32291 349.85345
359.0 0.002786 301.38474 355.12589
377.0 0.002653 301.44650 363.19226
378.0 0.002646 301.50845 373.52744
386.0 0.002591 301.57040 385.50690
408.0 0.002451 301.63232 398.04971
420.0 0.002381 301.69443 408.79300
409.0 0.002445 301.75659 415.54974
415.0 0.002410 301.81873 417.16727
416.0 0.002404 301.88098 414.51361
401.0 0.002494 301.94330 409.41678
393.0 0.002545 302.00571 403.48798
405.0 0.002469 302.06815 398.28043
407.0 0.002457 302.13065 394.87128
397.0 0.002519 302.19318 393.60239
394.0 0.002538 302.25571 394.65338
405.0 0.002469 302.31848 397.57083
406.0 0.002463 302.38113 401.85376
430.0 0.002326 302.44400 406.54803
445.0 0.002247 302.50690 410.87393
427.0 0.002342 302.56973 414.59470
422.0 0.002370 302.63275 416.90198
433.0 0.002309 302.69580 416.28421
427.0 0.002342 302.75894 411.21112
407.0 0.002457 302.82214 401.88669
402.0 0.002488 302.88531 390.50668
373.0 0.002681 302.94864 379.22092
358.0 0.002793 303.01196 369.13162
324.0 0.003086 303.07544 360.77368
315.0 0.003175 303.13898 354.11368
338.0 0.002959 303.20245 349.38300
335.0 0.002985 303.26617 346.58020
301.0 0.003322 303.32977 345.63370
335.0 0.002985 303.39359 346.44336
355.0 0.002817 303.45737 348.93362
331.0 0.003021 303.52124 353.05643
375.0 0.002667 303.58527 358.64926
365.0 0.002740 303.64923 365.86066
373.0 0.002681 303.71335 374.51175
359.0 0.002786 303.77747 384.35278
420.0 0.002381 303.84167 395.46411
409.0 0.002445 303.90598 407.98825
441.0 0.002268 303.97028 422.18042
482.0 0.002075 304.03473 438.35388
495.0 0.002020 304.09915 456.39377
547.0 0.001828 304.16370 475.01208
565.0 0.001770 304.22836 492.79013
564.0 0.001773 304.29300 509.41495
602.0 0.001661 304.35779 525.64886
595.0 0.001681 304.42258 542.57855
640.0 0.001563 304.48749 561.76904
667.0 0.001499 304.55240 585.37842
692.0 0.001445 304.61746 614.46747
772.0 0.001295 304.68256 646.96808
805.0 0.001242 304.74774 675.80334
795.0 0.001258 304.81290 690.30035
737.0 0.001357 304.87823 682.19897
646.0 0.001548 304.94354 652.80450
580.0 0.001724 305.00903 610.93744
551.0 0.001815 305.07452 567.32629
504.0 0.001984 305.14008 528.67657
511.0 0.001957 305.20575 497.51282
473.0 0.002114 305.27151 473.72256
439.0 0.002278 305.33731 455.79843
451.0 0.002217 305.40317 442.73779
442.0 0.002262 305.46902 433.34018
419.0 0.002387 305.53506 426.95380
391.0 0.002558 305.60120 423.71146
412.0 0.002427 305.66736 423.64569
421.0 0.002375 305.73361 426.44583
422.0 0.002370 305.79980 432.07162
417.0 0.002398 305.86624 440.55588
443.0 0.002257 305.93262 451.97943
477.0 0.002096 305.99921 466.62134
511.0 0.001957 306.06577 485.36417
552.0 0.001812 306.13239 509.42487
583.0 0.001715 306.19916 539.15454
647.0 0.001546 306.26593 572.63422
654.0 0.001529 306.33295 605.20099
681.0 0.001468 306.39978 630.31671
685.0 0.001460 306.46677 643.61255
680.0 0.001471 306.53400 646.29150
662.0 0.001511 306.60114 643.47607
683.0 0.001464 306.66849 639.78778
654.0 0.001529 306.73587 634.90765
614.0 0.001629 306.80319 624.03491
549.0 0.001821 306.87070 602.19769
510.0 0.001961 306.93829 569.79205
473.0 0.002114 307.00598 531.78748
457.0 0.002188 307.07370 493.94644
411.0 0.002433 307.14145 460.14792
392.0 0.002551 307.20941 432.08069
388.0 0.002577 307.27731 410.37161
386.0 0.002591 307.34549 394.66711
375.0 0.002667 307.41354 384.25552
387.0 0.002584 307.48169 378.32529
371.0 0.002695 307.55002 375.71936
369.0 0.002710 307.61835 375.71176
341.0 0.002933 307.68680 377.66617
356.0 0.002809 307.75540 381.28220
402.0 0.002488 307.82394 386.80322
382.0 0.002618 307.89267 394.54785
412.0 0.002427 307.96136 404.55548
473.0 0.002114 308.03027 416.16159
399.0 0.002506 308.09927 428.58627
506.0 0.001976 308.16821 441.22168
492.0 0.002033 308.23730 452.84299
508.0 0.001969 308.30652 462.66983
451.0 0.002217 308.37585 468.47601
477.0 0.002096 308.44516 467.61499
446.0 0.002242 308.51456 458.85428
430.0 0.002326 308.58417 443.73062
409.0 0.002445 308.65369 425.82843
420.0 0.002381 308.72339 408.48660
340.0 0.002941 308.79315 393.85629
378.0 0.002646 308.86304 382.91675
381.0 0.002625 308.93301 375.90750
379.0 0.002639 309.00305 372.71033
363.0 0.002755 309.07321 372.97632
372.0 0.002688 309.14346 376.27304
393.0 0.002545 309.21362 381.99930
402.0 0.002488 309.28406 389.53320
393.0 0.002545 309.35452 398.12369
460.0 0.002174 309.42511 407.03348
460.0 0.002174 309.49576 416.10593
448.0 0.002232 309.56644 425.52676
454.0 0.002203 309.63739 435.21109
457.0 0.002188 309.70828 443.74811
461.0 0.002169 309.77933 449.60867
453.0 0.002208 309.85037 452.59360
433.0 0.002309 309.92157 453.92523
444.0 0.002252 309.99283 455.31680
453.0 0.002208 310.06424 458.30795
465.0 0.002151 310.13574 464.41443
505.0 0.001980 310.20728 474.49557
518.0 0.001931 310.27890 487.90973
521.0 0.001919 310.35071 501.72104
517.0 0.001934 310.42239 512.45996
513.0 0.001949 310.49448 514.86798
501.0 0.001996 310.56650 506.91058
477.0 0.002096 310.63855 489.80814
483.0 0.002070 310.71082 467.80692
417.0 0.002398 310.78314 445.70877
373.0 0.002681 310.85553 426.38513
383.0 0.002611 310.92807 411.24774
393.0 0.002545 311.00064 400.56186
382.0 0.002618 311.07336 393.91873
377.0 0.002653 311.14612 390.48096
384.0 0.002604 311.21896 389.40079
405.0 0.002469 311.29208 389.97296
379.0 0.002639 311.36505 391.56729
419.0 0.002387 311.43829 393.10556
404.0 0.002475 311.51154 393.70245
408.0 0.002451 311.58496 393.03888
410.0 0.002439 311.65848 391.92307
407.0 0.002457 311.73203 391.43936
396.0 0.002525 311.80573 392.19373
387.0 0.002584 311.87952 394.99570
416.0 0.002404 311.95343 400.12653
394.0 0.002538 312.02737 407.17081
437.0 0.002288 312.10138 414.50049
397.0 0.002519 312.17569 420.63922
434.0 0.002304 312.24988 423.19583
435.0 0.002299 312.32443 420.46671
395.0 0.002532 312.39886 412.87622
415.0 0.002410 312.47339 402.23587
370.0 0.002703 312.54816 391.10104
376.0 0.002660 312.62292 381.27975
366.0 0.002732 312.69791 373.25186
370.0 0.002703 312.77298 368.23169
353.0 0.002833 312.84799 365.74994
363.0 0.002755 312.92331 365.95261
336.0 0.002976 312.99857 368.68372
380.0 0.002632 313.07410 373.66681
409.0 0.002445 313.14963 380.74924
404.0 0.002475 313.22525 389.59100
405.0 0.002469 313.30103 399.57187
428.0 0.002336 313.37692 409.62173
423.0 0.002364 313.45294 418.87378
440.0 0.002273 313.52911 427.51416
458.0 0.002183 313.60516 437.12744
462.0 0.002165 313.68158 449.34604
498.0 0.002008 313.75797 464.89041
525.0 0.001905 313.83453 482.84113
556.0 0.001799 313.91125 500.65610
561.0 0.001783 313.98792 514.20001
530.0 0.001887 314.06485 519.67468
512.0 0.001953 314.14185 515.36682
493.0 0.002028 314.21896 501.70764
429.0 0.002331 314.29617 481.14246
406.0 0.002463 314.37341 457.55331
402.0 0.002488 314.45090 434.27682
379.0 0.002639 314.52844 414.18686
358.0 0.002793 314.60620 397.77737
361.0 0.002770 314.68393 385.71808
367.0 0.002725 314.76181 377.62613
334.0 0.002994 314.83984 373.15585
354.0 0.002825 314.91797 371.89789
372.0 0.002688 314.99625 373.39572
362.0 0.002762 315.07462 377.35065
376.0 0.002660 315.15311 383.42850
367.0 0.002725 315.23175 391.14429
403.0 0.002481 315.31046 400.00854
407.0 0.002457 315.38931 409.66061
446.0 0.002242 315.46832 420.28348
470.0 0.002128 315.54730 432.39752
464.0 0.002155 315.62650 446.19376
463.0 0.002160 315.70584 460.75192
455.0 0.002198 315.78537 474.34805
475.0 0.002105 315.86493 483.93762
430.0 0.002326 315.94455 487.26886
471.0 0.002123 316.02441 484.09320
466.0 0.002146 316.10431 475.93753
461.0 0.002169 316.18442 464.89197
439.0 0.002278 316.26465 453.46472
421.0 0.002375 316.34485 444.06281
446.0 0.002242 316.42542 438.34753
473.0 0.002114 316.50586 437.09229
435.0 0.002299 316.58670 440.26834
458.0 0.002183 316.66736 446.95911
486.0 0.002058 316.74826 455.66296
465.0 0.002151 316.82941 465.15320
498.0 0.002008 316.91052 473.42358
477.0 0.002096 316.99194 479.22226
449.0 0.002227 317.07343 481.73203
439.0 0.002278 317.15491 480.75919
448.0 0.002232 317.23660 476.99960
463.0 0.002160 317.31836 471.72717
459.0 0.002179 317.40042 466.14313
474.0 0.002110 317.48254 460.98965
458.0 0.002183 317.56473 456.95496
439.0 0.002278 317.64709 454.76019
474.0 0.002110 317.72952 454.90442
460.0 0.002174 317.81216 456.74789
477.0 0.002096 317.89493 458.74423
492.0 0.002033 317.97775 459.11322
468.0 0.002137 318.06085 456.36276
451.0 0.002217 318.14398 450.07391
440.0 0.002273 318.22726 441.63376
419.0 0.002387 318.31076 433.34979
411.0 0.002433 318.39420 427.35956
424.0 0.002358 318.47791 424.92490
439.0 0.002278 318.56171 426.60907
447.0 0.002237 318.64572 432.45322
440.0 0.002273 318.72986 442.15256
443.0 0.002257 318.81400 455.60419
476.0 0.002101 318.89838 472.31204
515.0 0.001942 318.98291 491.78720
539.0 0.001855 319.06757 513.12372
613.0 0.001631 319.15231 534.76959
657.0 0.001522 319.23721 554.48578
663.0 0.001508 319.32227 569.52979
640.0 0.001563 319.40750 577.22174
627.0 0.001595 319.49286 575.78107
591.0 0.001692 319.57834 564.76971
568.0 0.001761 319.66391 545.74683
511.0 0.001957 319.74969 522.00830
452.0 0.002212 319.83560 497.48950
455.0 0.002198 319.92160 475.07104
466.0 0.002146 320.00793 456.41733
471.0 0.002123 320.09412 441.38937
425.0 0.002353 320.18063 428.96289
390.0 0.002564 320.26721 418.29877
381.0 0.002625 320.35406 409.29144
376.0 0.002660 320.44098 402.56674
365.0 0.002740 320.52792 398.76288
396.0 0.002525 320.61517 398.41312
417.0 0.002398 320.70255 401.84634
461.0 0.002169 320.79007 408.84903
453.0 0.002208 320.87772 420.09222
485.0 0.002062 320.96539 434.86801
463.0 0.002160 321.05334 452.22034
503.0 0.001988 321.14145 470.39932
519.0 0.001927 321.22977 486.63135
504.0 0.001984 321.31815 497.98334
519.0 0.001927 321.40656 502.73349
516.0 0.001938 321.49530 501.02551
516.0 0.001938 321.58411 494.05826
527.0 0.001898 321.67307 482.98221
475.0 0.002105 321.76227 468.72940
435.0 0.002299 321.85144 452.30634
404.0 0.002475 321.94098 435.10251
400.0 0.002500 322.03043 418.63199
434.0 0.002304 322.12027 404.11725
392.0 0.002551 322.21011 392.11288
382.0 0.002618 322.30011 382.54993
371.0 0.002695 322.39041 374.98553
375.0 0.002667 322.48068 369.03662
359.0 0.002786 322.57126 364.31110
374.0 0.002674 322.66193 360.73572
373.0 0.002681 322.75259 358.59930
368.0 0.002717 322.84366 357.87793
368.0 0.002717 322.93472 358.46228
367.0 0.002725 323.02606 360.76978
350.0 0.002857 323.11746 364.56415
388.0 0.002577 323.20901 369.66666
373.0 0.002681 323.30084 375.68503
366.0 0.002732 323.39270 381.79535
401.0 0.002494 323.48480 386.83578
401.0 0.002494 323.57697 389.66638
398.0 0.002513 323.66934 389.59958
375.0 0.002667 323.76193 387.10965
379.0 0.002639 323.85455 383.32391
383.0 0.002611 323.94751 379.45822
388.0 0.002577 324.04053 376.22159
364.0 0.002747 324.13358 373.45667
343.0 0.002915 324.22699 370.76440
351.0 0.002849 324.32043 367.96051
348.0 0.002874 324.41412 365.14789
352.0 0.002841 324.50809 362.76688
366.0 0.002732 324.60193 361.16650
353.0 0.002833 324.69611 360.43015
335.0 0.002985 324.79037 360.53647
333.0 0.003003 324.88498 361.45349
333.0 0.003003 324.97958 363.22241
348.0 0.002874 325.07425 365.71939
366.0 0.002732 325.16922 368.61594
336.0 0.002976 325.26437 371.49890
364.0 0.002747 325.35968 373.59787
371.0 0.002695 325.45520 375.22809
348.0 0.002874 325.55075 376.33255
388.0 0.002577 325.64664 376.80121
356.0 0.002809 325.74249 376.30106
340.0 0.002941 325.83868 374.68887
329.0 0.003040 325.93500 372.14917
381.0 0.002625 326.03128 368.99417
375.0 0.002667 326.12805 365.55130
339.0 0.002950 326.22473 362.28479
360.0 0.002778 326.32178 359.31244
329.0 0.003040 326.41888 357.01675
365.0 0.002740 326.51608 355.16327
330.0 0.003030 326.61356 353.87100
343.0 0.002915 326.71118 352.29492
328.0 0.003049 326.80905 350.90460
313.0 0.003195 326.90698 349.59381
362.0 0.002762 327.00504 348.53552
342.0 0.002924 327.10339 347.97113
339.0 0.002950 327.20184 347.95517
303.0 0.003300 327.30051 348.50937
321.0 0.003115 327.39944 349.67313
369.0 0.002710 327.49823 351.42892
369.0 0.002710 327.59750 353.68250
343.0 0.002915 327.69672 356.24545
332.0 0.003012 327.79633 358.91937
367.0 0.002725 327.89600 361.69232
348.0 0.002874 327.99576 364.69055
354.0 0.002825 328.09586 368.13828
354.0 0.002825 328.19598 372.11267
361.0 0.002770 328.29636 376.65567
410.0 0.002439 328.39700 381.79764
407.0 0.002457 328.49759 387.56119
402.0 0.002488 328.59851 393.93723
411.0 0.002433 328.69952 400.19089
447.0 0.002237 328.80081 405.43396
451.0 0.002217 328.90228 408.54422
418.0 0.002392 329.00372 408.44540
416.0 0.002404 329.10553 406.07950
396.0 0.002525 329.20737 402.27670
392.0 0.002551 329.30954 398.23053
371.0 0.002695 329.41187 394.22287
370.0 0.002703 329.51419 390.16061
354.0 0.002825 329.61691 385.97836
346.0 0.002890 329.71964 381.79477
348.0 0.002874 329.82266 378.20297
344.0 0.002907 329.92587 375.73218
362.0 0.002762 330.02905 374.70801
393.0 0.002545 330.13269 375.08945
390.0 0.002564 330.23630 376.53320
383.0 0.002611 330.34018 378.37042
380.0 0.002632 330.44418 379.70270
360.0 0.002778 330.54825 379.73935
370.0 0.002703 330.65274 378.29800
364.0 0.002747 330.75726 375.93378
334.0 0.002994 330.86206 373.57104
336.0 0.002976 330.96701 371.81616
362.0 0.002762 331.07199 371.17004
355.0 0.002817 331.17737 371.82059
388.0 0.002577 331.28271 373.66266
374.0 0.002674 331.38840 376.41351
368.0 0.002717 331.49426 379.32532
386.0 0.002591 331.60007 381.77847
385.0 0.002597 331.70633 383.29691
400.0 0.002500 331.81256 384.26242
370.0 0.002703 331.91913 385.41016
380.0 0.002632 332.02579 387.01425
372.0 0.002688 332.13263 389.48840
402.0 0.002488 332.23972 392.96133
387.0 0.002584 332.34689 397.18607
394.0 0.002538 332.45438 401.98752
408.0 0.002451 332.56198 406.95355
459.0 0.002179 332.66965 411.44495
454.0 0.002203 332.77762 414.66306
386.0 0.002591 332.88559 416.24490
401.0 0.002494 332.99402 416.45499
424.0 0.002358 333.10245 416.29370
403.0 0.002481 333.21103 416.33917
427.0 0.002342 333.31989 417.05048
450.0 0.002222 333.42896 418.63989
493.0 0.002028 333.53809 421.11365
465.0 0.002151 333.64740 424.16284
462.0 0.002165 333.75690 427.02014
470.0 0.002128 333.86661 428.45395
459.0 0.002179 333.97650 428.21567
452.0 0.002212 334.08658 426.99002
461.0 0.002169 334.19690 426.09024
417.0 0.002398 334.30719 426.66223
419.0 0.002387 334.41785 428.98569
456.0 0.002193 334.52863 432.63367
465.0 0.002151 334.63959 436.42093
467.0 0.002141 334.75070 439.04144
465.0 0.002151 334.86191 440.02911
471.0 0.002123 334.97342 439.95544
486.0 0.002058 335.08502 440.14136
479.0 0.002088 335.19699 441.42987
484.0 0.002066 335.30893 443.67691
474.0 0.002110 335.42105 445.73956
460.0 0.002174 335.53348 445.93201
442.0 0.002262 335.64594 442.97443
429.0 0.002331 335.75876 436.84055
423.0 0.002364 335.87161 428.70370
405.0 0.002469 335.98456 420.17749
392.0 0.002551 336.09787 412.60159
390.0 0.002564 336.21118 406.85486
397.0 0.002519 336.32489 403.24182
416.0 0.002404 336.43866 401.69595
412.0 0.002427 336.55252 401.90091
414.0 0.002415 336.66663 403.34888
410.0 0.002439 336.78091 405.45901
418.0 0.002392 336.89542 407.86243
422.0 0.002370 337.01007 410.74469
414.0 0.002415 337.12463 414.71118
455.0 0.002198 337.23972 420.40460
460.0 0.002174 337.35486 427.81250
481.0 0.002079 337.47025 436.37979
474.0 0.002110 337.58572 444.92383
480.0 0.002083 337.70129 451.49503
460.0 0.002174 337.81720 454.74612
468.0 0.002137 337.93317 454.27441
440.0 0.002273 338.04938 450.80017
438.0 0.002283 338.16571 445.56998
420.0 0.002381 338.28217 439.62802
423.0 0.002364 338.39880 433.83298
395.0 0.002532 338.51566 428.63422
407.0 0.002457 338.63272 423.42920
418.0 0.002392 338.74994 418.26083
426.0 0.002347 338.86713 413.14902
387.0 0.002584 338.98477 408.14215
381.0 0.002625 339.10236 403.34085
410.0 0.002439 339.22031 398.98807
392.0 0.002551 339.33835 395.50061
384.0 0.002604 339.45636 393.19812
379.0 0.002639 339.57486 392.37769
357.0 0.002801 339.69330 392.94202
393.0 0.002545 339.81207 394.63721
416.0 0.002404 339.93091 396.94553
386.0 0.002591 340.04977 399.13440
384.0 0.002604 340.16898 400.56146
398.0 0.002513 340.28827 401.07730
384.0 0.002604 340.40787 401.13315
401.0 0.002494 340.52747 401.27069
391.0 0.002558 340.64716 401.80853
388.0 0.002577 340.76724 402.70544
399.0 0.002506 340.88727 403.60751
356.0 0.002809 341.00766 404.15839
389.0 0.002571 341.12808 404.30521
410.0 0.002439 341.24860 404.13651
393.0 0.002545 341.36942 404.01688
401.0 0.002494 341.49020 404.47046
431.0 0.002320 341.61139 406.11212
412.0 0.002427 341.73267 409.67169
412.0 0.002427 341.85391 415.41016
431.0 0.002320 341.97552 423.79312
441.0 0.002268 342.09711 434.53195
432.0 0.002315 342.21906 447.18930
433.0 0.002309 342.34106 460.72720
484.0 0.002066 342.46307 473.76688
470.0 0.002128 342.58539 484.77036
477.0 0.002096 342.70773 492.72516
504.0 0.001984 342.83044 497.47137
515.0 0.001942 342.95319 499.48615
510.0 0.001961 343.07596 498.95224
508.0 0.001969 343.19901 496.33792
514.0 0.001946 343.32220 491.73425
486.0 0.002058 343.44556 485.23834
457.0 0.002188 343.56906 476.71091
434.0 0.002304 343.69244 466.10648
401.0 0.002494 343.81641 454.07175
405.0 0.002469 343.94012 441.93616
421.0 0.002375 344.06421 431.06891
408.0 0.002451 344.18845 422.47308
382.0 0.002618 344.31259 416.53210
376.0 0.002660 344.43710 413.63626
382.0 0.002618 344.56165 413.59949
425.0 0.002353 344.68643 416.01837
424.0 0.002358 344.81128 420.34641
417.0 0.002398 344.93610 426.13986
421.0 0.002375 345.06131 432.82156
445.0 0.002247 345.18643 439.94370
469.0 0.002132 345.31192 447.15469
437.0 0.002288 345.43747 454.03009
431.0 0.002320 345.56290 459.93164
485.0 0.002062 345.68875 464.24591
440.0 0.002273 345.81451 466.97183
463.0 0.002160 345.94070 468.28778
444.0 0.002252 346.06674 468.44064
410.0 0.002439 346.19290 467.71143
434.0 0.002304 346.31937 466.16565
496.0 0.002016 346.44583 463.75839
424.0 0.002358 346.57242 459.99600
459.0 0.002179 346.69916 454.72409
433.0 0.002309 346.82596 448.17038
436.0 0.002294 346.95297 440.68268
418.0 0.002392 347.07999 432.53207
437.0 0.002288 347.20724 424.15515
393.0 0.002545 347.33453 416.14008
381.0 0.002625 347.46185 409.34937
404.0 0.002475 347.58945 404.15811
415.0 0.002410 347.71695 400.78494
391.0 0.002558 347.84476 399.37036
376.0 0.002660 347.97266 399.82043
382.0 0.002618 348.10046 401.94391
383.0 0.002611 348.22858 405.55923
364.0 0.002747 348.35669 410.41165
424.0 0.002358 348.48499 416.10132
430.0 0.002326 348.61337 422.27008
464.0 0.002155 348.74167 428.71054
470.0 0.002128 348.87027 434.96313
438.0 0.002283 348.99893 440.12421
429.0 0.002331 349.12769 443.47931
438.0 0.002283 349.25647 445.02365
424.0 0.002358 349.38531 445.52805
431.0 0.002320 349.51431 446.46024
431.0 0.002320 349.64337 449.23099
442.0 0.002262 349.77264 454.81921
497.0 0.002012 349.90182 463.60477
506.0 0.001976 350.03101 475.36487
527.0 0.001898 350.16058 489.28574
587.0 0.001704 350.28992 504.25146
602.0 0.001661 350.41965 518.77863
604.0 0.001656 350.54926 531.43848
597.0 0.001675 350.67883 540.63141
613.0 0.001631 350.80869 544.30945
572.0 0.001748 350.93848 540.61090
514.0 0.001946 351.06851 529.16962
490.0 0.002041 351.19843 512.02966
467.0 0.002141 351.32834 492.49237
442.0 0.002262 351.45856 473.36398
423.0 0.002364 351.58865 456.56635
409.0 0.002445 351.71899 443.10294
391.0 0.002558 351.84927 433.15405
416.0 0.002404 351.97949 426.76529
413.0 0.002421 352.10999 423.69131
411.0 0.002433 352.24036 423.59451
432.0 0.002315 352.37094 426.02518
420.0 0.002381 352.50156 430.42218
420.0 0.002381 352.63190 436.24356
410.0 0.002439 352.76270 442.90439
466.0 0.002146 352.89328 450.40048
438.0 0.002283 353.02411 459.39609
527.0 0.001898 353.15488 470.53250
571.0 0.001751 353.28555 484.29120
522.0 0.001916 353.41638 500.25955
585.0 0.001709 353.54724 517.30182
608.0 0.001645 353.67810 533.40729
611.0 0.001637 353.80914 546.00073
631.0 0.001585 353.93985 552.87817
607.0 0.001647 354.07089 553.26398
540.0 0.001852 354.20181 548.03656
546.0 0.001832 354.33282 538.69141
523.0 0.001912 354.46387 526.22211
536.0 0.001866 354.59479 511.22821
490.0 0.002041 354.72586 494.58887
426.0 0.002347 354.85687 477.90146
449.0 0.002227 354.98801 462.68567
427.0 0.002342 355.11905 450.09808
398.0 0.002513 355.24994 440.33337
396.0 0.002525 355.38110 433.38443
445.0 0.002247 355.51205 428.71722
432.0 0.002315 355.64319 425.63724
410.0 0.002439 355.77423 423.47351
394.0 0.002538 355.90506 421.97458
431.0 0.002320 356.03622 420.83054
421.0 0.002375 356.16708 420.10803
394.0 0.002538 356.29819 419.89127
402.0 0.002488 356.42914 420.63275
411.0 0.002433 356.55988 422.58676
444.0 0.002252 356.69089 426.13754
424.0 0.002358 356.82169 431.55078
446.0 0.002242 356.95264 438.84351
468.0 0.002137 357.08340 447.73416
481.0 0.002079 357.21399 457.39645
520.0 0.001923 357.34482 466.84256
549.0 0.001821 357.47546 474.76385
544.0 0.001838 357.60614 480.32983
514.0 0.001946 357.73676 483.40237
519.0 0.001927 357.86716 484.87262
532.0 0.001880 357.99774 486.02783
525.0 0.001905 358.12802 487.35904
521.0 0.001919 358.25848 488.66943
531.0 0.001883 358.38879 489.40656
561.0 0.001783 358.51892 488.93723
553.0 0.001808 358.64911 486.85385
525.0 0.001905 358.77911 482.78769
508.0 0.001969 358.90927 476.62704
472.0 0.002119 359.03918 469.06961
460.0 0.002174 359.16891 461.10751
473.0 0.002114 359.29865 453.62216
487.0 0.002053 359.42834 447.29190
448.0 0.002232 359.55795 442.31305
456.0 0.002193 359.68750 438.26895
461.0 0.002169 359.81677 435.04330
428.0 0.002336 359.94614 432.35132
413.0 0.002421 360.07526 430.12881
405.0 0.002469 360.20432 428.37991
385.0 0.002597 360.33340 427.20984
433.0 0.002309 360.46213 426.66187
428.0 0.002336 360.59091 426.86673
437.0 0.002288 360.71942 428.15259
456.0 0.002193 360.84802 430.97937
421.0 0.002375 360.97632 435.68958
456.0 0.002193 361.10434 442.40167
480.0 0.002083 361.23260 450.99799
517.0 0.001934 361.36047 461.10535
515.0 0.001942 361.48837 472.27728
518.0 0.001931 361.61600 483.76743
560.0 0.001786 361.74335 494.45370
538.0 0.001859 361.87076 502.82510
509.0 0.001965 361.99792 507.22882
504.0 0.001984 362.12500 506.66190
510.0 0.001961 362.25186 501.50220
485.0 0.002062 362.37842 492.92480
483.0 0.002070 362.50507 482.41638
452.0 0.002212 362.63132 471.52228
436.0 0.002294 362.75760 461.53040
427.0 0.002342 362.88354 453.36603
446.0 0.002242 363.00912 447.70938
437.0 0.002288 363.13483 444.55518
430.0 0.002326 363.26013 443.45551
425.0 0.002353 363.38541 444.20731
434.0 0.002304 363.51044 446.07208
447.0 0.002237 363.63498 448.74124
433.0 0.002309 363.75961 452.21518
476.0 0.002101 363.88394 456.67880
478.0 0.002092 364.00809 461.68777
459.0 0.002179 364.13208 466.96475
496.0 0.002016 364.25562 471.90683
508.0 0.001969 364.37906 475.80112
495.0 0.002020 364.50220 478.02191
487.0 0.002053 364.62518 478.49509
470.0 0.002128 364.74789 477.87778
463.0 0.002160 364.87021 477.21671
472.0 0.002119 364.99243 477.38959
482.0 0.002075 365.11432 478.81250
484.0 0.002066 365.23599 481.36154
481.0 0.002079 365.35742 484.39932
486.0 0.002058 365.47839 486.80429
481.0 0.002079 365.59924 487.20261
466.0 0.002146 365.71976 484.55685
447.0 0.002237 365.84006 478.53860
446.0 0.002242 365.96005 470.11578
409.0 0.002445 366.07950 460.74991
399.0 0.002506 366.19901 451.82980
410.0 0.002439 366.31787 444.11951
425.0 0.002353 366.43668 438.38266
431.0 0.002320 366.55508 434.92349
412.0 0.002427 366.67300 433.61578
425.0 0.002353 366.79080 434.64777
405.0 0.002469 366.90823 437.70547
411.0 . . .
loop_
_refln_index_h
_refln_index_k
_refln_index_l
_pd_refln_wavelength_id
_refln_observed_status
_refln_F_squared_meas
_refln_F_squared_calc
_refln_phase_calc
_refln_d_spacing
_gsas_i100_meas
0 2 0 1 o 41573.46 37419.45 0.00 6.67299 13.84
0 2 0 2 o 41641.36 37419.45 0.00 6.67299 6.90
1 1 1 1 o 20533.523 19883.947 0.00 6.05399 18.95
1 1 1 2 o 20020.270 19883.947 0.00 6.05399 9.17
2 0 0 1 o 978.922 1342.478 180.00 4.82436 0.00
2 0 0 2 o 978.922 1342.478 180.00 4.82436 0.00
0 0 2 1 o 37656.93 41567.38 0.00 4.78282 3.88
0 0 2 2 o 38977.52 41567.38 0.00 4.78282 2.03
1 2 1 1 o 4646.255 4920.104 0.00 4.76042 1.38
1 2 1 2 o 4489.733 4920.104 0.00 4.76042 0.63
2 1 0 1 o 164066.41 164708.08 180.00 4.53703 38.20
2 1 0 2 o 161834.00 164708.08 180.00 4.53703 18.70
1 0 2 1 o 231391.78 234216.23 0.00 4.28524 47.93
1 0 2 2 o 229959.22 234216.23 0.00 4.28524 23.67
2 1 1 1 o 120828.21 113887.41 0.00 4.09930 47.28
2 1 1 2 o 118183.38 113887.41 0.00 4.09930 22.93
1 1 2 1 o 120751.39 118000.77 0.00 4.08007 46.44
1 1 2 2 o 118553.04 118000.77 0.00 4.08007 22.62
0 3 1 1 o 458447.1 472397.0 180.00 4.03377 100.00
0 3 1 2 o 464158.5 472397.0 180.00 4.03377 50.47
2 2 0 1 o 86253.51 82411.43 180.00 3.90962 15.84
2 2 0 2 o 81877.10 82411.43 180.00 3.90962 7.42
0 2 2 1 o 50463.25 51095.27 0.00 3.88742 9.06
0 2 2 2 o 51856.77 51095.27 0.00 3.88742 4.65
1 3 1 1 o 83121.99 78901.88 180.00 3.72163 30.60
1 3 1 2 o 82494.80 78901.88 180.00 3.72163 15.09
2 2 1 1 o 194907.72 187028.00 180.00 3.61901 61.09
2 2 1 2 o 192297.44 187028.00 180.00 3.61901 29.92
1 2 2 1 o 373.167 383.757 0.00 3.60576 0.12
1 2 2 2 o 610.487 383.757 0.00 3.60576 0.10
2 0 2 1 o 158854.39 147221.88 180.00 3.39655 21.89
2 0 2 2 o 155928.63 147221.88 180.00 3.39655 10.67
0 4 0 1 o 144952.36 134699.39 180.00 3.33650 12.16
0 4 0 2 o 143089.31 134699.39 180.00 3.33650 5.97
2 1 2 1 o 14835.800 15495.055 180.00 3.29163 3.76
2 1 2 2 o 15015.133 15495.055 180.00 3.29163 1.90
2 3 0 1 o 41531.87 44151.61 180.00 3.27044 5.32
2 3 0 2 o 36815.07 44151.61 180.00 3.27044 2.29
0 1 3 1 o 147079.72 149836.05 180.00 3.10126 15.66
2 3 1 1 o 44998.76 45579.38 0.00 3.09457 10.46
0 1 3 2 o 148259.11 149836.05 180.00 3.10126 7.86
2 3 1 2 o 46472.20 45579.38 0.00 3.09457 5.40
1 3 2 1 o 27862.248 27250.672 0.00 3.08628 6.47
1 3 2 2 o 27106.422 27250.672 0.00 3.08628 3.12
2 2 2 1 o 59849.31 59660.94 180.00 3.02699 12.45
2 2 2 2 o 58003.20 59660.94 180.00 3.02699 5.97
1 4 1 1 o 17511.131 18447.000 180.00 2.99477 4.21
1 4 1 2 o 18276.115 18447.000 180.00 2.99477 2.20
3 1 1 1 o 62594.94 62425.64 0.00 2.97198 12.53
3 1 1 2 o 60361.33 62425.64 0.00 2.97198 5.98
1 1 3 1 o 976.000 1472.059 0.00 2.95250 0.14
1 1 3 2 o 351.024 1472.059 0.00 2.95250 0.00
3 2 1 1 o 34747.445 33395.102 180.00 2.77287 6.22
3 2 1 2 o 34005.719 33395.102 180.00 2.77287 3.02
1 2 3 1 o 120921.84 127933.13 0.00 2.75703 20.85
1 2 3 2 o 120610.70 127933.13 0.00 2.75703 10.34
2 4 0 1 o 98472.68 100951.31 180.00 2.74416 9.37
2 4 0 2 o 96571.46 100951.31 180.00 2.74416 4.56
0 4 2 1 o 27414.090 28740.322 0.00 2.73644 2.71
0 4 2 2 o 25392.799 28740.322 0.00 2.73644 1.24
2 3 2 1 o 3602.219 4170.899 180.00 2.69965 0.65
2 3 2 2 o 3810.340 4170.899 180.00 2.69965 0.34
3 0 2 1 o 95354.30 88851.73 0.00 2.66892 7.25
3 0 2 2 o 91506.55 88851.73 0.00 2.66892 3.44
2 4 1 1 o 25276.270 25508.451 0.00 2.63776 4.23
1 4 2 1 o 29896.596 30114.139 180.00 2.63262 4.93
2 4 1 2 o 25391.814 25508.451 0.00 2.63776 2.12
1 4 2 2 o 29749.090 30114.139 180.00 2.63262 2.44
3 1 2 1 o 29798.998 30195.584 180.00 2.61710 4.21
3 1 2 2 o 30321.285 30195.584 180.00 2.61710 2.14
2 1 3 1 o 30943.109 30651.762 0.00 2.60874 4.44
2 1 3 2 o 30232.273 30651.762 0.00 2.60874 2.15
0 3 3 1 o 8.439 8.428 180.00 2.59161 0.00
0 3 3 2 o 11.189 8.428 180.00 2.59161 0.00
0 5 1 1 o 60667.04 59981.42 180.00 2.57098 4.98
0 5 1 2 o 60056.72 59981.42 180.00 2.57098 2.45
3 3 1 1 o 26814.621 24946.703 180.00 2.51473 3.82
3 3 1 2 o 25875.400 24946.703 180.00 2.51473 1.82
1 3 3 1 o 129854.07 129817.40 180.00 2.50290 18.17
1 3 3 2 o 124119.96 129817.40 180.00 2.50290 8.56
1 5 1 1 o 5482.377 5799.912 180.00 2.48430 0.86
3 2 2 1 o 14364.311 14550.542 180.00 2.47806 1.76
1 5 1 2 o 5725.607 5799.912 180.00 2.48430 0.45
3 2 2 2 o 14825.426 14550.542 180.00 2.47806 0.91
2 2 3 1 o 24517.775 24034.148 0.00 2.47097 3.08
2 2 3 2 o 24813.709 24034.148 0.00 2.47097 1.56
4 0 0 1 o 28175.418 25502.943 180.00 2.41218 0.80
4 0 0 2 o 27542.152 25502.943 180.00 2.41218 0.39
0 0 4 1 o 59950.73 54909.77 180.00 2.39141 1.77
0 0 4 2 o 56754.31 54909.77 180.00 2.39141 0.83
2 4 2 1 o 29671.877 29584.330 180.00 2.38021 3.58
2 4 2 2 o 29574.111 29584.330 180.00 2.38021 1.77
4 1 0 1 o 13224.069 13126.792 180.00 2.37372 0.79
4 1 0 2 o 13379.983 13126.792 180.00 2.37372 0.40
2 5 0 1 o 165113.44 148920.30 0.00 2.33555 10.99
2 5 0 2 o 158723.91 148920.30 0.00 2.33555 5.21
1 0 4 1 o 37149.88 33468.719 0.00 2.32118 1.94
1 0 4 2 o 39059.16 33468.719 0.00 2.32118 1.03
4 1 1 1 o 171760.39 165087.19 180.00 2.30384 18.91
4 1 1 2 o 169420.30 165087.19 180.00 2.30384 9.25
3 3 2 1 o 33301.906 30556.422 180.00 2.28864 4.18
1 1 4 1 o 3700.012 3525.189 0.00 2.28685 0.34
3 3 2 2 o 33485.242 30556.422 180.00 2.28864 2.09
2 3 3 1 o 31106.662 28713.461 0.00 2.28305 3.42
1 1 4 2 o 3736.847 3525.189 0.00 2.28685 0.17
2 3 3 2 o 31760.646 28713.461 0.00 2.28305 1.74
4 2 0 1 o 69365.80 68809.82 0.00 2.26851 3.62
2 5 1 1 o 39618.38 39067.26 0.00 2.26890 4.89
1 5 2 1 o 52381.67 53902.34 180.00 2.26563 5.98
4 2 0 2 o 65562.71 68809.82 0.00 2.26851 1.68
2 5 1 2 o 37243.96 39067.26 0.00 2.26890 2.26
1 5 2 2 o 52287.99 53902.34 180.00 2.26563 2.97
0 2 4 1 o 65986.82 63553.78 0.00 2.25121 3.53
3 4 1 1 o 5042.694 4867.521 0.00 2.25057 0.58
0 2 4 2 o 64038.23 63553.78 0.00 2.25121 1.70
3 4 1 2 o 4909.016 4867.521 0.00 2.25057 0.28
1 4 3 1 o 19671.188 19111.055 180.00 2.24207 2.25
1 4 3 2 o 19463.141 19111.055 180.00 2.24207 1.11
3 1 3 1 o 56253.18 54786.90 0.00 2.23246 5.39
3 1 3 2 o 59672.79 54786.90 0.00 2.23246 2.89
0 6 0 1 o 238042.38 205776.58 0.00 2.22433 7.63
0 6 0 2 o 242734.31 205776.58 0.00 2.22433 3.88
4 2 1 1 o 14441.045 13994.665 180.00 2.20729 1.56
4 2 1 2 o 13783.170 13994.665 180.00 2.20729 0.74
1 2 4 1 o 9751.791 9998.567 0.00 2.19233 0.95
1 2 4 2 o 9889.238 9998.567 0.00 2.19233 0.48
4 0 2 1 o 110.847 69.031 180.00 2.15376 0.03
4 0 2 2 o 93.020 69.031 180.00 2.15376 0.01
3 2 3 1 o 5204.204 4920.043 180.00 2.14428 0.32
2 0 4 1 o 10887.189 10310.751 180.00 2.14262 0.39
3 2 3 2 o 4895.779 4920.043 180.00 2.14428 0.14
2 0 4 2 o 9836.327 10310.751 180.00 2.14262 0.17
4 1 2 1 o 6192.502 5649.339 180.00 2.12625 0.68
4 1 2 2 o 6185.459 5649.339 180.00 2.12625 0.34
4 3 0 1 o 1411.585 1329.189 180.00 2.12051 0.06
2 1 4 1 o 115442.07 113266.14 0.00 2.11553 10.86
4 3 0 2 o 1351.035 1329.189 180.00 2.12051 0.03
1 6 1 1 o 98.504 98.488 180.00 2.11389 0.01
2 1 4 2 o 112783.19 113266.14 0.00 2.11553 5.26
1 6 1 2 o 98.431 98.488 180.00 2.11389 0.00
2 5 2 1 o 25442.793 23002.951 0.00 2.09870 2.88
2 5 2 2 o 26506.908 23002.951 0.00 2.09870 1.50
3 4 2 1 o 107873.45 107067.63 180.00 2.08416 10.00
2 4 3 1 o 7275.738 7630.318 180.00 2.07993 0.69
3 4 2 2 o 102937.73 107067.63 180.00 2.08416 4.69
2 4 3 2 o 6865.976 7630.318 180.00 2.07993 0.32
4 3 1 1 o 7715.407 7484.971 0.00 2.07025 0.72
4 3 1 2 o 7176.085 7484.971 0.00 2.07025 0.33
1 3 4 1 o 5388.289 4753.130 0.00 2.05790 0.51
1 3 4 2 o 5289.621 4753.130 0.00 2.05790 0.25
4 2 2 1 o 60896.66 56657.28 0.00 2.04965 5.43
0 5 3 1 o 43304.18 43689.11 180.00 2.04672 2.22
4 2 2 2 o 55930.15 56657.28 0.00 2.04965 2.44
0 5 3 2 o 42657.53 43689.11 180.00 2.04672 1.09
2 2 4 1 o 21019.854 21636.930 180.00 2.04004 1.78
2 2 4 2 o 20201.396 21636.930 180.00 2.04004 0.85
2 6 0 1 o 48792.00 44898.22 180.00 2.01997 2.55
3 3 3 1 o 15584.271 15141.754 180.00 2.01800 1.21
0 6 2 1 o 74759.06 72631.88 0.00 2.01689 3.76
2 6 0 2 o 46469.15 44898.22 180.00 2.01997 1.20
3 3 3 2 o 15408.719 15141.754 180.00 2.01800 0.59
0 6 2 2 o 74959.11 72631.88 0.00 2.01689 1.87
3 5 1 1 o 554.060 484.623 180.00 2.00821 0.07
3 5 1 2 o 477.294 484.623 180.00 2.00821 0.03
1 5 3 1 o 21458.061 22077.273 180.00 2.00217 1.92
1 5 3 2 o 20230.107 22077.273 180.00 2.00217 0.89
2 6 1 1 o 78943.77 77253.29 0.00 1.97638 7.59
1 6 2 1 o 74605.95 74762.59 0.00 1.97422 7.11
2 6 1 2 o 74897.26 77253.29 0.00 1.97638 3.55
1 6 2 2 o 72028.65 74762.59 0.00 1.97422 3.39
4 4 0 1 o 298755.84 307849.09 0.00 1.95481 12.12
4 4 0 2 o 291554.69 307849.09 0.00 1.95481 5.85
0 4 4 1 o 174611.53 182874.05 0.00 1.94371 6.72
0 4 4 2 o 170614.97 182874.05 0.00 1.94371 3.25
4 3 2 1 o 6101.237 6617.593 180.00 1.93853 0.59
4 3 2 2 o 6047.658 6617.593 180.00 1.93853 0.29
2 3 4 1 o 43646.50 43546.33 0.00 1.93039 3.59
2 3 4 2 o 42874.53 43546.33 0.00 1.93039 1.75
3 0 4 1 o 1332.525 1212.604 180.00 1.91906 0.06
4 4 1 1 o 3485.940 3033.758 0.00 1.91523 0.30
3 0 4 2 o 1425.384 1212.604 180.00 1.91906 0.03
4 4 1 2 o 2631.328 3033.758 0.00 1.91523 0.11
1 4 4 1 o 3499.992 4226.898 0.00 1.90543 0.30
4 1 3 1 o 8930.723 9513.230 180.00 1.90403 0.68
1 4 4 2 o 3914.815 4226.898 0.00 1.90543 0.17
3 1 4 1 o 16142.478 16591.803 180.00 1.89952 1.27
4 1 3 2 o 9355.344 9513.230 180.00 1.90403 0.36
3 1 4 2 o 15945.172 16591.803 180.00 1.89952 0.62
0 1 5 1 o 106875.77 113392.90 180.00 1.89377 3.69
0 1 5 2 o 109532.82 113392.90 180.00 1.89377 1.89
3 5 2 1 o 36654.99 37029.23 0.00 1.88731 2.82
2 5 3 1 o 25106.445 24710.822 0.00 1.88417 1.92
3 5 2 2 o 37058.05 37029.23 0.00 1.88731 1.42
2 5 3 2 o 25693.561 24710.822 0.00 1.88417 0.98
3 4 3 1 o 18548.850 18506.281 0.00 1.87363 1.49
5 1 1 1 o 184.952 184.416 180.00 1.87291 0.00
0 7 1 1 o 39416.55 34928.926 0.00 1.86979 1.87
3 4 3 2 o 20716.008 18506.281 0.00 1.87363 0.84
5 1 1 2 o 185.896 184.416 180.00 1.87291 0.00
0 7 1 2 o 37472.04 34928.926 0.00 1.86979 0.88
2 6 2 1 o 18217.771 18914.057 180.00 1.86082 1.34
1 1 5 1 o 30884.400 33423.367 180.00 1.85831 2.05
2 6 2 2 o 17131.621 18914.057 180.00 1.86082 0.61
1 1 5 2 o 28699.146 33423.367 180.00 1.85831 0.93
4 2 3 1 o 6815.405 7194.809 0.00 1.84843 0.51
3 2 4 1 o 34810.063 35608.38 180.00 1.84431 2.44
4 2 3 2 o 7053.397 7194.809 0.00 1.84843 0.27
3 2 4 2 o 34209.781 35608.38 180.00 1.84431 1.19
1 7 1 1 o 25360.324 27050.436 0.00 1.83564 2.16
1 7 1 2 o 24405.693 27050.436 0.00 1.83564 1.03
5 2 1 1 o 77205.68 77815.36 180.00 1.81992 5.42
5 2 1 2 o 76283.78 77815.36 180.00 1.81992 2.66
4 4 2 1 o 111262.00 108027.89 0.00 1.80951 8.12
1 2 5 1 o 30165.385 30198.496 180.00 1.80652 2.30
4 4 2 2 o 109201.56 108027.89 0.00 1.80951 3.95
2 4 4 1 o 45237.30 45392.37 180.00 1.80288 3.49
1 2 5 2 o 29913.293 30198.496 180.00 1.80652 1.13
2 4 4 2 o 45876.96 45392.37 180.00 1.80288 1.76
3 6 1 1 o 39145.81 37611.94 0.00 1.79687 3.24
1 6 3 1 o 79394.61 76901.26 180.00 1.79254 6.26
3 6 1 2 o 38854.95 37611.94 0.00 1.79687 1.60
5 0 2 1 o 6670.265 6790.877 180.00 1.78957 0.20
4 5 0 1 o 7718.141 7845.917 0.00 1.78965 0.25
1 6 3 2 o 75542.41 76901.26 180.00 1.79254 2.94
5 0 2 2 o 6317.489 6790.877 180.00 1.78957 0.09
4 5 0 2 o 7300.490 7845.917 0.00 1.78965 0.12
5 1 2 1 o 71825.45 66016.83 180.00 1.77369 4.49
2 7 0 1 o 3740.945 3341.892 180.00 1.77313 0.17
5 1 2 2 o 72932.72 66016.83 180.00 1.77369 2.27
2 7 0 2 o 3828.037 3341.892 180.00 1.77313 0.09
4 3 3 1 o 96803.34 93160.69 180.00 1.76570 6.12
2 1 5 1 o 7983.783 7985.293 0.00 1.76282 0.48
3 3 4 1 o 1637.185 1646.338 180.00 1.76210 0.10
4 3 3 2 o 93721.93 93160.69 180.00 1.76570 2.93
4 5 1 1 o 20905.600 20116.662 180.00 1.75913 1.42
2 1 5 2 o 8300.980 7985.293 0.00 1.76282 0.25
3 3 4 2 o 1718.496 1646.338 180.00 1.76210 0.06
0 3 5 1 o 64491.98 61743.29 0.00 1.75750 2.09
4 5 1 2 o 19739.049 20116.662 180.00 1.75913 0.66
0 3 5 2 o 61437.91 61743.29 0.00 1.75750 0.98
1 5 4 1 o 20406.240 21087.063 180.00 1.75153 1.39
1 5 4 2 o 20711.467 21087.063 180.00 1.75153 0.70
2 7 1 1 o 46041.45 47605.88 0.00 1.74343 3.23
1 7 2 1 o 16.193 16.860 0.00 1.74194 0.00
5 3 1 1 o 1294.424 1363.859 0.00 1.74079 0.06
2 7 1 2 o 43432.55 47605.88 0.00 1.74343 1.50
1 7 2 2 o 15.338 16.860 0.00 1.74194 0.00
5 3 1 2 o 1021.282 1363.859 0.00 1.74079 0.02
1 3 5 1 o 5565.974 6091.947 180.00 1.72905 0.32
5 2 2 1 o 11036.290 11944.071 0.00 1.72849 0.65
3 5 3 1 o 7998.796 8732.879 0.00 1.72673 0.59
1 3 5 2 o 5596.917 6091.947 180.00 1.72905 0.16
5 2 2 2 o 11069.626 11944.071 0.00 1.72849 0.32
3 5 3 2 o 8346.658 8732.879 0.00 1.72673 0.31
2 2 5 1 o 138745.36 141637.48 0.00 1.71842 8.15
2 2 5 2 o 131437.27 141637.48 0.00 1.71842 3.80
3 6 2 1 o 11834.405 13100.894 0.00 1.70870 0.72
2 6 3 1 o 12439.201 12744.951 180.00 1.70637 0.78
3 6 2 2 o 12471.489 13100.894 0.00 1.70870 0.38
2 6 3 2 o 12635.517 12744.951 180.00 1.70637 0.39
4 0 4 1 o 317356.81 315397.13 0.00 1.69828 9.27
4 0 4 2 o 300915.06 315397.13 0.00 1.69828 4.33
4 1 4 1 o 18345.883 17607.033 0.00 1.68469 1.14
4 1 4 2 o 17575.822 17607.033 0.00 1.68469 0.54
4 5 2 1 o 4505.776 4576.261 0.00 1.67615 0.32
4 5 2 2 o 4639.027 4576.261 0.00 1.67615 0.16
2 5 4 1 o 107613.75 107294.89 180.00 1.67088 6.36
0 8 0 1 o 273970.59 271673.06 0.00 1.66825 4.91
2 5 4 2 o 107949.21 107294.89 180.00 1.67088 3.17
4 4 3 1 o 155.538 154.769 180.00 1.66655 0.01
0 8 0 2 o 268850.72 271673.06 0.00 1.66825 2.39
3 4 4 1 o 61672.02 62248.48 180.00 1.66352 3.51
4 4 3 2 o 151.651 154.769 180.00 1.66655 0.00
2 7 2 1 o 746.770 768.621 0.00 1.66255 0.06
5 3 2 1 o 22124.906 22444.105 180.00 1.66027 1.23
3 4 4 2 o 61779.98 62248.48 180.00 1.66352 1.75
2 7 2 2 o 749.088 768.621 0.00 1.66255 0.03
5 3 2 2 o 20985.395 22444.105 180.00 1.66027 0.58
2 3 5 1 o 29653.684 32205.955 0.00 1.65134 1.62
4 2 4 1 o 9167.818 8558.348 0.00 1.64581 0.52
5 4 1 1 o 8413.429 7814.537 0.00 1.64556 0.46
2 3 5 2 o 31522.014 32205.955 0.00 1.65134 0.87
4 2 4 2 o 9066.325 8558.348 0.00 1.64581 0.26
5 4 1 2 o 8261.905 7814.537 0.00 1.64556 0.23
5 1 3 1 o 68065.45 61882.22 180.00 1.63844 3.85
0 7 3 1 o 125817.20 125337.67 180.00 1.63635 3.91
1 4 5 1 o 326.090 326.482 0.00 1.63563 0.01
4 6 0 1 o 1786.858 1776.469 180.00 1.63522 0.05
5 1 3 2 o 64371.13 61882.22 180.00 1.63844 1.80
3 1 5 1 o 15830.281 15430.552 0.00 1.63189 0.87
0 7 3 2 o 126901.43 125337.67 180.00 1.63635 1.96
1 4 5 2 o 335.739 326.482 0.00 1.63563 0.01
4 6 0 2 o 1852.915 1776.469 180.00 1.63522 0.03
0 6 4 1 o 7810.482 7717.021 180.00 1.62871 0.24
3 1 5 2 o 15993.464 15430.552 0.00 1.63189 0.44
0 6 4 2 o 7129.271 7717.021 180.00 1.62871 0.11
1 8 1 1 o 31545.793 29779.143 0.00 1.62011 2.10
3 7 1 1 o 59856.23 59947.47 0.00 1.61647 3.62
1 8 1 2 o 29731.367 29779.143 0.00 1.62011 0.97
1 7 3 1 o 12093.437 12077.313 0.00 1.61332 0.69
3 7 1 2 o 60115.34 59947.47 0.00 1.61647 1.81
4 6 1 1 o 3749.046 3716.182 0.00 1.61184 0.21
1 7 3 2 o 12312.248 12077.313 0.00 1.61332 0.35
6 0 0 1 o 83102.45 78086.51 180.00 1.60812 1.01
4 6 1 2 o 3952.516 3716.182 0.00 1.61184 0.11
1 6 4 1 o 33889.195 34741.836 0.00 1.60599 1.88
6 0 0 2 o 75832.56 78086.51 180.00 1.60812 0.44
5 2 3 1 o 54244.65 56233.99 180.00 1.60261 2.53
1 6 4 2 o 33592.035 34741.836 0.00 1.60599 0.92
5 2 3 2 o 54010.45 56233.99 180.00 1.60261 1.25
6 1 0 1 o 115862.39 115912.11 0.00 1.59657 3.02
3 2 5 1 o 1341.953 1343.594 180.00 1.59648 0.11
0 0 6 1 o 36271.75 37993.54 180.00 1.59427 0.48
6 1 0 2 o 111872.53 115912.11 0.00 1.59657 1.44
3 2 5 2 o 1271.826 1343.594 180.00 1.59648 0.05
0 0 6 2 o 34384.992 37993.54 180.00 1.59427 0.23
4 3 4 1 o 7878.062 7753.726 0.00 1.58660 0.46
3 6 3 1 o 3625.146 3608.886 0.00 1.58681 0.13
4 3 4 2 o 7169.435 7753.726 0.00 1.58660 0.21
3 6 3 2 o 3360.958 3608.886 0.00 1.58681 0.06
5 4 2 1 o 43612.23 45772.54 0.00 1.57704 2.20
2 8 0 1 o 2162.932 2207.090 180.00 1.57664 0.03
6 1 1 1 o 4422.078 4454.211 0.00 1.57479 0.18
0 8 2 1 o 19435.992 19542.777 0.00 1.57518 0.48
5 4 2 2 o 45051.84 45772.54 0.00 1.57704 1.14
1 0 6 1 o 4308.375 4349.068 180.00 1.57295 0.12
2 8 0 2 o 2204.982 2207.090 180.00 1.57664 0.02
6 1 1 2 o 4604.740 4454.211 0.00 1.57479 0.10
0 8 2 2 o 20309.779 19542.777 0.00 1.57518 0.25
2 4 5 1 o 26785.094 28264.631 180.00 1.56938 1.33
1 0 6 2 o 4033.410 4349.068 180.00 1.57295 0.05
2 4 5 2 o 26954.199 28264.631 180.00 1.56938 0.67
6 2 0 1 o 26200.174 26772.137 180.00 1.56336 0.63
1 1 6 1 o 25195.732 25460.123 180.00 1.56213 1.16
4 5 3 1 o 35518.56 35786.34 180.00 1.56063 1.79
6 2 0 2 o 26675.586 26772.137 180.00 1.56336 0.32
1 1 6 2 o 26045.057 25460.123 180.00 1.56213 0.60
3 5 4 1 o 4252.104 4141.902 0.00 1.55815 0.20
4 5 3 2 o 38728.31 35786.34 180.00 1.56063 0.99
2 8 1 1 o 53458.79 48678.91 180.00 1.55566 3.06
0 5 5 1 o 1438.278 1330.100 180.00 1.55497 0.03
3 5 4 2 o 4340.207 4141.902 0.00 1.55815 0.10
1 8 2 1 o 34083.852 31977.998 0.00 1.55460 1.90
2 8 1 2 o 51046.09 48678.91 180.00 1.55566 1.44
3 7 2 1 o 52.471 50.000 0.00 1.55138 0.00
0 5 5 2 o 1355.983 1330.100 180.00 1.55497 0.02
0 2 6 1 o 15362.322 15459.729 0.00 1.55063 0.35
1 8 2 2 o 32024.340 31977.998 0.00 1.55460 0.87
2 7 3 1 o 23680.373 25363.844 0.00 1.54964 1.29
5 3 3 1 o 6291.817 6827.073 0.00 1.54779 0.34
3 7 2 2 o 44.781 50.000 0.00 1.55138 0.00
4 6 2 1 o 19225.342 20797.982 0.00 1.54729 1.01
0 2 6 2 o 14165.563 15459.729 0.00 1.55063 0.16
2 7 3 2 o 22440.596 25363.844 0.00 1.54964 0.60
5 3 3 2 o 6314.695 6827.073 0.00 1.54779 0.17
5 5 1 1 o 2448.195 2630.616 180.00 1.54336 0.15
4 6 2 2 o 19565.088 20797.982 0.00 1.54729 0.51
6 2 1 1 o 62123.08 65393.64 0.00 1.54289 2.85
2 6 4 1 o 29478.609 31153.727 180.00 1.54314 1.51
3 3 5 1 o 25820.027 27015.168 0.00 1.54226 1.12
5 5 1 2 o 2501.231 2630.616 180.00 1.54336 0.08
6 2 1 2 o 63975.96 65393.64 0.00 1.54289 1.47
2 6 4 2 o 30172.129 31153.727 180.00 1.54314 0.77
3 3 5 2 o 26893.330 27015.168 0.00 1.54226 0.59
1 5 5 1 o 26047.369 27146.162 180.00 1.53516 1.33
1 5 5 2 o 29055.645 27146.162 180.00 1.53516 0.75
1 2 6 1 o 40089.40 37846.69 0.00 1.53099 1.83
1 2 6 2 o 39369.68 37846.69 0.00 1.53099 0.89
6 0 2 1 o 51973.83 54234.01 180.00 1.52427 1.20
6 0 2 2 o 50852.89 54234.01 180.00 1.52427 0.58
6 1 2 1 o 65.272 65.409 0.00 1.51442 0.00
2 0 6 1 o 26911.465 29049.295 180.00 1.51376 0.64
4 4 4 1 o 37903.35 40781.56 180.00 1.51350 1.87
6 3 0 1 o 43474.55 46437.29 0.00 1.51234 1.06
6 1 2 2 o 65.260 65.409 0.00 1.51442 0.00
2 0 6 2 o 27118.709 29049.295 180.00 1.51376 0.32
4 4 4 2 o 38357.05 40781.56 180.00 1.51350 0.94
6 3 0 2 o 44817.93 46437.29 0.00 1.51234 0.55
2 1 6 1 o 23156.414 23004.330 0.00 1.50411 0.97
5 0 4 1 o 1700.233 1768.209 0.00 1.50177 0.03
2 1 6 2 o 22278.076 23004.330 0.00 1.50411 0.46
5 0 4 2 o 1726.615 1768.209 0.00 1.50177 0.02
2 8 2 1 o 51894.49 54853.85 180.00 1.49738 2.89
4 7 0 1 o 3127.944 3056.178 180.00 1.49576 0.10
6 3 1 1 o 73154.57 76861.57 0.00 1.49379 3.17
2 8 2 2 o 52026.61 54853.85 180.00 1.49738 1.44
5 1 4 1 o 8953.113 9052.396 180.00 1.49235 0.37
4 7 0 2 o 3032.733 3056.178 180.00 1.49576 0.05
6 3 1 2 o 75239.02 76861.57 0.00 1.49379 1.63
4 1 5 1 o 6612.545 6653.983 0.00 1.48956 0.27
5 1 4 2 o 9117.415 9052.396 180.00 1.49235 0.19
5 5 2 1 o 94085.50 96864.98 0.00 1.48641 4.24
6 2 2 1 o 17229.311 17609.557 180.00 1.48599 0.70
4 1 5 2 o 6520.549 6653.983 0.00 1.48956 0.13
1 3 6 1 o 10659.624 10930.880 180.00 1.48298 0.47
5 5 2 2 o 94798.01 96864.98 0.00 1.48641 2.13
6 2 2 2 o 17548.330 17609.557 180.00 1.48599 0.36
2 5 5 1 o 22505.969 22129.768 0.00 1.47999 1.05
5 4 3 1 o 18091.268 17814.348 0.00 1.47970 0.80
1 3 6 2 o 11089.197 10930.880 180.00 1.48298 0.25
4 7 1 1 o 212376.22 212210.42 180.00 1.47781 10.23
2 2 6 1 o 6091.438 6024.533 180.00 1.47625 0.26
2 5 5 2 o 22364.436 22129.768 0.00 1.47999 0.52
5 4 3 2 o 18042.764 17814.348 0.00 1.47970 0.40
3 4 5 1 o 590.748 595.233 180.00 1.47487 0.03
4 7 1 2 o 212072.58 212210.42 180.00 1.47781 5.08
1 7 4 1 o 73.018 70.909 0.00 1.47329 0.00
2 2 6 2 o 6245.232 6024.533 180.00 1.47625 0.13
3 4 5 2 o 628.991 595.233 180.00 1.47487 0.01
1 7 4 2 o 94.306 70.909 0.00 1.47329 0.00
5 2 4 1 o 17692.734 15515.161 0.00 1.46513 0.75
0 9 1 1 o 64801.10 56773.71 180.00 1.46538 1.69
3 8 1 1 o 8047.759 7227.590 180.00 1.46345 0.38
4 2 5 1 o 6903.386 6281.668 0.00 1.46248 0.28
5 2 4 2 o 16435.898 15515.161 0.00 1.46513 0.34
0 9 1 2 o 60818.21 56773.71 180.00 1.46538 0.78
1 8 3 1 o 30596.688 29245.598 0.00 1.46111 1.45
3 8 1 2 o 7504.746 7227.590 180.00 1.46345 0.17
4 2 5 2 o 6247.541 6281.668 0.00 1.46248 0.12
3 7 3 1 o 92542.99 94779.23 0.00 1.45844 4.09
1 8 3 2 o 28259.035 29245.598 0.00 1.46111 0.65
4 6 3 1 o 281.507 283.631 180.00 1.45504 0.01
3 7 3 2 o 95755.03 94779.23 0.00 1.45844 2.13
3 6 4 1 o 1628.660 1405.447 180.00 1.45302 0.08
4 6 3 2 o 387.023 283.631 180.00 1.45504 0.01
3 6 4 2 o 2142.609 1405.447 180.00 1.45302 0.05
6 4 0 1 o 7698.278 5011.761 180.00 1.44864 0.18
1 9 1 1 o 4578.918 3155.787 180.00 1.44877 0.23
6 4 0 2 o 7614.090 5011.761 180.00 1.44864 0.09
1 9 1 2 o 4597.520 3155.787 180.00 1.44877 0.12
6 3 2 1 o 830.653 642.513 180.00 1.44197 0.05
5 6 1 1 o 38349.54 36184.24 0.00 1.44101 1.78
6 3 2 2 o 623.991 642.513 180.00 1.44197 0.02
0 4 6 1 o 146045.72 149231.91 0.00 1.43849 3.23
5 6 1 2 o 38035.59 36184.24 0.00 1.44101 0.88
0 4 6 2 o 148038.31 149231.91 0.00 1.43849 1.63
1 6 5 1 o 14593.640 13879.976 0.00 1.43432 0.74
2 3 6 1 o 2662.634 2554.775 0.00 1.43307 0.09
4 5 4 1 o 16597.938 15598.030 180.00 1.43284 0.76
6 4 1 1 o 18629.225 17059.762 180.00 1.43230 0.80
1 6 5 2 o 15238.823 13879.976 0.00 1.43432 0.39
2 3 6 2 o 2589.769 2554.775 0.00 1.43307 0.04
4 5 4 2 o 15681.343 15598.030 180.00 1.43284 0.36
6 4 1 2 o 17110.123 17059.762 180.00 1.43230 0.36
3 0 6 1 o 142570.23 139832.70 180.00 1.42841 2.78
6 1 3 1 o 41236.90 38759.90 0.00 1.42760 1.65
4 7 2 1 o 4830.951 4460.522 0.00 1.42758 0.27
3 0 6 2 o 141449.92 139832.70 180.00 1.42841 1.37
6 1 3 2 o 39989.64 38759.90 0.00 1.42760 0.79
2 7 4 1 o 178.587 169.612 180.00 1.42432 0.01
4 7 2 2 o 4638.930 4460.522 0.00 1.42758 0.13
5 3 4 1 o 184.075 185.976 180.00 1.42288 0.00
1 4 6 1 o 102896.67 104609.45 0.00 1.42277 4.15
2 7 4 2 o 160.699 169.612 180.00 1.42432 0.01
4 3 5 1 o 158873.73 161317.25 180.00 1.42046 6.22
3 1 6 1 o 16267.424 16345.989 0.00 1.42030 0.64
5 3 4 2 o 189.311 185.976 180.00 1.42288 0.00
1 4 6 2 o 108080.12 104609.45 0.00 1.42277 2.19
4 3 5 2 o 174358.63 161317.25 180.00 1.42046 3.47
2 9 0 1 o 114120.39 110779.92 180.00 1.41744 2.70
3 1 6 2 o 18056.186 16345.989 0.00 1.42030 0.36
3 8 2 1 o 9142.255 7810.569 0.00 1.41463 0.41
2 9 0 2 o 129699.19 110779.92 180.00 1.41744 1.57
2 8 3 1 o 19541.928 16035.357 0.00 1.41331 0.91
3 8 2 2 o 10123.282 7810.569 0.00 1.41463 0.23
2 8 3 2 o 21073.768 16035.357 0.00 1.41331 0.50
5 5 3 1 o 5.041 0.135 180.00 1.40407 0.00
6 2 3 1 o 18200.045 16835.945 180.00 1.40371 0.70
2 9 1 1 o 31600.889 29790.578 0.00 1.40213 1.49
1 9 2 1 o 57950.38 52376.37 0.00 1.40135 2.68
5 5 3 2 o 9.137 0.135 180.00 1.40407 0.00
6 2 3 2 o 18939.771 16835.945 180.00 1.40371 0.36
3 5 5 1 o 12199.911 11005.076 0.00 1.39994 0.45
2 9 1 2 o 32741.920 29790.578 0.00 1.40213 0.77
1 9 2 2 o 60340.58 52376.37 0.00 1.40135 1.40
3 2 6 1 o 11729.465 9260.746 180.00 1.39677 0.46
3 5 5 2 o 13654.329 11005.076 0.00 1.39994 0.26
5 6 2 1 o 566.889 442.475 180.00 1.39432 0.02
3 2 6 2 o 12726.226 9260.746 180.00 1.39677 0.25
5 6 2 2 o 583.461 442.475 180.00 1.39432 0.01
2 6 5 1 o 70267.28 71089.88 180.00 1.38902 2.85
6 4 2 1 o 11231.172 10632.731 180.00 1.38644 0.40
2 6 5 2 o 75559.57 71089.88 180.00 1.38902 1.54
6 4 2 2 o 15054.468 10632.731 180.00 1.38644 0.29
2 4 6 1 o 1846.025 1607.008 0.00 1.37851 0.12
6 5 0 1 o 130211.55 124647.12 180.00 1.37745 2.61
2 4 6 2 o 1800.889 1607.008 0.00 1.37851 0.06
6 5 0 2 o 133152.02 124647.12 180.00 1.37745 1.33
4 8 0 1 o 2346.420 1566.371 0.00 1.37208 0.07
5 4 4 1 o 24123.023 18466.938 0.00 1.36944 0.91
4 8 0 2 o 2246.988 1566.371 0.00 1.37208 0.03
0 8 4 1 o 861.853 584.808 0.00 1.36822 0.03
4 4 5 1 o 2788.619 2529.671 180.00 1.36728 0.11
6 3 3 1 o 13415.581 11775.434 0.00 1.36643 0.52
5 4 4 2 o 21839.213 18466.938 0.00 1.36944 0.40
0 8 4 2 o 869.127 584.808 0.00 1.36822 0.02
4 4 5 2 o 2606.637 2529.671 180.00 1.36728 0.05
6 5 1 1 o 41934.79 41999.00 0.00 1.36338 1.61
6 3 3 2 o 11986.769 11775.434 0.00 1.36643 0.23
3 3 6 1 o 4104.894 4041.328 0.00 1.36002 0.15
6 5 1 2 o 42661.72 41999.00 0.00 1.36338 0.82
0 1 7 1 o 2264.819 2150.042 180.00 1.35941 0.04
2 9 2 1 o 8496.101 7886.878 180.00 1.35901 0.39
4 8 1 1 o 7646.162 6983.594 180.00 1.35818 0.34
7 1 1 1 o 543.788 516.880 180.00 1.35722 0.01
3 3 6 2 o 4683.694 4041.328 0.00 1.36002 0.09
0 1 7 2 o 2380.243 2150.042 180.00 1.35941 0.02
2 9 2 2 o 8497.454 7886.878 180.00 1.35901 0.19
1 5 6 1 o 39164.45 37415.52 0.00 1.35515 1.46
4 8 1 2 o 7423.131 6983.594 180.00 1.35818 0.16
1 8 4 1 o 24194.393 22599.824 0.00 1.35467 0.98
7 1 1 2 o 539.425 516.880 180.00 1.35722 0.00
4 7 3 1 o 157.194 135.689 0.00 1.35417 0.01
3 7 4 1 o 236.230 220.485 0.00 1.35254 0.01
5 1 5 1 o 9704.697 9439.949 180.00 1.35164 0.32
1 5 6 2 o 38542.55 37415.52 0.00 1.35515 0.71
1 8 4 2 o 23195.766 22599.824 0.00 1.35467 0.46
4 7 3 2 o 138.237 135.689 0.00 1.35417 0.00
0 7 5 1 o 198472.78 196428.63 180.00 1.35046 3.89
4 6 4 1 o 75428.60 73422.45 0.00 1.34982 2.75
3 7 4 2 o 231.492 220.485 0.00 1.35254 0.01
5 1 5 2 o 9482.351 9439.949 180.00 1.35164 0.16
0 7 5 2 o 191161.77 196428.63 180.00 1.35046 1.85
4 6 4 2 o 73688.73 73422.45 0.00 1.34982 1.33
1 1 7 1 o 79541.53 77777.30 180.00 1.34612 2.74
0 9 3 1 o 11219.338 11532.148 180.00 1.34459 0.23
1 1 7 2 o 78565.70 77777.30 180.00 1.34612 1.35
3 8 3 1 o 24855.150 25102.133 180.00 1.34310 1.03
5 7 1 1 o 8006.502 7948.874 180.00 1.34284 0.28
0 9 3 2 o 12104.015 11532.148 180.00 1.34459 0.13
3 8 3 2 o 25995.938 25102.133 180.00 1.34310 0.54
5 7 1 2 o 8362.345 7948.874 180.00 1.34284 0.15
1 7 5 1 o 38216.38 41153.34 180.00 1.33742 1.47
7 2 1 1 o 2288.601 2313.294 0.00 1.33665 0.07
6 0 4 1 o 78.492 67.988 0.00 1.33446 0.00
0 10 0 1 o 17658.381 16166.502 180.00 1.33460 0.19
1 7 5 2 o 43891.11 41153.34 180.00 1.33742 0.86
7 2 1 2 o 2484.814 2313.294 0.00 1.33665 0.04
3 9 1 1 o 1070.882 969.012 0.00 1.33350 0.06
5 2 5 1 o 2376.745 2203.237 0.00 1.33131 0.07
1 9 3 1 o 20860.652 18813.992 180.00 1.33172 0.87
6 0 4 2 o 78.731 67.988 0.00 1.33446 0.00
0 10 0 2 o 17611.164 16166.502 180.00 1.33460 0.09
4 0 6 1 o 66178.52 62191.41 0.00 1.33003 1.10
3 9 1 2 o 1062.524 969.012 0.00 1.33350 0.03
5 2 5 2 o 2241.311 2203.237 0.00 1.33131 0.03
1 9 3 2 o 19259.570 18813.992 180.00 1.33172 0.39
6 1 4 1 o 33142.738 32548.006 180.00 1.32784 1.06
4 0 6 2 o 61202.75 62191.41 0.00 1.33003 0.49
1 2 7 1 o 23048.764 23667.369 180.00 1.32603 0.65
5 6 3 1 o 21036.260 21847.578 0.00 1.32568 0.68
6 1 4 2 o 31163.217 32548.006 180.00 1.32784 0.49
7 0 2 1 o 110114.16 114720.09 180.00 1.32448 1.80
6 5 2 1 o 343.662 346.215 180.00 1.32364 0.01
4 1 6 1 o 98.893 99.440 0.00 1.32347 0.00
1 2 7 2 o 22689.020 23667.369 180.00 1.32603 0.32
5 6 3 2 o 20584.090 21847.578 0.00 1.32568 0.33
3 6 5 1 o 60.030 77.431 0.00 1.32220 0.01
7 0 2 2 o 105313.02 114720.09 180.00 1.32448 0.84
6 5 2 2 o 333.439 346.215 180.00 1.32364 0.00
4 1 6 2 o 97.012 99.440 0.00 1.32347 0.00
6 4 3 1 o 6899.271 6958.341 0.00 1.31890 0.25
3 6 5 2 o 75.103 77.431 0.00 1.32220 0.00
4 8 2 1 o 2390.197 2402.112 0.00 1.31888 0.06
7 1 2 1 o 12631.396 12592.955 0.00 1.31801 0.45
2 5 6 1 o 40071.91 41525.02 180.00 1.31675 1.40
2 8 4 1 o 7990.291 8179.513 180.00 1.31631 0.24
6 4 3 2 o 6762.239 6958.341 0.00 1.31890 0.12
4 8 2 2 o 2359.501 2402.112 0.00 1.31888 0.03
7 1 2 2 o 12030.354 12592.955 0.00 1.31801 0.21
2 5 6 2 o 39123.13 41525.02 180.00 1.31675 0.68
3 4 6 1 o 3316.458 3592.458 0.00 1.31313 0.12
2 8 4 2 o 7671.548 8179.513 180.00 1.31631 0.11
3 4 6 2 o 3174.015 3592.458 0.00 1.31313 0.05
1 10 1 1 o 676.344 730.544 0.00 1.30956 0.02
5 5 4 1 o 7111.262 7859.297 0.00 1.30883 0.22
6 2 4 1 o 19029.459 21137.480 180.00 1.30855 0.61
2 1 7 1 o 1475.687 1627.060 0.00 1.30846 0.04
4 5 5 1 o 18612.525 19862.799 180.00 1.30695 0.60
0 3 7 1 o 3922.165 4229.802 180.00 1.30628 0.07
1 10 1 2 o 698.059 730.544 0.00 1.30956 0.01
5 5 4 2 o 7251.385 7859.297 0.00 1.30883 0.11
6 2 4 2 o 19289.723 21137.480 180.00 1.30855 0.31
2 1 7 2 o 1489.147 1627.060 0.00 1.30846 0.02
5 7 2 1 o 1515.544 1750.238 180.00 1.30482 0.07
7 3 1 1 o 19810.295 22387.883 0.00 1.30434 0.56
4 2 6 1 o 193.297 212.333 0.00 1.30437 0.00
4 5 5 2 o 17468.434 19862.799 180.00 1.30695 0.28
6 6 0 1 o 70313.29 81660.46 180.00 1.30321 1.24
0 3 7 2 o 3632.883 4229.802 180.00 1.30628 0.03
5 7 2 2 o 1393.498 1750.238 180.00 1.30482 0.03
7 3 1 2 o 19347.646 22387.883 0.00 1.30434 0.27
4 2 6 2 o 189.588 212.333 0.00 1.30437 0.00
2 7 5 1 o 2444.192 2779.878 0.00 1.30047 0.08
6 6 0 2 o 71835.38 81660.46 180.00 1.30321 0.63
5 3 5 1 o 29349.525 34074.785 180.00 1.29938 0.99
7 2 2 1 o 33.401 37.459 0.00 1.29914 0.00
2 7 5 2 o 2467.132 2779.878 0.00 1.30047 0.04
5 3 5 2 o 31237.389 34074.785 180.00 1.29938 0.53
7 2 2 2 o 34.909 37.459 0.00 1.29914 0.00
3 9 2 1 o 13032.506 14004.631 180.00 1.29624 0.44
0 6 6 1 o 201.416 211.781 180.00 1.29581 0.00
2 9 3 1 o 11914.245 13978.709 0.00 1.29523 0.41
1 3 7 1 o 1692.432 2249.829 0.00 1.29447 0.05
3 9 2 2 o 12287.534 14004.631 180.00 1.29624 0.20
0 6 6 2 o 198.808 211.781 180.00 1.29581 0.00
2 9 3 2 o 12240.773 13978.709 0.00 1.29523 0.21
1 3 7 2 o 1975.283 2249.829 0.00 1.29447 0.03
6 6 1 1 o 29519.234 33442.801 180.00 1.29128 0.99
2 2 7 1 o 1179.271 1505.408 0.00 1.28999 0.05
6 6 1 2 o 28761.158 33442.801 180.00 1.29128 0.48
2 2 7 2 o 1164.785 1505.408 0.00 1.28999 0.02
2 10 0 1 o 24775.902 30109.727 180.00 1.28629 0.43
0 10 2 1 o 4030.311 5075.348 0.00 1.28549 0.07
1 6 6 1 o 737.092 1338.105 0.00 1.28428 0.02
2 10 0 2 o 24059.113 30109.727 180.00 1.28629 0.21
0 10 2 2 o 3744.587 5075.348 0.00 1.28549 0.03
1 6 6 2 o 919.005 1338.105 0.00 1.28428 0.01
6 3 4 1 o 4563.917 5428.067 180.00 1.27819 0.11
6 3 4 2 o 4953.055 5428.067 180.00 1.27819 0.06
2 10 1 1 o 11820.027 13011.524 180.00 1.27481 0.46
4 3 6 1 o -1.025 0.924 180.00 1.27430 0.00
1 10 2 1 o 20494.400 21903.721 180.00 1.27423 0.79
2 10 1 2 o 12668.334 13011.524 180.00 1.27481 0.25
4 3 6 2 o 0.648 0.924 180.00 1.27430 0.00
1 10 2 2 o 21719.055 21903.721 180.00 1.27423 0.42
7 3 2 1 o 2513.780 2598.227 0.00 1.26941 0.08
4 7 4 1 o 371.719 1040.037 180.00 1.26813 0.02
7 3 2 2 o 1884.853 2598.227 0.00 1.26941 0.03
4 7 4 2 o 893.471 1040.037 180.00 1.26813 0.02
6 5 3 1 o 14058.299 14190.489 0.00 1.26450 0.45
4 9 0 1 o 6819.802 7269.409 180.00 1.26327 0.12
7 4 1 1 o 3629.423 3782.612 180.00 1.26280 0.13
6 5 3 2 o 14699.745 14190.489 0.00 1.26450 0.23
2 3 7 1 o 4308.675 4191.423 0.00 1.26088 0.14
4 8 3 1 o 2182.868 2242.544 0.00 1.26034 0.08
4 9 0 2 o 6997.311 7269.409 180.00 1.26327 0.06
7 4 1 2 o 3527.576 3782.612 180.00 1.26280 0.06
7 1 3 1 o 11358.341 12153.067 180.00 1.25958 0.37
3 5 6 1 o 10912.231 11565.802 180.00 1.25941 0.32
3 8 4 1 o 2442.608 2597.171 180.00 1.25903 0.09
5 4 5 1 o 2038.129 2306.388 180.00 1.25830 0.07
2 3 7 2 o 3495.946 4191.423 0.00 1.26088 0.05
6 6 2 1 o 18457.910 22157.160 180.00 1.25737 0.55
4 8 3 2 o 1816.403 2242.544 0.00 1.26034 0.03
7 1 3 2 o 9916.598 12153.067 180.00 1.25958 0.16
3 5 6 2 o 9802.896 11565.802 180.00 1.25941 0.14
3 8 4 2 o 2230.805 2597.171 180.00 1.25903 0.04
5 4 5 2 o 2139.598 2306.388 180.00 1.25830 0.04
6 6 2 2 o 19533.018 22157.160 180.00 1.25737 0.30
1 4 7 1 o 12184.569 14305.700 0.00 1.25384 0.38
3 1 7 1 o 505.210 596.746 180.00 1.25216 0.02
4 9 1 1 o 7318.687 8458.816 180.00 1.25240 0.25
2 6 6 1 o 8186.824 9171.043 180.00 1.25145 0.26
5 8 1 1 o 18898.432 21030.164 180.00 1.25119 0.63
1 4 7 2 o 12753.139 14305.700 0.00 1.25384 0.20
1 9 4 1 o 2848.380 2945.091 0.00 1.24964 0.08
3 1 7 2 o 573.449 596.746 180.00 1.25216 0.01
4 9 1 2 o 8198.911 8458.816 180.00 1.25240 0.14
2 6 6 2 o 8617.456 9171.043 180.00 1.25145 0.14
5 7 3 1 o 44903.15 48182.23 180.00 1.24805 1.50
5 8 1 2 o 19648.377 21030.164 180.00 1.25119 0.33
1 8 5 1 o 578.885 627.287 180.00 1.24681 0.01
1 9 4 2 o 2716.354 2945.091 0.00 1.24964 0.04
3 7 5 1 o 3767.958 3861.468 0.00 1.24515 0.13
5 7 3 2 o 46740.96 48182.23 180.00 1.24805 0.78
5 6 4 1 o 1526.589 1567.217 0.00 1.24465 0.04
1 8 5 2 o 631.039 627.287 180.00 1.24681 0.01
7 2 3 1 o 7906.442 8078.721 0.00 1.24308 0.24
4 6 5 1 o 4419.434 4540.683 180.00 1.24303 0.14
3 7 5 2 o 3455.265 3861.468 0.00 1.24515 0.06
2 10 2 1 o 26421.580 29495.117 180.00 1.24215 0.96
5 6 4 2 o 1458.653 1567.217 0.00 1.24465 0.02
3 9 3 1 o 254.261 253.236 180.00 1.24054 0.02
7 2 3 2 o 8201.429 8078.721 0.00 1.24308 0.13
4 6 5 2 o 4610.435 4540.683 180.00 1.24303 0.07
6 4 4 1 o 52470.86 50926.27 180.00 1.23903 1.64
2 10 2 2 o 30416.957 29495.117 180.00 1.24215 0.57
3 9 3 2 o 226.785 253.236 180.00 1.24054 0.01
6 4 4 2 o 51315.41 50926.27 180.00 1.23903 0.79
3 2 7 1 o 43441.21 43072.93 0.00 1.23594 1.38
4 4 6 1 o 2127.402 2113.794 180.00 1.23548 0.05
4 4 6 2 o 2004.836 2113.794 180.00 1.23548 0.02
7 4 2 1 o 37377.86 38083.52 0.00 1.23103 1.11
3 2 7 2 o 39606.14 43072.93 0.00 1.23594 0.62
5 0 6 1 o 54947.93 58965.72 0.00 1.22908 0.79
6 7 0 1 o 1394.756 1530.922 180.00 1.22925 0.03
7 4 2 2 o 35723.89 38083.52 0.00 1.23103 0.52
5 0 6 2 o 56494.31 58965.72 0.00 1.22908 0.41
6 7 0 2 o 1416.042 1530.922 180.00 1.22925 0.02
6 1 5 1 o 28765.883 29532.404 0.00 1.22579 0.83
5 1 6 1 o 35259.46 33893.848 0.00 1.22390 1.05
2 4 7 1 o 238.525 229.470 0.00 1.22324 0.01
6 1 5 2 o 30566.357 29532.404 0.00 1.22579 0.45
3 10 1 1 o 7567.669 7212.085 180.00 1.22257 0.31
4 9 2 1 o 545.305 514.280 180.00 1.22139 0.02
5 1 6 2 o 36880.04 33893.848 0.00 1.22390 0.55
1 10 3 1 o 16401.150 15332.173 0.00 1.22121 0.64
2 4 7 2 o 260.726 229.470 0.00 1.22324 0.00
5 8 2 1 o 111.077 102.548 180.00 1.22027 0.00
3 10 1 2 o 7638.531 7212.085 180.00 1.22257 0.16
6 7 1 1 o 2561.147 2506.284 0.00 1.21922 0.08
2 9 4 1 o 67323.66 65355.18 0.00 1.21934 2.25
4 9 2 2 o 519.571 514.280 180.00 1.22139 0.01
1 10 3 2 o 15462.759 15332.173 0.00 1.22121 0.30
5 8 2 2 o 103.187 102.548 180.00 1.22027 0.00
7 3 3 1 o 103715.23 103442.33 0.00 1.21697 3.07
2 8 5 1 o 46359.44 46599.32 0.00 1.21671 1.46
0 5 7 1 o 2279.473 2312.236 180.00 1.21638 0.03
6 7 1 2 o 2463.834 2506.284 0.00 1.21922 0.04
2 9 4 2 o 64376.80 65355.18 0.00 1.21934 1.06
7 5 1 1 o 62.755 62.788 0.00 1.21481 0.00
7 3 3 2 o 100257.43 103442.33 0.00 1.21697 1.47
2 8 5 2 o 45369.15 46599.32 0.00 1.21671 0.71
0 5 7 2 o 2239.988 2312.236 180.00 1.21638 0.02
1 7 6 1 o 85.189 88.557 180.00 1.21332 0.00
7 5 1 2 o 62.747 62.788 0.00 1.21481 0.00
5 5 5 1 o 21900.328 22369.607 180.00 1.21080 0.69
6 2 5 1 o 62227.27 63950.55 180.00 1.21057 1.75
3 3 7 1 o 143541.58 150170.16 0.00 1.21027 4.16
1 7 6 2 o 84.687 88.557 180.00 1.21332 0.00
5 2 6 1 o 12049.771 13050.773 0.00 1.20875 0.34
5 5 5 2 o 22043.363 22369.607 180.00 1.21080 0.35
6 2 5 2 o 63702.18 63950.55 180.00 1.21057 0.90
3 3 7 2 o 150766.86 150170.16 0.00 1.21027 2.20
1 5 7 1 o 7089.887 7011.759 180.00 1.20683 0.20
6 6 3 1 o 10862.257 10546.512 0.00 1.20634 0.34
8 0 0 1 o 151453.25 145796.03 0.00 1.20609 1.06
5 2 6 2 o 13674.721 13050.773 0.00 1.20875 0.20
1 5 7 2 o 6872.086 7011.759 180.00 1.20683 0.09
6 6 3 2 o 10013.608 10546.512 0.00 1.20634 0.15
8 0 0 2 o 137834.05 145796.03 0.00 1.20609 0.47
0 11 1 1 o 129465.67 134283.69 180.00 1.20363 2.28
3 6 6 1 o 53291.70 55169.03 180.00 1.20192 1.54
8 1 0 1 o 22061.520 23431.949 0.00 1.20119 0.33
0 11 1 2 o 127274.32 134283.69 180.00 1.20363 1.11
3 6 6 2 o 55200.07 55169.03 180.00 1.20192 0.80
8 1 0 2 o 23056.211 23431.949 0.00 1.20119 0.17
0 0 8 1 o 56952.58 53949.00 0.00 1.19570 0.42
7 0 4 1 o 47271.69 45869.87 180.00 1.19421 0.66
1 11 1 1 o 16640.441 16119.043 180.00 1.19437 0.57
6 5 4 1 o 43295.53 42069.50 0.00 1.19360 1.20
3 10 2 1 o 64793.95 62900.89 180.00 1.19368 2.12
0 0 8 2 o 55648.55 53949.00 0.00 1.19570 0.20
2 10 3 1 o 4972.763 4820.666 0.00 1.19288 0.18
8 1 1 1 o 1001.038 965.649 180.00 1.19183 0.03
7 0 4 2 o 46594.32 45869.87 180.00 1.19421 0.32
1 11 1 2 o 16466.246 16119.043 180.00 1.19437 0.28
6 5 4 2 o 41854.23 42069.50 0.00 1.19360 0.57
6 7 2 1 o 2339.895 2368.437 0.00 1.19055 0.09
3 10 2 2 o 62718.33 62900.89 180.00 1.19368 1.01
4 5 6 1 o 712.754 720.295 180.00 1.19043 0.02
4 8 4 1 o 77218.15 79779.85 0.00 1.19010 2.42
2 10 3 2 o 4596.042 4820.666 0.00 1.19288 0.08
7 1 4 1 o 387.983 413.310 0.00 1.18946 0.01
8 1 1 2 o 936.927 965.649 180.00 1.19183 0.01
6 7 2 2 o 2368.716 2368.437 0.00 1.19055 0.05
4 5 6 2 o 719.815 720.295 180.00 1.19043 0.01
4 8 4 2 o 80197.23 79779.85 0.00 1.19010 1.26
8 2 0 1 o 4530.395 4440.958 0.00 1.18686 0.06
7 1 4 2 o 429.578 413.310 0.00 1.18946 0.01
1 0 8 1 o 711.205 677.397 0.00 1.18663 0.01
6 3 5 1 o 606.100 570.561 180.00 1.18641 0.02
7 5 2 1 o 7925.118 7539.192 180.00 1.18644 0.23
2 7 6 1 o 757.213 661.866 0.00 1.18553 0.03
5 3 6 1 o 8829.256 7593.081 0.00 1.18470 0.25
4 1 7 1 o 1302.164 1157.171 180.00 1.18429 0.03
8 2 0 2 o 4894.940 4440.958 0.00 1.18686 0.03
1 0 8 2 o 755.621 677.397 0.00 1.18663 0.01
6 3 5 2 o 615.239 570.561 180.00 1.18641 0.01
7 5 2 2 o 8065.611 7539.192 180.00 1.18644 0.12
7 4 3 1 o 2288.861 2177.451 180.00 1.18302 0.07
2 7 6 2 o 709.652 661.866 0.00 1.18553 0.01
1 1 8 1 o 17078.820 16106.610 180.00 1.18196 0.47
5 3 6 2 o 8067.832 7593.081 0.00 1.18470 0.11
4 1 7 2 o 1216.932 1157.171 180.00 1.18429 0.01
7 4 3 2 o 2380.644 2177.451 180.00 1.18302 0.04
5 7 4 1 o 43.024 38.190 0.00 1.17974 0.00
2 5 7 1 o 2276.537 2119.116 0.00 1.17947 0.06
1 1 8 2 o 16929.705 16106.610 180.00 1.18196 0.23
4 7 5 1 o 33051.176 31966.914 0.00 1.17836 0.98
8 2 1 1 o 12395.154 11849.294 0.00 1.17783 0.34
0 2 8 1 o 109.502 103.826 180.00 1.17696 0.00
3 4 7 1 o 5689.208 5287.398 180.00 1.17687 0.16
5 7 4 2 o 42.591 38.190 0.00 1.17974 0.00
2 5 7 2 o 2298.971 2119.116 0.00 1.17947 0.03
2 11 0 1 o 24093.510 22188.916 0.00 1.17663 0.42
7 2 4 1 o 4937.182 4646.220 180.00 1.17554 0.14
4 7 5 2 o 33783.797 31966.914 0.00 1.17836 0.50
8 2 1 2 o 12324.740 11849.294 0.00 1.17783 0.17
4 9 3 1 o 22652.215 21913.133 180.00 1.17445 0.70
0 2 8 2 o 105.547 103.826 180.00 1.17696 0.00
3 4 7 2 o 5395.716 5287.398 180.00 1.17687 0.07
2 11 0 2 o 22662.180 22188.916 0.00 1.17663 0.19
5 8 3 1 o 34034.254 32898.340 180.00 1.17346 1.02
3 9 4 1 o 4864.833 4674.696 180.00 1.17339 0.15
7 2 4 2 o 5175.685 4646.220 180.00 1.17554 0.07
0 9 5 1 o 170.120 150.009 180.00 1.17203 0.00
4 9 3 2 o 24696.180 21913.133 180.00 1.17445 0.39
3 8 5 1 o 1190.070 1073.795 0.00 1.17104 0.04
4 2 7 1 o 138.778 123.736 180.00 1.17055 0.00
5 8 3 2 o 36092.93 32898.340 180.00 1.17346 0.55
3 9 4 2 o 5149.562 4674.696 180.00 1.17339 0.08
8 0 2 1 o 36417.11 31727.330 0.00 1.16948 0.50
0 9 5 2 o 170.997 150.009 180.00 1.17203 0.00
1 2 8 1 o 31691.762 29139.547 0.00 1.16830 0.86
3 8 5 2 o 1154.088 1073.795 0.00 1.17104 0.02
4 2 7 2 o 126.927 123.736 180.00 1.17055 0.00
4 10 0 1 o 152736.34 148558.09 0.00 1.16778 2.42
2 11 1 1 o 12057.709 11681.537 0.00 1.16783 0.39
1 11 2 1 o 9736.287 9623.749 180.00 1.16738 0.32
5 9 1 1 o 1047.437 1026.714 0.00 1.16704 0.05
8 0 2 2 o 32567.578 31727.330 0.00 1.16948 0.22
1 2 8 2 o 29593.578 29139.547 0.00 1.16830 0.40
8 1 2 1 o -0.296 0.154 0.00 1.16501 0.00
0 10 4 1 o 134804.88 133001.84 0.00 1.16540 2.17
4 10 0 2 o 145078.84 148558.09 0.00 1.16778 1.13
2 11 1 2 o 11440.794 11681.537 0.00 1.16783 0.18
8 3 0 1 o 13672.099 13350.107 0.00 1.16407 0.21
1 11 2 2 o 9414.230 9623.749 180.00 1.16738 0.15
5 9 1 2 o 1040.053 1026.714 0.00 1.16704 0.02
1 9 5 1 o 6509.195 6195.109 180.00 1.16348 0.19
7 6 1 1 o 1738.511 1713.623 180.00 1.16297 0.05
8 1 2 2 o -0.355 0.154 0.00 1.16501 0.00
0 10 4 2 o 131205.98 133001.84 0.00 1.16540 1.05
8 3 0 2 o 12882.744 13350.107 0.00 1.16407 0.10
2 0 8 1 o 932.510 932.937 0.00 1.16059 0.02
1 9 5 2 o 6184.657 6195.109 180.00 1.16348 0.09
7 6 1 2 o 1675.834 1713.623 180.00 1.16297 0.02
5 6 5 1 o 726.477 740.311 180.00 1.15945 0.02
4 10 1 1 o 1207.231 1155.871 180.00 1.15917 0.04
2 0 8 2 o 970.985 932.937 0.00 1.16059 0.01
6 8 0 1 o 37835.48 36679.23 180.00 1.15779 0.54
1 10 4 1 o 397.942 389.262 0.00 1.15699 0.01
5 6 5 2 o 753.660 740.311 180.00 1.15945 0.01
2 1 8 1 o 14531.110 14332.898 180.00 1.15623 0.36
4 10 1 2 o 1176.508 1155.871 180.00 1.15917 0.02
1 6 7 1 o 14364.479 14207.312 0.00 1.15596 0.35
8 3 1 1 o 92551.75 91626.43 180.00 1.15554 2.46
6 4 5 1 o 12906.118 12466.319 0.00 1.15490 0.35
6 8 0 2 o 37814.79 36679.23 180.00 1.15779 0.27
1 10 4 2 o 432.218 389.262 0.00 1.15699 0.01
7 3 4 1 o 1488.966 1367.167 0.00 1.15338 0.05
2 1 8 2 o 15375.612 14332.898 180.00 1.15623 0.20
5 4 6 1 o 1850.945 1714.182 0.00 1.15332 0.05
1 6 7 2 o 15226.042 14207.312 0.00 1.15596 0.19
8 3 1 2 o 100334.34 91626.43 180.00 1.15554 1.35
0 8 6 1 o 8397.675 7509.567 180.00 1.15259 0.15
6 4 5 2 o 13577.920 12466.319 0.00 1.15490 0.18
8 2 2 1 o 17596.451 16182.219 0.00 1.15192 0.48
7 3 4 2 o 1584.733 1367.167 0.00 1.15338 0.02
5 4 6 2 o 1958.406 1714.182 0.00 1.15332 0.03
0 8 6 2 o 8919.224 7509.567 180.00 1.15259 0.08
3 10 3 1 o 623.281 569.611 180.00 1.14975 0.01
6 8 1 1 o 31497.400 27055.010 0.00 1.14940 0.94
8 2 2 2 o 19017.564 16182.219 0.00 1.15192 0.26
4 3 7 1 o 2934.736 2430.413 180.00 1.14866 0.08
6 7 3 1 o 30645.281 28021.971 0.00 1.14696 0.88
3 10 3 2 o 601.853 569.611 180.00 1.14975 0.01
1 3 8 1 o 5096.345 4735.044 180.00 1.14654 0.14
6 8 1 2 o 29143.592 27055.010 0.00 1.14940 0.43
4 3 7 2 o 2648.933 2430.413 180.00 1.14866 0.04
6 6 4 1 o 1147.289 1052.518 180.00 1.14432 0.03
1 8 6 1 o 1781.023 1614.109 0.00 1.14445 0.05
6 7 3 2 o 30588.029 28021.971 0.00 1.14696 0.44
1 3 8 2 o 5186.974 4735.044 180.00 1.14654 0.07
2 2 8 1 o 279.473 259.985 180.00 1.14342 0.01
7 5 3 1 o 22496.531 20561.072 0.00 1.14329 0.66
3 7 6 1 o 14.342 12.510 180.00 1.14317 0.00
2 11 2 1 o 164.271 156.990 0.00 1.14257 0.00
5 9 2 1 o 52056.63 50187.55 180.00 1.14182 1.52
6 6 4 2 o 1062.857 1052.518 180.00 1.14432 0.01
4 6 6 1 o 29902.293 29543.502 0.00 1.14152 0.82
1 8 6 2 o 1650.903 1614.109 0.00 1.14445 0.02
2 2 8 2 o 252.884 259.985 180.00 1.14342 0.00
7 5 3 2 o 19891.828 20561.072 0.00 1.14329 0.28
3 7 6 2 o 11.953 12.510 180.00 1.14317 0.00
2 11 2 2 o 158.874 156.990 0.00 1.14257 0.00
5 9 2 2 o 50399.66 50187.55 180.00 1.14182 0.73
2 9 5 1 o 9571.666 9562.198 0.00 1.13891 0.28
4 6 6 2 o 29470.279 29543.502 0.00 1.14152 0.40
7 6 2 1 o 37384.91 37451.86 180.00 1.13801 0.99
3 5 7 1 o 40180.24 40779.30 0.00 1.13773 1.11
2 9 5 2 o 9528.965 9562.198 0.00 1.13891 0.14
7 6 2 2 o 38742.22 37451.86 180.00 1.13801 0.52
3 5 7 2 o 41520.22 40779.30 0.00 1.13773 0.58
8 4 0 1 o 3896.641 3935.986 180.00 1.13426 0.05
4 10 2 1 o 27353.971 27672.152 0.00 1.13445 0.79
0 11 3 1 o 3.630 3.631 180.00 1.13395 0.00
2 10 4 1 o 3347.397 3167.518 180.00 1.13281 0.09
6 0 6 1 o 402.759 382.215 180.00 1.13218 0.01
2 6 7 1 o 90.669 84.421 180.00 1.13185 0.00
8 4 0 2 o 4268.418 3935.986 180.00 1.13426 0.03
4 10 2 2 o 29423.965 27672.152 0.00 1.13445 0.43
8 3 2 1 o 594.318 477.760 180.00 1.13105 0.02
0 11 3 2 o 3.972 3.631 180.00 1.13395 0.00
2 10 4 2 o 4163.429 3167.518 180.00 1.13281 0.06
6 0 6 2 o 547.963 382.215 180.00 1.13218 0.00
2 6 7 2 o 117.599 84.421 180.00 1.13185 0.00
8 3 2 2 o 675.096 477.760 180.00 1.13105 0.01
6 1 6 1 o 27310.865 21642.592 180.00 1.12813 0.77
3 11 1 1 o 13453.689 11126.995 180.00 1.12728 0.44
8 4 1 1 o 2227.560 2128.634 180.00 1.12637 0.06
1 11 3 1 o 35579.10 34608.484 180.00 1.12620 1.06
0 4 8 1 o 35883.92 36221.18 180.00 1.12561 0.51
6 1 6 2 o 21471.859 21642.592 180.00 1.12813 0.29
6 8 2 1 o 27429.928 27580.742 180.00 1.12528 0.80
7 4 4 1 o 0.265 0.083 180.00 1.12436 0.00
8 1 3 1 o 25580.299 24489.117 180.00 1.12408 0.63
3 11 1 2 o 11641.616 11126.995 180.00 1.12728 0.18
8 4 1 2 o 2147.318 2128.634 180.00 1.12637 0.03
1 11 3 2 o 34507.793 34608.484 180.00 1.12620 0.51
2 3 8 1 o 3921.651 4028.264 180.00 1.12300 0.09
0 4 8 2 o 34787.332 36221.18 180.00 1.12561 0.25
6 8 2 2 o 26233.408 27580.742 180.00 1.12528 0.38
7 4 4 2 o 0.053 0.083 180.00 1.12436 0.00
8 1 3 2 o 24739.592 24489.117 180.00 1.12408 0.30
2 8 6 1 o 14246.000 13922.408 180.00 1.12104 0.44
3 0 8 1 o 85987.30 84166.20 180.00 1.12076 1.07
2 3 8 2 o 4027.625 4028.264 180.00 1.12300 0.05
4 4 7 1 o 23.753 24.046 180.00 1.11999 0.00
2 8 6 2 o 14470.321 13922.408 180.00 1.12104 0.23
3 0 8 2 o 84888.52 84166.20 180.00 1.12076 0.52
1 4 8 1 o 54977.24 54370.32 0.00 1.11802 1.38
6 5 5 1 o 2482.286 2505.288 0.00 1.11785 0.06
4 4 7 2 o 22.420 24.046 180.00 1.11999 0.00
3 1 8 1 o 8738.673 9007.646 0.00 1.11683 0.22
4 9 4 1 o 7039.087 7367.069 0.00 1.11700 0.22
5 5 6 1 o 34318.047 34679.129 180.00 1.11641 0.89
6 2 6 1 o 9780.751 9886.723 180.00 1.11623 0.26
5 8 4 1 o 2346.602 2370.094 0.00 1.11614 0.06
1 4 8 2 o 54895.36 54370.32 0.00 1.11802 0.69
6 5 5 2 o 2549.531 2505.288 0.00 1.11785 0.03
4 8 5 1 o 3219.989 3133.576 0.00 1.11497 0.09
7 1 5 1 o 34303.586 32302.516 0.00 1.11444 0.93
3 1 8 2 o 9480.868 9007.646 0.00 1.11683 0.12
4 9 4 2 o 7826.084 7367.069 0.00 1.11700 0.12
5 5 6 2 o 35743.69 34679.129 180.00 1.11641 0.46
6 2 6 2 o 10115.323 9886.723 180.00 1.11623 0.13
5 8 4 2 o 2412.853 2370.094 0.00 1.11614 0.03
8 2 3 1 o 2871.204 2554.438 180.00 1.11230 0.07
4 8 5 2 o 3574.198 3133.576 0.00 1.11497 0.05
7 1 5 2 o 38693.21 32302.516 0.00 1.11444 0.53
0 12 0 1 o 3490.712 3122.659 0.00 1.11217 0.02
5 1 7 1 o 7251.456 5972.739 180.00 1.11134 0.21
0 7 7 1 o 1163.603 1010.200 180.00 1.11069 0.02
8 2 3 2 o 2894.238 2554.438 180.00 1.11230 0.04
7 7 1 1 o 12220.116 10828.106 180.00 1.10950 0.31
0 12 0 2 o 3481.382 3122.659 0.00 1.11217 0.01
5 1 7 2 o 7260.760 5972.739 180.00 1.11134 0.10
0 7 7 2 o 1089.610 1010.200 180.00 1.11069 0.01
7 7 1 2 o 12236.831 10828.106 180.00 1.10950 0.15
5 7 5 1 o 2450.193 2141.332 180.00 1.10644 0.06
3 2 8 1 o 8005.860 6537.677 180.00 1.10528 0.20
3 11 2 1 o 5019.713 4590.345 0.00 1.10450 0.15
8 4 2 1 o 6126.205 6151.890 0.00 1.10365 0.15
5 7 5 2 o 2149.229 2141.332 180.00 1.10644 0.02
2 11 3 1 o 17617.811 17233.656 0.00 1.10387 0.53
1 7 7 1 o 82716.54 86051.05 180.00 1.10340 2.16
7 2 5 1 o 695.908 777.744 180.00 1.10297 0.02
5 9 3 1 o 7330.787 7975.329 180.00 1.10320 0.24
3 2 8 2 o 5893.584 6537.677 180.00 1.10528 0.07
3 11 2 2 o 4376.239 4590.345 0.00 1.10450 0.06
8 4 2 2 o 5910.302 6151.890 0.00 1.10365 0.07
3 9 5 1 o 15108.748 15781.165 0.00 1.10119 0.43
2 11 3 2 o 16522.707 17233.656 0.00 1.10387 0.24
1 7 7 2 o 83017.89 86051.05 180.00 1.10340 1.08
7 2 5 2 o 749.772 777.744 180.00 1.10297 0.01
5 9 3 2 o 7668.989 7975.329 180.00 1.10320 0.13
5 2 7 1 o 60036.58 62667.19 0.00 1.09996 1.51
7 6 3 1 o 4883.323 5176.278 180.00 1.09976 0.13
8 5 0 1 o 24865.396 27196.779 180.00 1.09909 0.33
3 9 5 2 o 15161.263 15781.165 0.00 1.10119 0.22
5 2 7 2 o 62979.46 62667.19 0.00 1.09996 0.80
6 3 6 1 o 9332.635 9310.899 180.00 1.09721 0.26
1 12 1 1 o 18987.525 18677.471 180.00 1.09755 0.61
7 6 3 2 o 5128.775 5176.278 180.00 1.09976 0.07
8 5 0 2 o 25604.318 27196.779 180.00 1.09909 0.17
4 10 3 1 o 233.743 245.794 0.00 1.09655 0.01
2 4 8 1 o 8914.537 9645.877 180.00 1.09617 0.27
3 10 4 1 o 25713.121 27108.129 180.00 1.09569 0.71
3 6 7 1 o 19817.525 20227.475 180.00 1.09481 0.55
6 3 6 2 o 9119.754 9310.899 180.00 1.09721 0.13
1 12 1 2 o 18317.084 18677.471 180.00 1.09755 0.29
4 10 3 2 o 251.221 245.794 0.00 1.09655 0.00
8 3 3 1 o 212.456 209.552 180.00 1.09348 0.00
2 4 8 2 o 9827.764 9645.877 180.00 1.09617 0.15
6 7 4 1 o 2683.758 2702.365 180.00 1.09327 0.09
3 10 4 2 o 26260.350 27108.129 180.00 1.09569 0.36
3 6 7 2 o 20417.637 20227.475 180.00 1.09481 0.28
8 5 1 1 o 26357.695 26057.977 180.00 1.09191 0.66
8 3 3 2 o 222.776 209.552 180.00 1.09348 0.00
4 7 6 1 o 150.902 135.255 0.00 1.09083 0.01
6 7 4 2 o 2978.446 2702.365 180.00 1.09327 0.05
5 10 1 1 o 5641.073 5205.056 180.00 1.09051 0.17
7 5 4 1 o 1235.931 1164.488 180.00 1.09009 0.03
6 9 0 1 o 59984.98 56359.89 0.00 1.09015 0.84
8 5 1 2 o 29223.141 26057.977 180.00 1.09191 0.38
6 8 3 1 o 9063.473 8279.035 180.00 1.08826 0.25
4 7 6 2 o 154.061 135.255 0.00 1.09083 0.00
7 7 2 1 o 123.587 115.823 180.00 1.08776 0.00
5 10 1 2 o 5524.028 5205.056 180.00 1.09051 0.08
7 5 4 2 o 1157.306 1164.488 180.00 1.09009 0.01
1 10 5 1 o 7494.091 7270.149 180.00 1.08760 0.27
6 9 0 2 o 56529.63 56359.89 0.00 1.09015 0.39
3 3 8 1 o 1948.866 2024.728 0.00 1.08680 0.05
4 5 7 1 o 2182.564 2146.932 180.00 1.08610 0.06
6 8 3 2 o 8398.839 8279.035 180.00 1.08826 0.11
7 7 2 2 o 112.427 115.823 180.00 1.08776 0.00
3 8 6 1 o 42351.49 43486.93 180.00 1.08502 1.10
7 3 5 1 o 103.553 104.363 0.00 1.08460 0.00
1 10 5 2 o 6961.638 7270.149 180.00 1.08760 0.12
1 5 8 1 o 21438.428 22655.863 0.00 1.08431 0.53
3 3 8 2 o 1921.802 2024.728 0.00 1.08680 0.02
4 11 0 1 o 3272.162 3468.821 0.00 1.08389 0.05
4 5 7 2 o 2046.497 2146.932 180.00 1.08610 0.03
2 12 0 1 o 32750.734 34532.020 180.00 1.08374 0.53
6 9 1 1 o 19037.963 19818.824 0.00 1.08314 0.50
0 12 2 1 o 21124.943 22173.889 0.00 1.08326 0.34
2 7 7 1 o 1293.062 1268.162 0.00 1.08238 0.03
3 8 6 2 o 44464.43 43486.93 180.00 1.08502 0.59
7 3 5 2 o 104.862 104.363 0.00 1.08460 0.00
5 3 7 1 o 35059.566 34388.488 180.00 1.08174 0.80
1 5 8 2 o 22933.561 22655.863 0.00 1.08431 0.29
4 11 0 2 o 3367.136 3468.821 0.00 1.08389 0.03
2 12 0 2 o 33177.949 34532.020 180.00 1.08374 0.27
6 9 1 2 o 19081.037 19818.824 0.00 1.08314 0.25
0 12 2 2 o 21080.975 22173.889 0.00 1.08326 0.17
2 7 7 2 o 1296.804 1268.162 0.00 1.08238 0.02
5 3 7 2 o 34403.387 34388.488 180.00 1.08174 0.39
1 9 6 1 o 17697.398 17865.775 180.00 1.07899 0.46
6 6 5 1 o 30745.221 29242.393 0.00 1.07706 0.78
8 0 4 1 o 10010.697 9656.559 180.00 1.07688 0.12
4 11 1 1 o 2603.418 2481.401 0.00 1.07700 0.08
2 12 1 1 o 33297.879 32237.727 0.00 1.07685 0.97
1 9 6 2 o 17613.510 17865.775 180.00 1.07899 0.23
1 12 2 1 o 693.092 695.384 0.00 1.07650 0.02
5 6 6 1 o 23129.293 23599.225 0.00 1.07577 0.56
1 11 4 1 o 2133.688 2131.613 180.00 1.07525 0.06
6 6 5 2 o 30500.611 29242.393 0.00 1.07706 0.39
8 0 4 2 o 9980.702 9656.559 180.00 1.07688 0.06
4 11 1 2 o 2585.460 2481.401 0.00 1.07700 0.04
2 12 1 2 o 33249.016 32237.727 0.00 1.07685 0.48
8 1 4 1 o 2698.140 2601.161 180.00 1.07339 0.05
1 12 2 2 o 709.869 695.384 0.00 1.07650 0.01
5 6 6 2 o 25397.719 23599.225 0.00 1.07577 0.32
1 11 4 2 o 2221.085 2131.613 180.00 1.07525 0.03
6 4 6 1 o 9024.519 9073.173 180.00 1.07214 0.20
4 0 8 1 o 9957.641 11084.556 180.00 1.07131 0.10
8 5 2 1 o 12.275 12.565 180.00 1.07117 0.00
8 1 4 2 o 2422.793 2601.161 180.00 1.07339 0.02
5 10 2 1 o 20536.393 21073.576 0.00 1.06985 0.56
6 4 6 2 o 9006.898 9073.173 180.00 1.07214 0.10
3 11 3 1 o 6483.959 6517.982 180.00 1.06943 0.17
8 4 3 1 o 142.203 139.424 0.00 1.06865 0.00
4 0 8 2 o 11326.084 11084.556 180.00 1.07131 0.06
8 5 2 2 o 12.688 12.565 180.00 1.07117 0.00
4 1 8 1 o 8.377 3.567 0.00 1.06787 0.00
2 10 5 1 o 8763.372 8635.418 0.00 1.06745 0.24
5 10 2 2 o 20736.867 21073.576 0.00 1.06985 0.28
3 11 3 2 o 6259.829 6517.982 180.00 1.06943 0.08
8 4 3 2 o 131.696 139.424 0.00 1.06865 0.00
4 1 8 2 o 5.072 3.567 0.00 1.06787 0.00
8 2 4 1 o 18194.445 18397.762 0.00 1.06313 0.43
6 9 2 1 o 1111.781 1150.223 0.00 1.06289 0.02
2 10 5 2 o 8626.241 8635.418 0.00 1.06745 0.12
3 4 8 1 o 368.980 416.578 0.00 1.06242 0.01
2 5 8 1 o 16624.711 17109.727 0.00 1.06433 0.38
9 1 1 1 o 305.821 438.467 0.00 1.06203 0.01
2 5 8 2 o 14031.464 17109.727 0.00 1.06433 0.15
8 2 4 2 o 18409.004 18397.762 0.00 1.06313 0.22
7 4 5 1 o 523.016 516.901 0.00 1.06037 0.01
8 6 0 1 o 56828.84 56189.14 0.00 1.06026 0.68
6 9 2 2 o 1161.732 1150.223 0.00 1.06289 0.01
3 4 8 2 o 410.824 416.578 0.00 1.06242 0.00
9 1 1 2 o 409.254 438.467 0.00 1.06203 0.01
0 1 9 1 o 16516.064 17132.264 0.00 1.05949 0.18
2 9 6 1 o 20325.701 21380.459 0.00 1.05931 0.53
7 4 5 2 o 505.268 516.901 0.00 1.06037 0.01
4 2 8 1 o 3649.174 3719.700 0.00 1.05776 0.09
5 4 7 1 o 9400.506 9644.260 180.00 1.05770 0.22
8 6 0 2 o 54500.49 56189.14 0.00 1.06026 0.32
0 1 9 2 o 15630.991 17132.264 0.00 1.05949 0.08
4 11 2 1 o 544.137 622.801 180.00 1.05708 0.02
2 12 2 1 o 5693.803 6156.397 180.00 1.05695 0.13
2 9 6 2 o 19497.672 21380.459 0.00 1.05931 0.25
7 8 1 1 o 1743.486 1718.402 0.00 1.05610 0.05
2 11 4 1 o 8639.262 8180.533 180.00 1.05576 0.23
4 2 8 2 o 3954.395 3719.700 0.00 1.05776 0.05
5 4 7 2 o 10185.721 9644.260 180.00 1.05770 0.12
5 9 4 1 o 7706.992 7266.195 180.00 1.05517 0.20
4 11 2 2 o 641.464 622.801 180.00 1.05708 0.01
7 7 3 1 o 27917.686 27827.270 180.00 1.05421 0.73
4 9 5 1 o 17057.176 17039.502 180.00 1.05418 0.44
2 12 2 2 o 6216.460 6156.397 180.00 1.05695 0.07
8 6 1 1 o 5731.023 5800.034 180.00 1.05380 0.14
7 8 1 2 o 1722.543 1718.402 0.00 1.05610 0.02
5 8 5 1 o 5088.378 5061.189 0.00 1.05346 0.15
1 1 9 1 o 20308.922 19989.049 180.00 1.05316 0.47
0 6 8 1 o 11998.350 11818.000 0.00 1.05318 0.14
2 11 4 2 o 8303.987 8180.533 180.00 1.05576 0.11
5 9 4 2 o 7438.313 7266.195 180.00 1.05517 0.10
9 2 1 1 o 23663.738 22981.840 0.00 1.05208 0.57
7 6 4 1 o 18622.703 18041.615 180.00 1.05216 0.45
7 7 3 2 o 27612.842 27827.270 180.00 1.05421 0.36
4 9 5 2 o 16884.654 17039.502 180.00 1.05418 0.22
8 6 1 2 o 5704.845 5800.034 180.00 1.05380 0.07
5 8 5 2 o 5001.276 5061.189 0.00 1.05346 0.07
1 8 7 1 o 26137.520 26418.893 180.00 1.05085 0.68
1 1 9 2 o 19717.434 19989.049 180.00 1.05316 0.23
0 6 8 2 o 11667.940 11818.000 0.00 1.05318 0.07
3 7 7 1 o 9949.196 10113.005 180.00 1.04985 0.26
9 2 1 2 o 22713.010 22981.840 0.00 1.05208 0.27
7 6 4 2 o 17848.949 18041.615 180.00 1.05216 0.21
4 10 4 1 o 7253.214 7352.625 180.00 1.04935 0.18
4 6 7 1 o 20.584 22.267 180.00 1.04858 0.00
1 8 7 2 o 23985.850 26418.893 180.00 1.05085 0.31
3 7 7 2 o 10169.910 10113.005 180.00 1.04985 0.13
1 6 8 1 o 1898.346 1820.000 0.00 1.04696 0.05
8 3 4 1 o 34.773 34.687 180.00 1.04665 0.00
4 10 4 2 o 7643.690 7352.625 180.00 1.04935 0.10
9 0 2 1 o 7815.486 8167.765 0.00 1.04612 0.09
4 6 7 2 o 20.637 22.267 180.00 1.04858 0.00
3 12 1 1 o 3173.018 2775.135 0.00 1.04481 0.08
1 6 8 2 o 2044.674 1820.000 0.00 1.04696 0.03
8 3 4 2 o 34.928 34.687 180.00 1.04665 0.00
9 0 2 2 o 8600.858 8167.765 0.00 1.04612 0.05
1 12 3 1 o 18936.523 17599.572 180.00 1.04395 0.51
1 2 9 1 o 6833.044 6442.481 180.00 1.04346 0.19
9 1 2 1 o 31637.146 30003.309 0.00 1.04292 0.73
7 0 6 1 o 6010.937 5721.817 0.00 1.04270 0.07
6 5 6 1 o 21668.117 21417.480 0.00 1.04230 0.54
6 8 4 1 o 259.530 261.359 180.00 1.04208 0.00
3 12 1 2 o 2783.449 2775.135 0.00 1.04481 0.03
4 3 8 1 o 592.412 572.878 0.00 1.04153 0.02
1 12 3 2 o 18186.824 17599.572 180.00 1.04395 0.24
1 2 9 2 o 6608.041 6442.481 180.00 1.04346 0.09
9 1 2 2 o 29594.479 30003.309 0.00 1.04292 0.34
7 0 6 2 o 5540.865 5721.817 0.00 1.04270 0.03
4 8 6 1 o 13916.639 14598.501 0.00 1.03997 0.32
6 5 6 2 o 19685.262 21417.480 0.00 1.04230 0.24
7 1 6 1 o 1894.962 2112.107 180.00 1.03954 0.04
6 8 4 2 o 246.034 261.359 180.00 1.04208 0.00
8 5 3 1 o 5904.111 7111.722 180.00 1.03909 0.13
4 3 8 2 o 394.175 572.878 0.00 1.04153 0.01
6 1 7 1 o 1922.829 2234.757 0.00 1.03817 0.05
5 10 3 1 o 1711.292 1814.713 180.00 1.03788 0.03
4 8 6 2 o 14068.149 14598.501 0.00 1.03997 0.16
7 8 2 1 o 25815.373 26946.018 180.00 1.03731 0.63
7 1 6 2 o 1996.971 2112.107 180.00 1.03954 0.02
8 5 3 2 o 6923.394 7111.722 180.00 1.03909 0.08
9 3 1 1 o 5939.987 5853.917 180.00 1.03611 0.16
3 10 5 1 o 526.607 520.754 180.00 1.03621 0.02
6 1 7 2 o 2288.244 2234.757 0.00 1.03817 0.03
8 6 2 1 o 23553.592 22915.355 0.00 1.03513 0.58
5 10 3 2 o 1853.563 1814.713 180.00 1.03788 0.02
2 1 9 1 o 70.588 69.774 0.00 1.03483 0.00
7 8 2 2 o 27277.066 26946.018 180.00 1.03731 0.34
6 7 5 1 o 24042.723 24316.332 0.00 1.03417 0.58
0 3 9 1 o 38947.22 40338.54 180.00 1.03375 0.44
9 3 1 2 o 5526.444 5853.917 180.00 1.03611 0.07
9 2 2 1 o 1038.065 1095.858 0.00 1.03350 0.02
3 10 5 2 o 485.126 520.754 180.00 1.03621 0.01
3 5 8 1 o 9241.218 9808.047 180.00 1.03336 0.22
5 7 6 1 o 0.406 0.586 180.00 1.03303 0.00
8 6 2 2 o 23162.160 22915.355 0.00 1.03513 0.29
2 8 7 1 o 72.359 72.146 180.00 1.03263 0.00
2 1 9 2 o 71.769 69.774 0.00 1.03483 0.00
6 7 5 2 o 25684.607 24316.332 0.00 1.03417 0.31
7 5 5 1 o 1041.132 1008.367 0.00 1.03147 0.01
6 9 3 1 o 7263.461 6864.063 0.00 1.03152 0.18
0 3 9 2 o 42920.57 40338.54 180.00 1.03375 0.25
9 2 2 2 o 1173.185 1095.858 0.00 1.03350 0.01
3 5 8 2 o 10535.684 9808.047 180.00 1.03336 0.13
5 7 6 2 o 0.876 0.586 180.00 1.03303 0.00
7 2 6 1 o 22324.309 20798.281 180.00 1.03020 0.52
2 8 7 2 o 77.811 72.146 180.00 1.03263 0.00
5 5 7 1 o 8577.383 8224.432 180.00 1.02901 0.18
7 5 5 2 o 1033.675 1008.367 0.00 1.03147 0.01
6 2 7 1 o 51.939 49.401 0.00 1.02887 0.00
2 6 8 1 o 255.035 240.523 180.00 1.02895 0.01
6 9 3 2 o 7195.736 6864.063 0.00 1.03152 0.09
3 9 6 1 o 10107.286 9752.994 0.00 1.02876 0.26
1 3 9 1 o 11464.787 11275.876 180.00 1.02787 0.28
7 2 6 2 o 21265.646 20798.281 180.00 1.03020 0.25
6 10 0 1 o 412.195 397.358 180.00 1.02699 0.00
5 5 7 2 o 8312.862 8224.432 180.00 1.02901 0.08
6 2 7 2 o 49.315 49.401 0.00 1.02887 0.00
2 6 8 2 o 242.351 240.523 180.00 1.02895 0.00
3 12 2 1 o 4827.623 4714.880 180.00 1.02660 0.13
3 9 6 2 o 9624.043 9752.994 0.00 1.02876 0.12
4 11 3 1 o 32078.180 32536.094 180.00 1.02622 0.85
2 12 3 1 o 7337.346 7527.510 180.00 1.02609 0.19
2 2 9 1 o 43297.84 45515.50 180.00 1.02562 0.97
1 3 9 2 o 10868.139 11275.876 180.00 1.02787 0.13
3 11 4 1 o 733.184 768.788 0.00 1.02551 0.02
8 4 4 1 o 61498.12 61957.66 0.00 1.02482 1.43
0 11 5 1 o 16932.924 17286.512 0.00 1.02460 0.23
6 10 0 2 o 387.562 397.358 180.00 1.02699 0.00
3 12 2 2 o 4490.736 4714.880 180.00 1.02660 0.06
4 11 3 2 o 31381.563 32536.094 180.00 1.02622 0.41
2 12 3 2 o 7296.837 7527.510 180.00 1.02609 0.10
0 10 6 1 o 23147.148 23863.023 0.00 1.02336 0.28
2 2 9 2 o 43579.65 45515.50 180.00 1.02562 0.49
3 11 4 2 o 730.348 768.788 0.00 1.02551 0.01
8 4 4 2 o 60096.96 61957.66 0.00 1.02482 0.69
0 11 5 2 o 17200.873 17286.512 0.00 1.02460 0.12
5 11 1 1 o 329.149 316.832 0.00 1.02126 0.01
6 10 1 1 o 4534.086 4292.815 0.00 1.02112 0.12
0 10 6 2 o 24865.723 23863.023 0.00 1.02336 0.15
0 13 1 1 o 33.405 32.249 0.00 1.02075 0.00
4 4 8 1 o 9428.541 9805.979 0.00 1.02002 0.18
8 7 0 1 o 2065.001 2326.867 180.00 1.01927 0.04
1 11 5 1 o 2418.370 2467.026 180.00 1.01887 0.06
5 11 1 2 o 317.966 316.832 0.00 1.02126 0.00
6 10 1 2 o 4437.977 4292.815 0.00 1.02112 0.06
9 3 2 1 o 5832.558 5460.312 0.00 1.01834 0.13
0 13 1 2 o 34.602 32.249 0.00 1.02075 0.00
4 4 8 2 o 10127.921 9805.979 0.00 1.02002 0.10
1 10 6 1 o 48889.19 46559.49 0.00 1.01765 1.29
8 1 5 1 o 39737.72 38886.09 180.00 1.01730 0.92
8 7 0 2 o 2314.063 2326.867 180.00 1.01927 0.02
5 0 8 1 o 37177.65 37476.70 0.00 1.01641 0.42
1 11 5 2 o 2445.678 2467.026 180.00 1.01887 0.03
9 3 2 2 o 5358.122 5460.312 0.00 1.01834 0.06
7 3 6 1 o 1234.164 1255.327 180.00 1.01519 0.03
9 4 1 1 o 3783.265 3805.835 180.00 1.01492 0.09
1 10 6 2 o 45902.63 46559.49 0.00 1.01765 0.59
8 1 5 2 o 38913.97 38886.09 180.00 1.01730 0.45
1 13 1 1 o 1357.559 1373.253 0.00 1.01509 0.04
6 3 7 1 o 889.026 850.075 0.00 1.01392 0.02
5 0 8 2 o 39393.20 37476.70 0.00 1.01641 0.23
5 1 8 1 o 13135.937 12835.243 0.00 1.01347 0.29
8 7 1 1 o 1316.201 1278.001 0.00 1.01353 0.03
9 1 3 1 o 4624.220 4679.227 180.00 1.01324 0.12
7 3 6 2 o 1161.012 1255.327 180.00 1.01519 0.01
9 4 1 2 o 3660.430 3805.835 180.00 1.01492 0.04
1 13 1 2 o 1292.040 1373.253 0.00 1.01509 0.02
7 7 4 1 o 36.152 34.222 0.00 1.01207 0.00
6 3 7 2 o 846.494 850.075 0.00 1.01392 0.01
5 1 8 2 o 12881.285 12835.243 0.00 1.01347 0.14
8 7 1 2 o 1283.751 1278.001 0.00 1.01353 0.01
9 1 3 2 o 4609.789 4679.227 180.00 1.01324 0.06
2 3 9 1 o 1063.914 1071.086 180.00 1.01081 0.02
4 12 0 1 o 14851.443 15571.609 0.00 1.00998 0.18
7 7 4 2 o 32.333 34.222 0.00 1.01207 0.00
6 6 6 1 o 287.455 269.333 180.00 1.00900 0.01
4 7 7 1 o 1346.874 1250.505 180.00 1.00888 0.03
8 2 5 1 o 14323.813 13638.206 180.00 1.00854 0.34
2 3 9 2 o 1068.194 1071.086 180.00 1.01081 0.01
0 12 4 1 o 4874.734 4778.318 0.00 1.00844 0.05
7 8 3 1 o 3596.774 3837.092 0.00 1.00809 0.09
1 7 8 1 o 0.106 0.342 0.00 1.00744 0.00
4 12 0 2 o 13895.979 15571.609 0.00 1.00998 0.08
1 4 9 1 o 42.113 43.165 0.00 1.00717 0.00
6 6 6 2 o 288.758 269.333 180.00 1.00900 0.00
3 1 9 1 o 11554.957 10638.562 0.00 1.00630 0.28
4 7 7 2 o 1347.781 1250.505 180.00 1.00888 0.02
8 2 5 2 o 14591.503 13638.206 180.00 1.00854 0.17
8 6 3 1 o 1179.396 1104.962 0.00 1.00609 0.03
0 12 4 2 o 4988.907 4778.318 0.00 1.00844 0.03
7 8 3 2 o 3970.884 3837.092 0.00 1.00809 0.05
1 7 8 2 o 0.487 0.342 0.00 1.00744 0.00
5 2 8 1 o 9373.438 8752.334 0.00 1.00482 0.22
0 9 7 1 o 1458.776 1365.924 180.00 1.00490 0.02
9 2 3 1 o 37828.48 35560.73 0.00 1.00460 0.86
1 4 9 2 o 44.909 43.165 0.00 1.00717 0.00
3 8 7 1 o 8644.857 8404.415 0.00 1.00428 0.21
4 12 1 1 o 3153.057 3010.309 0.00 1.00440 0.09
5 11 2 1 o 10781.361 10519.600 0.00 1.00423 0.29
6 10 2 1 o 7301.875 7233.904 180.00 1.00410 0.19
7 9 1 1 o 9854.710 9850.268 0.00 1.00401 0.29
3 1 9 2 o 10482.220 10638.562 0.00 1.00630 0.12
2 13 0 1 o 30863.984 30485.051 0.00 1.00413 0.44
8 6 3 2 o 1082.780 1104.962 0.00 1.00609 0.01
1 12 4 1 o 3350.634 3313.296 0.00 1.00298 0.09
5 2 8 2 o 9063.670 8752.334 0.00 1.00482 0.10
0 9 7 2 o 1409.645 1365.924 180.00 1.00490 0.01
9 2 3 2 o 37135.50 35560.73 0.00 1.00460 0.42
2 11 5 1 o 8526.044 8208.791 0.00 1.00225 0.22
3 8 7 2 o 8854.982 8404.415 0.00 1.00428 0.11
4 12 1 2 o 3175.825 3010.309 0.00 1.00440 0.05
5 9 5 1 o 3521.183 3371.151 180.00 1.00175 0.07
5 11 2 2 o 11125.219 10519.600 0.00 1.00423 0.15
6 10 2 2 o 7646.453 7233.904 180.00 1.00410 0.10
7 9 1 2 o 10502.129 9850.268 0.00 1.00401 0.15
2 13 0 2 o 32251.162 30485.051 0.00 1.00413 0.23
2 10 6 1 o 2291.562 2243.663 180.00 1.00108 0.06
3 6 8 1 o 42545.41 43448.66 180.00 1.00089 1.00
1 12 4 2 o 2984.262 3313.296 0.00 1.00298 0.04
2 11 5 2 o 7383.744 8208.791 0.00 1.00225 0.09
1 9 7 1 o 5777.578 6279.746 180.00 0.99949 0.15
7 6 5 1 o 632.011 660.727 0.00 0.99917 0.02
5 9 5 2 o 3233.611 3371.151 180.00 1.00175 0.03
8 5 4 1 o 6174.451 6069.736 0.00 0.99867 0.13
2 10 6 2 o 2295.121 2243.663 180.00 1.00108 0.03
3 6 8 2 o 44213.20 43448.66 180.00 1.00089 0.53
2 13 1 1 o 16302.522 15976.635 0.00 0.99864 0.46
9 4 2 1 o 3.599 3.595 0.00 0.99821 0.00
1 13 2 1 o 12009.509 11851.500 180.00 0.99836 0.33
3 12 3 1 o 16557.740 16461.643 0.00 0.99826 0.47
3 2 9 1 o 179.825 188.292 180.00 0.99783 0.01
5 10 4 1 o 14094.300 14398.600 0.00 0.99759 0.37
5 6 7 1 o 30883.342 31075.230 180.00 0.99693 0.76
1 9 7 2 o 6236.479 6279.746 180.00 0.99949 0.08
8 7 2 1 o 1166.350 1176.158 0.00 0.99688 0.04
7 6 5 2 o 656.607 660.727 0.00 0.99917 0.01
4 10 5 1 o 322.757 324.467 0.00 0.99676 0.01
8 5 4 2 o 6220.359 6069.736 0.00 0.99867 0.06
2 13 1 2 o 16460.740 15976.635 0.00 0.99864 0.23
9 4 2 2 o 3.765 3.595 0.00 0.99821 0.00
1 13 2 2 o 12456.425 11851.500 180.00 0.99836 0.17
3 12 3 2 o 17474.816 16461.643 0.00 0.99826 0.25
3 2 9 2 o 210.688 188.292 180.00 0.99783 0.01
7 4 6 1 o 61370.24 59155.91 180.00 0.99524 1.42
5 10 4 2 o 14761.084 14398.600 0.00 0.99759 0.19
8 3 5 1 o 8038.981 8395.248 0.00 0.99445 0.18
5 6 7 2 o 29706.189 31075.230 180.00 0.99693 0.36
8 7 2 2 o 1102.316 1176.158 0.00 0.99688 0.02
4 5 8 1 o 675.253 703.747 0.00 0.99422 0.01
4 10 5 2 o 310.276 324.467 0.00 0.99676 0.00
6 4 7 1 o 147.675 157.248 180.00 0.99404 0.00
7 4 6 2 o 61177.47 59155.91 180.00 0.99524 0.71
8 3 5 2 o 8241.486 8395.248 0.00 0.99445 0.09
6 9 4 1 o 24528.969 25092.762 180.00 0.99194 0.58
4 5 8 2 o 683.094 703.747 0.00 0.99422 0.01
6 4 7 2 o 149.823 157.248 180.00 0.99404 0.00
2 7 8 1 o 186.371 190.660 180.00 0.99136 0.01
2 4 9 1 o 11328.882 11130.307 0.00 0.99111 0.27
5 3 8 1 o 3007.971 2888.780 0.00 0.99087 0.07
9 3 3 1 o 4437.239 4263.307 180.00 0.99066 0.09
6 8 5 1 o 27630.234 26631.734 180.00 0.99052 0.68
4 9 6 1 o 87.980 87.822 0.00 0.99012 0.00
9 5 1 1 o 3654.068 3690.229 180.00 0.98950 0.11
5 8 6 1 o 17728.107 17837.453 0.00 0.98952 0.42
6 9 4 2 o 24908.338 25092.762 180.00 0.99194 0.29
2 7 8 2 o 174.563 190.660 180.00 0.99136 0.00
2 4 9 2 o 10163.303 11130.307 0.00 0.99111 0.12
5 3 8 2 o 2630.862 2888.780 0.00 0.99087 0.03
9 3 3 2 o 3884.474 4263.307 180.00 0.99066 0.04
6 8 5 2 o 23721.875 26631.734 180.00 0.99052 0.28
4 12 2 1 o 16777.713 18882.277 0.00 0.98819 0.47
7 9 2 1 o 3216.978 3625.983 0.00 0.98782 0.08
4 9 6 2 o 84.577 87.822 0.00 0.99012 0.00
0 5 9 1 o 1649.498 1873.814 180.00 0.98744 0.02
9 5 1 2 o 2981.692 3690.229 180.00 0.98950 0.04
4 11 4 1 o 3.313 16.151 0.00 0.98722 0.00
5 8 6 2 o 15181.568 17837.453 0.00 0.98952 0.17
2 12 4 1 o 9924.104 11903.166 180.00 0.98711 0.29
4 12 2 2 o 14228.959 18882.277 0.00 0.98819 0.19
7 9 2 2 o 2814.596 3625.983 0.00 0.98782 0.03
0 5 9 2 o 1585.411 1873.814 180.00 0.98744 0.01
4 11 4 2 o 7.792 16.151 0.00 0.98722 0.00
2 12 4 2 o 11029.539 11903.166 180.00 0.98711 0.16
3 3 9 1 o 14293.507 15086.936 0.00 0.98417 0.30
2 9 7 1 o 1430.765 1528.559 0.00 0.98378 0.04
2 13 2 1 o 2916.647 2526.677 0.00 0.98271 0.09
1 5 9 1 o 11318.021 10637.433 180.00 0.98231 0.27
3 3 9 2 o 15163.039 15086.936 0.00 0.98417 0.16
2 9 7 2 o 1664.021 1528.559 0.00 0.98378 0.02
2 13 2 2 o 3206.261 2526.677 0.00 0.98271 0.05
1 5 9 2 o 12833.814 10637.433 180.00 0.98231 0.16
9 0 4 1 o 11265.223 9545.015 0.00 0.97827 0.14
5 11 3 1 o 938.667 805.635 0.00 0.97766 0.03
6 10 3 1 o 852.999 766.016 180.00 0.97754 0.02
8 8 0 1 o 51169.25 46913.00 0.00 0.97741 0.63
0 13 3 1 o 28700.502 27419.502 180.00 0.97721 0.41
3 11 5 1 o 14356.215 14346.265 0.00 0.97626 0.37
9 0 4 2 o 9835.174 9545.015 0.00 0.97827 0.06
9 1 4 1 o 3950.081 3801.007 0.00 0.97565 0.09
8 4 5 1 o 2746.235 2637.481 0.00 0.97567 0.06
5 11 3 2 o 836.460 805.635 0.00 0.97766 0.01
3 10 6 1 o 1325.747 1288.115 0.00 0.97518 0.03
6 10 3 2 o 784.545 766.016 180.00 0.97754 0.01
8 8 0 2 o 47614.91 46913.00 0.00 0.97741 0.29
0 13 3 2 o 27529.889 27419.502 180.00 0.97721 0.19
9 5 2 1 o 42040.88 39080.43 180.00 0.97399 0.99
3 11 5 2 o 15314.877 14346.265 0.00 0.97626 0.20
6 7 6 1 o 1106.454 1043.808 0.00 0.97348 0.04
9 1 4 2 o 3905.838 3801.007 0.00 0.97565 0.04
8 4 5 2 o 2716.476 2637.481 0.00 0.97567 0.03
3 13 1 1 o 4150.092 4080.868 0.00 0.97293 0.10
3 10 6 2 o 1328.912 1288.115 0.00 0.97518 0.02
5 4 8 1 o 2122.106 1937.388 0.00 0.97229 0.05
8 8 1 1 o 5941.655 5436.381 0.00 0.97234 0.15
9 4 3 1 o 6687.847 6098.043 180.00 0.97209 0.15
1 13 3 1 o 1809.148 1635.116 0.00 0.97224 0.06
0 8 8 1 o 15567.993 14236.736 0.00 0.97185 0.21
9 5 2 2 o 41460.00 39080.43 180.00 0.97399 0.48
7 5 6 1 o 2578.359 2479.001 0.00 0.97123 0.06
6 7 6 2 o 1095.231 1043.808 0.00 0.97348 0.02
7 8 4 1 o 14036.284 13610.407 180.00 0.97105 0.34
8 7 3 1 o 28797.109 28231.957 180.00 0.97087 0.68
3 13 1 2 o 4091.375 4080.868 0.00 0.97293 0.05
6 5 7 1 o 607.779 620.104 0.00 0.97011 0.01
4 1 9 1 o 14974.340 15425.777 180.00 0.97005 0.34
5 4 8 2 o 1849.142 1937.388 0.00 0.97229 0.02
8 8 1 2 o 5217.348 5436.381 0.00 0.97234 0.06
9 4 3 2 o 5685.881 6098.043 180.00 0.97209 0.06
1 13 3 2 o 1542.775 1635.116 0.00 0.97224 0.02
0 8 8 2 o 12802.003 14236.736 0.00 0.97185 0.08
8 6 4 1 o 288.058 315.019 180.00 0.96926 0.01
7 5 6 2 o 2382.886 2479.001 0.00 0.97123 0.03
7 8 4 2 o 13478.200 13610.407 180.00 0.97105 0.16
8 7 3 2 o 28480.582 28231.957 180.00 0.97087 0.34
6 11 0 1 o 5572.612 5551.722 180.00 0.96854 0.06
4 8 7 1 o 1.100 1.066 0.00 0.96823 0.00
9 2 4 1 o 4680.559 4756.424 0.00 0.96793 0.11
7 1 7 1 o 38417.73 39329.73 0.00 0.96789 0.81
6 5 7 2 o 580.435 620.104 0.00 0.97011 0.01
4 1 9 2 o 13933.784 15425.777 180.00 0.97005 0.15
2 5 9 1 o 39.644 47.800 180.00 0.96739 0.00
8 6 4 2 o 259.390 315.019 180.00 0.96926 0.00
1 8 8 1 o 1422.752 1802.415 0.00 0.96696 0.03
4 6 8 1 o 4178.502 4130.884 180.00 0.96519 0.10
10 0 0 1 o 215.491 209.738 0.00 0.96487 0.00
2 5 9 2 o 49.049 47.800 180.00 0.96739 0.00
7 7 5 1 o 23702.695 22738.980 0.00 0.96464 0.60
3 7 8 1 o 22.519 26.476 0.00 0.96619 0.00
1 8 8 2 o 1867.795 1802.415 0.00 0.96696 0.02
6 11 0 2 o 4978.307 5551.722 180.00 0.96854 0.03
3 4 9 1 o 260.426 279.507 180.00 0.96595 0.01
4 8 7 2 o 1.001 1.066 0.00 0.96823 0.00
9 2 4 2 o 4745.807 4756.424 0.00 0.96793 0.05
7 1 7 2 o 39291.62 39329.73 0.00 0.96789 0.42
3 7 8 2 o 25.151 26.476 0.00 0.96619 0.00
3 4 9 2 o 257.322 279.507 180.00 0.96595 0.00
6 11 1 1 o 23561.781 25208.451 0.00 0.96361 0.60
4 6 8 2 o 3856.550 4130.884 180.00 0.96519 0.04
10 0 0 2 o 202.834 209.738 0.00 0.96487 0.00
4 12 3 1 o 495.712 531.243 180.00 0.96284 0.01
5 7 7 1 o 389.308 417.410 180.00 0.96263 0.01
10 1 0 1 o 10607.688 11076.561 180.00 0.96236 0.11
4 2 9 1 o 2478.441 2599.613 180.00 0.96245 0.05
7 9 3 1 o 4397.695 4576.048 0.00 0.96250 0.09
7 7 5 2 o 21592.779 22738.980 0.00 0.96464 0.27
3 12 4 1 o 5111.841 5362.360 180.00 0.96225 0.13
8 0 6 1 o 3159.825 3405.196 180.00 0.96186 0.03
6 11 1 2 o 23396.102 25208.451 0.00 0.96361 0.30
9 6 1 1 o 11074.318 11511.231 180.00 0.96087 0.27
1 11 6 1 o 4353.174 4432.885 0.00 0.96069 0.12
7 2 7 1 o 2571.266 2524.999 180.00 0.96034 0.05
4 12 3 2 o 535.219 531.243 180.00 0.96284 0.01
5 7 7 2 o 431.917 417.410 180.00 0.96263 0.01
10 1 0 2 o 11511.608 11076.561 180.00 0.96236 0.06
4 2 9 2 o 2700.592 2599.613 180.00 0.96245 0.03
7 9 3 2 o 4712.502 4576.048 0.00 0.96250 0.05
3 12 4 2 o 5600.525 5362.360 180.00 0.96225 0.07
6 0 8 1 o 2720.249 2632.708 180.00 0.95953 0.03
8 0 6 2 o 3527.612 3405.196 180.00 0.96186 0.02
8 1 6 1 o 9559.467 9244.725 180.00 0.95937 0.25
3 9 7 1 o 16635.654 16374.386 0.00 0.95917 0.39
9 6 1 2 o 11855.271 11511.231 180.00 0.96087 0.14
5 12 1 1 o 9753.115 9662.229 0.00 0.95874 0.24
1 11 6 2 o 4636.570 4432.885 0.00 0.96069 0.06
7 2 7 2 o 2644.054 2524.999 180.00 0.96034 0.03
3 13 2 1 o 7563.812 7194.672 0.00 0.95817 0.21
10 1 1 1 o 32850.180 31752.059 0.00 0.95753 0.76
8 8 2 1 o 15040.440 14482.646 0.00 0.95761 0.37
2 13 3 1 o 6944.162 6641.711 0.00 0.95776 0.19
6 0 8 2 o 2665.417 2632.708 180.00 0.95953 0.01
6 1 8 1 o 16727.344 16587.008 0.00 0.95706 0.42
8 1 6 2 o 9296.722 9244.725 180.00 0.95937 0.12
3 9 7 2 o 16320.816 16374.386 0.00 0.95917 0.19
0 0 10 1 o 13838.358 13926.692 0.00 0.95656 0.07
1 12 5 1 o 186.724 187.133 0.00 0.95676 0.00
5 12 1 2 o 9572.021 9662.229 0.00 0.95874 0.12
9 3 4 1 o 1527.025 1480.946 0.00 0.95544 0.04
3 13 2 2 o 7236.474 7194.672 0.00 0.95817 0.10
10 1 1 2 o 33063.203 31752.059 0.00 0.95753 0.39
8 8 2 2 o 15040.979 14482.646 0.00 0.95761 0.18
2 13 3 2 o 6858.520 6641.711 0.00 0.95776 0.09
10 2 0 1 o 25339.848 24378.693 180.00 0.95494 0.30
6 1 8 2 o 16962.434 16587.008 0.00 0.95706 0.21
1 6 9 1 o 2457.525 2568.079 0.00 0.95429 0.07
0 0 10 2 o 13499.298 13926.692 0.00 0.95656 0.03
1 12 5 2 o 185.191 187.133 0.00 0.95676 0.00
7 10 1 1 o 156.368 158.391 0.00 0.95403 0.00
9 3 4 2 o 1522.174 1480.946 0.00 0.95544 0.02
8 5 5 1 o 1076.009 1057.536 180.00 0.95302 0.03
0 14 0 1 o 93307.81 88368.95 0.00 0.95328 0.66
10 2 0 2 o 25310.250 24378.693 180.00 0.95494 0.15
2 8 8 1 o 551.036 537.859 0.00 0.95272 0.02
8 2 6 1 o 5123.086 4594.385 0.00 0.95202 0.12
5 10 5 1 o 2.719 0.349 180.00 0.95208 0.00
1 0 10 1 o 34306.406 30908.967 0.00 0.95190 0.41
1 6 9 2 o 2930.657 2568.079 0.00 0.95429 0.04
7 10 1 2 o 169.821 158.391 0.00 0.95403 0.00
8 5 5 2 o 1154.144 1057.536 180.00 0.95302 0.01
0 14 0 2 o 94905.27 88368.95 0.00 0.95328 0.34
10 2 1 1 o 13679.576 12406.037 180.00 0.95022 0.31
2 8 8 2 o 630.915 537.859 0.00 0.95272 0.01
4 3 9 1 o 37562.93 34025.691 0.00 0.95018 0.89
1 10 7 1 o 177.768 175.814 180.00 0.95015 0.00
5 5 8 1 o 18358.252 17262.232 180.00 0.94987 0.43
6 2 8 1 o 65.958 61.404 0.00 0.94976 0.00
8 2 6 2 o 4740.794 4594.385 0.00 0.95202 0.05
9 5 3 1 o 709.719 695.961 180.00 0.94968 0.01
5 10 5 2 o 1.203 0.349 180.00 0.95208 0.00
1 0 10 2 o 31312.945 30908.967 0.00 0.95190 0.18
1 1 10 1 o 3206.198 3204.542 0.00 0.94949 0.07
6 11 2 1 o 2434.048 2572.835 180.00 0.94927 0.08
7 3 7 1 o 2941.481 2979.015 180.00 0.94815 0.06
10 2 1 2 o 12405.798 12406.037 180.00 0.95022 0.14
4 3 9 2 o 34048.027 34025.691 0.00 0.95018 0.39
1 10 7 2 o 175.832 175.814 180.00 0.95015 0.00
5 5 8 2 o 17359.457 17262.232 180.00 0.94987 0.20
6 2 8 2 o 62.410 61.404 0.00 0.94976 0.00
9 5 3 2 o 701.838 695.961 180.00 0.94968 0.00
1 1 10 2 o 3293.695 3204.542 0.00 0.94949 0.04
6 9 5 1 o 2600.212 2531.100 0.00 0.94717 0.07
0 2 10 1 o 4762.163 4554.673 180.00 0.94688 0.06
6 11 2 2 o 2708.542 2572.835 180.00 0.94927 0.04
9 6 2 1 o 2283.192 2183.175 0.00 0.94665 0.05
2 11 6 1 o 6747.735 6398.455 180.00 0.94671 0.19
5 9 6 1 o 21845.879 21607.457 0.00 0.94629 0.55
10 0 2 1 o 2608.588 2940.217 180.00 0.94582 0.03
7 3 7 2 o 2668.231 2979.015 180.00 0.94815 0.02
6 9 5 2 o 2442.518 2531.100 0.00 0.94717 0.03
0 2 10 2 o 4733.208 4554.673 180.00 0.94688 0.03
5 12 2 1 o 2764.920 2698.807 0.00 0.94461 0.08
9 6 2 2 o 2378.634 2183.175 0.00 0.94665 0.03
4 13 0 1 o 526.127 517.943 0.00 0.94462 0.01
2 11 6 2 o 6969.604 6398.455 180.00 0.94671 0.10
7 6 6 1 o 137.597 120.558 0.00 0.94412 0.00
3 5 9 1 o 8473.214 7414.387 0.00 0.94396 0.19
5 9 6 2 o 25061.465 21607.457 0.00 0.94629 0.33
1 14 1 1 o 3133.747 2604.586 0.00 0.94403 0.12
10 0 2 2 o 3369.508 2940.217 180.00 0.94582 0.02
5 11 4 1 o 1958.447 1671.114 0.00 0.94376 0.05
10 1 2 1 o 3305.485 2771.286 180.00 0.94345 0.09
6 10 4 1 o 23328.492 20000.980 180.00 0.94365 0.61
6 6 7 1 o 75.528 66.016 180.00 0.94309 0.00
10 3 0 1 o 1629.769 1534.043 180.00 0.94295 0.01
4 11 5 1 o 66530.58 60004.04 180.00 0.94305 1.80
2 12 5 1 o 41472.06 38156.06 180.00 0.94296 1.14
1 2 10 1 o 7981.479 7963.719 0.00 0.94236 0.18
5 12 2 2 o 2691.951 2698.807 0.00 0.94461 0.04
4 13 0 2 o 517.243 517.943 0.00 0.94462 0.00
4 10 6 1 o 5798.414 5886.903 180.00 0.94208 0.16
7 6 6 2 o 117.815 120.558 0.00 0.94412 0.00
3 5 9 2 o 7307.974 7414.387 0.00 0.94396 0.08
1 14 1 2 o 2533.617 2604.586 0.00 0.94403 0.05
5 11 4 2 o 1678.001 1671.114 0.00 0.94376 0.02
10 1 2 2 o 2930.954 2771.286 180.00 0.94345 0.04
6 10 4 2 o 20379.752 20000.980 180.00 0.94365 0.26
6 6 7 2 o 71.283 66.016 180.00 0.94309 0.00
10 3 0 2 o 1594.491 1534.043 180.00 0.94295 0.01
4 11 5 2 o 63777.01 60004.04 180.00 0.94305 0.86
2 6 9 1 o 25045.061 23846.535 0.00 0.94059 0.61
2 12 5 2 o 40243.25 38156.06 180.00 0.94296 0.55
8 3 6 1 o 4589.209 4757.262 180.00 0.94013 0.13
1 2 10 2 o 7579.924 7963.719 0.00 0.94236 0.09
7 10 2 1 o 16495.379 17062.070 0.00 0.94011 0.41
4 13 1 1 o 35828.54 37513.98 180.00 0.94005 0.96
4 10 6 2 o 5314.938 5886.903 180.00 0.94208 0.07
9 4 4 1 o 1792.552 1864.071 0.00 0.93875 0.04
1 13 4 1 o 2049.382 2175.350 180.00 0.93888 0.05
10 3 1 1 o 0.125 0.001 0.00 0.93840 0.00
2 0 10 1 o 277.035 272.367 0.00 0.93830 0.00
2 6 9 2 o 24849.770 23846.535 0.00 0.94059 0.30
6 3 8 1 o 7499.376 7177.653 0.00 0.93796 0.20
8 3 6 2 o 4875.083 4757.262 180.00 0.94013 0.07
7 10 2 2 o 17331.145 17062.070 0.00 0.94011 0.22
8 7 4 1 o 1153.024 1160.198 180.00 0.93765 0.04
4 13 1 2 o 37796.61 37513.98 180.00 0.94005 0.52
6 8 6 1 o 809.696 783.151 180.00 0.93681 0.02
10 2 2 1 o 9514.949 8824.934 180.00 0.93646 0.22
9 4 4 2 o 2005.376 1864.071 0.00 0.93875 0.02
2 10 7 1 o 24.301 22.624 180.00 0.93662 0.00
1 13 4 2 o 2321.041 2175.350 180.00 0.93888 0.03
10 3 1 2 o 0.329 0.001 0.00 0.93840 0.00
2 0 10 2 o 278.927 272.367 0.00 0.93830 0.00
2 1 10 1 o 24360.414 23045.779 180.00 0.93599 0.58
6 3 8 2 o 7386.658 7177.653 0.00 0.93796 0.10
8 9 0 1 o 14389.987 14002.274 0.00 0.93568 0.19
8 7 4 2 o 1192.226 1160.198 180.00 0.93765 0.02
2 14 0 1 o 9906.967 9770.542 180.00 0.93520 0.16
3 13 3 1 o 29918.313 30118.332 0.00 0.93501 0.86
0 14 2 1 o 26297.152 26875.818 0.00 0.93490 0.40
8 8 3 1 o 886.629 940.642 180.00 0.93449 0.02
6 8 6 2 o 729.234 783.151 180.00 0.93681 0.01
10 2 2 2 o 8530.264 8824.934 180.00 0.93646 0.09
2 10 7 2 o 21.116 22.624 180.00 0.93662 0.00
4 7 8 1 o 802.152 804.759 180.00 0.93396 0.03
4 4 9 1 o 436.418 424.138 0.00 0.93375 0.01
2 1 10 2 o 23953.586 23045.779 180.00 0.93599 0.29
8 9 0 2 o 14673.165 14002.274 0.00 0.93568 0.10
9 1 5 1 o 1736.008 1717.689 180.00 0.93296 0.03
2 14 0 2 o 9897.895 9770.542 180.00 0.93520 0.08
3 13 3 2 o 30045.928 30118.332 0.00 0.93501 0.44
0 14 2 2 o 26571.223 26875.818 0.00 0.93490 0.20
8 8 3 2 o 909.290 940.642 180.00 0.93449 0.01
7 4 7 1 o 630.901 642.410 0.00 0.93183 0.01
4 7 8 2 o 812.345 804.759 180.00 0.93396 0.01
4 4 9 2 o 439.648 424.138 0.00 0.93375 0.00
8 9 1 1 o 17534.943 16588.402 180.00 0.93123 0.44
1 3 10 1 o 1667.282 1564.182 0.00 0.93083 0.04
9 1 5 2 o 1764.441 1717.689 180.00 0.93296 0.01
2 14 1 1 o 127.236 120.531 180.00 0.93076 0.00
3 8 8 1 o 27634.863 29101.723 180.00 0.93031 0.66
1 14 2 1 o 29211.902 28769.949 0.00 0.93054 0.85
4 12 4 1 o 561.836 569.332 0.00 0.93041 0.01
9 7 1 1 o 520.554 626.359 0.00 0.93005 0.02
7 9 4 1 o 630.663 711.816 0.00 0.93010 0.02
7 4 7 2 o 543.500 642.410 0.00 0.93183 0.01
2 2 10 1 o 41.549 44.219 0.00 0.92916 0.00
7 8 5 1 o 71.849 74.704 180.00 0.92893 0.00
8 9 1 2 o 15832.468 16588.402 180.00 0.93123 0.19
5 1 9 1 o 3216.036 3259.467 180.00 0.92872 0.06
1 3 10 2 o 1537.149 1564.182 0.00 0.93083 0.02
0 7 9 1 o 35257.21 36260.23 0.00 0.92834 0.42
2 14 1 2 o 118.167 120.531 180.00 0.93076 0.00
3 8 8 2 o 28202.004 29101.723 180.00 0.93031 0.34
1 14 2 2 o 27821.396 28769.949 0.00 0.93054 0.40
4 12 4 2 o 556.863 569.332 0.00 0.93041 0.00
9 7 1 2 o 616.863 626.359 0.00 0.93005 0.01
7 9 4 2 o 700.044 711.816 0.00 0.93010 0.01
4 9 7 1 o 1339.947 1338.655 180.00 0.92762 0.03
8 6 5 1 o 6336.402 6270.802 0.00 0.92736 0.15
5 8 7 1 o 16564.887 16592.229 0.00 0.92713 0.39
10 4 0 1 o 39334.78 40115.07 180.00 0.92689 0.45
2 2 10 2 o 43.611 44.219 0.00 0.92916 0.00
7 8 5 2 o 73.515 74.704 180.00 0.92893 0.00
6 11 3 1 o 3702.557 3786.864 0.00 0.92673 0.10
5 1 9 2 o 3251.981 3259.467 180.00 0.92872 0.03
4 13 2 1 o 414.079 425.262 0.00 0.92672 0.01
1 9 8 1 o 11284.095 11378.136 180.00 0.92650 0.28
9 2 5 1 o 987.546 973.376 180.00 0.92619 0.02
0 7 9 2 o 37123.76 36260.23 0.00 0.92834 0.22
2 13 4 1 o 20749.498 20248.918 180.00 0.92583 0.59
10 3 2 1 o 2425.422 2305.963 180.00 0.92514 0.07
4 9 7 2 o 1371.568 1338.655 180.00 0.92762 0.02
8 6 5 2 o 6565.155 6270.802 0.00 0.92736 0.08
5 8 7 2 o 17809.691 16592.229 0.00 0.92713 0.22
10 4 0 2 o 44135.83 40115.07 180.00 0.92689 0.26
3 11 6 1 o 2093.218 1912.342 180.00 0.92472 0.06
5 6 8 1 o 24581.592 22269.082 0.00 0.92446 0.62
9 6 3 1 o 17020.342 15746.424 180.00 0.92429 0.41
6 11 3 2 o 4180.919 3786.864 0.00 0.92673 0.06
8 4 6 1 o 21044.953 19658.756 0.00 0.92422 0.50
4 13 2 2 o 477.656 425.262 0.00 0.92672 0.01
1 9 8 2 o 12184.198 11378.136 180.00 0.92650 0.16
1 7 9 1 o 12115.174 11633.765 180.00 0.92408 0.28
9 2 5 2 o 986.165 973.376 180.00 0.92619 0.01
2 13 4 2 o 19770.375 20248.918 180.00 0.92583 0.28
10 3 2 2 o 2539.225 2305.963 180.00 0.92514 0.04
10 4 1 1 o 3957.054 3612.313 0.00 0.92257 0.10
3 11 6 2 o 2076.575 1912.342 180.00 0.92472 0.03
5 12 3 1 o 29694.857 27442.004 0.00 0.92239 0.84
6 4 8 1 o 85.827 84.158 0.00 0.92215 0.00
5 6 8 2 o 23642.986 22269.082 0.00 0.92446 0.29
5 2 9 1 o 44.144 44.056 0.00 0.92205 0.00
9 6 3 2 o 16398.383 15746.424 180.00 0.92429 0.20
8 4 6 2 o 20344.824 19658.756 0.00 0.92422 0.24
1 7 9 2 o 11899.427 11633.765 180.00 0.92408 0.14
10 1 3 1 o 2506.493 2411.171 0.00 0.92131 0.06
3 12 5 1 o 932.571 885.037 180.00 0.92122 0.03
10 4 1 2 o 3634.968 3612.313 0.00 0.92257 0.04
5 12 3 2 o 26964.484 27442.004 0.00 0.92239 0.37
6 4 8 2 o 82.419 84.158 0.00 0.92215 0.00
5 2 9 2 o 43.896 44.056 0.00 0.92205 0.00
0 4 10 1 o 14205.246 16352.827 180.00 0.91952 0.13
10 1 3 2 o 1808.335 2411.171 0.00 0.92131 0.02
3 6 9 1 o 112.846 235.482 0.00 0.91901 0.01
3 12 5 2 o 623.519 885.037 180.00 0.92122 0.01
9 5 4 1 o 5115.060 7001.118 180.00 0.91852 0.11
8 9 2 1 o 46.688 51.354 0.00 0.91827 0.00
2 3 10 1 o 4922.912 6633.236 180.00 0.91810 0.11
7 10 3 1 o 929.176 1298.759 0.00 0.91820 0.03
2 14 2 1 o 3087.713 3920.451 180.00 0.91782 0.07
0 4 10 2 o 11675.321 16352.827 180.00 0.91952 0.05
9 7 2 1 o 2.785 3.469 0.00 0.91713 0.00
3 0 10 1 o 279.669 435.313 180.00 0.91687 0.00
3 6 9 2 o 73.869 235.482 0.00 0.91901 0.00
9 5 4 2 o 5522.011 7001.118 180.00 0.91852 0.06
8 9 2 2 o 48.751 51.354 0.00 0.91827 0.00
2 3 10 2 o 6080.564 6633.236 180.00 0.91810 0.07
7 10 3 2 o 1128.206 1298.759 0.00 0.91820 0.02
1 4 10 1 o 1179.078 1161.610 0.00 0.91537 0.03
9 3 5 1 o 9400.547 9435.109 180.00 0.91524 0.25
2 14 2 2 o 3931.149 3920.451 180.00 0.91782 0.05
3 10 7 1 o 6776.329 6696.644 0.00 0.91531 0.21
10 2 3 1 o 3322.060 3896.513 0.00 0.91479 0.07
9 7 2 2 o 3.226 3.469 0.00 0.91713 0.00
7 7 6 1 o 83.625 102.083 180.00 0.91483 0.00
3 1 10 1 o 1452.281 1752.590 180.00 0.91471 0.03
3 0 10 2 o 355.638 435.313 180.00 0.91687 0.00
6 12 0 1 o 5595.829 6730.354 180.00 0.91472 0.07
6 7 7 1 o 1124.126 1344.147 0.00 0.91390 0.03
2 9 8 1 o 7898.244 9148.507 180.00 0.91395 0.17
4 5 9 1 o 1175.875 1402.969 0.00 0.91384 0.03
1 4 10 2 o 1074.763 1161.610 0.00 0.91537 0.01
9 3 5 2 o 8817.883 9435.109 180.00 0.91524 0.12
3 10 7 2 o 6142.150 6696.644 0.00 0.91531 0.09
10 2 3 2 o 3845.980 3896.513 0.00 0.91479 0.04
7 7 6 2 o 99.782 102.083 180.00 0.91483 0.00
3 1 10 2 o 1748.666 1752.590 180.00 0.91471 0.02
6 12 0 2 o 6711.252 6730.354 180.00 0.91472 0.05
7 5 7 1 o 8847.268 8281.393 0.00 0.91204 0.25
0 12 6 1 o 12217.805 11613.865 0.00 0.91215 0.19
6 7 7 2 o 1532.791 1344.147 0.00 0.91390 0.02
2 9 8 2 o 10163.959 9148.507 180.00 0.91395 0.12
4 5 9 2 o 1607.058 1402.969 0.00 0.91384 0.02
2 7 9 1 o 653.029 572.854 0.00 0.91162 0.02
5 3 9 1 o 22328.406 18703.371 180.00 0.91124 0.59
6 12 1 1 o 22353.771 19408.402 180.00 0.91057 0.64
10 4 2 1 o 18818.227 17279.189 180.00 0.90996 0.48
7 5 7 2 o 8731.535 8281.393 0.00 0.91204 0.12
0 12 6 2 o 12571.710 11613.865 0.00 0.91215 0.10
3 14 1 1 o 1420.020 1311.165 0.00 0.90984 0.06
2 7 9 2 o 588.613 572.854 0.00 0.91162 0.01
5 3 9 2 o 20246.619 18703.371 180.00 0.91124 0.26
1 14 3 1 o 699.751 657.923 180.00 0.90927 0.03
3 2 10 1 o 14360.168 13450.057 180.00 0.90834 0.35
6 12 1 2 o 20655.752 19408.402 180.00 0.91057 0.29
1 12 6 1 o 9292.554 9218.647 0.00 0.90810 0.25
10 4 2 2 o 16211.646 17279.189 180.00 0.90996 0.20
10 5 0 1 o 13235.036 14259.950 0.00 0.90741 0.14
3 14 1 2 o 1180.816 1311.165 0.00 0.90984 0.03
0 11 7 1 o 578.734 626.154 180.00 0.90728 0.01
1 14 3 2 o 555.776 657.923 180.00 0.90927 0.01
7 11 1 1 o 9622.119 10637.255 0.00 0.90662 0.23
3 2 10 2 o 12008.268 13450.057 180.00 0.90834 0.14
6 10 5 1 o 5709.770 5905.037 180.00 0.90486 0.16
8 8 4 1 o 132.255 136.292 180.00 0.90475 0.00
0 13 5 1 o 29651.033 30866.607 180.00 0.90460 0.41
10 3 3 1 o 17479.514 19461.152 0.00 0.90424 0.42
1 12 6 2 o 8488.272 9218.647 0.00 0.90810 0.11
7 11 1 2 o 9947.371 10637.255 0.00 0.90662 0.12
4 13 3 1 o 1582.381 1687.508 180.00 0.90571 0.05
5 10 6 1 o 465.267 531.128 0.00 0.90410 0.01
10 5 0 2 o 13866.843 14259.950 0.00 0.90741 0.08
3 13 4 1 o 467.041 479.133 0.00 0.90522 0.01
8 5 6 1 o 7126.341 7387.986 0.00 0.90490 0.19
0 11 7 2 o 608.523 626.154 180.00 0.90728 0.00
5 11 5 1 o 10649.634 11014.873 180.00 0.90495 0.30
10 5 1 1 o 4266.924 4667.626 0.00 0.90335 0.10
7 0 8 1 o 2586.535 2814.615 0.00 0.90322 0.03
2 4 10 1 o 976.226 1105.737 0.00 0.90326 0.04
4 13 3 2 o 1487.748 1687.508 180.00 0.90571 0.02
1 11 7 1 o 399.534 436.486 0.00 0.90329 0.01
6 5 8 1 o 13821.073 14988.719 180.00 0.90296 0.35
3 13 4 2 o 449.117 479.133 0.00 0.90522 0.01
8 5 6 2 o 6656.803 7387.986 0.00 0.90490 0.09
5 11 5 2 o 10024.897 11014.873 180.00 0.90495 0.14
6 10 5 2 o 5354.894 5905.037 180.00 0.90486 0.07
8 8 4 2 o 125.070 136.292 180.00 0.90475 0.00
8 1 7 1 o 1220.916 1343.539 180.00 0.90219 0.03
0 13 5 2 o 28178.408 30866.607 180.00 0.90460 0.19
10 3 3 2 o 17732.656 19461.152 0.00 0.90424 0.21
5 13 1 1 o 5551.982 6170.808 180.00 0.90230 0.18
5 10 6 2 o 482.745 531.128 0.00 0.90410 0.01
4 8 8 1 o 625.869 668.080 180.00 0.90144 0.01
7 1 8 1 o 940.174 1016.467 180.00 0.90116 0.02
10 5 1 2 o 4348.054 4667.626 0.00 0.90335 0.05
7 0 8 2 o 2681.132 2814.615 0.00 0.90322 0.02
2 4 10 2 o 1020.910 1105.737 0.00 0.90326 0.02
1 11 7 2 o 410.156 436.486 0.00 0.90329 0.01
6 5 8 2 o 14792.563 14988.719 180.00 0.90296 0.19
9 4 5 1 o 576.598 575.911 0.00 0.90053 0.01
1 13 5 1 o 10102.967 10180.915 180.00 0.90065 0.30
8 1 7 2 o 1488.722 1343.539 180.00 0.90219 0.02
5 13 1 2 o 6788.643 6170.808 180.00 0.90230 0.11
6 9 6 1 o 16653.959 14986.609 180.00 0.89988 0.47
8 7 5 1 o 52751.97 50461.46 180.00 0.89956 1.36
4 8 8 2 o 644.693 668.080 180.00 0.90144 0.00
7 1 8 2 o 933.733 1016.467 180.00 0.90116 0.01
9 4 5 2 o 600.501 575.911 0.00 0.90053 0.01
6 12 2 1 o 4990.686 4965.126 180.00 0.89844 0.13
1 13 5 2 o 10243.678 10180.915 180.00 0.90065 0.15
3 3 10 1 o 176.211 161.336 180.00 0.89800 0.00
9 8 1 1 o 6552.259 5902.269 0.00 0.89792 0.16
8 9 3 1 o 5491.668 4906.861 180.00 0.89782 0.15
6 9 6 2 o 16468.705 14986.609 180.00 0.89988 0.23
6 11 4 1 o 15835.938 14206.854 0.00 0.89771 0.50
3 14 2 1 o 15300.266 13852.728 0.00 0.89774 0.46
8 7 5 2 o 50956.99 50461.46 180.00 0.89956 0.65
2 14 3 1 o 45.012 43.929 0.00 0.89740 0.00
5 7 8 1 o 11.132 11.930 0.00 0.89691 0.00
9 7 3 1 o 726.612 790.320 180.00 0.89676 0.02
5 4 9 1 o 69.414 73.557 180.00 0.89673 0.00
1 5 10 1 o 5592.083 5957.963 180.00 0.89659 0.14
4 11 6 1 o 1494.301 1559.807 180.00 0.89635 0.05
8 2 7 1 o 5.735 5.531 0.00 0.89607 0.00
2 12 6 1 o 115.010 115.342 180.00 0.89627 0.00
6 12 2 2 o 4919.663 4965.126 180.00 0.89844 0.06
3 3 10 2 o 177.052 161.336 180.00 0.89800 0.00
9 8 1 2 o 6691.757 5902.269 0.00 0.89792 0.08
8 9 3 2 o 5759.182 4906.861 180.00 0.89782 0.08
9 6 4 1 o 7392.596 6188.905 0.00 0.89549 0.20
6 11 4 2 o 17260.795 14206.854 0.00 0.89771 0.28
3 14 2 2 o 16369.471 13852.728 0.00 0.89774 0.25
7 2 8 1 o 18303.877 15241.688 180.00 0.89506 0.47
2 14 3 2 o 53.282 43.929 0.00 0.89740 0.00
10 0 4 1 o 43410.97 36725.02 180.00 0.89478 0.57
8 10 0 1 o 4053.774 3416.707 180.00 0.89483 0.06
5 7 8 2 o 13.851 11.930 0.00 0.89691 0.00
9 7 3 2 o 920.027 790.320 180.00 0.89676 0.01
5 4 9 2 o 81.838 73.557 180.00 0.89673 0.00
7 11 2 1 o 2240.743 1907.487 180.00 0.89465 0.07
1 5 10 2 o 6639.542 5957.963 180.00 0.89659 0.09
3 9 8 1 o 6290.797 5973.287 0.00 0.89411 0.17
4 11 6 2 o 1678.734 1559.807 180.00 0.89635 0.03
8 2 7 2 o 5.717 5.531 0.00 0.89607 0.00
2 12 6 2 o 116.112 115.342 180.00 0.89627 0.00
5 12 4 1 o 5257.459 5085.077 0.00 0.89376 0.15
9 6 4 2 o 6909.558 6188.905 0.00 0.89549 0.09
4 12 5 1 o 3663.568 3253.097 180.00 0.89316 0.11
7 2 8 2 o 16441.475 15241.688 180.00 0.89506 0.21
10 1 4 1 o 17364.156 16319.959 0.00 0.89278 0.46
7 9 5 1 o 10693.437 9726.860 0.00 0.89289 0.33
10 0 4 2 o 37075.30 36725.02 180.00 0.89478 0.23
8 10 0 2 o 3484.469 3416.707 180.00 0.89483 0.02
1 8 9 1 o 138.343 138.391 180.00 0.89254 0.00
7 11 2 2 o 1866.626 1907.487 180.00 0.89465 0.03
3 7 9 1 o 5540.256 5764.015 0.00 0.89193 0.15
3 9 8 2 o 5765.822 5973.287 0.00 0.89411 0.08
10 5 2 1 o 2417.165 2386.615 0.00 0.89150 0.07
2 11 7 1 o 936.596 938.381 0.00 0.89165 0.03
5 12 4 2 o 5119.334 5085.077 0.00 0.89376 0.07
5 9 7 1 o 18283.078 18060.758 180.00 0.89129 0.52
4 6 9 1 o 1662.236 1664.431 0.00 0.89115 0.04
8 10 1 1 o 1081.929 1117.193 0.00 0.89094 0.03
4 12 5 2 o 3162.928 3253.097 180.00 0.89316 0.05
10 1 4 2 o 14521.739 16319.959 0.00 0.89278 0.19
7 9 5 2 o 8862.761 9726.860 0.00 0.89289 0.13
0 10 8 1 o 6087.255 6767.952 180.00 0.89056 0.07
5 13 2 1 o 12321.059 14063.359 0.00 0.89049 0.34
1 8 9 2 o 124.058 138.391 180.00 0.89254 0.00
10 4 3 1 o 844.191 1047.145 180.00 0.89005 0.02
7 10 4 1 o 21.577 25.524 0.00 0.88994 0.00
3 7 9 2 o 4614.763 5764.015 0.00 0.89193 0.06
