#------------------------------------------------------------------------------
#$Date: 2016-03-21 01:21:50 +0200 (Mon, 21 Mar 2016) $
#$Revision: 178377 $
#$URL: svn://www.crystallography.net/cod/cif/4/00/11/4001197.cif $
#------------------------------------------------------------------------------
#
# This file is available in the Crystallography Open Database (COD),
# http://www.crystallography.net/
#
# All data on this site have been placed in the public domain by the
# contributors.
#
data_4001197
loop_
_publ_author_name
'Zhou, Yongkai'
'Adams, Stefan'
'Rao, R. Prasada'
'Edwards, Doreen D.'
'Neiman, Arkady'
'Pestereva, N.'
_publ_section_title
;
 Charge Transport by Polyatomic Anion Diffusion in Sc2(WO4)3
;
_journal_issue                   20
_journal_name_full               'Chemistry of Materials'
_journal_page_first              6335
_journal_paper_doi               10.1021/cm800466y
_journal_volume                  20
_journal_year                    2008
_chemical_formula_moiety         ' Sc2(WO4)3 '
_chemical_formula_sum            'O12 Sc2 W3'
_chemical_formula_weight         833.45
_chemical_melting_point          1913
_chemical_name_common            ' Scandium Tungstate '
_chemical_name_systematic        ' Scandium Tungstate '
_space_group_IT_number           60
_symmetry_cell_setting           orthorhombic
_symmetry_space_group_name_Hall  '-P 2a 2n'
_symmetry_space_group_name_H-M   'P n c a'
_audit_creation_date             2008-01-25T12:03
_audit_creation_method           'from EXP file using GSAS2CIF'
_audit_update_record
' 2008-01-25T12:03  Initial CIF as created by GSAS2CIF'
_cell_angle_alpha                90.0
_cell_angle_beta                 90.0
_cell_angle_gamma                90.0
_cell_formula_units_Z            4
_cell_length_a                   9.63965(5)
_cell_length_b                   13.35026(7)
_cell_length_c                   9.55959(5)
_cell_measurement_temperature    750
_cell_volume                     1230.241(11)
_computing_structure_refinement  GSAS
_diffrn_radiation_polarisn_ratio 0.68
_diffrn_radiation_probe          x-ray
_exptl_absorpt_correction_T_max  1.00000
_exptl_absorpt_correction_T_min  1.00000
_exptl_absorpt_process_details
;   GSAS Absorption/surface roughness correction: function number 0
 No correction is applied.
;
_pd_block_id
2008-01-25T12:03|T11K|Zhou_Yongkai|Philips_Xpert
_pd_calc_method                  'Rietveld Refinement'
_pd_instr_location               ' ?'
_pd_meas_2theta_range_inc        0.017
_pd_meas_2theta_range_max        119.9874
_pd_meas_2theta_range_min        10.0144
_pd_meas_number_of_points        6470
_pd_proc_2theta_range_inc        0.017
_pd_proc_2theta_range_max        119.9874
_pd_proc_2theta_range_min        10.0144
_pd_proc_info_datetime           2008-01-25T12:28:53
_pd_proc_info_excluded_regions   ' ?'
_pd_proc_ls_background_function
;   GSAS Background function number 1 with 12 terms.
 Shifted Chebyshev function of 1st kind
      1:    363.226     2:   -36.3754     3:    15.4874     4:    43.0560    
      5:   -4.30084     6:    9.93283     7:   -10.1615     8:    5.23537    
      9:    9.93394    10:   -24.2373    11:    23.5464    12:   -7.83530    
;
_pd_proc_ls_peak_cutoff          0.00250
_pd_proc_ls_pref_orient_corr
;   March-Dollase
 AXIS  1 Ratio=   0.95235  h= 0.000  k= 1.000  l= 0.000
 Prefered orientation correction range: Min=   0.92938, Max=   1.15774
;
_pd_proc_ls_profile_function
;
 CW Profile function number 3 with  19 terms
 Pseudovoigt profile coefficients as parameterized in
 P. Thompson, D.E. Cox & J.B. Hastings (1987). J. Appl. Cryst.,20,79-83.
 Asymmetry correction of L.W. Finger, D.E. Cox & A. P. Jephcoat (1994).
 J. Appl. Cryst.,27,892-900.
 Peak tails are ignored  where the intensity is below 0.0025 times the peak
   Aniso. broadening axis   0.0   0.0   1.0
;
_pd_proc_ls_prof_R_factor        0.0488
_pd_proc_ls_prof_wR_expected     0.0359
_pd_proc_ls_prof_wR_factor       0.0646
_pd_proc_number_of_points        6470
_pd_spec_mounting                ' ?'
_refine_ls_goodness_of_fit_all   1.85
_refine_ls_matrix_type           full
_refine_ls_number_parameters     51
_refine_ls_number_restraints     0
_refine_ls_R_Fsqd_factor         0.06199
_refine_ls_shift/su_max          0.03
_refine_ls_shift/su_mean         0.01
_reflns_d_resolution_high        0.890
_reflns_d_resolution_low         6.675
_reflns_limit_h_max              10
_reflns_limit_h_min              0
_reflns_limit_k_max              15
_reflns_limit_k_min              0
_reflns_limit_l_max              10
_reflns_limit_l_min              0
_reflns_number_total             1829
_cod_data_source_file            cm800466y_si_016.cif
_cod_data_source_block           T750K
_cod_depositor_comments
;
The following automatic conversions were performed:

'_chemical_melting_point' value ' 1913K ' was changed to '1913' - the
value should be numeric and without a unit
designator.

'_geom_bond_publ_flag' value 'N' changed to 'n'
according to /home/saulius/struct/CIF-dictionaries/cif_core.dic
dictionary named 'cif_core.dic' version 2.4.1 from 2010-06-29 (26
times).

'_geom_angle_publ_flag' value 'N' changed to 'n' according
to /home/saulius/struct/CIF-dictionaries/cif_core.dic dictionary
named 'cif_core.dic' version 2.4.1 from 2010-06-29 (33 times).

Automatic conversion script
Id: cif_fix_values 1715 2011-07-08 13:25:40Z adriana 
;
_cod_original_cell_volume        1230.241(13)
_cod_database_code               4001197
#BEGIN Tags that were not found in dictionaries:
_gsas_exptl_extinct_corr_t_min   1.00000
_gsas_exptl_extinct_corr_t_max   1.00000
#END Tags that were not found in dictionaries
loop_
_symmetry_equiv_pos_site_id
_symmetry_equiv_pos_as_xyz
1 +x,+y,+z
2 -x+1/2,+y+1/2,+z+1/2
3 +x,-y+1/2,+z+1/2
4 -x+1/2,-y,+z
-1 -x,-y,-z
-2 +x+1/2,-y+1/2,-z+1/2
-3 -x,+y+1/2,-z+1/2
-4 +x+1/2,+y,-z
loop_
_atom_site_type_symbol
_atom_site_label
_atom_site_fract_x
_atom_site_fract_y
_atom_site_fract_z
_atom_site_occupancy
_atom_site_thermal_displace_type
_atom_site_U_iso_or_equiv
_atom_site_symmetry_multiplicity
Sc Sc1 0.4698(4) 0.38118(24) 0.2478(4) 1.0 Uiso 0.0249(11) 8
W W1 0.25 0.0 0.47167(14) 1.0 Uiso 0.02599(29) 4
W W2 0.11342(11) 0.35649(7) 0.39182(11) 1.0 Uiso 0.02599(29) 8
O O1 0.0904(12) 0.1300(8) 0.0703(12) 1.0 Uiso 0.0530(17) 8
O O2 0.1481(12) 0.0733(8) 0.3697(13) 1.0 Uiso 0.0530(17) 8
O O3 0.0066(12) 0.2646(9) 0.3164(11) 1.0 Uiso 0.0530(17) 8
O O4 0.3356(12) 0.4061(8) 0.0763(12) 1.0 Uiso 0.0530(17) 8
O O5 0.0618(11) 0.4759(9) 0.3240(12) 1.0 Uiso 0.0530(17) 8
O O6 0.2928(13) 0.3462(8) 0.3459(12) 1.0 Uiso 0.0530(17) 8
loop_
_atom_type_symbol
_atom_type_number_in_cell
_atom_type_scat_dispersion_real
_atom_type_scat_dispersion_imag
_atom_type_scat_Cromer_Mann_a1
_atom_type_scat_Cromer_Mann_a2
_atom_type_scat_Cromer_Mann_a3
_atom_type_scat_Cromer_Mann_a4
_atom_type_scat_Cromer_Mann_b1
_atom_type_scat_Cromer_Mann_b2
_atom_type_scat_Cromer_Mann_b3
_atom_type_scat_Cromer_Mann_b4
_atom_type_scat_Cromer_Mann_c
_atom_type_scat_source
Sc 8.0 0.000 0.000 9.18900 9.02130 7.36790 0.57290 1.64090 136.108 1.46800
51.3531 1.33290 International_Tables_Vol_C
W 12.0 0.000 0.000 29.0818 1.72029 15.4300 9.22590 14.4327 0.32170 5.11982
57.0560 9.88750 International_Tables_Vol_C
O 48.0 0.000 0.000 3.04850 13.2771 2.28680 5.70110 1.54630 0.32390 0.86700
32.9089 0.25080 International_Tables_Vol_C
loop_
_diffrn_radiation_wavelength
_diffrn_radiation_wavelength_wt
_diffrn_radiation_type
_diffrn_radiation_wavelength_id
1.540500 1.000 K\a~1~ 1
1.544300 0.000 K\a~2~ 2
loop_
_geom_angle_atom_site_label_1
_geom_angle_atom_site_label_2
_geom_angle_atom_site_label_3
_geom_angle
_geom_angle_site_symmetry_1
_geom_angle_site_symmetry_3
_geom_angle_publ_flag
O1 Sc1 O2 90.6(5) -2_666 -2_666 n
O1 Sc1 O3 94.8(4) -2_666 -2_666 n
O1 Sc1 O4 173.3(5) -2_666 1_555 n
O1 Sc1 O5 81.6(4) -2_666 4_565 n
O1 Sc1 O6 93.9(5) -2_666 1_555 n
O2 Sc1 O3 88.5(5) -2_666 -2_666 n
O2 Sc1 O4 92.3(5) -2_666 1_555 n
O2 Sc1 O5 92.3(5) -2_666 4_565 n
O2 Sc1 O6 174.8(5) -2_666 1_555 n
O3 Sc1 O4 91.3(5) -2_666 1_555 n
O3 Sc1 O5 176.4(5) -2_666 4_565 n
O3 Sc1 O6 93.8(4) -2_666 1_555 n
O4 Sc1 O5 92.2(4) 1_555 4_565 n
O4 Sc1 O6 83.0(4) 1_555 1_555 n
O5 Sc1 O6 85.7(5) 4_565 1_555 n
O2 W1 O2 109.8(8) 1_555 4_555 n
O2 W1 O4 117.1(5) 1_555 2_545 n
O2 W1 O4 100.6(5) 1_555 3_555 n
O2 W1 O4 100.6(5) 4_555 2_545 n
O2 W1 O4 117.1(5) 4_555 3_555 n
O4 W1 O4 112.6(7) 2_545 3_555 n
O1 W2 O3 113.7(5) 3_555 1_555 n
O1 W2 O5 103.2(5) 3_555 1_555 n
O1 W2 O6 112.0(5) 3_555 1_555 n
O3 W2 O5 108.1(6) 1_555 1_555 n
O3 W2 O6 114.3(6) 1_555 1_555 n
O5 W2 O6 104.4(5) 1_555 1_555 n
Sc1 O1 W2 153.7(7) -2_466 3_554 n
Sc1 O2 W1 158.6(7) -2_555 1_555 n
Sc1 O3 W2 151.4(7) -2_466 1_555 n
Sc1 O4 W1 145.0(6) 1_555 2_554 n
Sc1 O5 W2 172.3(7) 4_565 1_555 n
Sc1 O6 W2 157.0(7) 1_555 1_555 n
loop_
_geom_bond_atom_site_label_1
_geom_bond_atom_site_label_2
_geom_bond_distance
_geom_bond_site_symmetry_2
_geom_bond_publ_flag
Sc1 O1 2.097(12) -2_555 n
Sc1 O2 2.141(12) -2_555 n
Sc1 O3 2.071(12) -2_555 n
Sc1 O4 2.114(11) 1_555 n
Sc1 O5 2.064(11) 4_565 n
Sc1 O6 2.002(12) 1_555 n
W1 O2 1.695(12) 1_555 n
W1 O2 1.695(12) 4_555 n
W1 O4 1.803(10) 2_545 n
W1 O4 1.803(10) 3_555 n
W2 O1 1.730(11) 3_555 n
W2 O3 1.756(11) 1_555 n
W2 O5 1.792(11) 1_555 n
W2 O6 1.790(12) 1_555 n
O1 Sc1 2.097(12) -2_455 n
O1 W2 1.730(11) 3_554 n
O2 Sc1 2.141(12) -2_455 n
O2 W1 1.695(12) 1_555 n
O3 Sc1 2.071(12) -2_455 n
O3 W2 1.756(11) 1_555 n
O4 Sc1 2.114(11) 1_555 n
O4 W1 1.803(10) 2_554 n
O5 Sc1 2.064(11) 4_565 n
O5 W2 1.792(11) 1_555 n
O6 Sc1 2.002(12) 1_555 n
O6 W2 1.790(12) 1_555 n
loop_
_pd_meas_counts_total
_pd_proc_ls_weight
_pd_proc_intensity_bkg_calc
_pd_calc_intensity_total
353.0 0.0 726.08868 .
349.0 0.0 721.84222 .
353.0 0.0 717.62811 .
336.0 0.0 713.44543 .
345.0 0.0 709.29401 .
332.0 0.0 705.17462 .
316.0 0.0 701.08612 .
353.0 0.0 697.02844 .
348.0 0.0 693.00238 .
351.0 0.0 689.00616 .
340.0 0.0 685.04114 .
344.0 0.0 681.10645 .
359.0 0.0 677.20190 .
342.0 0.0 673.32776 .
335.0 0.0 669.48340 .
319.0 0.0 665.66888 .
336.0 0.0 661.88403 .
324.0 0.0 658.12836 .
328.0 0.0 654.40271 .
342.0 0.0 650.70612 .
333.0 0.0 647.03851 .
339.0 0.0 643.39984 .
352.0 0.0 639.78949 .
360.0 0.0 636.20837 .
369.0 0.0 632.65564 .
368.0 0.0 629.13116 .
338.0 0.0 625.63483 .
333.0 0.0 622.16638 .
343.0 0.0 618.72583 .
349.0 0.0 615.31348 .
351.0 0.0 611.92816 .
348.0 0.0 608.57056 .
331.0 0.0 605.24005 .
331.0 0.0 601.93701 .
339.0 0.0 598.66113 .
332.0 0.0 595.41187 .
329.0 0.0 592.18921 .
349.0 0.0 588.99310 .
343.0 0.0 585.82379 .
330.0 0.0 582.68085 .
347.0 0.0 579.56384 .
327.0 0.0 576.47290 .
346.0 0.0 573.40759 .
383.0 0.0 570.36847 .
359.0 0.0 567.35510 .
325.0 0.0 564.36694 .
319.0 0.0 561.40411 .
324.0 0.0 558.46631 .
362.0 0.0 555.55408 .
348.0 0.0 552.66663 .
357.0 0.0 549.80408 .
370.0 0.0 546.96594 .
366.0 0.0 544.15222 .
344.0 0.0 541.36322 .
367.0 0.0 538.59851 .
364.0 0.0 535.85791 .
342.0 0.0 533.14124 .
338.0 0.0 530.44836 .
357.0 0.0 527.77948 .
329.0 0.0 525.13440 .
332.0 0.0 522.51263 .
348.0 0.0 519.91394 .
335.0 0.0 517.33862 .
339.0 0.0 514.78650 .
345.0 0.0 512.25757 .
347.0 0.0 509.75146 .
356.0 0.0 507.26779 .
333.0 0.0 504.80679 .
333.0 0.0 502.36838 .
337.0 0.0 499.95242 .
338.0 0.0 497.55875 .
363.0 0.0 495.18695 .
331.0 0.0 492.83725 .
353.0 0.0 490.50931 .
357.0 0.0 488.20337 .
354.0 0.0 485.91898 .
357.0 0.0 483.65579 .
347.0 0.0 481.41431 .
368.0 0.0 479.19385 .
392.0 0.0 476.99475 .
356.0 0.0 474.81674 .
347.0 0.0 472.65942 .
348.0 0.0 470.52286 .
360.0 0.0 468.40692 .
375.0 0.0 466.31189 .
370.0 0.0 464.23703 .
349.0 0.0 462.18256 .
348.0 0.0 460.14825 .
361.0 0.0 458.13391 .
361.0 0.0 456.13977 .
354.0 0.0 454.16544 .
345.0 0.0 452.21072 .
347.0 0.0 450.27563 .
365.0 0.0 448.36008 .
378.0 0.0 446.46408 .
368.0 0.0 444.58740 .
367.0 0.0 442.72952 .
326.0 0.0 440.89096 .
331.0 0.0 439.07135 .
351.0 0.0 437.27057 .
346.0 0.0 435.48868 .
362.0 0.0 433.72510 .
340.0 0.0 431.98019 .
350.0 0.0 430.25375 .
352.0 0.0 428.54547 .
330.0 0.0 426.85553 .
363.0 0.0 425.18344 .
347.0 0.0 423.52954 .
337.0 0.0 421.89346 .
330.0 0.0 420.27509 .
324.0 0.0 418.67450 .
347.0 0.0 417.09128 .
336.0 0.0 415.52554 .
371.0 0.0 413.97736 .
307.0 0.0 412.44620 .
350.0 0.0 410.93216 .
357.0 0.0 409.43524 .
353.0 0.002833 407.95505 407.95245
333.0 0.003003 406.49203 406.48941
402.0 0.002488 405.04553 405.04300
373.0 0.002681 403.61563 403.61337
386.0 0.002591 402.20245 402.20004
386.0 0.002591 400.80536 400.80316
335.0 0.002985 399.42484 399.42273
335.0 0.002985 398.06046 398.05847
361.0 0.002770 396.71222 396.71030
348.0 0.002874 395.37997 395.37817
305.0 0.003279 394.06360 394.06180
356.0 0.002809 392.76312 392.76147
336.0 0.002976 391.47839 391.47684
338.0 0.002959 390.20923 390.20779
338.0 0.002959 388.95563 388.95419
367.0 0.002725 387.71744 387.71613
365.0 0.002740 386.49457 386.49341
314.0 0.003185 385.28705 385.28586
342.0 0.002924 384.09464 384.09357
386.0 0.002591 382.91724 382.91635
385.0 0.002597 381.75467 381.75381
375.0 0.002667 380.60724 380.60638
380.0 0.002632 379.47449 379.47375
349.0 0.002865 378.35635 378.35568
360.0 0.002778 377.25284 377.25223
366.0 0.002732 376.16364 376.16318
365.0 0.002740 375.08905 375.08865
343.0 0.002915 374.02881 374.02841
343.0 0.002915 372.98267 372.98242
359.0 0.002786 371.95065 371.95044
348.0 0.002874 370.93259 370.93243
344.0 0.002907 369.92868 369.92853
355.0 0.002817 368.93851 368.93851
351.0 0.002849 367.96210 367.96219
358.0 0.002793 366.99945 366.99951
349.0 0.002865 366.05014 366.05026
371.0 0.002695 365.11453 365.11478
360.0 0.002778 364.19235 364.19266
344.0 0.002907 363.28345 363.28375
366.0 0.002732 362.38779 362.38818
371.0 0.002695 361.50519 361.50574
371.0 0.002695 360.63580 360.63632
352.0 0.002841 359.77927 359.77991
365.0 0.002740 358.93567 358.93631
365.0 0.002740 358.10492 358.10556
340.0 0.002941 357.28677 357.28754
363.0 0.002755 356.48135 361.12711
349.0 0.002865 355.68848 362.89658
376.0 0.002660 354.90808 362.79572
364.0 0.002747 354.14005 362.82730
397.0 0.002519 353.38419 363.02951
386.0 0.002591 352.64078 363.46228
376.0 0.002660 351.90939 364.23309
422.0 0.002370 351.18997 365.64386
401.0 0.002494 350.48267 368.93588
414.0 0.002415 349.78711 377.13290
456.0 0.002193 349.10342 392.36658
462.0 0.002165 348.43161 414.11819
501.0 0.001996 347.77127 441.29037
476.0 0.002101 347.12253 472.48682
487.0 0.002053 346.48529 506.87634
521.0 0.001919 345.85947 544.48541
557.0 0.001795 345.24500 585.69281
605.0 0.001653 344.64175 631.03040
691.0 0.001447 344.04959 681.14728
698.0 0.001433 343.46863 736.79907
762.0 0.001312 342.89865 798.96570
848.0 0.001179 342.33963 869.07330
918.0 0.001089 341.79147 949.01404
1031.0 0.000970 341.25409 1041.12708
1085.0 0.000922 340.72736 1148.84644
1300.0 0.000769 340.21133 1277.15649
1516.0 0.000660 339.70587 1433.41248
1759.0 0.000569 339.21097 1629.85815
2144.0 0.000466 338.72632 1887.82751
2697.0 0.000371 338.25211 2252.71118
3537.0 0.0002827 337.78809 2837.70532
4215.0 0.0002372 337.33426 3731.72070
4260.0 0.0002347 336.89063 4152.38965
3376.0 0.0002962 336.45694 3164.03979
2177.0 0.000459 336.03333 2173.24023
1300.0 0.000769 335.61948 1191.25098
721.0 0.001387 335.21558 643.81329
509.0 0.001965 334.82135 486.59430
443.0 0.002257 334.43680 435.51727
402.0 0.002488 334.06189 408.13083
405.0 0.002469 333.69653 390.65894
408.0 0.002451 333.34064 378.68033
395.0 0.002532 332.99408 370.03665
407.0 0.002457 332.65683 363.54767
396.0 0.002525 332.32898 358.52045
371.0 0.002695 332.01022 354.52386
377.0 0.002653 331.70053 351.27707
377.0 0.002653 331.39996 348.59070
379.0 0.002639 331.10840 346.33264
350.0 0.002857 330.82571 344.40891
347.0 0.002882 330.55188 342.75040
366.0 0.002732 330.28677 341.30563
389.0 0.002571 330.03049 340.03552
400.0 0.002500 329.78278 338.90982
382.0 0.002618 329.54364 332.64401
357.0 0.002801 329.31302 332.15158
371.0 0.002695 329.09088 329.09357
361.0 0.002770 328.87708 328.87982
342.0 0.002924 328.67169 328.67432
385.0 0.002597 328.47449 328.47711
361.0 0.002770 328.28540 328.28809
345.0 0.002899 328.10449 328.10718
350.0 0.002857 327.93161 327.93442
330.0 0.003030 327.76675 327.76950
334.0 0.002994 327.60986 327.61264
355.0 0.002817 327.46082 327.46362
350.0 0.002857 327.31955 327.32230
339.0 0.002950 327.18610 327.18884
325.0 0.003077 327.06021 327.06302
343.0 0.002915 326.94205 326.94479
395.0 0.002532 326.83145 326.83417
380.0 0.002632 326.72824 326.73105
377.0 0.002653 326.63248 326.63538
378.0 0.002646 326.54416 326.54697
388.0 0.002577 326.46310 326.46591
360.0 0.002778 326.38934 326.39224
356.0 0.002809 326.32272 326.32559
360.0 0.002778 326.26331 326.26620
369.0 0.002710 326.21088 326.21381
393.0 0.002545 326.16559 326.16840
401.0 0.002494 326.12714 332.08908
374.0 0.002674 326.09561 332.53793
379.0 0.002639 326.07092 335.99286
394.0 0.002538 326.05304 336.83521
401.0 0.002494 326.04193 337.81403
408.0 0.002451 326.03741 338.96100
422.0 0.002370 326.03952 340.32025
423.0 0.002364 326.04822 341.95599
402.0 0.002488 326.06332 343.96716
425.0 0.002353 326.08496 346.52316
468.0 0.002137 326.11292 350.03174
472.0 0.002119 326.14728 356.11218
476.0 0.002101 326.18784 369.41061
513.0 0.001949 326.23468 394.42188
526.0 0.001901 326.28763 430.92807
539.0 0.001855 326.34671 477.59515
565.0 0.001770 326.41180 532.86444
587.0 0.001704 326.48300 594.94067
628.0 0.001592 326.56012 663.59692
681.0 0.001468 326.64304 739.55029
748.0 0.001337 326.73190 823.94507
848.0 0.001179 326.82645 918.37146
924.0 0.001082 326.92679 1024.98132
1015.0 0.000985 327.03281 1146.57251
1137.0 0.000880 327.14441 1286.70789
1323.0 0.000756 327.26166 1450.55408
1574.0 0.000635 327.38446 1646.12830
1823.0 0.000549 327.51263 1884.80725
2256.0 0.000443 327.64627 2185.51343
2769.0 0.000361 327.78537 2582.61353
3378.0 0.0002960 327.92963 3150.12183
4466.0 0.0002239 328.07928 4068.49316
5430.0 0.0001842 328.23410 5389.35107
5360.0 0.0001866 328.39410 5723.33691
3998.0 0.0002501 328.55927 4172.54834
2709.0 0.000369 328.72946 2985.47168
1550.0 0.000645 328.90463 1659.70764
791.0 0.001264 329.08481 816.09857
529.0 0.001890 329.26999 561.98145
479.0 0.002088 329.45993 482.55621
471.0 0.002123 329.65472 441.42307
441.0 0.002268 329.85437 415.61539
411.0 0.002433 330.05869 398.20929
398.0 0.002513 330.26776 385.87549
399.0 0.002506 330.48141 376.80612
379.0 0.002639 330.69968 369.94281
376.0 0.002660 330.92245 364.62891
392.0 0.002551 331.14972 360.43835
346.0 0.002890 331.38147 357.08417
400.0 0.002500 331.61761 354.36697
386.0 0.002591 331.85818 352.14447
369.0 0.002710 332.10300 350.31219
353.0 0.002833 332.35205 348.79257
389.0 0.002571 332.60547 347.52649
374.0 0.002674 332.86295 337.99380
344.0 0.002907 333.12451 337.79752
330.0 0.003030 333.39026 337.66473
368.0 0.002717 333.66010 333.66251
362.0 0.002762 333.93384 333.93631
339.0 0.002950 334.21161 334.21402
357.0 0.002801 334.49329 334.49564
345.0 0.002899 334.77878 334.78122
362.0 0.002762 335.06812 335.07053
360.0 0.002778 335.36130 335.36365
349.0 0.002865 335.65820 335.66052
350.0 0.002857 335.95877 335.96112
361.0 0.002770 336.26303 336.26535
371.0 0.002695 336.57092 336.57315
363.0 0.002755 336.88242 336.88464
351.0 0.002849 337.19739 337.19962
345.0 0.002899 337.51584 337.51807
340.0 0.002941 337.83780 337.83997
352.0 0.002841 338.16306 338.16531
331.0 0.003021 338.49185 338.49405
330.0 0.003030 338.82401 338.82605
358.0 0.002793 339.15921 339.16144
366.0 0.002732 339.49786 339.49994
381.0 0.002625 339.83966 339.84174
375.0 0.002667 340.18466 340.18674
356.0 0.002809 340.53278 340.53482
355.0 0.002817 340.88406 340.88605
366.0 0.002732 341.23831 341.24033
353.0 0.002833 341.59558 341.59753
361.0 0.002770 341.95584 341.95779
331.0 0.003021 342.31906 342.32104
335.0 0.002985 342.68521 342.68713
364.0 0.002747 343.05420 343.05606
346.0 0.002890 343.42599 343.42792
349.0 0.002865 343.80060 343.80249
365.0 0.002740 344.17798 344.17984
361.0 0.002770 344.55804 344.55991
350.0 0.002857 344.94083 344.94263
353.0 0.002833 345.32620 345.32797
329.0 0.003040 345.71423 345.71600
354.0 0.002825 346.10480 346.10657
380.0 0.002632 346.49796 346.49969
365.0 0.002740 346.89359 346.89526
370.0 0.002703 347.29160 347.29330
372.0 0.002688 347.69223 347.69385
347.0 0.002882 348.09515 348.09674
350.0 0.002857 348.50043 348.50204
325.0 0.003077 348.90796 348.90958
354.0 0.002825 349.31790 349.31943
374.0 0.002674 349.73004 349.73163
333.0 0.003003 350.14444 350.14600
329.0 0.003040 350.56107 350.56256
348.0 0.002874 350.97971 350.98120
341.0 0.002933 351.40060 351.40198
332.0 0.003012 351.82352 351.82495
333.0 0.003003 352.24854 352.24991
376.0 0.002660 352.67557 352.67691
353.0 0.002833 353.10455 353.10593
352.0 0.002841 353.53558 353.53690
345.0 0.002899 353.96844 353.96967
386.0 0.002591 354.40326 354.40451
344.0 0.002907 354.83987 354.84119
327.0 0.003058 355.27832 355.27954
351.0 0.002849 355.71866 355.71982
379.0 0.002639 356.16071 356.16183
361.0 0.002770 356.60452 356.60565
357.0 0.002801 357.04999 357.05106
336.0 0.002976 357.49716 357.49820
323.0 0.003096 357.94595 357.94699
333.0 0.003003 358.39639 358.39743
320.0 0.003125 358.84839 358.84937
341.0 0.002933 359.30194 359.30295
371.0 0.002695 359.75708 359.75797
362.0 0.002762 360.21371 360.21454
350.0 0.002857 360.67169 360.67258
347.0 0.002882 361.13120 361.13208
360.0 0.002778 361.59204 361.59299
356.0 0.002809 362.05432 362.05518
330.0 0.003030 362.51791 362.51874
345.0 0.002899 362.98291 362.98367
360.0 0.002778 363.44910 363.44986
358.0 0.002793 363.91672 363.91736
373.0 0.002681 364.38528 364.38602
363.0 0.002755 364.85522 364.85590
345.0 0.002899 365.32632 365.32700
350.0 0.002857 365.79865 365.79922
337.0 0.002967 366.27200 366.27264
340.0 0.002941 366.74655 366.74704
336.0 0.002976 367.22198 367.22253
327.0 0.003058 367.69867 367.69919
352.0 0.002841 368.17627 368.17679
337.0 0.002967 368.65494 368.65533
376.0 0.002660 369.13443 369.13489
373.0 0.002681 369.61493 369.61530
343.0 0.002915 370.09637 370.09674
307.0 0.003257 370.57870 370.57904
340.0 0.002941 371.06186 371.06216
342.0 0.002924 371.54587 371.54614
349.0 0.002865 372.03061 372.03085
365.0 0.002740 372.51627 372.51648
333.0 0.003003 373.00259 373.00281
345.0 0.002899 373.48969 373.48987
328.0 0.003049 373.97742 373.97754
380.0 0.002632 374.46591 374.46603
342.0 0.002924 374.95505 374.95517
365.0 0.002740 375.44479 375.44489
368.0 0.002717 375.93521 375.93530
366.0 0.002732 376.42621 376.42621
365.0 0.002740 376.91769 376.91769
349.0 0.002865 377.40982 377.40982
334.0 0.002994 377.90240 377.90244
346.0 0.002890 378.39554 378.39542
350.0 0.002857 378.88907 378.88895
378.0 0.002646 379.38303 379.38287
349.0 0.002865 379.87747 379.87729
358.0 0.002793 380.37231 380.37207
377.0 0.002653 380.86758 380.86728
387.0 0.002584 381.36310 381.36282
329.0 0.003040 381.85898 381.85861
355.0 0.002817 382.35522 382.35489
348.0 0.002874 382.85178 382.85135
370.0 0.002703 383.34842 383.34802
372.0 0.002688 383.84546 383.84500
331.0 0.003021 384.34271 384.34232
338.0 0.002959 384.84021 384.83972
346.0 0.002890 385.33777 385.33731
345.0 0.002899 385.83560 385.83505
355.0 0.002817 386.33359 386.33298
365.0 0.002740 386.83157 386.83096
352.0 0.002841 387.32977 387.32916
360.0 0.002778 387.82797 387.82736
355.0 0.002817 388.32629 388.32559
356.0 0.002809 388.82462 388.82391
365.0 0.002740 389.32294 389.32227
371.0 0.002695 389.82129 389.82059
370.0 0.002703 390.31964 390.31891
373.0 0.002681 390.81790 390.81714
366.0 0.002732 391.31619 391.31531
361.0 0.002770 391.81424 391.81339
352.0 0.002841 392.31235 392.31143
336.0 0.002976 392.81033 392.80936
346.0 0.002890 393.30804 393.30710
343.0 0.002915 393.80576 393.80469
350.0 0.002857 394.30319 394.30219
345.0 0.002899 394.80045 394.79944
357.0 0.002801 395.29758 395.29648
351.0 0.002849 395.79434 395.79324
338.0 0.002959 396.29102 396.28989
355.0 0.002817 396.78729 396.78613
358.0 0.002793 397.28326 397.28214
332.0 0.003012 397.77908 397.77789
353.0 0.002833 398.27448 398.27332
352.0 0.002841 398.76950 398.76831
351.0 0.002849 399.26434 399.26309
380.0 0.002632 399.75870 399.75739
364.0 0.002747 400.25262 400.25134
394.0 0.002538 400.74619 400.74487
408.0 0.002451 401.23929 401.23795
409.0 0.002445 401.73203 401.73065
416.0 0.002404 402.22430 402.22293
371.0 0.002695 402.71609 402.71472
389.0 0.002571 403.20740 403.20593
367.0 0.002725 403.69818 403.69675
374.0 0.002674 404.18848 404.18701
361.0 0.002770 404.67825 404.67670
390.0 0.002564 405.16745 405.16583
353.0 0.002833 405.65610 405.65448
320.0 0.003125 406.14404 406.15439
383.0 0.002611 406.63150 406.64264
358.0 0.002793 407.11832 407.13043
355.0 0.002817 407.60464 407.62378
368.0 0.002717 408.09021 408.11099
364.0 0.002747 408.57507 408.59775
357.0 0.002801 409.05933 409.08411
379.0 0.002639 409.54288 409.57010
347.0 0.002882 410.02570 410.05579
367.0 0.002725 410.50787 410.54105
355.0 0.002817 410.98920 412.50134
375.0 0.002667 411.46988 413.09662
373.0 0.002681 411.94983 414.40384
379.0 0.002639 412.42896 415.07935
391.0 0.002558 412.90726 415.78015
369.0 0.002710 413.38483 417.11972
375.0 0.002667 413.86154 417.94043
372.0 0.002688 414.33743 419.11914
380.0 0.002632 414.81250 420.12759
359.0 0.002786 415.28671 421.24725
364.0 0.002747 415.75998 422.49567
365.0 0.002740 416.23242 423.90329
373.0 0.002681 416.70401 425.51022
386.0 0.002591 417.17474 427.38446
402.0 0.002488 417.64444 429.66751
417.0 0.002398 418.11322 432.81784
444.0 0.002252 418.58102 438.30533
451.0 0.002217 419.04807 448.20358
440.0 0.002273 419.51398 462.94812
439.0 0.002278 419.97885 482.11331
459.0 0.002179 420.44287 506.32312
488.0 0.002049 420.90582 536.48712
498.0 0.002008 421.36774 573.54517
559.0 0.001789 421.82870 616.50586
618.0 0.001618 422.28857 662.15247
660.0 0.001515 422.74734 716.46271
743.0 0.001346 423.20508 783.89893
835.0 0.001198 423.66183 865.20325
938.0 0.001066 424.11746 969.10339
1102.0 0.000907 424.57199 1108.93469
1409.0 0.000710 425.02536 1313.94580
1681.0 0.000595 425.47763 1635.95520
2001.0 0.000500 425.92877 1959.07617
1882.0 0.000531 426.37885 1789.93262
1621.0 0.000617 426.82764 1472.74854
1489.0 0.000672 427.27536 1424.59973
1352.0 0.000740 427.72189 1279.90723
1161.0 0.000861 428.16727 1129.88757
933.0 0.001072 428.61148 911.99353
740.0 0.001351 429.05438 771.23688
694.0 0.001441 429.49609 703.41803
608.0 0.001645 429.93665 574.56689
463.0 0.002160 430.37589 494.98813
433.0 0.002309 430.81406 469.43399
424.0 0.002358 431.25079 459.65497
428.0 0.002336 431.68634 453.98990
411.0 0.002433 432.12057 450.26999
354.0 0.002825 432.55362 447.68115
431.0 0.002320 432.98532 445.83942
400.0 0.002500 433.41580 444.50000
393.0 0.002545 433.84479 443.51813
387.0 0.002584 434.27258 442.79919
407.0 0.002457 434.69910 442.27869
404.0 0.002475 435.12421 441.91141
399.0 0.002506 435.54803 439.41211
441.0 0.002268 435.97046 439.44308
414.0 0.002415 436.39148 439.53027
402.0 0.002488 436.81122 438.56763
413.0 0.002421 437.22961 438.82440
420.0 0.002381 437.64661 438.21112
398.0 0.002513 438.06213 451.81711
399.0 0.002506 438.47629 452.69385
436.0 0.002294 438.88907 460.41034
438.0 0.002283 439.30038 462.49631
413.0 0.002421 439.71027 464.79108
421.0 0.002375 440.11884 467.33322
408.0 0.002451 440.52591 470.17075
467.0 0.002141 440.93146 473.36523
496.0 0.002016 441.33566 476.99585
488.0 0.002049 441.73828 481.16656
534.0 0.001873 442.13959 486.01932
554.0 0.001805 442.53931 491.75174
558.0 0.001792 442.93762 498.65167
600.0 0.001667 443.33441 507.16043
617.0 0.001621 443.72974 518.02063
669.0 0.001495 444.12344 532.88989
753.0 0.001328 444.51569 557.64508
805.0 0.001242 444.90652 609.26794
862.0 0.001160 445.29575 705.94507
928.0 0.001078 445.68347 846.71509
1043.0 0.000959 446.06967 1027.83582
1211.0 0.000826 446.45428 1254.58667
1441.0 0.000694 446.83743 1527.31409
1654.0 0.000605 447.21896 1846.09473
1900.0 0.000526 447.59897 2218.69751
2405.0 0.000416 447.97733 2659.75146
2883.0 0.0003469 448.35419 3192.35156
3703.0 0.0002701 448.72943 3853.89404
4656.0 0.0002148 449.10318 4706.97754
6021.0 0.0001661 449.47528 5876.24023
7768.0 0.0001287 449.84576 7663.35205
10875.0 0.0000920 450.21463 10479.45703
12734.0 0.0000785 450.58200 12728.51660
9946.0 0.0001005 450.94769 10098.25879
7231.0 0.0001383 451.31183 7115.81250
6239.0 0.0001603 451.67422 6242.95117
3657.0 0.0002734 452.03497 3851.27539
1655.0 0.000604 452.39423 1764.68945
986.0 0.001014 452.75183 1054.62646
828.0 0.001208 453.10773 838.42413
675.0 0.001481 453.46207 732.64105
595.0 0.001681 453.81464 667.22186
608.0 0.001645 454.16565 623.33862
582.0 0.001718 454.51492 592.31799
557.0 0.001795 454.86261 569.51422
518.0 0.001931 455.20856 552.23145
493.0 0.002028 455.55289 538.81140
522.0 0.001916 455.89551 528.18225
504.0 0.001984 456.23651 519.62555
508.0 0.001969 456.57574 512.64252
534.0 0.001873 456.91333 506.87668
479.0 0.002088 457.24921 502.06836
438.0 0.002283 457.58340 498.02414
452.0 0.002212 457.91592 494.59763
425.0 0.002353 458.24673 471.38864
445.0 0.002247 458.57574 470.51743
460.0 0.002174 458.90305 469.80295
460.0 0.002174 459.22873 459.22449
427.0 0.002342 459.55270 459.54849
448.0 0.002232 459.87488 459.87064
452.0 0.002212 460.19537 460.19104
454.0 0.002203 460.51410 460.50986
476.0 0.002101 460.83115 460.82684
491.0 0.002037 461.14639 461.14209
487.0 0.002053 461.45996 461.45566
489.0 0.002045 461.77173 461.76733
468.0 0.002137 462.08179 462.07736
447.0 0.002237 462.39008 462.38568
476.0 0.002101 462.69662 479.55252
496.0 0.002016 463.00140 481.07806
469.0 0.002132 463.30450 482.74243
479.0 0.002088 463.60574 492.93713
504.0 0.001984 463.90527 495.55792
516.0 0.001938 464.20303 498.47272
496.0 0.002016 464.49893 501.73590
468.0 0.002137 464.79321 505.41614
469.0 0.002132 465.08563 509.60062
491.0 0.002037 465.37631 514.40234
516.0 0.001938 465.66522 519.97003
528.0 0.001894 465.95236 526.50421
590.0 0.001695 466.23767 534.28564
623.0 0.001605 466.52118 543.71991
650.0 0.001538 466.80295 555.42621
660.0 0.001515 467.08301 570.43231
693.0 0.001443 467.36118 590.85803
807.0 0.001239 467.63763 623.90527
939.0 0.001065 467.91217 691.60248
1014.0 0.000986 468.18500 821.41351
1200.0 0.000833 468.45609 1018.28558
1378.0 0.000726 468.72522 1273.56714
1550.0 0.000645 468.99268 1595.28271
1839.0 0.000544 469.25824 1990.48950
2205.0 0.000454 469.52206 2460.87744
2704.0 0.000370 469.78418 3019.15454
3173.0 0.0003152 470.04434 3691.41895
3987.0 0.0002508 470.30276 4521.32910
5127.0 0.0001950 470.55930 5580.78223
6659.0 0.0001502 470.81406 7008.36377
9179.0 0.0001089 471.06714 9129.19043
12763.0 0.0000784 471.31818 12514.62500
16380.0 0.0000611 471.56766 16013.43750
13897.0 0.0000720 471.81512 13936.50488
8667.0 0.0001154 472.06082 9319.41113
8167.0 0.0001224 472.30487 8240.48438
6196.0 0.0001614 472.54691 6261.07471
2712.0 0.000369 472.78726 2963.37915
1274.0 0.000785 473.02560 1485.22937
925.0 0.001081 473.26227 1058.05347
764.0 0.001309 473.49719 883.67712
722.0 0.001385 473.73013 781.88513
661.0 0.001513 473.96136 715.25195
633.0 0.001580 474.19080 668.93860
605.0 0.001653 474.41830 635.28131
622.0 0.001608 474.64407 609.97693
600.0 0.001667 474.86798 590.44897
596.0 0.001678 475.09003 575.03522
568.0 0.001761 475.31024 562.65479
573.0 0.001745 475.52878 552.55389
556.0 0.001799 475.74554 544.20459
577.0 0.001733 475.96021 537.23065
586.0 0.001706 476.17328 531.34430
597.0 0.001675 476.38440 526.33636
567.0 0.001764 476.59378 494.68695
564.0 0.001773 476.80133 493.20667
548.0 0.001825 477.00699 507.85168
542.0 0.001845 477.21097 494.24445
562.0 0.001779 477.41306 495.71448
568.0 0.001761 477.61319 505.14923
582.0 0.001718 477.81171 507.49750
574.0 0.001742 478.00836 510.11166
614.0 0.001629 478.20316 529.18475
642.0 0.001558 478.39603 533.65076
661.0 0.001513 478.58725 538.70117
685.0 0.001460 478.77661 552.38416
679.0 0.001473 478.96414 559.55774
673.0 0.001486 479.14987 567.85370
688.0 0.001453 479.33374 577.54773
761.0 0.001314 479.51581 589.03033
796.0 0.001256 479.69617 602.85980
873.0 0.001145 479.87460 619.86676
946.0 0.001057 480.05127 641.46332
1031.0 0.000970 480.22607 670.76941
1125.0 0.000889 480.39911 718.42126
1272.0 0.000786 480.57037 811.95160
1441.0 0.000694 480.73972 1011.59778
1602.0 0.000624 480.90738 1246.70984
1977.0 0.000506 481.07318 1547.77002
2294.0 0.000436 481.23715 1948.58496
2617.0 0.000382 481.39951 2435.53979
3026.0 0.0003305 481.55978 3058.98462
3824.0 0.0002615 481.71844 3862.61475
4669.0 0.0002142 481.87518 4881.75977
5956.0 0.0001679 482.03018 6182.17969
7795.0 0.0001283 482.18350 7906.60547
10547.0 0.0000948 482.33481 10359.27344
14757.0 0.0000678 482.48453 14090.12598
18832.0 0.0000531 482.63226 18149.55078
18004.0 0.0000555 482.77832 17248.34180
14288.0 0.0000700 482.92261 13790.84766
14622.0 0.0000684 483.06503 14231.35449
15585.0 0.0000642 483.20581 15148.35156
15920.0 0.0000628 483.34464 15359.09863
16948.0 0.0000590 483.48178 16831.50781
14150.0 0.0000707 483.61713 13864.25977
9898.0 0.0001010 483.75067 9839.19727
9540.0 0.0001048 483.88251 9537.08789
8546.0 0.0001170 484.01248 8519.75781
6081.0 0.0001644 484.14072 6121.69775
5161.0 0.0001938 484.26727 5589.51318
5621.0 0.0001779 484.39191 6346.63867
6707.0 0.0001491 484.51489 7640.07910
8057.0 0.0001241 484.63602 9372.86621
10475.0 0.0000955 484.75549 11678.16016
14092.0 0.0000710 484.87314 14881.23438
19655.0 0.0000509 484.98901 19784.13672
26922.0 0.0000371 485.10321 27444.06055
31434.0 0.00003181 485.21555 33558.62500
26269.0 0.0000381 485.32623 26346.67383
18161.0 0.0000551 485.43518 17741.59570
15712.0 0.0000636 485.54230 16622.43555
12314.0 0.0000812 485.64767 12728.66992
6269.0 0.0001595 485.75134 5828.51758
2745.0 0.000364 485.85327 2701.39673
1725.0 0.000580 485.95346 1782.06396
1396.0 0.000716 486.05185 1378.39380
1239.0 0.000807 486.14865 1159.19739
1083.0 0.000923 486.24359 1020.71527
1004.0 0.000996 486.33691 907.39038
930.0 0.001075 486.42847 835.68079
871.0 0.001148 486.51831 781.85468
801.0 0.001248 486.60641 743.11639
759.0 0.001318 486.69275 710.66272
753.0 0.001328 486.77750 684.75714
734.0 0.001362 486.86044 663.82587
689.0 0.001451 486.94174 650.16144
681.0 0.001468 487.02127 636.44861
688.0 0.001453 487.09915 625.29596
656.0 0.001524 487.17526 617.93939
635.0 0.001575 487.24976 552.91290
670.0 0.001493 487.32254 552.32642
698.0 0.001433 487.39359 552.82520
646.0 0.001548 487.46301 525.01343
676.0 0.001479 487.53076 530.54327
687.0 0.001456 487.59683 537.65942
695.0 0.001439 487.66113 547.48267
781.0 0.001280 487.72382 563.81995
768.0 0.001302 487.78488 596.68915
810.0 0.001235 487.84421 655.66626
916.0 0.001092 487.90182 740.02771
974.0 0.001027 487.95789 847.88306
1086.0 0.000921 488.01221 985.24164
1159.0 0.000863 488.06497 1157.60388
1357.0 0.000737 488.11603 1369.82031
1620.0 0.000617 488.16541 1635.42395
1954.0 0.000512 488.21317 1980.40918
2442.0 0.000410 488.25931 2443.42358
3319.0 0.0003013 488.30377 3099.67749
4446.0 0.0002249 488.34659 4121.13135
5706.0 0.0001753 488.38788 5478.06787
5731.0 0.0001745 488.42737 5734.38623
4136.0 0.0002418 488.46536 4225.28223
3701.0 0.0002702 488.50174 3691.30786
3844.0 0.0002601 488.53644 3854.04541
3180.0 0.0003145 488.56955 3254.45288
2815.0 0.000355 488.60107 2838.35474
3070.0 0.0003257 488.63095 3244.08130
3454.0 0.0002895 488.65924 3734.94458
2961.0 0.0003377 488.68594 3026.50928
2071.0 0.000483 488.71097 2166.96899
1904.0 0.000525 488.73447 2057.00732
1650.0 0.000606 488.75641 1785.45508
1044.0 0.000958 488.77670 1112.67188
742.0 0.001348 488.79541 760.27917
675.0 0.001481 488.81262 651.07343
599.0 0.001669 488.82825 607.15106
563.0 0.001776 488.84225 581.18011
552.0 0.001812 488.85474 563.70422
556.0 0.001799 488.86563 551.17938
549.0 0.001821 488.87494 541.79816
550.0 0.001818 488.88272 534.54016
569.0 0.001757 488.88892 519.31567
558.0 0.001792 488.89362 515.42657
542.0 0.001845 488.89673 512.26178
552.0 0.001812 488.89844 509.64642
532.0 0.001880 488.89850 503.00870
530.0 0.001887 488.89697 501.51520
548.0 0.001825 488.89398 500.24847
553.0 0.001808 488.88947 499.16318
568.0 0.001761 488.88345 492.67108
570.0 0.001754 488.87592 492.30566
523.0 0.001912 488.86688 491.98724
512.0 0.001953 488.85632 488.85126
535.0 0.001869 488.84427 488.83917
550.0 0.001818 488.83069 488.82562
567.0 0.001764 488.81561 498.98657
543.0 0.001842 488.79907 499.68384
526.0 0.001901 488.78104 500.45810
523.0 0.001912 488.76154 501.32202
529.0 0.001890 488.74060 507.52353
547.0 0.001828 488.71811 508.98721
547.0 0.001828 488.69418 510.63757
534.0 0.001873 488.66873 512.50751
529.0 0.001890 488.64191 514.64001
551.0 0.001815 488.61365 517.08875
544.0 0.001838 488.58386 519.91992
518.0 0.001931 488.55264 523.22345
537.0 0.001862 488.51999 527.11444
548.0 0.001825 488.48590 531.75201
602.0 0.001661 488.45038 537.35773
630.0 0.001587 488.41345 544.24438
628.0 0.001592 488.37503 552.89655
676.0 0.001479 488.33521 564.08490
713.0 0.001403 488.29401 579.28156
772.0 0.001295 488.25134 602.77686
851.0 0.001175 488.20740 648.63422
986.0 0.001014 488.16190 740.66058
1044.0 0.000958 488.11508 886.86914
1171.0 0.000854 488.06686 1082.00891
1454.0 0.000688 488.01721 1333.97437
1691.0 0.000591 487.96619 1656.19629
2012.0 0.000497 487.91385 2060.58960
2443.0 0.000409 487.86008 2561.87305
3037.0 0.0003293 487.80496 3199.64160
4066.0 0.0002459 487.74841 4052.91138
5660.0 0.0001767 487.69055 5294.17041
7750.0 0.0001290 487.63132 7254.08545
9624.0 0.0001039 487.57074 9524.82227
9178.0 0.0001090 487.50885 8912.58984
6186.0 0.0001617 487.44553 5803.66260
5088.0 0.0001965 487.38098 4906.63428
4802.0 0.0002082 487.31503 4899.31689
3331.0 0.0003002 487.24777 3198.76318
1690.0 0.000592 487.17917 1574.41199
973.0 0.001028 487.10919 988.37299
803.0 0.001245 487.03806 805.20612
750.0 0.001333 486.96539 737.31818
714.0 0.001401 486.89166 684.40692
693.0 0.001443 486.81650 649.49408
637.0 0.001570 486.74005 625.36450
613.0 0.001631 486.66226 618.60297
618.0 0.001618 486.58325 607.00818
620.0 0.001613 486.50296 598.89380
619.0 0.001616 486.42136 593.49561
615.0 0.001626 486.33850 590.30298
626.0 0.001597 486.25433 589.03796
622.0 0.001608 486.16898 589.47510
628.0 0.001592 486.08234 591.59192
634.0 0.001577 485.99445 595.44263
650.0 0.001538 485.90527 583.31512
689.0 0.001451 485.81491 592.73224
749.0 0.001335 485.72324 604.64771
740.0 0.001351 485.63040 619.83240
735.0 0.001361 485.53632 630.97797
862.0 0.001160 485.44095 657.95679
991.0 0.001009 485.34436 696.00256
1130.0 0.000885 485.24661 760.31879
1226.0 0.000816 485.14774 892.46417
1486.0 0.000673 485.04745 1135.33545
1797.0 0.000556 484.94608 1499.48206
2138.0 0.000468 484.84354 1967.33936
2551.0 0.000392 484.73975 2562.98193
3286.0 0.0003043 484.63492 3326.42236
3960.0 0.0002525 484.52881 4297.67139
5074.0 0.0001971 484.42142 5535.96973
6945.0 0.0001440 484.31296 7167.43994
9571.0 0.0001045 484.20325 9485.32422
13719.0 0.0000729 484.09253 13119.46289
19383.0 0.0000516 483.98056 17916.10742
19365.0 0.0000516 483.86743 18532.41797
12407.0 0.0000806 483.75320 12215.23633
9466.0 0.0001056 483.63779 9277.86816
10002.0 0.0001000 483.52127 9633.85742
7683.0 0.0001302 483.40363 7396.36865
3335.0 0.0002999 483.28482 3526.43677
1585.0 0.000631 483.16489 1776.91833
1092.0 0.000916 483.04385 1242.74792
911.0 0.001098 482.92178 1025.34021
826.0 0.001211 482.79852 893.87915
744.0 0.001344 482.67416 798.15240
710.0 0.001408 482.54880 733.22131
649.0 0.001541 482.42221 688.56732
658.0 0.001520 482.29468 655.61157
595.0 0.001681 482.16595 630.19141
606.0 0.001650 482.03613 610.07312
575.0 0.001739 481.90533 593.84558
560.0 0.001786 481.77338 580.53052
557.0 0.001795 481.64050 569.45837
499.0 0.002004 481.50650 560.13550
499.0 0.002004 481.37137 552.20099
538.0 0.001859 481.23529 508.04214
522.0 0.001916 481.09808 505.25543
532.0 0.001880 480.95993 502.84485
524.0 0.001908 480.82077 500.74084
493.0 0.002028 480.68045 480.88901
488.0 0.002049 480.53918 480.72754
474.0 0.002110 480.39688 480.46475
486.0 0.002058 480.25369 480.31464
485.0 0.002062 480.10934 480.16449
454.0 0.002203 479.96405 479.95972
452.0 0.002212 479.81781 479.81348
485.0 0.002062 479.67050 479.66626
489.0 0.002045 479.52228 479.51797
493.0 0.002028 479.37308 479.36874
487.0 0.002053 479.22281 479.21848
472.0 0.002119 479.07162 479.06738
468.0 0.002137 478.91949 478.91525
452.0 0.002212 478.76636 478.76212
442.0 0.002262 478.61234 478.60815
447.0 0.002237 478.45724 478.45300
453.0 0.002208 478.30139 478.29715
458.0 0.002183 478.14444 478.14029
492.0 0.002033 477.98669 477.98251
478.0 0.002092 477.82794 477.82376
466.0 0.002146 477.66818 477.66409
468.0 0.002137 477.50766 477.50351
503.0 0.001988 477.34619 477.34201
474.0 0.002110 477.18375 477.17960
481.0 0.002079 477.02048 477.01639
491.0 0.002037 476.85614 476.85211
459.0 0.002179 476.69116 476.68710
473.0 0.002114 476.52515 476.52106
502.0 0.001992 476.35828 476.35422
491.0 0.002037 476.19058 476.18649
485.0 0.002062 476.02191 476.01785
487.0 0.002053 475.85245 475.84845
439.0 0.002278 475.68204 475.67804
487.0 0.002053 475.51093 475.50696
463.0 0.002160 475.33890 475.33487
443.0 0.002257 475.16595 475.16196
464.0 0.002155 474.99222 474.98819
440.0 0.002273 474.81766 474.81369
487.0 0.002053 474.64221 474.63828
528.0 0.001894 474.46609 481.72327
472.0 0.002119 474.28897 482.04919
439.0 0.002278 474.11115 482.42883
426.0 0.002347 473.93237 482.87073
476.0 0.002101 473.75299 487.02982
469.0 0.002132 473.57272 487.88141
468.0 0.002137 473.39157 488.85968
463.0 0.002160 473.20969 489.98630
469.0 0.002132 473.02707 491.28955
510.0 0.001961 472.84369 492.80307
474.0 0.002110 472.65945 494.57074
488.0 0.002049 472.47449 496.64871
535.0 0.001869 472.28873 499.10773
524.0 0.001908 472.10223 502.04538
472.0 0.002119 471.91501 505.58987
553.0 0.001808 471.72705 509.92355
585.0 0.001709 471.53824 515.30792
533.0 0.001876 471.34879 522.13062
555.0 0.001802 471.15851 531.02155
608.0 0.001645 470.96765 543.10132
668.0 0.001497 470.77594 561.27820
709.0 0.001410 470.58356 595.21429
794.0 0.001259 470.39047 664.83429
863.0 0.001159 470.19662 780.20648
1019.0 0.000981 470.00214 943.89447
1227.0 0.000815 469.80701 1155.09216
1471.0 0.000680 469.61096 1425.67334
1780.0 0.000562 469.41440 1781.18042
2248.0 0.000445 469.21707 2243.52759
2917.0 0.0003428 469.01920 2867.48950
4045.0 0.0002472 468.82056 3774.57690
5757.0 0.0001737 468.62122 5191.10547
7309.0 0.0001368 468.42130 6762.85742
6600.0 0.0001515 468.22064 6233.60400
4405.0 0.0002270 468.01944 4026.98730
3626.0 0.0002758 467.81750 3363.91528
3757.0 0.0002662 467.61490 3613.64111
2931.0 0.0003412 467.41171 2883.06812
1657.0 0.000604 467.20792 1546.69690
945.0 0.001058 467.00342 933.36304
722.0 0.001385 466.79834 746.36279
620.0 0.001613 466.59259 670.44421
616.0 0.001623 466.38632 627.72534
583.0 0.001715 466.17944 601.36426
603.0 0.001658 465.97192 584.98615
574.0 0.001742 465.76373 575.62018
602.0 0.001661 465.55505 572.20160
598.0 0.001672 465.34576 576.01855
620.0 0.001613 465.13580 593.92053
689.0 0.001451 464.92538 637.67719
760.0 0.001316 464.71439 712.84222
828.0 0.001208 464.50269 814.22772
939.0 0.001065 464.29059 947.68634
1139.0 0.000878 464.07788 1124.19250
1324.0 0.000755 463.86459 1343.49011
1647.0 0.000607 463.65073 1651.75867
2199.0 0.000455 463.43631 2082.20850
2876.0 0.0003477 463.22153 2741.13867
4114.0 0.0002431 463.00601 3690.36279
4654.0 0.0002149 462.79007 4222.76123
3512.0 0.0002847 462.57361 3145.42505
2230.0 0.000448 462.35651 2206.68677
2329.0 0.000429 462.13901 2199.43091
2378.0 0.000421 461.92093 2235.58276
1682.0 0.000595 461.70251 1519.81128
873.0 0.001145 461.48337 898.79443
653.0 0.001531 461.26385 677.26678
556.0 0.001799 461.04379 606.14374
553.0 0.001808 460.82327 572.24915
547.0 0.001828 460.60233 552.60095
541.0 0.001848 460.38083 541.19269
539.0 0.001855 460.15881 536.38226
536.0 0.001866 459.93649 540.00055
542.0 0.001845 459.71359 554.58972
568.0 0.001761 459.49030 580.95038
581.0 0.001721 459.26651 616.86090
609.0 0.001642 459.04224 665.68335
680.0 0.001471 458.81760 732.17627
770.0 0.001299 458.59250 821.05621
898.0 0.001114 458.36694 941.49091
1120.0 0.000893 458.14105 1118.82153
1394.0 0.000717 457.91461 1389.64307
1718.0 0.000582 457.68787 1704.88513
1652.0 0.000605 457.46057 1634.01575
1267.0 0.000789 457.23303 1262.05811
1205.0 0.000830 457.00500 1188.68262
1275.0 0.000784 456.77652 1326.15552
1235.0 0.000810 456.54767 1334.11023
1180.0 0.000847 456.31851 1218.69165
1177.0 0.000850 456.08896 1281.52710
1421.0 0.000704 455.85898 1533.23926
1896.0 0.000527 455.62857 1964.66602
2232.0 0.000448 455.39789 2342.43701
1888.0 0.000530 455.16675 1975.51782
1348.0 0.000742 454.93546 1390.54944
1260.0 0.000794 454.70358 1288.69995
1296.0 0.000772 454.47144 1370.58411
1075.0 0.000930 454.23886 1128.34961
723.0 0.001383 454.00601 752.28473
546.0 0.001832 453.77289 586.70807
467.0 0.002141 453.53946 534.53333
446.0 0.002242 453.30548 511.71228
457.0 0.002188 453.07132 498.00180
458.0 0.002183 452.83682 488.77884
455.0 0.002198 452.60211 479.64832
452.0 0.002212 452.36697 474.91199
439.0 0.002278 452.13150 471.25482
467.0 0.002141 451.89572 468.34970
434.0 0.002304 451.65976 464.72202
437.0 0.002288 451.42346 462.86139
417.0 0.002398 451.18686 461.29120
424.0 0.002358 450.94992 459.94473
402.0 0.002488 450.71277 458.77444
441.0 0.002268 450.47531 457.74380
406.0 0.002463 450.23770 453.02795
392.0 0.002551 449.99973 452.51431
414.0 0.002415 449.76144 452.03928
416.0 0.002404 449.52304 451.59622
419.0 0.002387 449.28421 449.28156
427.0 0.002342 449.04532 449.04263
406.0 0.002463 448.80609 448.80344
427.0 0.002342 448.56650 448.56387
416.0 0.002404 448.32690 448.32425
435.0 0.002299 448.08685 448.08432
446.0 0.002242 447.84677 447.84427
402.0 0.002488 447.60645 447.60382
399.0 0.002506 447.36572 447.36322
424.0 0.002358 447.12503 447.12247
402.0 0.002488 446.88394 446.88144
443.0 0.002257 446.64273 446.64023
404.0 0.002475 446.40134 446.39886
377.0 0.002653 446.15970 446.15717
399.0 0.002506 445.91794 445.91544
399.0 0.002506 445.67590 445.67343
415.0 0.002410 445.43384 445.43127
443.0 0.002257 445.19144 445.18890
415.0 0.002410 444.94885 444.94644
418.0 0.002392 444.70618 444.70377
431.0 0.002320 444.46335 444.46088
406.0 0.002463 444.22037 444.21793
416.0 0.002404 443.97717 443.97482
408.0 0.002451 443.73380 443.73141
396.0 0.002525 443.49042 443.48804
420.0 0.002381 443.24673 443.24435
443.0 0.002257 443.00311 443.00064
417.0 0.002398 442.75919 442.75681
409.0 0.002445 442.51505 442.51273
428.0 0.002336 442.27094 442.26868
439.0 0.002278 442.02667 442.02438
413.0 0.002421 441.78235 447.67923
417.0 0.002398 441.53784 447.83072
453.0 0.002208 441.29324 448.02362
443.0 0.002257 441.04852 448.26392
436.0 0.002294 440.80371 452.45587
465.0 0.002151 440.55878 456.16290
448.0 0.002232 440.31378 457.10425
436.0 0.002294 440.06870 458.18854
433.0 0.002309 439.82352 463.65549
424.0 0.002358 439.57825 465.38940
436.0 0.002294 439.33295 467.38660
426.0 0.002347 439.08755 469.69852
428.0 0.002336 438.84201 472.38937
444.0 0.002252 438.59650 476.74399
444.0 0.002252 438.35089 480.54407
479.0 0.002088 438.10529 485.05801
480.0 0.002083 437.85950 490.47858
508.0 0.001969 437.61368 497.07269
543.0 0.001842 437.36798 505.21588
600.0 0.001667 437.12213 515.48486
553.0 0.001808 436.87622 528.78711
638.0 0.001567 436.63031 546.82593
707.0 0.001414 436.38437 574.20758
738.0 0.001355 436.13840 624.36444
820.0 0.001220 435.89236 718.61969
996.0 0.001004 435.64642 865.71918
1160.0 0.000862 435.40036 1073.23608
1402.0 0.000713 435.15424 1363.39099
1735.0 0.000576 434.90829 1759.00208
2201.0 0.000454 434.66226 2301.47437
2882.0 0.0003470 434.41620 3060.78906
4249.0 0.0002353 434.17020 4189.04150
5743.0 0.0001741 433.92416 5819.38525
6702.0 0.0001492 433.67816 7081.68750
6050.0 0.0001653 433.43219 6268.75195
5674.0 0.0001762 433.18622 5693.22705
6431.0 0.0001555 432.94025 6429.71338
6153.0 0.0001625 432.69437 6373.91553
4988.0 0.0002005 432.44852 4935.49023
4172.0 0.0002397 432.20258 3990.48193
4450.0 0.0002247 431.95685 4222.27197
4249.0 0.0002353 431.71115 4028.53320
2726.0 0.000367 431.46536 2576.04785
1772.0 0.000564 431.21970 1703.49487
1639.0 0.000610 430.97403 1580.95178
1605.0 0.000623 430.72858 1593.82520
1255.0 0.000797 430.48306 1223.02441
810.0 0.001235 430.23758 825.36945
640.0 0.001563 429.99228 657.41528
590.0 0.001695 429.74701 595.51392
560.0 0.001786 429.50180 562.86365
532.0 0.001880 429.25674 541.37549
487.0 0.002053 429.01166 526.16504
480.0 0.002083 428.76669 515.00732
489.0 0.002045 428.52185 506.66623
486.0 0.002058 428.27716 489.44537
476.0 0.002101 428.03241 485.75647
484.0 0.002066 427.78784 483.35501
509.0 0.001965 427.54340 475.05383
501.0 0.001996 427.29907 469.94107
493.0 0.002028 427.05487 472.03314
527.0 0.001898 426.81070 477.11807
526.0 0.001901 426.56674 474.16846
522.0 0.001916 426.32288 482.43106
568.0 0.001761 426.07904 494.57513
625.0 0.001600 425.83548 516.32080
682.0 0.001466 425.59204 559.10547
747.0 0.001339 425.34866 636.12219
810.0 0.001235 425.10547 757.91138
887.0 0.001127 424.86234 916.87878
1082.0 0.000924 424.61954 1126.46985
1392.0 0.000718 424.37674 1412.68591
1753.0 0.000570 424.13406 1810.26196
2376.0 0.000421 423.89163 2396.95068
3313.0 0.0003018 423.64932 3302.69702
4354.0 0.0002297 423.40723 4286.61914
3817.0 0.0002620 423.16534 3966.41919
2462.0 0.000406 422.92343 2563.87012
2053.0 0.000487 422.68182 2059.28931
2243.0 0.000446 422.44040 2274.04639
2330.0 0.000429 422.19922 2302.08594
1582.0 0.000632 421.95810 1518.92114
796.0 0.001256 421.71719 897.40405
612.0 0.001634 421.47650 680.91833
581.0 0.001721 421.23599 621.01434
608.0 0.001645 420.99573 612.57623
599.0 0.001669 420.75558 634.09052
649.0 0.001541 420.51566 677.51758
697.0 0.001435 420.27600 746.49646
769.0 0.001300 420.03647 845.47961
911.0 0.001098 419.79727 987.43835
1146.0 0.000873 419.55823 1205.74036
1497.0 0.000668 419.31931 1542.31616
1826.0 0.000548 419.08072 1878.14526
1703.0 0.000587 418.84225 1697.91589
1164.0 0.000859 418.60413 1209.10608
1003.0 0.000997 418.36624 1063.64954
1136.0 0.000880 418.12842 1149.57654
1176.0 0.000850 417.89102 1161.69019
972.0 0.001029 417.65381 903.05652
827.0 0.001209 417.41681 747.88165
790.0 0.001266 417.18015 769.70496
875.0 0.001143 416.94360 897.92682
1038.0 0.000963 416.70746 1082.21130
1336.0 0.000749 416.47144 1335.18726
1731.0 0.000578 416.23575 1697.53894
2294.0 0.000436 416.00034 2224.99463
3231.0 0.0003095 415.76501 3038.57764
4316.0 0.0002317 415.53012 4143.44189
4457.0 0.0002244 415.29550 4535.84912
3212.0 0.0003113 415.06122 3172.06909
2215.0 0.000451 414.82703 2188.17212
2218.0 0.000451 414.59314 2197.38062
2444.0 0.000409 414.35974 2470.92627
2002.0 0.000500 414.12643 2005.73816
1153.0 0.000867 413.89352 1145.33081
699.0 0.001431 413.66083 742.34705
560.0 0.001786 413.42838 617.55780
554.0 0.001805 413.19632 572.66132
563.0 0.001776 412.96454 555.76526
550.0 0.001818 412.73309 548.16583
525.0 0.001905 412.50189 525.80353
513.0 0.001949 412.27094 493.65131
455.0 0.002198 412.04041 478.81168
477.0 0.002096 411.81021 476.24939
494.0 0.002024 411.58023 471.97845
446.0 0.002242 411.35068 455.78278
410.0 0.002439 411.12137 442.33707
380.0 0.002632 410.89240 435.78769
408.0 0.002451 410.66373 432.09201
374.0 0.002674 410.43552 419.67108
407.0 0.002457 410.20746 418.26511
371.0 0.002695 409.97980 417.10324
379.0 0.002639 409.75253 416.11313
392.0 0.002551 409.52548 415.24951
370.0 0.002703 409.29892 409.88071
376.0 0.002660 409.07269 409.57321
392.0 0.002551 408.84671 409.28238
369.0 0.002710 408.62115 409.00400
357.0 0.002801 408.39590 408.73523
363.0 0.002755 408.17105 408.47394
401.0 0.002494 407.94653 408.21860
387.0 0.002584 407.72229 407.82928
369.0 0.002710 407.49857 407.59451
379.0 0.002639 407.27512 407.36160
374.0 0.002674 407.05212 407.13049
403.0 0.002481 406.82941 406.82837
348.0 0.002874 406.60703 406.60605
368.0 0.002717 406.38510 406.38416
362.0 0.002762 406.16351 406.16260
360.0 0.002778 405.94241 405.94144
425.0 0.002353 405.72159 405.72067
363.0 0.002755 405.50113 405.50018
344.0 0.002907 405.28113 405.28021
368.0 0.002717 405.06149 405.06055
382.0 0.002618 404.84229 404.84134
375.0 0.002667 404.62341 404.62250
339.0 0.002950 404.40497 404.40402
345.0 0.002899 404.18689 404.18600
378.0 0.002646 403.96924 403.96841
380.0 0.002632 403.75201 403.75116
375.0 0.002667 403.53522 403.53427
390.0 0.002564 403.31870 403.31787
368.0 0.002717 403.10272 403.10187
349.0 0.002865 402.88715 402.88626
382.0 0.002618 402.67200 402.67114
408.0 0.002451 402.45718 402.45636
377.0 0.002653 402.24283 402.24191
356.0 0.002809 402.02887 402.02802
376.0 0.002660 401.81534 401.81448
379.0 0.002639 401.60229 401.60144
369.0 0.002710 401.38965 401.38879
384.0 0.002604 401.17743 401.17654
364.0 0.002747 400.96567 400.96484
341.0 0.002933 400.75424 400.75348
361.0 0.002770 400.54346 400.54257
375.0 0.002667 400.33295 400.33215
367.0 0.002725 400.12283 400.12207
386.0 0.002591 399.91327 399.91251
386.0 0.002591 399.70410 399.70331
353.0 0.002833 399.49548 399.49463
379.0 0.002639 399.28720 399.28641
374.0 0.002674 399.07935 399.07855
365.0 0.002740 398.87207 398.87131
395.0 0.002532 398.66510 398.66437
373.0 0.002681 398.45874 398.45807
392.0 0.002551 398.25281 398.25208
355.0 0.002817 398.04724 398.04654
372.0 0.002688 397.84225 397.84152
380.0 0.002632 397.63763 397.63690
375.0 0.002667 397.43353 397.43283
372.0 0.002688 397.22989 397.22925
371.0 0.002695 397.02664 397.02594
369.0 0.002710 396.82404 396.82333
389.0 0.002571 396.62186 396.62112
411.0 0.002433 396.42010 396.41937
385.0 0.002597 396.21884 396.21817
403.0 0.002481 396.01807 396.01740
393.0 0.002545 395.81772 395.81705
403.0 0.002481 395.61795 395.61728
354.0 0.002825 395.41864 395.41800
400.0 0.002500 395.21979 395.21915
377.0 0.002653 395.02142 395.02072
374.0 0.002674 394.82364 394.82297
369.0 0.002710 394.62619 394.62555
401.0 0.002494 394.42935 394.42874
391.0 0.002558 394.23300 396.46942
380.0 0.002632 394.03711 396.42276
364.0 0.002747 393.84177 396.39224
389.0 0.002571 393.64688 396.37994
380.0 0.002632 393.45261 396.38855
386.0 0.002591 393.25876 397.54886
381.0 0.002625 393.06531 397.68527
404.0 0.002475 392.87253 397.86224
405.0 0.002469 392.68018 398.08655
388.0 0.002577 392.48840 398.36667
385.0 0.002597 392.29712 398.71289
372.0 0.002688 392.10629 407.91742
377.0 0.002653 391.91605 409.02765
416.0 0.002404 391.72629 410.31665
403.0 0.002481 391.53705 411.82025
406.0 0.002463 391.34839 413.58627
428.0 0.002336 391.16019 420.09402
420.0 0.002381 390.97260 422.89008
401.0 0.002494 390.78546 426.24271
399.0 0.002506 390.59888 430.32108
416.0 0.002404 390.41281 439.39230
452.0 0.002212 390.22717 446.12079
485.0 0.002062 390.04221 455.01193
520.0 0.001923 389.85770 468.00922
547.0 0.001828 389.67392 490.74948
600.0 0.001667 389.49045 536.34448
639.0 0.001565 389.30756 602.61108
673.0 0.001486 389.12527 698.36554
819.0 0.001221 388.94351 824.21698
1019.0 0.000981 388.76230 992.91522
1276.0 0.000784 388.58167 1242.00122
1713.0 0.000584 388.40149 1626.94568
2242.0 0.000446 388.22192 2147.38428
2475.0 0.000404 388.04288 2371.44604
1976.0 0.000506 387.86435 1816.54944
1589.0 0.000629 387.68649 1428.72705
1654.0 0.000605 387.50903 1559.80859
1990.0 0.000503 387.33221 1973.35352
2153.0 0.000464 387.15594 2301.62012
2237.0 0.000447 386.98029 2407.07446
2586.0 0.000387 386.80515 2812.65259
3378.0 0.0002960 386.63043 3719.26172
5038.0 0.0001985 386.45642 5252.37793
6903.0 0.0001449 386.28296 7186.10059
6748.0 0.0001482 386.11014 7421.20605
4406.0 0.0002270 385.93777 4957.64258
3121.0 0.0003204 385.76590 3609.83716
3620.0 0.0002762 385.59479 3878.47363
4480.0 0.0002232 385.42410 4743.07666
4566.0 0.0002190 385.25397 4713.59277
3635.0 0.0002751 385.08456 3773.53467
3744.0 0.0002671 384.91559 3746.80298
4065.0 0.0002460 384.74722 4054.27246
3125.0 0.0003200 384.57938 3210.85376
2129.0 0.000470 384.41223 2276.69043
2031.0 0.000492 384.24564 2184.92114
2633.0 0.000380 384.07947 2621.65454
2943.0 0.0003398 383.91403 2944.17065
2339.0 0.000428 383.74918 2277.90283
1346.0 0.000743 383.58484 1372.56201
914.0 0.001094 383.42117 1004.42462
937.0 0.001067 383.25793 963.58411
988.0 0.001012 383.09543 996.55835
824.0 0.001214 382.93341 868.34692
639.0 0.001565 382.77209 650.62616
467.0 0.002141 382.61121 538.04364
466.0 0.002146 382.45102 494.67227
437.0 0.002288 382.29132 472.92831
427.0 0.002342 382.13226 457.43549
404.0 0.002475 381.97388 447.04407
392.0 0.002551 381.81601 439.11664
421.0 0.002375 381.65872 432.89331
407.0 0.002457 381.50214 427.93594
401.0 0.002494 381.34601 423.97913
412.0 0.002427 381.19052 412.03433
417.0 0.002398 381.03564 410.34531
406.0 0.002463 380.88132 412.31540
393.0 0.002545 380.72769 414.08780
396.0 0.002525 380.57462 419.18524
415.0 0.002410 380.42209 423.63498
414.0 0.002415 380.27029 436.90359
429.0 0.002331 380.11893 457.02899
462.0 0.002165 379.96823 483.54041
483.0 0.002070 379.81812 521.71338
532.0 0.001880 379.66870 584.55096
570.0 0.001754 379.51981 634.05884
534.0 0.001873 379.37152 582.43475
471.0 0.002123 379.22391 502.43353
453.0 0.002208 379.07684 478.36505
450.0 0.002222 378.93045 495.34006
453.0 0.002208 378.78455 510.77368
439.0 0.002278 378.63937 475.99475
400.0 0.002500 378.49478 430.21866
374.0 0.002674 378.35074 410.56677
398.0 0.002513 378.20737 405.69394
410.0 0.002439 378.06464 405.18396
417.0 0.002398 377.92239 406.64389
407.0 0.002457 377.78094 409.75064
453.0 0.002208 377.63995 414.77396
454.0 0.002203 377.49966 424.25342
473.0 0.002114 377.35995 438.01086
522.0 0.001916 377.22083 465.92822
571.0 0.001751 377.08237 519.95923
663.0 0.001508 376.94446 605.43744
743.0 0.001346 376.80731 728.19934
885.0 0.001130 376.67072 892.19733
1123.0 0.000890 376.53464 1119.56677
1599.0 0.000625 376.39935 1475.48840
2244.0 0.000446 376.26462 2009.17090
2622.0 0.000381 376.13040 2469.30762
2158.0 0.000463 375.99695 2088.94507
1314.0 0.000761 375.86398 1372.02405
1133.0 0.000883 375.73181 1151.13330
1326.0 0.000754 375.60016 1274.98230
1487.0 0.000672 375.46918 1432.59265
1239.0 0.000807 375.33871 1188.84790
761.0 0.001314 375.20895 762.75366
569.0 0.001757 375.07990 561.25665
469.0 0.002132 374.95123 495.30801
473.0 0.002114 374.82339 470.07675
477.0 0.002096 374.69623 458.11902
471.0 0.002123 374.56952 453.30655
500.0 0.002000 374.44357 455.36584
522.0 0.001916 374.31818 465.93716
520.0 0.001923 374.19339 488.83359
568.0 0.001761 374.06934 531.99261
606.0 0.001650 373.94574 600.59888
727.0 0.001376 373.82294 697.79858
875.0 0.001143 373.70071 847.03278
1033.0 0.000968 373.57910 1070.79224
1447.0 0.000691 373.45816 1419.83765
1899.0 0.000527 373.33777 1880.91577
2041.0 0.000490 373.21808 2140.56445
1908.0 0.000524 373.09894 1931.18140
1942.0 0.000515 372.98050 1960.80835
2391.0 0.000418 372.86276 2371.88599
2499.0 0.000400 372.74554 2537.16992
1961.0 0.000510 372.62897 1998.34766
1395.0 0.000717 372.51312 1404.95862
1210.0 0.000826 372.39786 1186.77014
1257.0 0.000796 372.28317 1257.44543
1219.0 0.000820 372.16916 1248.78357
998.0 0.001002 372.05582 940.82355
750.0 0.001333 371.94308 729.90649
696.0 0.001437 371.83093 704.00623
773.0 0.001294 371.71948 766.15900
866.0 0.001155 371.60861 888.22260
1114.0 0.000898 371.49841 1092.83398
1507.0 0.000664 371.38882 1421.67432
1853.0 0.000540 371.27991 1789.25671
1711.0 0.000584 371.17160 1734.09082
1265.0 0.000791 371.06390 1334.67883
1235.0 0.000810 370.95688 1244.35669
1499.0 0.000667 370.85052 1455.31470
1954.0 0.000512 370.74475 1846.93384
2210.0 0.000452 370.63962 2156.69165
2059.0 0.000486 370.53513 2019.53699
1358.0 0.000736 370.43130 1410.62451
919.0 0.001088 370.32806 990.76715
851.0 0.001175 370.22549 920.54987
1042.0 0.000960 370.12363 1021.20685
1079.0 0.000927 370.02228 1075.66638
810.0 0.001235 369.92163 842.40009
533.0 0.001876 369.82159 593.46448
467.0 0.002141 369.72220 488.28098
426.0 0.002347 369.62344 451.51151
439.0 0.002278 369.52533 432.12698
404.0 0.002475 369.42783 421.08072
458.0 0.002183 369.33096 414.64828
404.0 0.002475 369.23483 410.58871
429.0 0.002331 369.13922 408.23608
417.0 0.002398 369.04434 406.26779
430.0 0.002326 368.94998 406.76654
414.0 0.002415 368.85635 408.76535
463.0 0.002160 368.76331 412.70432
495.0 0.002020 368.67099 419.77393
435.0 0.002299 368.57916 433.73694
478.0 0.002092 368.48813 463.49118
505.0 0.001980 368.39761 517.50830
611.0 0.001637 368.30771 602.04352
739.0 0.001353 368.21854 714.78564
881.0 0.001135 368.12997 878.56140
1115.0 0.000897 368.04202 1123.43176
1537.0 0.000651 367.95474 1501.80652
1924.0 0.000520 367.86813 1922.70605
1784.0 0.000561 367.78207 1842.50574
1205.0 0.000830 367.69669 1246.96729
937.0 0.001067 367.61188 954.03766
1018.0 0.000982 367.52783 981.77240
1119.0 0.000894 367.44434 1137.13623
1097.0 0.000912 367.36148 1132.81628
824.0 0.001214 367.27924 802.77997
558.0 0.001792 367.19772 555.38672
450.0 0.002222 367.11670 462.44958
411.0 0.002433 367.03641 429.12921
402.0 0.002488 366.95676 412.27026
370.0 0.002703 366.87766 401.75928
370.0 0.002703 366.79932 394.63422
383.0 0.002611 366.72150 389.53271
368.0 0.002717 366.64435 385.73007
375.0 0.002667 366.56784 382.80203
396.0 0.002525 366.49185 381.99060
393.0 0.002545 366.41666 380.22403
382.0 0.002618 366.34201 378.80017
395.0 0.002532 366.26807 377.64230
383.0 0.002611 366.19470 376.69528
351.0 0.002849 366.12198 376.65182
358.0 0.002793 366.04987 376.06882
404.0 0.002475 365.97836 375.61411
422.0 0.002370 365.90759 375.27420
403.0 0.002481 365.83731 375.04034
389.0 0.002571 365.76773 382.28745
375.0 0.002667 365.69879 382.75113
378.0 0.002646 365.63046 383.37146
397.0 0.002519 365.56274 384.16327
359.0 0.002786 365.49570 383.04654
334.0 0.002994 365.42920 387.97247
387.0 0.002584 365.36340 389.80109
392.0 0.002551 365.29819 391.96619
392.0 0.002551 365.23361 394.54950
385.0 0.002597 365.16968 397.66797
398.0 0.002513 365.10635 400.49411
437.0 0.002288 365.04367 405.33508
412.0 0.002427 364.98163 411.55319
435.0 0.002299 364.92010 419.97632
495.0 0.002020 364.85938 432.90204
495.0 0.002020 364.79904 456.66376
524.0 0.001908 364.73953 498.26505
604.0 0.001656 364.68051 560.39893
665.0 0.001504 364.62228 651.89716
770.0 0.001299 364.56451 776.21112
1005.0 0.000995 364.50739 957.45184
1307.0 0.000765 364.45090 1240.34717
1638.0 0.000611 364.39505 1561.55750
1765.0 0.000567 364.33978 1552.41943
1290.0 0.000775 364.28513 1180.03418
1144.0 0.000874 364.23117 1060.44263
1303.0 0.000767 364.17776 1257.11865
1647.0 0.000607 364.12494 1654.10120
2047.0 0.000489 364.07278 2113.08521
2427.0 0.000412 364.02127 2492.91943
3227.0 0.0003099 363.97031 3162.33130
4604.0 0.0002172 363.91998 4433.75244
5816.0 0.0001719 363.87027 5816.36133
5201.0 0.0001923 363.82123 5353.71143
3164.0 0.0003161 363.77274 3292.65649
2091.0 0.000478 363.72482 2342.87109
2315.0 0.000432 363.67755 2451.89502
2925.0 0.0003419 363.63089 2999.32495
2955.0 0.0003384 363.58484 3098.82520
2050.0 0.000488 363.53937 2025.32874
1094.0 0.000914 363.49460 1111.97046
719.0 0.001391 363.45038 759.21362
602.0 0.001661 363.40677 646.20740
568.0 0.001761 363.36377 607.18347
574.0 0.001742 363.32129 600.46948
603.0 0.001658 363.27951 621.79358
657.0 0.001522 363.23837 677.26129
713.0 0.001403 363.19769 753.45300
727.0 0.001376 363.15771 760.77399
694.0 0.001441 363.11835 669.08459
623.0 0.001605 363.07956 639.04144
679.0 0.001473 363.04138 688.45776
787.0 0.001271 363.00375 797.33002
924.0 0.001082 362.96680 939.61267
1088.0 0.000919 362.93045 1079.96802
1124.0 0.000890 362.89456 1165.04395
971.0 0.001030 362.85941 1027.40894
874.0 0.001144 362.82483 896.96069
923.0 0.001083 362.79074 955.68604
1112.0 0.000899 362.75739 1168.21448
1482.0 0.000675 362.72455 1486.83521
1693.0 0.000591 362.69232 1645.38403
1281.0 0.000781 362.66074 1293.76440
867.0 0.001153 362.62964 871.18036
697.0 0.001435 362.59918 735.88934
766.0 0.001305 362.56934 774.16296
910.0 0.001099 362.54004 867.00336
894.0 0.001119 362.51132 835.79926
700.0 0.001429 362.48325 622.20178
485.0 0.002062 362.45569 480.90869
427.0 0.002342 362.42877 427.79916
392.0 0.002551 362.40237 407.42786
387.0 0.002584 362.37665 396.49396
378.0 0.002646 362.35144 389.44318
374.0 0.002674 362.32687 384.52826
377.0 0.002653 362.30283 380.92538
374.0 0.002674 362.27948 378.18475
384.0 0.002604 362.25656 376.03635
402.0 0.002488 362.23431 373.90268
365.0 0.002740 362.21255 372.51886
385.0 0.002597 362.19147 371.37097
384.0 0.002604 362.17093 370.40659
390.0 0.002564 362.15094 369.58621
365.0 0.002740 362.13150 369.13406
356.0 0.002809 362.11267 368.34286
374.0 0.002674 362.09442 366.95288
370.0 0.002703 362.07666 366.57007
345.0 0.002899 362.05963 366.23730
354.0 0.002825 362.04300 365.94772
353.0 0.002833 362.02704 365.82413
365.0 0.002740 362.01163 365.61310
385.0 0.002597 361.99677 365.00604
359.0 0.002786 361.98251 363.57718
366.0 0.002732 361.96878 363.55228
376.0 0.002660 361.95563 363.54330
352.0 0.002841 361.94302 363.55090
331.0 0.003021 361.93100 363.57639
357.0 0.002801 361.91946 362.95364
363.0 0.002755 361.90863 363.06253
337.0 0.002967 361.89825 363.19464
340.0 0.002941 361.88840 363.35626
357.0 0.002801 361.87921 363.55612
335.0 0.002985 361.87042 364.44095
354.0 0.002825 361.86234 364.80157
364.0 0.002747 361.85477 365.26303
342.0 0.002924 361.84772 365.87048
361.0 0.002770 361.84119 366.70276
383.0 0.002611 361.83536 367.93359
384.0 0.002604 361.82993 370.38483
370.0 0.002703 361.82507 374.63712
390.0 0.002564 361.82077 382.36136
396.0 0.002525 361.81705 394.41220
432.0 0.002315 361.81384 413.04291
461.0 0.002169 361.81113 438.40613
490.0 0.002041 361.80902 476.71942
566.0 0.001767 361.80753 529.34589
599.0 0.001669 361.80643 556.90588
526.0 0.001901 361.80594 501.11429
425.0 0.002353 361.80603 444.54395
422.0 0.002370 361.80652 431.21811
428.0 0.002336 361.80768 444.59198
491.0 0.002037 361.80936 465.22931
473.0 0.002114 361.81152 459.32208
413.0 0.002421 361.81427 420.40793
401.0 0.002494 361.81747 396.02097
397.0 0.002519 361.82123 388.76169
399.0 0.002506 361.82553 388.75040
387.0 0.002584 361.83035 392.47769
422.0 0.002370 361.83575 401.92670
420.0 0.002381 361.84155 420.57407
449.0 0.002227 361.84802 450.32071
517.0 0.001934 361.85492 493.92218
518.0 0.001931 361.86240 557.60950
645.0 0.001550 361.87039 653.60144
799.0 0.001252 361.87885 787.43793
954.0 0.001048 361.88788 867.51288
816.0 0.001225 361.89740 740.89746
622.0 0.001608 361.90744 602.95807
629.0 0.001590 361.91800 587.56873
658.0 0.001520 361.92905 660.67395
799.0 0.001252 361.94058 783.20953
852.0 0.001174 361.95267 879.70367
924.0 0.001082 361.96536 933.72406
1057.0 0.000946 361.97842 1094.75562
1387.0 0.000721 361.99203 1374.21350
1446.0 0.000692 362.00613 1484.56580
1170.0 0.000855 362.02081 1127.46094
804.0 0.001244 362.03592 823.87048
766.0 0.001305 362.05157 776.34229
904.0 0.001106 362.06769 875.44177
1025.0 0.000976 362.08435 1024.59619
1028.0 0.000973 362.10144 1030.56128
924.0 0.001082 362.11905 865.94202
767.0 0.001304 362.13721 728.69366
604.0 0.001656 362.15582 583.57050
521.0 0.001919 362.17493 498.96420
514.0 0.001946 362.19452 483.33896
529.0 0.001890 362.21466 496.26593
531.0 0.001883 362.23523 516.43427
499.0 0.002004 362.25623 495.37970
467.0 0.002141 362.27786 439.23511
429.0 0.002331 362.29996 406.36832
407.0 0.002457 362.32245 395.95490
378.0 0.002646 362.34549 390.83652
356.0 0.002809 362.36893 388.08032
372.0 0.002688 362.39291 385.79276
366.0 0.002732 362.41736 384.98672
398.0 0.002513 362.44232 384.72919
416.0 0.002404 362.46771 384.92441
423.0 0.002364 362.49365 385.53162
419.0 0.002387 362.51996 386.54825
386.0 0.002591 362.54681 387.66495
429.0 0.002331 362.57407 390.34824
406.0 0.002463 362.60193 392.95816
420.0 0.002381 362.63019 396.31348
431.0 0.002320 362.65884 399.05188
427.0 0.002342 362.68805 404.77872
468.0 0.002137 362.71771 412.33746
459.0 0.002179 362.74774 422.96283
502.0 0.001992 362.77838 437.58521
558.0 0.001792 362.80930 460.45569
586.0 0.001706 362.84082 502.20071
635.0 0.001575 362.87277 588.44403
828.0 0.001208 362.90515 735.34552
1010.0 0.000990 362.93802 966.06842
1347.0 0.000742 362.97141 1294.86316
1931.0 0.000518 363.00507 1802.60010
2963.0 0.0003375 363.03934 2538.67261
3766.0 0.0002655 363.07397 3263.64697
3261.0 0.0003067 363.10904 2937.89551
1870.0 0.000535 363.14462 1853.87793
1257.0 0.000796 363.18063 1339.89099
1359.0 0.000736 363.21710 1369.91589
1716.0 0.000583 363.25391 1657.51123
1991.0 0.000502 363.29129 1895.25366
1680.0 0.000595 363.32910 1533.49951
1017.0 0.000983 363.36722 944.10223
702.0 0.001425 363.40585 654.43536
589.0 0.001698 363.44501 562.87628
549.0 0.001821 363.48447 542.94586
577.0 0.001733 363.52448 555.10217
605.0 0.001653 363.56482 594.91772
706.0 0.001416 363.60568 665.83698
879.0 0.001138 363.64682 779.67316
1034.0 0.000967 363.68851 912.44836
999.0 0.001001 363.73062 902.67316
763.0 0.001311 363.77310 713.89215
633.0 0.001580 363.81607 604.24890
659.0 0.001517 363.85941 598.67139
708.0 0.001412 363.90314 646.82123
786.0 0.001272 363.94739 705.77502
751.0 0.001332 363.99191 683.89954
667.0 0.001499 364.03696 590.86230
682.0 0.001466 364.08240 548.34259
710.0 0.001408 364.12827 555.78143
725.0 0.001379 364.17456 597.28955
801.0 0.001248 364.22116 690.84210
992.0 0.001008 364.26825 885.04260
1276.0 0.000784 364.31577 1201.52478
1709.0 0.000585 364.36362 1706.72046
2374.0 0.000421 364.41196 2416.25342
3586.0 0.0002789 364.46066 3534.35449
5314.0 0.0001882 364.50970 5044.05664
6038.0 0.0001656 364.55923 5881.93359
4505.0 0.0002220 364.60910 4328.07764
2561.0 0.000390 364.65939 2593.52490
1942.0 0.000515 364.71005 2082.39893
2333.0 0.000429 364.76117 2354.71924
3007.0 0.0003326 364.81262 2965.50244
3325.0 0.0003008 364.86447 3179.56738
2440.0 0.000410 364.91675 2206.06812
1339.0 0.000747 364.96936 1258.15698
906.0 0.001104 365.02237 884.31281
822.0 0.001217 365.07578 803.05597
854.0 0.001171 365.12955 840.48773
996.0 0.001004 365.18372 951.33862
1186.0 0.000843 365.23819 1163.01575
1584.0 0.000631 365.29321 1476.84290
1903.0 0.000525 365.34851 1710.25403
1670.0 0.000599 365.40417 1501.04822
1297.0 0.000771 365.46027 1247.40479
1269.0 0.000788 365.51666 1241.90955
1570.0 0.000637 365.57339 1466.59399
2227.0 0.000449 365.63065 1838.89160
2290.0 0.000437 365.68814 1964.07422
1680.0 0.000595 365.74600 1463.03613
1000.0 0.001000 365.80426 1015.52979
882.0 0.001134 365.86288 864.60510
983.0 0.001017 365.92191 887.06183
1096.0 0.000912 365.98120 985.73566
1157.0 0.000864 366.04092 998.78668
1002.0 0.000998 366.10101 841.19531
843.0 0.001186 366.16141 762.73071
915.0 0.001093 366.22205 816.38043
1064.0 0.000940 366.28329 1005.79419
1422.0 0.000703 366.34476 1328.10730
1890.0 0.000529 366.40656 1852.47314
2490.0 0.000402 366.46872 2563.70557
3051.0 0.0003278 366.53125 3126.94922
3264.0 0.0003064 366.59409 3311.76636
3594.0 0.0002782 366.65738 3668.43604
3610.0 0.0002770 366.72079 3708.97192
2928.0 0.0003415 366.78467 2982.15967
2229.0 0.000449 366.84891 2309.62964
1961.0 0.000510 366.91351 2103.41846
1905.0 0.000525 366.97836 1997.85608
1897.0 0.000527 367.04361 2053.89624
1806.0 0.000554 367.10913 1957.71509
1425.0 0.000702 367.17502 1446.65637
947.0 0.001056 367.24124 924.92578
701.0 0.001427 367.30777 684.10919
647.0 0.001546 367.37460 605.24677
640.0 0.001563 367.44186 594.80798
661.0 0.001513 367.50931 631.15338
720.0 0.001389 367.57721 712.55957
895.0 0.001117 367.64529 846.37195
1174.0 0.000852 367.71378 1062.97375
1498.0 0.000668 367.78259 1371.00781
1667.0 0.000600 367.85162 1605.67603
1403.0 0.000713 367.92108 1363.73242
960.0 0.001042 367.99084 957.96771
803.0 0.001245 368.06085 812.94165
847.0 0.001181 368.13120 870.10535
1074.0 0.000931 368.20184 1037.64233
1254.0 0.000797 368.27283 1215.76160
1251.0 0.000799 368.34402 1201.18689
1155.0 0.000866 368.41559 1131.92346
1213.0 0.000824 368.48746 1172.73975
1081.0 0.000925 368.55963 1061.96082
822.0 0.001217 368.63208 799.08411
662.0 0.001511 368.70483 674.14612
708.0 0.001412 368.77786 678.01331
781.0 0.001280 368.85126 752.50977
915.0 0.001093 368.92480 866.14526
995.0 0.001005 368.99878 915.42963
958.0 0.001044 369.07294 910.54370
1010.0 0.000990 369.14749 1030.52917
1289.0 0.000776 369.22223 1311.63794
1761.0 0.000568 369.29727 1754.05164
2266.0 0.000441 369.37259 2187.17480
2014.0 0.000497 369.44827 2026.90466
1480.0 0.000676 369.52417 1508.62610
1339.0 0.000747 369.60034 1405.20007
1816.0 0.000551 369.67679 1683.81946
2666.0 0.000375 369.75354 2267.37769
3462.0 0.0002889 369.83054 2967.66528
3474.0 0.0002879 369.90771 2969.37842
2296.0 0.000436 369.98532 1946.08240
1307.0 0.000765 370.06311 1223.28345
1101.0 0.000908 370.14111 1029.43457
1263.0 0.000792 370.21954 1114.29468
1545.0 0.000647 370.29813 1312.74023
1588.0 0.000630 370.37698 1367.46814
1296.0 0.000772 370.45602 1020.18835
812.0 0.001232 370.53546 686.39508
580.0 0.001724 370.61508 539.58893
506.0 0.001976 370.69501 485.63168
452.0 0.002212 370.77505 460.41968
455.0 0.002198 370.85541 445.35458
427.0 0.002342 370.93604 437.41385
472.0 0.002119 371.01697 434.68463
470.0 0.002128 371.09802 438.96228
461.0 0.002169 371.17944 455.18564
504.0 0.001984 371.26102 485.96631
538.0 0.001859 371.34290 537.38593
586.0 0.001706 371.42499 617.50372
744.0 0.001344 371.50729 740.99115
901.0 0.001110 371.58987 883.35974
900.0 0.001111 371.67267 901.36761
708.0 0.001412 371.75571 706.64001
553.0 0.001808 371.83896 567.32709
517.0 0.001934 371.92255 540.47748
554.0 0.001805 372.00626 573.48102
621.0 0.001610 372.09018 634.51959
639.0 0.001565 372.17429 656.04272
588.0 0.001701 372.25873 562.95416
491.0 0.002037 372.34335 469.27271
432.0 0.002315 372.42816 428.82718
426.0 0.002347 372.51328 421.81967
419.0 0.002387 372.59857 430.58279
462.0 0.002165 372.68399 450.61566
485.0 0.002062 372.76978 488.55331
509.0 0.001965 372.85565 543.94171
584.0 0.001712 372.94180 626.18317
672.0 0.001488 373.02811 692.47437
624.0 0.001603 373.11459 634.33832
508.0 0.001969 373.20135 519.19360
445.0 0.002247 373.28836 470.52652
467.0 0.002141 373.37552 472.38297
498.0 0.002008 373.46286 502.13965
524.0 0.001908 373.55045 535.20673
524.0 0.001908 373.63821 518.84381
460.0 0.002174 373.72617 453.00562
389.0 0.002571 373.81430 411.05786
399.0 0.002506 373.90262 394.81754
414.0 0.002415 373.99112 388.43982
379.0 0.002639 374.07986 385.07278
350.0 0.002857 374.16885 382.94733
334.0 0.002994 374.25793 380.69247
405.0 0.002469 374.34720 379.71127
392.0 0.002551 374.43665 378.99573
371.0 0.002695 374.52628 378.46146
392.0 0.002551 374.61612 378.05600
349.0 0.002865 374.70605 377.74496
387.0 0.002584 374.79626 377.09683
378.0 0.002646 374.88666 376.93762
344.0 0.002907 374.97714 376.81931
375.0 0.002667 375.06784 376.73340
373.0 0.002681 375.15875 376.67365
390.0 0.002564 375.24976 376.73825
382.0 0.002618 375.34100 376.72461
367.0 0.002725 375.43240 376.89719
350.0 0.002857 375.52393 376.92410
382.0 0.002618 375.61557 376.96420
366.0 0.002732 375.70749 377.01651
376.0 0.002660 375.79947 376.65909
364.0 0.002747 375.89166 376.76636
352.0 0.002841 375.98407 376.96573
381.0 0.002625 376.07648 377.09836
390.0 0.002564 376.16910 377.24362
369.0 0.002710 376.26196 377.40448
358.0 0.002793 376.35489 377.34659
382.0 0.002618 376.44794 377.56952
380.0 0.002632 376.54120 377.83627
379.0 0.002639 376.63461 378.19345
385.0 0.002597 376.72809 378.72818
371.0 0.002695 376.82181 379.49832
369.0 0.002710 376.91562 380.62653
379.0 0.002639 377.00961 382.21780
373.0 0.002681 377.10367 384.50424
370.0 0.002703 377.19788 386.82388
363.0 0.002755 377.29227 387.10037
375.0 0.002667 377.38678 385.01593
378.0 0.002646 377.48135 384.40579
390.0 0.002564 377.57605 385.65833
398.0 0.002513 377.67093 388.60028
383.0 0.002611 377.76596 393.88834
399.0 0.002506 377.86115 401.79446
402.0 0.002488 377.95633 413.69077
421.0 0.002375 378.05167 432.87531
479.0 0.002088 378.14722 463.83939
527.0 0.001898 378.24277 499.80890
550.0 0.001818 378.33856 521.00629
553.0 0.001808 378.43439 523.53943
510.0 0.001961 378.53027 505.16357
443.0 0.002257 378.62637 461.95731
470.0 0.002128 378.72260 444.54507
434.0 0.002304 378.81882 450.94791
477.0 0.002096 378.91522 461.07104
452.0 0.002212 379.01172 462.25031
442.0 0.002262 379.10831 457.69302
393.0 0.002545 379.20511 433.42697
399.0 0.002506 379.30179 413.43082
387.0 0.002584 379.39871 405.55222
367.0 0.002725 379.49573 403.73645
375.0 0.002667 379.59283 404.24442
366.0 0.002732 379.69009 406.19009
391.0 0.002558 379.78738 409.96060
442.0 0.002262 379.88474 417.10422
413.0 0.002421 379.98221 429.78973
448.0 0.002232 380.07980 449.15390
485.0 0.002062 380.17743 480.12283
501.0 0.001996 380.27512 524.57452
565.0 0.001770 380.37296 580.37701
659.0 0.001517 380.47083 605.09436
618.0 0.001618 380.56882 553.59882
586.0 0.001706 380.66681 510.06250
554.0 0.001805 380.76492 510.07965
531.0 0.001883 380.86319 539.67749
591.0 0.001692 380.96149 594.49426
716.0 0.001397 381.05981 671.52148
806.0 0.001241 381.15826 765.26532
977.0 0.001024 381.25677 924.87103
1206.0 0.000829 381.35535 1222.93103
1707.0 0.000586 381.45398 1734.79919
2592.0 0.000386 381.55267 2498.24097
3346.0 0.0002989 381.65143 3364.73169
3437.0 0.0002910 381.75021 3431.27246
2341.0 0.000427 381.84909 2271.06494
1387.0 0.000721 381.94809 1431.49390
1136.0 0.000880 382.04706 1245.42004
1301.0 0.000769 382.14612 1408.76953
1674.0 0.000597 382.24530 1776.22705
2008.0 0.000498 382.34445 2045.84558
1740.0 0.000575 382.44366 1662.00757
1031.0 0.000970 382.54297 1029.27881
651.0 0.001536 382.64221 700.07294
556.0 0.001799 382.74164 579.06769
511.0 0.001957 382.84106 531.79706
500.0 0.002000 382.94046 510.46799
514.0 0.001946 383.03995 509.15610
533.0 0.001876 383.13953 527.00555
575.0 0.001739 383.23911 570.77179
699.0 0.001431 383.33871 650.37274
871.0 0.001148 383.43835 776.21564
1132.0 0.000883 383.53815 963.40479
1327.0 0.000754 383.63785 1124.05615
1203.0 0.000831 383.73761 1022.52161
868.0 0.001152 383.83740 758.21436
670.0 0.001493 383.93716 627.03394
679.0 0.001473 384.03699 619.72748
716.0 0.001397 384.13693 674.89160
831.0 0.001203 384.23682 763.68518
938.0 0.001066 384.33673 796.59808
819.0 0.001221 384.43668 680.88440
621.0 0.001610 384.53662 565.71991
597.0 0.001675 384.63663 521.87231
564.0 0.001773 384.73663 513.83856
595.0 0.001681 384.83664 532.79089
687.0 0.001456 384.93661 578.05365
742.0 0.001348 385.03677 677.10901
881.0 0.001135 385.13678 868.47260
1202.0 0.000832 385.23685 1177.80762
1628.0 0.000614 385.33691 1681.85071
2314.0 0.000432 385.43701 2424.50488
3397.0 0.0002944 385.53711 3259.68652
3412.0 0.0002931 385.63721 3313.71411
2255.0 0.000443 385.73737 2218.76538
1304.0 0.000767 385.83740 1453.05737
1236.0 0.000809 385.93750 1314.74744
1396.0 0.000716 386.03760 1528.04028
1760.0 0.000568 386.13773 1901.51453
2024.0 0.000494 386.23779 2119.94775
1782.0 0.000561 386.33789 1750.00977
1094.0 0.000914 386.43793 1106.60010
719.0 0.001391 386.53799 765.68372
624.0 0.001603 386.63809 655.70905
555.0 0.001802 386.73816 626.99841
574.0 0.001742 386.83817 593.34961
523.0 0.001912 386.93814 537.86853
471.0 0.002123 387.03815 506.24857
497.0 0.002012 387.13828 505.69305
541.0 0.001848 387.23816 529.03662
605.0 0.001653 387.33810 570.95398
643.0 0.001555 387.43805 609.92041
593.0 0.001686 387.53799 584.78491
502.0 0.001992 387.63791 512.16187
450.0 0.002222 387.73770 471.88348
448.0 0.002232 387.83759 466.08206
445.0 0.002247 387.93732 477.50018
467.0 0.002141 388.03717 499.53430
487.0 0.002053 388.13687 512.37329
488.0 0.002049 388.23657 487.17328
470.0 0.002128 388.33624 453.29523
437.0 0.002288 388.43588 439.03671
422.0 0.002370 388.53546 439.15112
441.0 0.002268 388.63507 442.77252
468.0 0.002137 388.73465 460.18839
492.0 0.002033 388.83408 487.68445
532.0 0.001880 388.93347 524.99268
577.0 0.001733 389.03290 549.08649
563.0 0.001776 389.13229 521.72394
524.0 0.001908 389.23169 486.03555
524.0 0.001908 389.33090 476.35773
535.0 0.001869 389.43005 492.06958
554.0 0.001805 389.52927 526.19434
632.0 0.001582 389.62842 585.24725
765.0 0.001307 389.72748 673.52887
861.0 0.001161 389.82642 797.32806
1051.0 0.000951 389.92535 1028.09680
1438.0 0.000695 390.02429 1397.92651
1994.0 0.000502 390.12311 1898.94568
2344.0 0.000427 390.22186 2199.19604
2009.0 0.000498 390.32062 1926.71436
1511.0 0.000662 390.41922 1549.78809
1138.0 0.000879 390.51782 1201.73389
988.0 0.001012 390.61636 1039.15601
1111.0 0.000900 390.71481 1111.98999
1365.0 0.000733 390.81326 1309.65466
1425.0 0.000702 390.91153 1376.32361
1257.0 0.000796 391.00980 1206.51758
1024.0 0.000977 391.10797 1048.97498
910.0 0.001099 391.20612 935.37952
965.0 0.001036 391.30411 944.83539
1043.0 0.000959 391.40204 1008.19281
963.0 0.001038 391.49997 907.71631
674.0 0.001484 391.59775 694.60449
520.0 0.001923 391.69547 582.59882
588.0 0.001701 391.79306 564.10815
532.0 0.001880 391.89069 595.59308
654.0 0.001529 391.98813 655.91498
708.0 0.001412 392.08554 694.22632
682.0 0.001466 392.18286 624.02020
551.0 0.001815 392.28006 521.22791
470.0 0.002128 392.37717 468.20987
431.0 0.002320 392.47424 448.28552
448.0 0.002232 392.57120 440.37088
428.0 0.002336 392.66803 436.72995
439.0 0.002278 392.76480 435.61530
467.0 0.002141 392.86139 436.34811
434.0 0.002304 392.95804 438.85278
438.0 0.002283 393.05453 443.43839
479.0 0.002088 393.15088 448.52637
496.0 0.002016 393.24713 462.39151
509.0 0.001965 393.34335 486.72928
555.0 0.001802 393.43945 531.90442
653.0 0.001531 393.53540 605.75714
802.0 0.001247 393.63129 730.09741
1028.0 0.000973 393.72699 924.32190
1267.0 0.000789 393.82263 1176.31775
1364.0 0.000733 393.91821 1322.08276
1345.0 0.000743 394.01370 1294.33276
1455.0 0.000687 394.10901 1440.24670
1786.0 0.000560 394.20416 1776.00305
1980.0 0.000505 394.29922 1959.32422
1686.0 0.000593 394.39426 1610.69446
1242.0 0.000805 394.48917 1240.54456
1009.0 0.000991 394.58389 1054.54321
937.0 0.001067 394.67847 947.27161
1003.0 0.000997 394.77298 983.91077
1126.0 0.000888 394.86740 1115.39722
1119.0 0.000894 394.96170 1126.67175
913.0 0.001095 395.05579 873.29840
680.0 0.001471 395.14987 639.41266
533.0 0.001876 395.24371 533.93884
509.0 0.001965 395.33746 497.04547
534.0 0.001873 395.43112 484.22104
520.0 0.001923 395.52466 477.72696
450.0 0.002222 395.61804 470.63315
458.0 0.002183 395.71127 472.69379
508.0 0.001969 395.80444 494.40448
565.0 0.001770 395.89743 541.68695
606.0 0.001650 395.99026 619.96600
747.0 0.001339 396.08298 753.45520
871.0 0.001148 396.17551 914.63690
989.0 0.001011 396.26794 1000.73584
812.0 0.001232 396.36026 837.55017
616.0 0.001623 396.45245 634.70667
567.0 0.001764 396.54437 553.03052
553.0 0.001808 396.63629 556.91888
578.0 0.001730 396.72800 607.18817
615.0 0.001626 396.81961 677.25311
709.0 0.001410 396.91101 711.12677
627.0 0.001595 397.00238 618.08099
480.0 0.002083 397.09338 512.13983
428.0 0.002336 397.18445 458.96164
368.0 0.002717 397.27527 441.66064
428.0 0.002336 397.36600 433.10791
393.0 0.002545 397.45648 428.97433
418.0 0.002392 397.54694 428.39520
401.0 0.002494 397.63708 427.48734
417.0 0.002398 397.72726 427.12274
434.0 0.002304 397.81711 426.96591
444.0 0.002252 397.90680 428.27374
443.0 0.002257 397.99643 430.16833
451.0 0.002217 398.08588 432.68704
438.0 0.002283 398.17514 435.91351
440.0 0.002273 398.26428 439.95621
462.0 0.002165 398.35321 445.08716
475.0 0.002105 398.44199 451.58829
469.0 0.002132 398.53058 459.93454
520.0 0.001923 398.61902 470.85553
531.0 0.001883 398.70731 485.53476
542.0 0.001845 398.79541 506.04022
570.0 0.001754 398.88330 536.77521
631.0 0.001585 398.97107 589.43719
749.0 0.001335 399.05862 690.02136
935.0 0.001070 399.14609 879.23334
1252.0 0.000799 399.23331 1183.45630
1779.0 0.000562 399.32040 1721.94434
2525.0 0.000396 399.40726 2465.53345
3120.0 0.0003205 399.49402 3162.56689
3196.0 0.0003129 399.58054 3171.68677
3093.0 0.0003233 399.66684 2929.85327
3052.0 0.0003277 399.75305 2984.71606
2640.0 0.000379 399.83899 2559.46753
2047.0 0.000489 399.92484 1959.19324
1782.0 0.000561 400.01047 1842.35669
1861.0 0.000537 400.09589 1996.81445
1860.0 0.000538 400.18109 1920.33081
1687.0 0.000593 400.26620 1728.20642
1609.0 0.000622 400.35107 1685.73767
1398.0 0.000715 400.43576 1399.96216
993.0 0.001007 400.52026 955.85876
712.0 0.001404 400.60455 699.75031
559.0 0.001789 400.68866 593.72217
505.0 0.001980 400.77258 547.36523
496.0 0.002016 400.85626 522.01306
512.0 0.001953 400.93985 510.02191
472.0 0.002119 401.02316 500.88458
486.0 0.002058 401.10632 496.04367
519.0 0.001927 401.18921 494.64523
483.0 0.002070 401.27194 496.39273
508.0 0.001969 401.35446 501.42654
518.0 0.001931 401.43680 510.35529
535.0 0.001869 401.51895 526.14368
558.0 0.001792 401.60086 548.23035
612.0 0.001634 401.68265 582.96777
685.0 0.001460 401.76413 645.00708
783.0 0.001277 401.84543 770.92657
1022.0 0.000978 401.92661 1022.63629
1375.0 0.000727 402.00751 1438.49512
1995.0 0.000501 402.08820 2147.29688
2906.0 0.0003441 402.16864 3126.81763
3780.0 0.0002646 402.24890 4012.12085
3505.0 0.0002853 402.32895 3567.28735
2105.0 0.000475 402.40881 2191.20850
1340.0 0.000746 402.48846 1414.68665
1076.0 0.000929 402.56787 1258.04297
1344.0 0.000744 402.64703 1449.38513
1718.0 0.000582 402.72607 1860.11816
2044.0 0.000489 402.80487 2295.18091
2050.0 0.000488 402.88342 2160.16040
1459.0 0.000685 402.96173 1456.91528
1017.0 0.000983 403.03986 990.90765
822.0 0.001217 403.11777 854.38159
887.0 0.001127 403.19547 920.62317
1048.0 0.000954 403.27298 1125.84680
1374.0 0.000728 403.35010 1523.69299
1934.0 0.000517 403.42715 2080.62769
2493.0 0.000401 403.50391 2559.35010
2268.0 0.000441 403.58051 2242.37622
1450.0 0.000690 403.65680 1444.00903
960.0 0.001042 403.73288 1012.19318
820.0 0.001220 403.80875 932.43250
929.0 0.001076 403.88437 1056.62036
1205.0 0.000830 403.95987 1314.70251
1465.0 0.000683 404.03503 1599.03296
1505.0 0.000664 404.10992 1559.76880
1189.0 0.000841 404.18469 1172.93335
800.0 0.001250 404.25916 840.73248
602.0 0.001661 404.33337 657.15497
548.0 0.001825 404.40744 583.79565
537.0 0.001862 404.48120 562.84979
554.0 0.001805 404.55475 571.37964
609.0 0.001642 404.62805 598.10254
677.0 0.001477 404.70108 655.07941
715.0 0.001399 404.77396 722.59698
807.0 0.001239 404.84656 827.64014
1007.0 0.000993 404.91888 1046.71143
1332.0 0.000751 404.99100 1329.33630
1507.0 0.000664 405.06290 1468.02686
1204.0 0.000831 405.13455 1165.08728
829.0 0.001206 405.20590 810.75696
629.0 0.001590 405.27701 663.25684
637.0 0.001570 405.34781 655.58923
699.0 0.001431 405.41852 733.46722
866.0 0.001155 405.48889 858.79449
930.0 0.001075 405.55902 954.19897
851.0 0.001175 405.62891 843.77362
642.0 0.001558 405.69855 639.89929
527.0 0.001898 405.76794 520.17853
500.0 0.002000 405.83722 473.80252
405.0 0.002469 405.90601 454.51865
454.0 0.002203 405.97464 444.69647
435.0 0.002299 406.04309 439.42715
417.0 0.002398 406.11121 437.36346
446.0 0.002242 406.17911 439.21442
487.0 0.002053 406.24673 440.80121
473.0 0.002114 406.31403 443.52344
460.0 0.002174 406.38120 442.15427
454.0 0.002203 406.44800 442.98450
473.0 0.002114 406.51465 452.75754
500.0 0.002000 406.58099 469.50659
499.0 0.002004 406.64700 484.37433
517.0 0.001934 406.71283 477.12985
486.0 0.002058 406.77844 455.63510
465.0 0.002151 406.84372 442.11624
408.0 0.002451 406.90878 437.03549
446.0 0.002242 406.97348 439.05374
481.0 0.002079 407.03796 446.47083
429.0 0.002331 407.10226 453.47968
443.0 0.002257 407.16623 454.19080
439.0 0.002278 407.22995 446.87646
411.0 0.002433 407.29333 445.17905
435.0 0.002299 407.35654 455.92813
461.0 0.002169 407.41940 476.20819
481.0 0.002079 407.48209 512.21808
503.0 0.001988 407.54440 560.65039
528.0 0.001894 407.60651 598.85663
543.0 0.001842 407.66833 599.99066
600.0 0.001667 407.72989 612.53571
675.0 0.001481 407.79117 651.74670
677.0 0.001477 407.85220 650.78357
614.0 0.001629 407.91287 601.08215
587.0 0.001704 407.97339 592.23987
605.0 0.001653 408.03360 635.07843
665.0 0.001504 408.09348 703.97699
747.0 0.001339 408.15317 802.62756
897.0 0.001115 408.21249 907.27380
903.0 0.001107 408.27158 877.65527
742.0 0.001348 408.33038 720.24591
635.0 0.001575 408.38892 625.82404
605.0 0.001653 408.44717 632.67743
696.0 0.001437 408.50507 727.56940
875.0 0.001143 408.56277 913.04913
1157.0 0.000864 408.62018 1211.68616
1507.0 0.000664 408.67728 1549.56909
1608.0 0.000622 408.73419 1713.87231
1330.0 0.000752 408.79074 1411.37903
904.0 0.001106 408.84692 970.77478
688.0 0.001453 408.90295 764.98859
767.0 0.001304 408.95874 752.95654
805.0 0.001242 409.01413 865.92084
1040.0 0.000962 409.06921 1093.04407
1402.0 0.000713 409.12408 1394.56506
1655.0 0.000604 409.17865 1598.11279
1567.0 0.000638 409.23300 1589.17114
1330.0 0.000752 409.28696 1366.32678
980.0 0.001020 409.34064 1055.05762
928.0 0.001078 409.39410 956.60004
1074.0 0.000931 409.44720 1049.15332
1281.0 0.000781 409.49997 1185.15295
1232.0 0.000812 409.55255 1163.78247
1119.0 0.000894 409.60480 1061.75464
921.0 0.001086 409.65677 975.94049
794.0 0.001259 409.70850 813.23712
658.0 0.001520 409.75983 702.01630
691.0 0.001447 409.81091 696.94989
754.0 0.001326 409.86172 739.94928
766.0 0.001305 409.91217 729.35681
683.0 0.001464 409.96246 623.70215
495.0 0.002020 410.01236 538.03650
514.0 0.001946 410.06189 503.12958
498.0 0.002008 410.11124 495.65424
505.0 0.001980 410.16028 506.86041
551.0 0.001815 410.20901 539.89270
569.0 0.001757 410.25739 601.30280
703.0 0.001422 410.30554 706.35626
852.0 0.001174 410.35330 843.50079
992.0 0.001008 410.40097 932.02063
956.0 0.001046 410.44809 870.79156
907.0 0.001103 410.49506 835.95135
1026.0 0.000975 410.54169 904.64069
1122.0 0.000891 410.58804 962.80096
995.0 0.001005 410.63406 864.11926
816.0 0.001225 410.67975 760.60352
757.0 0.001321 410.72516 740.95605
707.0 0.001414 410.77032 710.67548
654.0 0.001529 410.81519 657.18750
672.0 0.001488 410.85962 657.20532
742.0 0.001348 410.90384 689.52325
748.0 0.001337 410.94772 666.10699
629.0 0.001590 410.99133 579.41754
554.0 0.001805 411.03464 526.94012
554.0 0.001805 411.07764 522.05286
534.0 0.001873 411.12030 557.18036
565.0 0.001770 411.16275 628.02484
668.0 0.001497 411.20474 742.64618
774.0 0.001292 411.24655 862.82928
792.0 0.001263 411.28802 869.19281
709.0 0.001410 411.32919 751.45782
647.0 0.001546 411.36996 709.02527
756.0 0.001323 411.41046 791.26324
945.0 0.001058 411.45068 984.50513
1155.0 0.000866 411.49060 1208.72217
1179.0 0.000848 411.53021 1250.42261
942.0 0.001062 411.56955 1031.92078
725.0 0.001379 411.60849 793.84601
563.0 0.001776 411.64719 651.76410
585.0 0.001709 411.68552 616.66211
624.0 0.001603 411.72357 657.45209
675.0 0.001481 411.76129 739.89966
710.0 0.001408 411.79877 798.46545
694.0 0.001441 411.83582 720.31952
553.0 0.001808 411.87268 587.48041
476.0 0.002101 411.90915 515.18707
453.0 0.002208 411.94528 490.39182
474.0 0.002110 411.98108 489.51578
516.0 0.001938 412.01666 505.72369
556.0 0.001799 412.05185 540.26086
575.0 0.001739 412.08679 593.75848
619.0 0.001616 412.12140 643.62640
664.0 0.001506 412.15564 635.09155
552.0 0.001812 412.18958 594.82782
544.0 0.001838 412.22327 612.29333
687.0 0.001456 412.25662 702.48438
821.0 0.001218 412.28964 866.67572
1098.0 0.000911 412.32230 1104.88367
1272.0 0.000786 412.35464 1227.46155
1081.0 0.000925 412.38672 1045.08557
738.0 0.001355 412.41840 772.38501
611.0 0.001637 412.44992 629.16748
574.0 0.001742 412.48099 602.25610
626.0 0.001597 412.51169 639.35675
693.0 0.001443 412.54218 733.12762
861.0 0.001161 412.57230 852.59125
919.0 0.001088 412.60223 910.02496
925.0 0.001081 412.63168 881.91504
956.0 0.001046 412.66080 937.52759
1059.0 0.000944 412.68967 1093.50293
1061.0 0.000943 412.71826 1127.85400
846.0 0.001182 412.74640 899.83057
646.0 0.001548 412.77435 674.00409
548.0 0.001825 412.80188 578.89355
528.0 0.001894 412.82913 570.73193
583.0 0.001715 412.85605 609.77551
637.0 0.001570 412.88269 692.73792
707.0 0.001414 412.90887 773.57764
744.0 0.001344 412.93491 750.78558
649.0 0.001541 412.96054 617.99512
535.0 0.001869 412.98587 521.35132
476.0 0.002101 413.01086 478.52597
453.0 0.002208 413.03549 461.77628
416.0 0.002404 413.05984 453.99997
396.0 0.002525 413.08383 449.91290
463.0 0.002160 413.10751 451.90024
482.0 0.002075 413.13089 451.70920
462.0 0.002165 413.15396 452.81177
423.0 0.002364 413.17667 453.83463
415.0 0.002410 413.19901 457.55441
448.0 0.002232 413.22110 464.47083
443.0 0.002257 413.24286 472.71136
465.0 0.002151 413.26431 486.52423
488.0 0.002049 413.28537 504.76212
502.0 0.001992 413.30609 535.49854
590.0 0.001695 413.32657 595.87897
745.0 0.001342 413.34665 722.10785
883.0 0.001133 413.36646 950.31018
1194.0 0.000838 413.38583 1302.36963
1712.0 0.000584 413.40500 1825.90698
2099.0 0.000476 413.42380 2132.33032
1718.0 0.000582 413.44223 1776.38562
1157.0 0.000864 413.46036 1163.15149
852.0 0.001174 413.47818 844.07404
790.0 0.001266 413.49570 776.17279
812.0 0.001232 413.51291 846.11841
926.0 0.001080 413.52969 1017.09393
1226.0 0.000816 413.54623 1263.49854
1384.0 0.000723 413.56238 1352.19226
1126.0 0.000888 413.57822 1109.25232
892.0 0.001121 413.59372 835.86359
747.0 0.001339 413.60892 722.64252
776.0 0.001289 413.62378 733.70038
865.0 0.001156 413.63834 857.84125
1122.0 0.000891 413.65250 1125.51465
1511.0 0.000662 413.66641 1555.35327
2203.0 0.000454 413.67990 2232.26147
2914.0 0.0003432 413.69315 2750.27490
2566.0 0.000390 413.70602 2472.76221
1712.0 0.000584 413.71860 1700.70264
1234.0 0.000810 413.73083 1317.35950
1317.0 0.000759 413.74268 1363.23376
1578.0 0.000634 413.75427 1643.52075
1797.0 0.000556 413.76547 1878.98132
1891.0 0.000529 413.77643 2000.64209
2077.0 0.000481 413.78696 2070.77075
1927.0 0.000519 413.79724 1900.67737
1730.0 0.000578 413.80716 1741.86157
1723.0 0.000580 413.81674 1812.86963
1733.0 0.000577 413.82599 1776.69702
1424.0 0.000702 413.83493 1468.30896
1157.0 0.000864 413.84354 1170.69507
931.0 0.001074 413.85175 938.38965
874.0 0.001144 413.85971 859.71454
905.0 0.001105 413.86731 929.60138
1171.0 0.000854 413.87457 1141.94495
1453.0 0.000688 413.88147 1413.63635
1639.0 0.000610 413.88815 1620.65979
1679.0 0.000596 413.89438 1627.92175
1474.0 0.000678 413.90039 1391.10828
1139.0 0.000878 413.90604 1046.84595
996.0 0.001004 413.91125 906.15131
1065.0 0.000939 413.91626 994.37488
1336.0 0.000749 413.92087 1281.98804
1869.0 0.000535 413.92511 1777.46704
2532.0 0.000395 413.92911 2409.17163
2728.0 0.000367 413.93280 2579.88013
2090.0 0.000478 413.93607 1921.54639
1324.0 0.000755 413.93906 1222.03406
898.0 0.001114 413.94168 911.04681
811.0 0.001233 413.94397 872.95856
888.0 0.001126 413.94595 985.70367
1094.0 0.000914 413.94763 1197.41089
1376.0 0.000727 413.94894 1411.60754
1408.0 0.000710 413.94995 1382.02612
1045.0 0.000957 413.95059 1032.09412
691.0 0.001447 413.95096 739.12689
542.0 0.001845 413.95093 605.20398
474.0 0.002110 413.95059 560.18793
506.0 0.001976 413.94992 548.18896
513.0 0.001949 413.94897 543.47974
455.0 0.002198 413.94757 526.10693
488.0 0.002049 413.94595 503.24393
466.0 0.002146 413.94403 480.65765
439.0 0.002278 413.94165 467.68597
479.0 0.002088 413.93903 459.31183
419.0 0.002387 413.93607 455.05853
451.0 0.002217 413.93277 451.91241
491.0 0.002037 413.92917 450.95108
440.0 0.002273 413.92514 449.56763
423.0 0.002364 413.92087 450.66943
402.0 0.002488 413.91626 452.72198
486.0 0.002058 413.91125 457.47919
455.0 0.002198 413.90594 462.44708
463.0 0.002160 413.90039 469.75436
488.0 0.002049 413.89441 481.47299
503.0 0.001988 413.88815 496.10596
562.0 0.001779 413.88159 528.00659
612.0 0.001634 413.87466 592.26080
767.0 0.001304 413.86743 720.65417
1015.0 0.000985 413.85983 930.45972
1328.0 0.000753 413.85190 1238.75281
1697.0 0.000589 413.84363 1566.04651
1781.0 0.000561 413.83508 1571.65100
1286.0 0.000778 413.82614 1157.69604
824.0 0.001214 413.81696 820.98462
670.0 0.001493 413.80737 690.80103
667.0 0.001499 413.79749 693.84424
758.0 0.001319 413.78729 775.84766
947.0 0.001056 413.77673 923.93414
1126.0 0.000888 413.76590 1097.96521
1218.0 0.000821 413.75467 1136.18213
1077.0 0.000929 413.74313 1005.50006
1056.0 0.000947 413.73132 991.09967
1263.0 0.000792 413.71912 1197.09668
1602.0 0.000624 413.70660 1615.82483
2072.0 0.000483 413.69379 2093.25537
2177.0 0.000459 413.68063 2101.37329
1665.0 0.000601 413.66714 1507.81262
1110.0 0.000901 413.65335 1030.88867
880.0 0.001136 413.63919 860.63776
895.0 0.001117 413.62469 890.99182
1039.0 0.000962 413.61002 1021.66248
1211.0 0.000826 413.59488 1204.22974
1384.0 0.000723 413.57941 1422.81274
1461.0 0.000684 413.56366 1468.70129
1298.0 0.000770 413.54755 1258.90833
1180.0 0.000847 413.53113 1140.14331
1140.0 0.000877 413.51443 1135.51929
1171.0 0.000854 413.49738 1104.12476
1181.0 0.000847 413.48001 1118.39551
1266.0 0.000790 413.46225 1155.62305
1123.0 0.000890 413.44421 1044.43933
836.0 0.001196 413.42587 832.76758
711.0 0.001406 413.40710 728.34088
751.0 0.001332 413.38809 735.02765
749.0 0.001335 413.36887 772.51520
775.0 0.001290 413.34918 777.25098
829.0 0.001206 413.32916 807.19531
909.0 0.001100 413.30893 893.40283
937.0 0.001067 413.28824 951.45355
992.0 0.001008 413.26730 955.67914
927.0 0.001079 413.24603 896.98596
675.0 0.001481 413.22446 734.20850
550.0 0.001818 413.20258 600.93103
501.0 0.001996 413.18036 542.27649
498.0 0.002008 413.15781 531.60474
571.0 0.001751 413.13495 547.50281
541.0 0.001848 413.11172 591.30731
689.0 0.001451 413.08826 654.91650
701.0 0.001427 413.06442 688.98419
664.0 0.001506 413.04028 665.82025
651.0 0.001536 413.01587 675.85388
755.0 0.001325 412.99100 787.53217
974.0 0.001027 412.96588 1003.28735
1217.0 0.000822 412.94049 1295.55420
1342.0 0.000745 412.91473 1401.13684
1139.0 0.000878 412.88867 1119.09985
748.0 0.001337 412.86227 790.61115
605.0 0.001653 412.83560 630.74011
570.0 0.001754 412.80862 592.79272
573.0 0.001745 412.78128 628.75897
697.0 0.001435 412.75363 719.04266
827.0 0.001209 412.72565 860.68494
904.0 0.001106 412.69742 937.33868
787.0 0.001271 412.66879 817.91718
625.0 0.001600 412.63986 632.55493
513.0 0.001949 412.61063 526.59076
456.0 0.002193 412.58112 481.88040
412.0 0.002427 412.55127 463.14148
398.0 0.002513 412.52109 453.54431
415.0 0.002410 412.49057 449.05237
433.0 0.002309 412.45975 444.87570
426.0 0.002347 412.42871 440.08368
424.0 0.002358 412.39731 439.80072
407.0 0.002457 412.36557 437.54517
412.0 0.002427 412.33350 436.81693
427.0 0.002342 412.30109 437.13229
413.0 0.002421 412.26849 438.38855
403.0 0.002481 412.23544 440.81433
402.0 0.002488 412.20224 444.73160
432.0 0.002315 412.16855 452.69339
464.0 0.002155 412.13461 470.04126
481.0 0.002079 412.10043 498.28091
525.0 0.001905 412.06592 546.72815
647.0 0.001546 412.03107 616.39484
678.0 0.001475 411.99588 684.64215
729.0 0.001372 411.96042 740.46606
754.0 0.001326 411.92465 773.75134
718.0 0.001393 411.88864 748.06116
650.0 0.001538 411.85223 680.15796
585.0 0.001709 411.81549 595.97418
548.0 0.001825 411.77853 555.71606
552.0 0.001812 411.74118 561.60565
612.0 0.001634 411.70364 587.04840
651.0 0.001536 411.66562 614.10614
608.0 0.001645 411.62747 637.51538
627.0 0.001595 411.58890 638.85718
612.0 0.001634 411.55011 618.36432
570.0 0.001754 411.51099 587.19489
588.0 0.001701 411.47153 577.11285
622.0 0.001608 411.43173 606.28992
748.0 0.001337 411.39169 693.33685
930.0 0.001075 411.35132 889.36255
1164.0 0.000859 411.31067 1264.44836
1761.0 0.000568 411.26971 1850.62134
2571.0 0.000389 411.22852 2548.48755
2749.0 0.000364 411.18689 2685.33984
1926.0 0.000519 411.14502 1939.38171
1167.0 0.000857 411.10281 1215.16479
800.0 0.001250 411.06039 879.44171
756.0 0.001323 411.01773 804.21838
832.0 0.001202 410.97461 889.87140
1031.0 0.000970 410.93127 1104.61975
1380.0 0.000725 410.88757 1432.73999
1491.0 0.000671 410.84363 1626.40100
1341.0 0.000746 410.79938 1364.09497
965.0 0.001036 410.75488 940.49304
705.0 0.001418 410.70993 694.32355
556.0 0.001799 410.66483 593.93018
547.0 0.001828 410.61938 561.36615
533.0 0.001876 410.57364 566.10370
590.0 0.001695 410.52768 603.23517
665.0 0.001504 410.48132 674.74725
720.0 0.001389 410.43475 746.55670
684.0 0.001462 410.38782 741.17694
653.0 0.001531 410.34058 673.70135
660.0 0.001515 410.29312 654.69965
700.0 0.001429 410.24527 695.32495
693.0 0.001443 410.19724 721.96497
652.0 0.001534 410.14883 674.75824
619.0 0.001616 410.10019 625.78772
606.0 0.001650 410.05127 624.74170
597.0 0.001675 410.00195 626.10114
585.0 0.001709 409.95242 593.13989
564.0 0.001773 409.90262 570.06348
584.0 0.001712 409.85248 582.17010
605.0 0.001653 409.80206 601.52582
636.0 0.001572 409.75140 594.59662
640.0 0.001563 409.70044 564.39691
613.0 0.001631 409.64911 555.40631
629.0 0.001590 409.59756 575.58734
727.0 0.001376 409.54578 630.73065
798.0 0.001253 409.49368 750.21741
1073.0 0.000932 409.44128 1005.53223
1514.0 0.000661 409.38858 1473.92200
2276.0 0.000439 409.33557 2187.30518
3030.0 0.0003300 409.28232 2904.25195
2967.0 0.0003370 409.22879 2819.96069
1970.0 0.000508 409.17496 1901.94873
1194.0 0.000838 409.12085 1189.13818
863.0 0.001159 409.06641 885.75378
778.0 0.001285 409.01181 833.49414
881.0 0.001135 408.95688 946.75989
1164.0 0.000859 408.90158 1203.31580
1569.0 0.000637 408.84607 1571.63672
1783.0 0.000561 408.79028 1744.58008
1460.0 0.000685 408.73416 1408.60095
945.0 0.001058 408.67789 947.42352
677.0 0.001477 408.62128 686.59027
576.0 0.001736 408.56430 573.78479
452.0 0.002212 408.50717 523.93341
524.0 0.001908 408.44974 496.66202
456.0 0.002193 408.39203 479.12402
467.0 0.002141 408.33398 467.54510
456.0 0.002193 408.27573 459.63306
443.0 0.002257 408.21716 454.34927
449.0 0.002227 408.15836 451.20563
445.0 0.002247 408.09924 449.99976
469.0 0.002132 408.03983 451.61111
472.0 0.002119 407.98022 461.39624
492.0 0.002033 407.92026 478.09409
545.0 0.001835 407.86011 515.00635
576.0 0.001736 407.79968 579.83685
693.0 0.001443 407.73895 674.72748
796.0 0.001256 407.67798 737.35480
719.0 0.001391 407.61664 681.68951
568.0 0.001761 407.55518 570.80133
520.0 0.001923 407.49335 500.50778
487.0 0.002053 407.43124 476.70859
479.0 0.002088 407.36893 477.56442
484.0 0.002066 407.30634 497.09265
547.0 0.001828 407.24344 535.02106
621.0 0.001610 407.18036 579.95074
638.0 0.001567 407.11694 588.56958
564.0 0.001773 407.05325 540.82312
472.0 0.002119 406.98938 494.88760
461.0 0.002169 406.92523 476.51013
453.0 0.002208 406.86075 477.62756
484.0 0.002066 406.79602 492.56204
496.0 0.002016 406.73105 518.84875
520.0 0.001923 406.66577 549.01062
563.0 0.001776 406.60040 556.61768
555.0 0.001802 406.53448 538.47662
534.0 0.001873 406.46854 530.01715
546.0 0.001832 406.40225 541.36066
616.0 0.001623 406.33569 573.41980
718.0 0.001393 406.26901 636.27350
852.0 0.001174 406.20197 761.66736
1042.0 0.000960 406.13470 1010.82513
1439.0 0.000695 406.06711 1433.45776
2057.0 0.000486 405.99930 2029.09546
2538.0 0.000394 405.93124 2534.75952
2389.0 0.000419 405.86301 2482.88696
2233.0 0.000448 405.79437 2212.59619
2173.0 0.000460 405.72552 2210.39282
1956.0 0.000511 405.65646 2052.84204
1621.0 0.000617 405.58716 1563.62732
1278.0 0.000782 405.51761 1260.30054
1232.0 0.000812 405.44778 1277.95520
1444.0 0.000693 405.37769 1497.52637
1510.0 0.000662 405.30743 1630.74377
1503.0 0.000665 405.23688 1502.33411
1401.0 0.000714 405.16602 1416.63367
1446.0 0.000692 405.09491 1447.64966
1387.0 0.000721 405.02362 1371.02380
1268.0 0.000789 404.95215 1277.47620
1396.0 0.000716 404.88037 1380.51282
1512.0 0.000661 404.80826 1545.84204
1372.0 0.000729 404.73596 1411.88965
956.0 0.001046 404.66348 1035.14343
768.0 0.001302 404.59061 779.68951
673.0 0.001486 404.51764 684.94043
684.0 0.001462 404.44443 701.62567
876.0 0.001142 404.37094 811.83496
1049.0 0.000953 404.29718 1008.67999
1205.0 0.000830 404.22324 1214.92920
1219.0 0.000820 404.14893 1227.07947
1016.0 0.000984 404.07458 988.34344
729.0 0.001372 403.99988 733.87103
576.0 0.001736 403.92496 598.00110
556.0 0.001799 403.84976 548.05200
535.0 0.001869 403.77435 544.80481
551.0 0.001815 403.69876 567.16547
601.0 0.001664 403.62289 609.47498
644.0 0.001553 403.54675 621.83453
598.0 0.001672 403.47040 570.72479
517.0 0.001934 403.39389 511.58090
503.0 0.001988 403.31708 484.46313
483.0 0.002070 403.23999 480.43112
481.0 0.002079 403.16278 495.22174
515.0 0.001942 403.08521 537.87921
601.0 0.001664 403.00754 626.74854
719.0 0.001391 402.92963 768.24512
849.0 0.001178 402.85141 916.76172
896.0 0.001116 402.77301 914.93842
717.0 0.001395 402.69440 738.56757
533.0 0.001876 402.61554 589.20276
456.0 0.002193 402.53644 521.02588
461.0 0.002169 402.45709 503.17654
501.0 0.001996 402.37759 522.89746
541.0 0.001848 402.29785 574.51666
590.0 0.001695 402.21780 645.40808
716.0 0.001397 402.13770 718.31226
747.0 0.001339 402.05722 712.64825
697.0 0.001435 401.97659 669.03430
719.0 0.001391 401.89575 668.29285
732.0 0.001366 401.81467 692.37244
694.0 0.001441 401.73334 642.20770
596.0 0.001678 401.65182 552.86646
517.0 0.001934 401.57007 499.86386
516.0 0.001938 401.48807 480.59891
487.0 0.002053 401.40594 481.13602
487.0 0.002053 401.32355 497.22452
516.0 0.001938 401.24091 528.56647
589.0 0.001698 401.15814 566.74451
638.0 0.001567 401.07507 599.45410
600.0 0.001667 400.99185 589.58813
628.0 0.001592 400.90845 579.99811
666.0 0.001502 400.82480 615.72998
733.0 0.001364 400.74091 728.75555
1033.0 0.000968 400.65674 973.52661
1447.0 0.000691 400.57251 1374.91748
1980.0 0.000505 400.48798 1885.48511
2339.0 0.000428 400.40323 2209.55981
2160.0 0.000463 400.31827 2068.20508
1506.0 0.000664 400.23315 1510.85925
1034.0 0.000967 400.14780 1023.54163
848.0 0.001179 400.06235 797.84473
714.0 0.001401 399.97659 752.53265
867.0 0.001153 399.89059 827.76593
959.0 0.001043 399.80444 1003.82275
1260.0 0.000794 399.71811 1240.64319
1406.0 0.000711 399.63150 1366.99792
1316.0 0.000760 399.54480 1273.66516
1060.0 0.000943 399.45786 1014.59729
846.0 0.001182 399.37064 830.72424
827.0 0.001209 399.28336 768.92145
806.0 0.001241 399.19580 716.21625
671.0 0.001490 399.10800 617.99939
566.0 0.001767 399.02005 553.68622
563.0 0.001776 398.93182 532.29785
553.0 0.001808 398.84351 533.91699
536.0 0.001866 398.75497 532.78888
550.0 0.001818 398.66626 524.47827
573.0 0.001745 398.57733 530.03290
595.0 0.001681 398.48819 546.21570
558.0 0.001792 398.39890 536.83746
511.0 0.001957 398.30939 499.26135
502.0 0.001992 398.21973 476.35959
476.0 0.002101 398.12982 471.49084
457.0 0.002188 398.03973 475.26019
456.0 0.002193 397.94949 473.89630
468.0 0.002137 397.85907 466.09052
467.0 0.002141 397.76843 462.93805
487.0 0.002053 397.67752 473.03519
536.0 0.001866 397.58655 498.60013
606.0 0.001650 397.49533 561.21606
705.0 0.001418 397.40399 679.01208
839.0 0.001192 397.31244 831.10437
1019.0 0.000981 397.22070 970.67572
1024.0 0.000977 397.12875 924.88989
818.0 0.001222 397.03662 733.94800
647.0 0.001546 396.94434 611.35474
592.0 0.001689 396.85187 576.19312
624.0 0.001603 396.75922 606.89789
744.0 0.001344 396.66632 720.48724
993.0 0.001007 396.57339 959.51556
1277.0 0.000783 396.48026 1296.46167
1648.0 0.000607 396.38684 1627.47229
1590.0 0.000629 396.29327 1612.90356
1200.0 0.000833 396.19958 1168.31970
840.0 0.001190 396.10571 821.83679
678.0 0.001475 396.01166 675.54755
664.0 0.001506 395.91742 660.58911
714.0 0.001401 395.82297 723.94525
836.0 0.001196 395.72842 847.12341
946.0 0.001057 395.63367 965.41022
1003.0 0.000997 395.53879 1031.76233
1022.0 0.000978 395.44370 1000.79266
815.0 0.001227 395.34845 819.91937
675.0 0.001481 395.25302 677.15778
590.0 0.001695 395.15747 591.00348
548.0 0.001825 395.06165 553.10956
542.0 0.001845 394.96576 551.67615
543.0 0.001842 394.86969 567.96863
559.0 0.001789 394.77341 568.05591
603.0 0.001658 394.67703 548.26697
550.0 0.001818 394.58047 554.43756
588.0 0.001701 394.48370 605.43964
710.0 0.001408 394.38681 707.98596
857.0 0.001167 394.28967 848.53442
1027.0 0.000974 394.19250 1004.68262
1062.0 0.000942 394.09521 1071.93433
1013.0 0.000987 393.99759 1055.36499
831.0 0.001203 393.89996 865.30310
618.0 0.001618 393.80206 680.22937
556.0 0.001799 393.70404 594.44055
588.0 0.001701 393.60590 586.20294
661.0 0.001513 393.50766 636.25275
742.0 0.001348 393.40912 742.63922
866.0 0.001155 393.31049 923.48077
1049.0 0.000953 393.21173 1136.06018
1238.0 0.000808 393.11282 1334.45642
1271.0 0.000787 393.01379 1374.54541
1073.0 0.000932 392.91449 1103.91638
775.0 0.001290 392.81512 794.16217
605.0 0.001653 392.71561 624.00787
520.0 0.001923 392.61584 558.28217
538.0 0.001859 392.51614 546.60626
578.0 0.001730 392.41617 578.43951
615.0 0.001626 392.31595 656.99469
694.0 0.001441 392.21579 760.90747
820.0 0.001220 392.11545 850.44006
809.0 0.001236 392.01480 817.82092
752.0 0.001330 391.91418 765.59070
792.0 0.001263 391.81323 840.35724
985.0 0.001015 391.71234 1025.95935
1255.0 0.000797 391.61127 1221.55505
1224.0 0.000817 391.50998 1205.08972
931.0 0.001074 391.40863 937.23730
727.0 0.001376 391.30704 744.83771
616.0 0.001623 391.20541 674.35828
612.0 0.001634 391.10364 655.11102
617.0 0.001621 391.00171 625.94550
594.0 0.001684 390.89960 638.74377
651.0 0.001536 390.79739 714.32617
783.0 0.001277 390.69510 807.48596
825.0 0.001212 390.59268 822.85791
714.0 0.001401 390.49002 693.88574
607.0 0.001647 390.38727 582.67914
502.0 0.001992 390.28442 535.26764
492.0 0.002033 390.18152 517.26392
499.0 0.002004 390.07834 488.16452
450.0 0.002222 389.97507 456.88855
449.0 0.002227 389.87167 442.38919
446.0 0.002242 389.76816 441.35562
446.0 0.002242 389.66452 452.30365
442.0 0.002262 389.56082 475.11224
525.0 0.001905 389.45688 505.84555
551.0 0.001815 389.35287 528.77655
549.0 0.001821 389.24872 533.45093
473.0 0.002114 389.14450 494.49152
477.0 0.002096 389.04013 452.45248
387.0 0.002584 388.93570 431.00705
444.0 0.002252 388.83102 424.36493
464.0 0.002155 388.72629 426.82297
414.0 0.002415 388.62140 436.13342
469.0 0.002132 388.51645 449.27084
471.0 0.002123 388.41141 462.87375
504.0 0.001984 388.30615 469.67126
480.0 0.002083 388.20087 455.80728
432.0 0.002315 388.09549 434.96747
397.0 0.002519 387.98990 423.20471
428.0 0.002336 387.88425 420.04514
411.0 0.002433 387.77844 421.64221
398.0 0.002513 387.67258 426.53159
433.0 0.002309 387.56656 435.29803
450.0 0.002222 387.46051 450.54385
514.0 0.001946 387.35431 481.70874
555.0 0.001802 387.24789 546.94434
648.0 0.001543 387.14154 674.43628
817.0 0.001224 387.03497 860.58710
991.0 0.001009 386.92838 1047.75964
1010.0 0.000990 386.82156 1071.41968
847.0 0.001181 386.71472 877.53394
650.0 0.001538 386.60779 677.81140
554.0 0.001805 386.50067 566.72308
550.0 0.001818 386.39355 532.27228
577.0 0.001733 386.28619 545.14160
613.0 0.001631 386.17892 595.36548
691.0 0.001447 386.07138 669.75134
758.0 0.001319 385.96387 756.23932
753.0 0.001328 385.85617 803.47711
705.0 0.001418 385.74844 723.68066
620.0 0.001613 385.64063 606.08374
549.0 0.001821 385.53262 531.90948
541.0 0.001848 385.42459 513.04425
547.0 0.001828 385.31641 541.95740
597.0 0.001675 385.20816 619.14160
714.0 0.001401 385.09985 720.48499
778.0 0.001285 384.99139 803.32257
734.0 0.001362 384.88297 758.19818
604.0 0.001656 384.77432 623.27710
491.0 0.002037 384.66559 525.04626
480.0 0.002083 384.55679 478.69867
452.0 0.002212 384.44794 464.36661
459.0 0.002179 384.33893 470.36288
484.0 0.002066 384.22995 498.03928
503.0 0.001988 384.12070 546.93719
570.0 0.001754 384.01154 599.65210
577.0 0.001733 383.90219 613.05481
578.0 0.001730 383.79285 560.16943
520.0 0.001923 383.68329 516.26361
498.0 0.002008 383.57379 510.30389
570.0 0.001754 383.46405 546.83600
637.0 0.001570 383.35437 623.92462
691.0 0.001447 383.24460 736.06158
887.0 0.001127 383.13470 847.50757
962.0 0.001040 383.02478 928.28149
1017.0 0.000983 382.91458 984.35742
982.0 0.001018 382.80450 990.98383
1043.0 0.000959 382.69431 1020.88794
1014.0 0.000986 382.58398 978.10394
795.0 0.001258 382.47372 810.54675
737.0 0.001357 382.36328 703.55688
686.0 0.001458 382.25278 696.46008
794.0 0.001259 382.14215 755.38354
874.0 0.001144 382.03156 831.70013
973.0 0.001028 381.92084 932.53180
1106.0 0.000904 381.81000 1068.65564
1401.0 0.000714 381.69919 1289.32825
1725.0 0.000580 381.58826 1535.85193
1757.0 0.000569 381.47733 1562.55688
1514.0 0.000661 381.36612 1368.90918
1243.0 0.000805 381.25500 1210.15186
1044.0 0.000958 381.14389 986.58032
828.0 0.001208 381.03253 778.87549
718.0 0.001393 380.92123 676.54993
628.0 0.001592 380.80984 662.62231
730.0 0.001370 380.69839 724.36047
896.0 0.001116 380.58685 831.26440
997.0 0.001003 380.47531 929.15863
989.0 0.001011 380.36368 918.24567
911.0 0.001098 380.25198 885.15668
865.0 0.001156 380.14020 865.38916
819.0 0.001221 380.02835 854.03143
820.0 0.001220 379.91644 902.12128
827.0 0.001209 379.80453 949.68329
728.0 0.001374 379.69254 849.74335
616.0 0.001623 379.58054 690.46112
551.0 0.001815 379.46835 607.06506
572.0 0.001748 379.35623 609.41113
681.0 0.001468 379.24405 685.97656
789.0 0.001267 379.13177 808.54785
877.0 0.001140 379.01938 922.31494
831.0 0.001203 378.90701 916.43372
740.0 0.001351 378.79465 845.37848
657.0 0.001522 378.68219 772.10852
571.0 0.001751 378.56964 670.74854
546.0 0.001832 378.45706 610.74408
598.0 0.001672 378.34445 618.90875
728.0 0.001374 378.23178 706.19427
880.0 0.001136 378.11908 888.70142
1093.0 0.000915 378.00632 1132.58276
1294.0 0.000773 377.89352 1356.95386
1327.0 0.000754 377.78067 1434.76672
1431.0 0.000699 377.66779 1521.53418
1662.0 0.000602 377.55484 1658.11475
1557.0 0.000642 377.44186 1542.85181
1191.0 0.000840 377.32886 1143.30615
826.0 0.001211 377.21582 839.93018
707.0 0.001414 377.10278 719.50397
680.0 0.001471 376.98962 725.10986
744.0 0.001344 376.87637 793.18542
829.0 0.001206 376.76321 865.67712
824.0 0.001214 376.64990 913.40692
948.0 0.001055 376.53665 989.17816
1029.0 0.000972 376.42334 1035.19800
950.0 0.001053 376.30997 898.36237
715.0 0.001399 376.19659 700.80457
583.0 0.001715 376.08316 582.81165
540.0 0.001852 375.96970 546.65247
525.0 0.001905 375.85629 573.74841
613.0 0.001631 375.74277 651.15021
732.0 0.001366 375.62918 741.28888
774.0 0.001292 375.51559 768.36621
674.0 0.001484 375.40201 662.77667
491.0 0.002037 375.28842 549.67078
473.0 0.002114 375.17471 488.80853
478.0 0.002092 375.06100 466.37067
459.0 0.002179 374.94733 465.90823
502.0 0.001992 374.83362 485.04346
561.0 0.001783 374.71988 533.84674
640.0 0.001563 374.60605 622.97717
770.0 0.001299 374.49219 750.24573
873.0 0.001145 374.37839 867.18488
947.0 0.001056 374.26456 923.02917
972.0 0.001029 374.15070 860.73828
739.0 0.001353 374.03677 682.04321
553.0 0.001808 373.92291 547.44598
484.0 0.002066 373.80890 480.74826
442.0 0.002262 373.69498 455.46765
418.0 0.002392 373.58112 453.08740
462.0 0.002165 373.46704 471.31210
512.0 0.001953 373.35309 516.14703
585.0 0.001709 373.23904 578.90112
656.0 0.001524 373.12497 624.36700
620.0 0.001613 373.01096 587.59491
528.0 0.001894 372.89688 510.64551
483.0 0.002070 372.78281 462.85324
447.0 0.002237 372.66873 447.05301
435.0 0.002299 372.55463 456.48941
488.0 0.002049 372.44061 495.75497
555.0 0.001802 372.32642 575.04779
654.0 0.001529 372.21228 675.67096
722.0 0.001385 372.09818 737.88623
646.0 0.001548 371.98407 667.44824
515.0 0.001942 371.86996 547.14294
448.0 0.002232 371.75574 471.55685
424.0 0.002358 371.64163 438.19351
399.0 0.002506 371.52737 427.96384
393.0 0.002545 371.41333 432.35107
459.0 0.002179 371.29919 453.99240
486.0 0.002058 371.18497 496.26086
540.0 0.001852 371.07080 544.52417
575.0 0.001739 370.95657 561.56195
533.0 0.001876 370.84244 512.52789
447.0 0.002237 370.72836 455.32306
419.0 0.002387 370.61411 423.56033
425.0 0.002353 370.49994 409.97461
386.0 0.002591 370.38577 405.03293
418.0 0.002392 370.27164 403.92413
402.0 0.002488 370.15747 405.10886
416.0 0.002404 370.04327 408.37952
436.0 0.002294 369.92917 414.26340
435.0 0.002299 369.81494 423.53473
477.0 0.002096 369.70087 438.39536
493.0 0.002028 369.58676 467.08289
509.0 0.001965 369.47260 526.68958
670.0 0.001493 369.35846 649.08911
814.0 0.001229 369.24435 853.73309
1043.0 0.000959 369.13028 1074.23083
1087.0 0.000920 369.01617 1155.06702
949.0 0.001054 368.90210 984.68848
812.0 0.001232 368.78809 829.22394
780.0 0.001282 368.67398 783.53430
713.0 0.001403 368.55997 761.22223
638.0 0.001567 368.44598 671.30847
585.0 0.001709 368.33197 599.42017
589.0 0.001698 368.21799 605.01489
646.0 0.001548 368.10397 681.03461
741.0 0.001350 367.98999 770.85791
748.0 0.001337 367.87610 780.78760
647.0 0.001546 367.76212 680.66315
618.0 0.001618 367.64822 606.97504
581.0 0.001721 367.53436 584.07446
554.0 0.001805 367.42047 563.20416
512.0 0.001953 367.30664 506.87646
453.0 0.002208 367.19284 457.68225
440.0 0.002273 367.07898 430.85641
425.0 0.002353 366.96524 419.33990
414.0 0.002415 366.85153 416.00253
402.0 0.002488 366.73773 419.18622
416.0 0.002404 366.62399 430.65012
445.0 0.002247 366.51028 458.95688
522.0 0.001916 366.39664 513.78967
621.0 0.001610 366.28305 584.61505
637.0 0.001570 366.16946 630.28430
585.0 0.001709 366.05585 586.94952
481.0 0.002079 365.94229 507.10205
423.0 0.002364 365.82874 456.95682
424.0 0.002358 365.71530 438.59076
453.0 0.002208 365.60184 435.19049
477.0 0.002096 365.48840 445.14261
474.0 0.002110 365.37500 466.20706
510.0 0.001961 365.26163 498.94064
542.0 0.001845 365.14832 541.29749
594.0 0.001684 365.03500 581.14539
646.0 0.001548 364.92172 600.86450
696.0 0.001437 364.80841 658.73279
804.0 0.001244 364.69525 817.88525
1027.0 0.000974 364.58209 1046.70752
1146.0 0.000873 364.46906 1204.12195
987.0 0.001013 364.35593 1070.53076
760.0 0.001316 364.24286 802.41797
604.0 0.001656 364.12979 627.25562
554.0 0.001805 364.01688 552.28351
514.0 0.001946 363.90396 534.38422
608.0 0.001645 363.79108 546.13544
616.0 0.001623 363.67819 590.00330
654.0 0.001529 363.56543 689.79315
829.0 0.001206 363.45261 840.87061
982.0 0.001018 363.33997 998.50751
1043.0 0.000959 363.22723 1097.70435
1141.0 0.000876 363.11465 1231.40051
1340.0 0.000746 363.00198 1390.92017
1288.0 0.000776 362.88950 1343.12024
1007.0 0.000993 362.77701 1042.88025
787.0 0.001271 362.66452 806.29089
650.0 0.001538 362.55209 692.11334
645.0 0.001550 362.43976 632.48822
576.0 0.001736 362.32742 589.42914
578.0 0.001730 362.21521 590.45068
635.0 0.001575 362.10303 657.37085
727.0 0.001376 361.99091 791.33142
841.0 0.001189 361.87872 931.04199
856.0 0.001168 361.76666 953.47943
828.0 0.001208 361.65469 827.09595
699.0 0.001431 361.54276 706.30457
634.0 0.001577 361.43085 653.36194
669.0 0.001495 361.31900 659.47845
728.0 0.001374 361.20724 732.17633
900.0 0.001111 361.09552 930.05042
1176.0 0.000850 360.98383 1272.32751
1400.0 0.000714 360.87213 1625.05615
1486.0 0.000673 360.76062 1689.88269
1326.0 0.000754 360.64911 1374.20300
1069.0 0.000935 360.53772 1068.61658
871.0 0.001148 360.42627 840.81714
719.0 0.001391 360.31494 694.68243
655.0 0.001527 360.20364 637.98285
671.0 0.001490 360.09250 661.09174
770.0 0.001299 359.98141 773.69623
898.0 0.001114 359.87027 972.37921
1095.0 0.000913 359.75922 1173.66162
1187.0 0.000842 359.64828 1201.00989
1006.0 0.000994 359.53735 1013.36249
839.0 0.001192 359.42654 844.00146
784.0 0.001276 359.31583 752.22260
772.0 0.001295 359.20505 739.06525
832.0 0.001202 359.09442 814.38025
1022.0 0.000978 358.98386 954.30896
1170.0 0.000855 358.87338 1108.34656
1284.0 0.000779 358.76291 1260.25183
1544.0 0.000648 358.65250 1540.70911
1964.0 0.000509 358.54221 2055.46021
2685.0 0.000372 358.43207 2726.39771
3032.0 0.0003298 358.32184 3070.22754
2517.0 0.000397 358.21176 2477.07813
1619.0 0.000618 358.10175 1641.86414
1119.0 0.000894 357.99176 1156.79712
954.0 0.001048 357.88193 984.02655
945.0 0.001058 357.77213 960.20258
986.0 0.001014 357.66232 975.47595
1100.0 0.000909 357.55270 1044.82434
1201.0 0.000833 357.44312 1235.65674
1477.0 0.000677 357.33365 1546.05273
1762.0 0.000568 357.22424 1753.08972
1526.0 0.000655 357.11484 1509.41614
1057.0 0.000946 357.00552 1059.48621
799.0 0.001252 356.89639 754.36548
640.0 0.001563 356.78726 606.16968
528.0 0.001894 356.67822 543.39319
474.0 0.002110 356.56921 513.09399
463.0 0.002160 356.46030 486.93347
472.0 0.002119 356.35156 459.55698
465.0 0.002151 356.24280 441.53955
450.0 0.002222 356.13416 429.49857
432.0 0.002315 356.02563 420.87701
430.0 0.002326 355.91708 415.58289
452.0 0.002212 355.80869 411.86148
433.0 0.002309 355.70044 410.03680
390.0 0.002564 355.59216 410.14252
409.0 0.002445 355.48404 412.45050
407.0 0.002457 355.37595 417.86050
455.0 0.002198 355.26791 428.00998
495.0 0.002020 355.16006 451.95944
534.0 0.001873 355.05225 502.56503
660.0 0.001515 354.94455 594.17523
766.0 0.001305 354.83691 706.40570
774.0 0.001292 354.72928 766.52136
691.0 0.001447 354.62186 697.15887
639.0 0.001565 354.51456 603.73962
630.0 0.001587 354.40723 576.81012
686.0 0.001458 354.30002 609.45258
758.0 0.001319 354.19290 656.03156
742.0 0.001348 354.08588 657.32611
670.0 0.001493 353.97894 627.95251
647.0 0.001546 353.87213 614.39923
647.0 0.001546 353.76544 658.65436
696.0 0.001437 353.65878 743.49646
791.0 0.001264 353.55219 827.05743
912.0 0.001096 353.44568 902.20874
952.0 0.001050 353.33936 933.10077
872.0 0.001147 353.23309 846.36224
777.0 0.001287 353.12689 741.45697
699.0 0.001431 353.02087 680.53137
702.0 0.001425 352.91492 660.24554
737.0 0.001357 352.80896 704.19666
881.0 0.001135 352.70319 871.22986
1140.0 0.000877 352.59750 1186.92957
1450.0 0.000690 352.49188 1533.78809
1522.0 0.000657 352.38647 1622.93628
1219.0 0.000820 352.28107 1324.15466
899.0 0.001112 352.17575 968.34344
676.0 0.001479 352.07056 715.07233
572.0 0.001748 351.96536 584.31451
563.0 0.001776 351.86044 532.92078
549.0 0.001821 351.75555 533.02893
633.0 0.001580 351.65073 587.33746
743.0 0.001346 351.54608 710.58368
775.0 0.001290 351.44153 868.26746
862.0 0.001160 351.33707 944.58569
799.0 0.001252 351.23264 815.65356
614.0 0.001629 351.12836 629.30084
524.0 0.001908 351.02417 510.97147
456.0 0.002193 350.92014 455.45352
426.0 0.002347 350.81616 432.33859
421.0 0.002375 350.71237 420.52640
426.0 0.002347 350.60861 407.12863
425.0 0.002353 350.50494 395.57980
449.0 0.002227 350.40140 388.19342
365.0 0.002740 350.29803 384.38199
356.0 0.002809 350.19461 382.35065
391.0 0.002558 350.09146 381.92493
439.0 0.002278 349.98837 385.06174
428.0 0.002336 349.88544 394.14771
433.0 0.002309 349.78253 406.58813
446.0 0.002242 349.67978 413.87918
432.0 0.002315 349.57706 406.30731
406.0 0.002463 349.47455 396.61703
424.0 0.002358 349.37216 394.48495
423.0 0.002364 349.26984 396.14490
460.0 0.002174 349.16766 392.83929
422.0 0.002370 349.06552 383.60214
393.0 0.002545 348.96356 378.20523
435.0 0.002299 348.86166 377.87680
424.0 0.002358 348.75998 382.01785
425.0 0.002353 348.65839 386.29895
426.0 0.002347 348.55673 385.99829
394.0 0.002538 348.45538 382.79980
390.0 0.002564 348.35416 382.62686
396.0 0.002525 348.25296 385.72739
419.0 0.002387 348.15189 386.88116
416.0 0.002404 348.05099 386.37802
408.0 0.002451 347.95007 386.24271
432.0 0.002315 347.84946 389.65918
426.0 0.002347 347.74890 397.31262
444.0 0.002252 347.64838 411.19812
477.0 0.002096 347.54810 438.77316
523.0 0.001912 347.44781 495.34598
595.0 0.001681 347.34772 607.17236
685.0 0.001460 347.24786 775.75079
789.0 0.001267 347.14795 884.29132
803.0 0.001245 347.04822 787.04126
700.0 0.001429 346.94861 640.16290
585.0 0.001709 346.84906 563.34766
576.0 0.001736 346.74976 567.82489
665.0 0.001504 346.65051 663.84131
778.0 0.001285 346.55139 880.31592
1037.0 0.000964 346.45236 1181.47412
1205.0 0.000830 346.35345 1290.62610
1195.0 0.000837 346.25476 1102.96997
969.0 0.001032 346.15613 925.89502
799.0 0.001252 346.05762 783.73773
673.0 0.001486 345.95929 643.83868
614.0 0.001629 345.86105 554.46344
550.0 0.001818 345.76291 521.00763
539.0 0.001855 345.66495 538.58502
652.0 0.001534 345.56708 620.08569
760.0 0.001316 345.46933 782.23273
864.0 0.001157 345.37177 963.55518
1032.0 0.000969 345.27423 970.88873
864.0 0.001157 345.17691 809.05090
749.0 0.001335 345.07965 652.45050
669.0 0.001495 344.98260 587.25458
577.0 0.001733 344.88562 609.62787
690.0 0.001449 344.78885 680.84967
715.0 0.001399 344.69217 712.36017
690.0 0.001449 344.59552 692.55646
746.0 0.001340 344.49915 683.12683
720.0 0.001389 344.40283 649.09503
637.0 0.001570 344.30670 610.92474
611.0 0.001637 344.21060 581.22400
559.0 0.001789 344.11465 540.50769
558.0 0.001792 344.01892 517.24323
599.0 0.001669 343.92334 530.18958
577.0 0.001733 343.82782 582.01202
645.0 0.001550 343.73245 662.12329
745.0 0.001342 343.63718 758.96655
910.0 0.001099 343.54199 938.99060
1119.0 0.000894 343.44714 1218.30872
1359.0 0.000736 343.35233 1390.50061
1326.0 0.000754 343.25757 1261.75562
1218.0 0.000821 343.16309 1110.93811
1116.0 0.000896 343.06863 1039.51428
990.0 0.001010 342.97430 886.56506
810.0 0.001235 342.88028 714.12085
680.0 0.001471 342.78616 613.76422
649.0 0.001541 342.69232 587.20795
622.0 0.001608 342.59863 627.40631
683.0 0.001464 342.50497 737.28888
856.0 0.001168 342.41162 895.00110
971.0 0.001030 342.31824 969.34241
996.0 0.001004 342.22501 945.70703
1005.0 0.000995 342.13202 1008.50165
1163.0 0.000860 342.03915 1202.42151
1374.0 0.000728 341.94638 1490.67871
1552.0 0.000644 341.85376 1710.37463
1542.0 0.000649 341.76129 1490.58386
1259.0 0.000794 341.66901 1112.54724
926.0 0.001080 341.57681 886.99121
847.0 0.001181 341.48474 844.40479
989.0 0.001011 341.39282 987.29340
1209.0 0.000827 341.30112 1366.98083
1659.0 0.000603 341.20944 1979.69080
2248.0 0.000445 341.11795 2418.10083
2325.0 0.000430 341.02667 2198.30444
2030.0 0.000493 340.93542 1848.00500
1699.0 0.000589 340.84445 1649.54932
1563.0 0.000640 340.75354 1500.60486
1562.0 0.000640 340.66281 1459.02612
1515.0 0.000660 340.57224 1328.59790
1284.0 0.000779 340.48169 1084.95349
1070.0 0.000935 340.39139 971.50647
1033.0 0.000968 340.30121 1067.70483
1147.0 0.000872 340.21121 1305.44409
1339.0 0.000747 340.12131 1378.41919
1290.0 0.000775 340.03162 1135.26123
1028.0 0.000973 339.94199 895.30115
902.0 0.001109 339.85257 813.61450
877.0 0.001140 339.76334 859.21210
1001.0 0.000999 339.67416 913.13647
970.0 0.001031 339.58511 861.94196
907.0 0.001103 339.49628 775.02515
811.0 0.001233 339.40759 714.87164
682.0 0.001466 339.31909 622.86707
595.0 0.001681 339.23071 528.80298
493.0 0.002028 339.14243 470.03644
486.0 0.002058 339.05432 442.37851
477.0 0.002096 338.96634 436.08752
472.0 0.002119 338.87857 443.63599
493.0 0.002028 338.79092 449.90958
497.0 0.002012 338.70343 443.84058
512.0 0.001953 338.61609 446.18475
481.0 0.002079 338.52884 465.33875
486.0 0.002058 338.44186 474.72012
483.0 0.002070 338.35498 447.19348
458.0 0.002183 338.26822 412.73328
421.0 0.002375 338.18155 388.98132
395.0 0.002532 338.09512 377.72351
393.0 0.002545 338.00891 372.24261
410.0 0.002439 337.92276 369.34836
437.0 0.002288 337.83676 367.74390
390.0 0.002564 337.75095 366.97726
390.0 0.002564 337.66531 366.87839
402.0 0.002488 337.57977 364.96518
385.0 0.002597 337.49445 365.97473
385.0 0.002597 337.40918 368.01706
374.0 0.002674 337.32410 370.03293
379.0 0.002639 337.23926 374.06549
398.0 0.002513 337.15448 379.66592
411.0 0.002433 337.06995 387.55606
409.0 0.002445 336.98553 398.11554
435.0 0.002299 336.90115 416.09286
479.0 0.002088 336.81705 447.85358
522.0 0.001916 336.73315 510.87234
636.0 0.001572 336.64929 633.27930
794.0 0.001259 336.56561 837.72821
1020.0 0.000980 336.48212 1056.95093
1157.0 0.000864 336.39877 1152.52649
1222.0 0.000818 336.31561 1196.35889
1263.0 0.000792 336.23257 1134.07593
1067.0 0.000937 336.14969 891.08716
817.0 0.001224 336.06702 674.21332
640.0 0.001563 335.98444 557.31891
584.0 0.001712 335.90198 520.13208
544.0 0.001838 335.81982 543.98212
589.0 0.001698 335.73770 625.23407
640.0 0.001563 335.65579 741.65521
800.0 0.001250 335.57401 818.73083
874.0 0.001144 335.49240 819.64807
837.0 0.001195 335.41101 811.11621
859.0 0.001164 335.32968 758.18140
762.0 0.001312 335.24860 626.95776
615.0 0.001626 335.16757 516.30237
539.0 0.001855 335.08682 456.65271
515.0 0.001942 335.00610 437.65332
467.0 0.002141 334.92566 449.81088
538.0 0.001859 334.84531 485.17685
556.0 0.001799 334.76517 511.35226
542.0 0.001845 334.68518 481.78836
484.0 0.002066 334.60535 431.93677
452.0 0.002212 334.52563 397.39896
396.0 0.002525 334.44611 379.52539
387.0 0.002584 334.36670 371.53363
405.0 0.002469 334.28748 368.42880
429.0 0.002331 334.20850 367.96909
392.0 0.002551 334.12964 370.15652
398.0 0.002513 334.05090 377.36536
414.0 0.002415 333.97238 390.44446
431.0 0.002320 333.89392 401.23096
418.0 0.002392 333.81577 395.45966
414.0 0.002415 333.73764 383.12357
392.0 0.002551 333.65973 375.97302
382.0 0.002618 333.58194 375.12833
391.0 0.002558 333.50443 379.27597
414.0 0.002415 333.42700 387.91879
442.0 0.002262 333.34976 402.75784
447.0 0.002237 333.27264 430.08786
496.0 0.002016 333.19562 489.80972
587.0 0.001704 333.11899 612.48004
734.0 0.001362 333.04245 824.04370
922.0 0.001085 332.96597 1044.86548
950.0 0.001053 332.88965 1018.08398
840.0 0.001190 332.81354 785.37781
645.0 0.001550 332.73761 591.72760
474.0 0.002110 332.66180 486.46310
429.0 0.002331 332.58624 440.85873
439.0 0.002278 332.51074 425.96072
450.0 0.002222 332.43546 430.71750
479.0 0.002088 332.36029 462.26077
556.0 0.001799 332.28540 536.37006
652.0 0.001534 332.21060 661.38940
751.0 0.001332 332.13596 776.89423
766.0 0.001305 332.06146 750.16785
677.0 0.001477 331.98718 609.72766
549.0 0.001821 331.91309 491.66959
440.0 0.002273 331.83908 425.42917
424.0 0.002358 331.76529 393.98013
408.0 0.002451 331.69165 379.28583
382.0 0.002618 331.61823 372.88153
382.0 0.002618 331.54489 372.85086
386.0 0.002591 331.47174 379.67249
446.0 0.002242 331.39877 391.25986
466.0 0.002146 331.32602 394.56934
407.0 0.002457 331.25333 382.00143
416.0 0.002404 331.18094 367.89938
406.0 0.002463 331.10858 359.33231
389.0 0.002571 331.03644 355.43646
392.0 0.002551 330.96442 354.21124
395.0 0.002532 330.89261 354.39529
387.0 0.002584 330.82108 355.75015
384.0 0.002604 330.74957 358.30801
373.0 0.002681 330.67828 362.43600
386.0 0.002591 330.60715 369.19138
393.0 0.002545 330.53616 380.57370
413.0 0.002421 330.46536 399.68719
477.0 0.002096 330.39468 429.47815
458.0 0.002183 330.32419 472.95016
551.0 0.001815 330.25391 551.52734
632.0 0.001582 330.18375 701.54474
795.0 0.001258 330.11380 898.84302
952.0 0.001050 330.04398 953.46594
796.0 0.001256 329.97433 779.96185
697.0 0.001435 329.90491 594.29279
522.0 0.001916 329.83563 482.58664
458.0 0.002183 329.76648 431.60883
413.0 0.002421 329.69751 413.27313
406.0 0.002463 329.62875 412.33234
398.0 0.002513 329.56006 423.04932
438.0 0.002283 329.49158 450.22116
521.0 0.001919 329.42337 511.25705
588.0 0.001701 329.35519 605.30005
613.0 0.001631 329.28726 657.69751
599.0 0.001669 329.21945 589.12854
556.0 0.001799 329.15189 491.82114
463.0 0.002160 329.08441 429.11145
413.0 0.002421 329.01715 398.32574
393.0 0.002545 328.95001 380.76718
386.0 0.002591 328.88306 368.91000
377.0 0.002653 328.81631 361.78854
372.0 0.002688 328.74973 358.23410
361.0 0.002770 328.68329 357.42279
373.0 0.002681 328.61694 358.95615
382.0 0.002618 328.55090 364.10468
403.0 0.002481 328.48495 376.95868
446.0 0.002242 328.41919 404.64792
495.0 0.002020 328.35358 452.46732
570.0 0.001754 328.28815 503.73383
611.0 0.001637 328.22284 501.72797
556.0 0.001799 328.15781 451.28873
466.0 0.002146 328.09286 406.85159
407.0 0.002457 328.02811 383.32617
401.0 0.002494 327.96353 377.47116
397.0 0.002519 327.89911 381.88074
400.0 0.002500 327.83490 392.98859
431.0 0.002320 327.77078 406.02649
471.0 0.002123 327.70688 428.81198
485.0 0.002062 327.64310 473.42361
507.0 0.001972 327.57953 522.62738
535.0 0.001869 327.51611 520.76868
536.0 0.001866 327.45291 471.25446
466.0 0.002146 327.38977 426.38974
418.0 0.002392 327.32690 405.78226
431.0 0.002320 327.26410 406.76398
410.0 0.002439 327.20160 430.91428
465.0 0.002151 327.13919 489.17331
562.0 0.001779 327.07697 595.40210
690.0 0.001449 327.01486 735.49420
748.0 0.001337 326.95297 794.05597
718.0 0.001393 326.89130 700.20868
573.0 0.001745 326.82977 575.45374
522.0 0.001916 326.76831 481.73120
431.0 0.002320 326.70712 429.58554
392.0 0.002551 326.64606 407.06860
413.0 0.002421 326.58517 401.55643
412.0 0.002427 326.52448 410.03888
445.0 0.002247 326.46393 439.37207
472.0 0.002119 326.40356 503.15302
533.0 0.001876 326.34329 605.04742
618.0 0.001618 326.28326 690.60706
644.0 0.001553 326.22339 656.37872
614.0 0.001629 326.16367 567.57385
556.0 0.001799 326.10416 512.22363
542.0 0.001845 326.04489 486.64392
487.0 0.002053 325.98563 457.61890
416.0 0.002404 325.92657 426.79794
416.0 0.002404 325.86765 409.09140
418.0 0.002392 325.80899 405.88132
467.0 0.002141 325.75046 416.01080
431.0 0.002320 325.69208 440.85162
504.0 0.001984 325.63391 478.40784
527.0 0.001898 325.57596 519.24725
579.0 0.001727 325.51801 581.49396
693.0 0.001443 325.46036 711.04181
884.0 0.001131 325.40280 896.55981
964.0 0.001037 325.34543 977.76227
891.0 0.001122 325.28824 833.02966
709.0 0.001410 325.23123 647.19678
545.0 0.001835 325.17435 528.04541
499.0 0.002004 325.11768 471.04871
461.0 0.002169 325.06116 450.68661
428.0 0.002336 325.00476 450.03726
460.0 0.002174 324.94864 464.32321
515.0 0.001942 324.89255 498.62991
546.0 0.001832 324.83679 566.64777
650.0 0.001538 324.78110 682.91833
828.0 0.001208 324.72556 830.88574
974.0 0.001027 324.67020 952.52411
1126.0 0.000888 324.61493 1111.07446
1368.0 0.000731 324.55994 1373.58472
1549.0 0.000646 324.50507 1554.32007
1526.0 0.000655 324.45041 1457.36035
1413.0 0.000708 324.39587 1343.50684
1320.0 0.000758 324.34149 1304.68994
1193.0 0.000838 324.28729 1125.56299
912.0 0.001096 324.23331 866.33002
726.0 0.001377 324.17941 685.23474
612.0 0.001634 324.12579 601.05035
592.0 0.001689 324.07224 595.09595
639.0 0.001565 324.01886 660.63763
746.0 0.001340 323.96561 796.09851
897.0 0.001115 323.91266 953.92474
951.0 0.001052 323.85974 1002.65594
1010.0 0.000990 323.80701 961.17627
1021.0 0.000979 323.75446 988.90460
1050.0 0.000952 323.70218 1070.78455
1152.0 0.000868 323.64990 1147.89172
1253.0 0.000798 323.59790 1221.51746
1205.0 0.000830 323.54593 1120.47693
997.0 0.001003 323.49429 888.43427
710.0 0.001408 323.44269 692.54016
553.0 0.001808 323.39139 578.45386
538.0 0.001859 323.34009 538.32410
550.0 0.001818 323.28909 557.53510
572.0 0.001748 323.23810 625.96301
683.0 0.001464 323.18744 708.98419
769.0 0.001300 323.13687 735.73413
729.0 0.001372 323.08646 744.39465
776.0 0.001289 323.03619 780.76184
765.0 0.001307 322.98618 788.84106
715.0 0.001399 322.93622 696.74506
606.0 0.001650 322.88644 578.38196
475.0 0.002105 322.83685 492.93869
438.0 0.002283 322.78745 448.46494
434.0 0.002304 322.73819 437.50128
451.0 0.002217 322.68909 453.11121
513.0 0.001949 322.64014 487.76239
523.0 0.001912 322.59131 510.80038
489.0 0.002045 322.54269 493.51288
482.0 0.002075 322.49429 462.49350
474.0 0.002110 322.44604 435.73395
431.0 0.002320 322.39783 421.88950
420.0 0.002381 322.34991 433.33252
467.0 0.002141 322.30200 479.61334
528.0 0.001894 322.25446 571.58392
630.0 0.001587 322.20700 696.08368
700.0 0.001429 322.15967 745.98828
645.0 0.001550 322.11249 649.34576
547.0 0.001828 322.06546 528.61072
465.0 0.002151 322.01862 451.66452
433.0 0.002309 321.97195 416.76733
438.0 0.002283 321.92542 408.57901
430.0 0.002326 321.87903 415.45294
476.0 0.002101 321.83286 425.74799
511.0 0.001957 321.78680 435.79144
503.0 0.001988 321.74091 453.51468
518.0 0.001931 321.69516 496.36682
557.0 0.001795 321.64960 552.65826
577.0 0.001733 321.60419 557.23175
526.0 0.001901 321.55899 502.18338
478.0 0.002092 321.51389 449.10040
426.0 0.002347 321.46893 425.27411
444.0 0.002252 321.42413 434.80093
505.0 0.001980 321.37952 476.61914
523.0 0.001912 321.33511 536.13361
580.0 0.001724 321.29083 556.69800
564.0 0.001773 321.24667 507.50632
508.0 0.001969 321.20267 449.31152
459.0 0.002179 321.15887 415.59122
429.0 0.002331 321.11517 405.74673
422.0 0.002370 321.07172 411.14304
425.0 0.002353 321.02838 421.23831
446.0 0.002242 320.98511 443.17169
509.0 0.001965 320.94208 494.60275
603.0 0.001658 320.89923 576.58203
666.0 0.001502 320.85651 638.81836
656.0 0.001524 320.81393 621.69739
551.0 0.001815 320.77148 557.70099
489.0 0.002045 320.72922 490.28430
463.0 0.002160 320.68710 453.39905
411.0 0.002433 320.64511 452.74750
477.0 0.002096 320.60339 489.92322
515.0 0.001942 320.56177 562.06781
622.0 0.001608 320.52020 636.78607
692.0 0.001445 320.47888 645.59595
646.0 0.001548 320.43771 618.11993
616.0 0.001623 320.39664 631.39246
698.0 0.001433 320.35583 683.49683
752.0 0.001330 320.31506 746.62036
766.0 0.001305 320.27448 775.46661
757.0 0.001321 320.23410 703.45935
637.0 0.001570 320.19388 604.14526
575.0 0.001739 320.15375 558.86359
569.0 0.001757 320.11380 592.53418
699.0 0.001431 320.07394 709.58185
798.0 0.001253 320.03433 872.36414
906.0 0.001104 319.99481 938.46954
888.0 0.001126 319.95541 818.55432
697.0 0.001435 319.91632 666.93036
604.0 0.001656 319.87720 588.16608
571.0 0.001751 319.83832 578.33582
554.0 0.001805 319.79956 575.93817
524.0 0.001908 319.76096 529.90900
487.0 0.002053 319.72253 474.68442
463.0 0.002160 319.68427 445.27869
451.0 0.002217 319.64612 450.39728
473.0 0.002114 319.60818 490.88913
521.0 0.001919 319.57028 555.12134
542.0 0.001845 319.53256 584.92896
532.0 0.001880 319.49506 534.69659
477.0 0.002096 319.45767 467.72141
428.0 0.002336 319.42041 426.72159
403.0 0.002481 319.38327 412.23380
392.0 0.002551 319.34637 413.55850
424.0 0.002358 319.30957 423.19775
433.0 0.002309 319.27289 435.88394
435.0 0.002299 319.23636 439.78677
443.0 0.002257 319.20001 444.79156
456.0 0.002193 319.16376 474.89627
526.0 0.001901 319.12772 540.15991
625.0 0.001600 319.09180 627.28931
694.0 0.001441 319.05600 719.03589
752.0 0.001330 319.02039 755.97919
672.0 0.001488 318.98486 666.50629
571.0 0.001751 318.94955 547.54712
507.0 0.001972 318.91431 468.53952
423.0 0.002364 318.87927 430.13306
422.0 0.002370 318.84442 415.76572
388.0 0.002577 318.80960 407.11227
409.0 0.002445 318.77499 403.31155
416.0 0.002404 318.74057 414.90747
476.0 0.002101 318.70621 445.19772
438.0 0.002283 318.67206 488.09949
502.0 0.001992 318.63794 536.00873
540.0 0.001852 318.60406 561.06659
541.0 0.001848 318.57031 525.88855
482.0 0.002075 318.53668 468.13666
426.0 0.002347 318.50314 417.23804
366.0 0.002732 318.46985 382.58798
324.0 0.003086 318.43674 363.45090
372.0 0.002688 318.40363 353.52505
303.0 0.003300 318.37076 348.40274
329.0 0.003040 318.33795 346.33423
351.0 0.002849 318.30533 346.16986
351.0 0.002849 318.27283 347.97412
322.0 0.003106 318.24054 352.20901
358.0 0.002793 318.20834 357.89630
354.0 0.002825 318.17621 366.07840
349.0 0.002865 318.14426 374.63275
351.0 0.002849 318.11255 383.22739
381.0 0.002625 318.08087 400.35135
409.0 0.002445 318.04932 434.04816
457.0 0.002188 318.01797 480.12408
494.0 0.002024 317.98669 526.37744
500.0 0.002000 317.95563 561.66968
519.0 0.001927 317.92471 547.21375
495.0 0.002020 317.89383 507.25500
484.0 0.002066 317.86316 496.43716
461.0 0.002169 317.83255 518.63898
485.0 0.002062 317.80215 530.76160
487.0 0.002053 317.77188 498.67181
460.0 0.002174 317.74176 461.21030
417.0 0.002398 317.71170 440.95956
398.0 0.002513 317.68176 438.28046
394.0 0.002538 317.65213 453.82846
422.0 0.002370 317.62253 479.55743
463.0 0.002160 317.59305 508.60419
483.0 0.002070 317.56369 522.47156
524.0 0.001908 317.53445 537.66364
569.0 0.001757 317.50543 593.39514
595.0 0.001681 317.47647 685.69556
645.0 0.001550 317.44766 759.63434
715.0 0.001399 317.41898 802.37927
748.0 0.001337 317.39047 807.96686
698.0 0.001433 317.36206 709.82208
578.0 0.001730 317.33371 576.35211
477.0 0.002096 317.30560 483.29932
414.0 0.002415 317.27762 434.65021
400.0 0.002500 317.24973 415.56860
393.0 0.002545 317.22195 413.60648
403.0 0.002481 317.19437 427.33841
419.0 0.002387 317.16684 459.84811
428.0 0.002336 317.13950 504.59973
478.0 0.002092 317.11215 540.04980
543.0 0.001842 317.08511 572.05157
539.0 0.001855 317.05823 610.43231
579.0 0.001727 317.03128 623.24274
569.0 0.001757 317.00461 635.35925
596.0 0.001678 316.97803 668.04907
580.0 0.001724 316.95154 648.40283
528.0 0.001894 316.92517 559.68762
437.0 0.002288 316.89896 477.71887
393.0 0.002545 316.87286 430.19891
385.0 0.002597 316.84689 413.60272
405.0 0.002469 316.82111 418.51566
431.0 0.002320 316.79535 440.24866
481.0 0.002079 316.76974 475.48599
480.0 0.002083 316.74429 505.76837
583.0 0.001715 316.71896 518.44348
542.0 0.001845 316.69382 548.70276
490.0 0.002041 316.66867 604.51050
540.0 0.001852 316.64368 618.26160
455.0 0.002198 316.61887 549.32556
447.0 0.002237 316.59412 469.14008
370.0 0.002703 316.56955 417.64767
366.0 0.002732 316.54507 394.78030
378.0 0.002646 316.52072 391.04022
396.0 0.002525 316.49652 396.64233
370.0 0.002703 316.47238 406.65613
426.0 0.002347 316.44836 416.32117
412.0 0.002427 316.42456 414.07455
365.0 0.002740 316.40076 410.38483
354.0 0.002825 316.37711 417.46906
404.0 0.002475 316.35364 424.90485
416.0 0.002404 316.33023 417.45813
418.0 0.002392 316.30695 413.64801
411.0 0.002433 316.28384 433.96475
483.0 0.002070 316.26077 487.93954
519.0 0.001927 316.23785 564.33948
513.0 0.001949 316.21506 599.16986
495.0 0.002020 316.19238 542.68951
429.0 0.002331 316.16983 463.11407
366.0 0.002732 316.14743 408.19904
325.0 0.003077 316.12506 379.76813
340.0 0.002941 316.10281 367.77820
354.0 0.002825 316.08072 361.92871
351.0 0.002849 316.05875 358.80295
348.0 0.002874 316.03693 361.48697
351.0 0.002849 316.01514 373.54160
374.0 0.002674 315.99353 399.10825
429.0 0.002331 315.97198 440.63675
462.0 0.002165 315.95053 481.53879
476.0 0.002101 315.92923 490.71979
481.0 0.002079 315.90811 487.40952
451.0 0.002217 315.88702 495.75586
416.0 0.002404 315.86609 487.26407
396.0 0.002525 315.84525 450.14145
352.0 0.002841 315.82443 415.17535
353.0 0.002833 315.80386 388.61713
340.0 0.002941 315.78329 367.09146
345.0 0.002899 315.76294 353.10037
326.0 0.003067 315.74261 345.34729
334.0 0.002994 315.72244 343.00861
319.0 0.003135 315.70236 346.11588
322.0 0.003106 315.68237 355.56293
374.0 0.002674 315.66251 371.56915
344.0 0.002907 315.64279 389.82822
354.0 0.002825 315.62317 399.33859
372.0 0.002688 315.60367 387.97229
356.0 0.002809 315.58420 369.29953
308.0 0.003247 315.56494 355.13898
297.0 0.003367 315.54562 343.98312
330.0 0.003030 315.52658 335.61664
313.0 0.003195 315.50757 330.61395
314.0 0.003185 315.48868 327.78204
348.0 0.002874 315.46991 326.81656
323.0 0.003096 315.45120 327.17072
328.0 0.003049 315.43262 328.24005
325.0 0.003077 315.41415 328.39679
332.0 0.003012 315.39581 326.25760
298.0 0.003356 315.37753 324.37192
334.0 0.002994 315.35934 323.17621
334.0 0.002994 315.34128 322.65878
323.0 0.003096 315.32336 322.61774
315.0 0.003175 315.30548 322.93756
321.0 0.003115 315.28775 323.52197
291.0 0.003436 315.27011 324.53149
336.0 0.002976 315.25250 326.29590
335.0 0.002985 315.23511 329.50522
314.0 0.003185 315.21774 335.28546
333.0 0.003003 315.20050 344.33670
344.0 0.002907 315.18335 354.35260
344.0 0.002907 315.16632 356.98636
345.0 0.002899 315.14932 351.60562
359.0 0.002786 315.13248 346.88885
352.0 0.002841 315.11572 347.18381
333.0 0.003003 315.09909 354.09476
352.0 0.002841 315.08249 371.38235
400.0 0.002500 315.06604 404.51163
467.0 0.002141 315.04959 457.47592
531.0 0.001883 315.03342 518.14551
570.0 0.001754 315.01721 558.92706
594.0 0.001684 315.00119 577.61041
590.0 0.001695 314.98520 549.48560
528.0 0.001894 314.96933 483.11261
433.0 0.002309 314.95355 423.16965
374.0 0.002674 314.93784 383.98322
349.0 0.002865 314.92221 363.16385
333.0 0.003003 314.90674 354.29971
331.0 0.003021 314.89130 353.46600
344.0 0.002907 314.87592 360.82452
399.0 0.002506 314.86069 378.14465
420.0 0.002381 314.84552 405.00763
421.0 0.002375 314.83051 430.18234
412.0 0.002427 314.81558 443.86438
440.0 0.002273 314.80069 443.55869
434.0 0.002304 314.78592 416.76843
407.0 0.002457 314.77127 381.66330
337.0 0.002967 314.75653 356.40262
320.0 0.003125 314.74213 341.87463
332.0 0.003012 314.72769 334.30298
332.0 0.003012 314.71338 330.37302
345.0 0.002899 314.69913 328.34299
318.0 0.003145 314.68500 327.82632
299.0 0.003344 314.67093 328.88889
322.0 0.003106 314.65692 331.80234
318.0 0.003145 314.64301 336.89316
349.0 0.002865 314.62921 341.99399
354.0 0.002825 314.61554 342.87396
316.0 0.003165 314.60184 340.97134
358.0 0.002793 314.58832 337.71573
332.0 0.003012 314.57480 332.69357
323.0 0.003096 314.56146 328.50375
311.0 0.003215 314.54816 325.88135
273.0 0.00366 314.53497 324.72626
318.0 0.003145 314.52179 324.58978
328.0 0.003049 314.50873 325.35880
334.0 0.002994 314.49576 327.14923
316.0 0.003165 314.48288 330.14990
321.0 0.003115 314.47009 334.47086
339.0 0.002950 314.45740 338.83356
361.0 0.002770 314.44473 342.25693
350.0 0.002857 314.43225 347.36786
364.0 0.002747 314.41971 357.66736
365.0 0.002740 314.40738 376.55042
414.0 0.002415 314.39502 406.96194
440.0 0.002273 314.38278 435.38855
485.0 0.002062 314.37057 436.72861
423.0 0.002364 314.35849 417.12933
384.0 0.002604 314.34653 391.28098
343.0 0.002915 314.33459 368.83502
327.0 0.003058 314.32275 356.86075
358.0 0.002793 314.31097 354.64520
362.0 0.002762 314.29929 358.88889
386.0 0.002591 314.28766 362.80170
382.0 0.002618 314.27609 361.86252
364.0 0.002747 314.26462 362.95920
356.0 0.002809 314.25320 373.01361
373.0 0.002681 314.24191 393.32068
376.0 0.002660 314.23071 416.08548
416.0 0.002404 314.21951 429.17990
447.0 0.002237 314.20840 430.11594
413.0 0.002421 314.19742 417.11459
415.0 0.002410 314.18640 407.51987
431.0 0.002320 314.17554 418.47592
441.0 0.002268 314.16470 454.53525
453.0 0.002208 314.15402 504.02341
476.0 0.002101 314.14337 531.23297
479.0 0.002088 314.13278 516.61627
438.0 0.002283 314.12225 472.77997
414.0 0.002415 314.11179 434.17581
383.0 0.002611 314.10141 419.95322
407.0 0.002457 314.09109 428.54788
446.0 0.002242 314.08084 456.21161
487.0 0.002053 314.07062 496.70248
503.0 0.001988 314.06052 523.81287
507.0 0.001972 314.05048 504.98264
454.0 0.002203 314.04050 466.66153
395.0 0.002532 314.03061 446.72739
393.0 0.002545 314.02072 446.23764
417.0 0.002398 314.01099 444.99011
431.0 0.002320 314.00131 431.02243
405.0 0.002469 313.99161 407.38715
396.0 0.002525 313.98203 388.91089
356.0 0.002809 313.97253 383.08496
356.0 0.002809 313.96310 389.14453
377.0 0.002653 313.95367 407.96066
416.0 0.002404 313.94440 441.63193
436.0 0.002294 313.93515 480.36230
431.0 0.002320 313.92593 502.02689
482.0 0.002075 313.91681 498.06479
404.0 0.002475 313.90768 472.22232
432.0 0.002315 313.89871 452.68265
451.0 0.002217 313.88974 447.31561
407.0 0.002457 313.88083 438.76437
380.0 0.002632 313.87207 425.74625
393.0 0.002545 313.86319 428.60715
436.0 0.002294 313.85452 458.45572
431.0 0.002320 313.84589 513.79059
487.0 0.002053 313.83722 567.22632
512.0 0.001953 313.82870 566.02240
477.0 0.002096 313.82031 520.26202
458.0 0.002183 313.81189 482.60849
414.0 0.002415 313.80344 460.80078
422.0 0.002370 313.79520 444.20578
401.0 0.002494 313.78693 433.32184
383.0 0.002611 313.77869 426.46588
419.0 0.002387 313.77063 419.58817
399.0 0.002506 313.76257 416.58945
418.0 0.002392 313.75452 431.80014
466.0 0.002146 313.74652 478.84604
538.0 0.001859 313.73865 566.13806
657.0 0.001522 313.73074 683.21045
754.0 0.001326 313.72293 767.15344
743.0 0.001346 313.71518 732.56549
626.0 0.001597 313.70752 613.67639
498.0 0.002008 313.69977 507.79178
448.0 0.002232 313.69226 443.23566
403.0 0.002481 313.68460 407.76657
395.0 0.002532 313.67719 387.10110
393.0 0.002545 313.66974 375.94760
395.0 0.002532 313.66235 372.79712
352.0 0.002841 313.65497 378.60999
364.0 0.002747 313.64771 397.09210
420.0 0.002381 313.64038 434.16434
473.0 0.002114 313.63321 486.85349
500.0 0.002000 313.62604 533.36359
476.0 0.002101 313.61893 531.65094
464.0 0.002155 313.61191 486.27982
463.0 0.002160 313.60492 440.33060
431.0 0.002320 313.59796 411.27313
425.0 0.002353 313.59100 402.33615
400.0 0.002500 313.58411 414.51105
465.0 0.002151 313.57730 453.10266
479.0 0.002088 313.57053 522.62488
539.0 0.001855 313.56381 607.57324
560.0 0.001786 313.55707 646.74463
562.0 0.001779 313.55048 602.99023
471.0 0.002123 313.54385 526.35577
438.0 0.002283 313.53732 458.95206
385.0 0.002597 313.53076 414.11874
380.0 0.002632 313.52432 390.63049
349.0 0.002865 313.51785 379.56491
388.0 0.002577 313.51147 374.92590
357.0 0.002801 313.50516 375.82687
389.0 0.002571 313.49887 383.96552
404.0 0.002475 313.49255 404.63620
438.0 0.002283 313.48639 441.42502
476.0 0.002101 313.48016 491.12006
526.0 0.001901 313.47400 529.97162
516.0 0.001938 313.46786 540.71997
527.0 0.001898 313.46179 556.27466
608.0 0.001645 313.45581 609.87427
787.0 0.001271 313.44980 693.09930
756.0 0.001323 313.44388 723.04388
727.0 0.001376 313.43793 643.13055
605.0 0.001653 313.43204 534.87415
483.0 0.002070 313.42621 456.47836
427.0 0.002342 313.42044 412.07465
411.0 0.002433 313.41464 391.32831
374.0 0.002674 313.40891 384.06509
367.0 0.002725 313.40314 385.93140
404.0 0.002475 313.39752 397.96664
451.0 0.002217 313.39188 427.43903
490.0 0.002041 313.38629 487.85541
595.0 0.001681 313.38074 592.14423
702.0 0.001425 313.37524 729.07928
838.0 0.001193 313.36978 811.83484
750.0 0.001333 313.36429 743.75085
587.0 0.001704 313.35880 607.21265
519.0 0.001927 313.35336 495.95367
428.0 0.002336 313.34796 428.08929
404.0 0.002475 313.34262 392.55121
359.0 0.002786 313.33737 375.15915
361.0 0.002770 313.33206 367.10028
358.0 0.002793 313.32681 364.99655
362.0 0.002762 313.32156 369.14182
377.0 0.002653 313.31641 382.61087
393.0 0.002545 313.31122 409.82031
420.0 0.002381 313.30612 450.09003
463.0 0.002160 313.30103 484.70981
458.0 0.002183 313.29590 477.95276
419.0 0.002387 313.29089 441.30664
405.0 0.002469 313.28580 408.89542
399.0 0.002506 313.28085 393.34616
388.0 0.002577 313.27585 397.23163
402.0 0.002488 313.27090 423.73642
452.0 0.002212 313.26596 475.93109
538.0 0.001859 313.26105 546.94000
573.0 0.001745 313.25626 591.85577
518.0 0.001931 313.25134 558.24719
456.0 0.002193 313.24646 489.11279
438.0 0.002283 313.24173 435.80258
411.0 0.002433 313.23700 410.14526
391.0 0.002558 313.23215 408.92581
400.0 0.002500 313.22745 431.36029
484.0 0.002066 313.22272 471.58688
540.0 0.001852 313.21802 519.09991
517.0 0.001934 313.21335 535.50281
525.0 0.001905 313.20877 507.16953
486.0 0.002058 313.20410 479.62045
446.0 0.002242 313.19952 477.79086
482.0 0.002075 313.19492 489.17575
485.0 0.002062 313.19031 477.63046
394.0 0.002538 313.18585 441.72061
415.0 0.002410 313.18121 409.91223
400.0 0.002500 313.17673 393.25940
391.0 0.002558 313.17224 392.09076
410.0 0.002439 313.16776 408.20218
433.0 0.002309 313.16330 444.41721
492.0 0.002033 313.15887 501.54852
575.0 0.001739 313.15442 568.60956
614.0 0.001629 313.15002 609.33441
624.0 0.001603 313.14557 589.25549
535.0 0.001869 313.14117 523.71045
481.0 0.002079 313.13684 465.35516
438.0 0.002283 313.13254 435.23572
452.0 0.002212 313.12820 435.21735
444.0 0.002252 313.12390 465.69699
504.0 0.001984 313.11954 526.50916
622.0 0.001608 313.11520 601.25684
627.0 0.001595 313.11102 637.21448
576.0 0.001736 313.10669 605.75708
539.0 0.001855 313.10242 552.67560
501.0 0.001996 313.09824 525.54089
538.0 0.001859 313.09393 537.03253
588.0 0.001701 313.08975 566.81433
610.0 0.001639 313.08557 582.44214
581.0 0.001721 313.08136 567.41333
503.0 0.001988 313.07715 522.59204
490.0 0.002041 313.07300 483.96643
513.0 0.001949 313.06879 473.19598
538.0 0.001859 313.06467 496.46707
563.0 0.001776 313.06046 555.67041
655.0 0.001527 313.05630 642.77454
806.0 0.001241 313.05225 739.81512
900.0 0.001111 313.04803 842.13770
920.0 0.001087 313.04395 895.81464
869.0 0.001151 313.03989 824.49402
712.0 0.001404 313.03577 698.81519
578.0 0.001730 313.03162 606.91669
547.0 0.001828 313.02756 553.80945
524.0 0.001908 313.02344 515.28955
515.0 0.001942 313.01932 485.13947
489.0 0.002045 313.01523 472.53506
506.0 0.001976 313.01117 482.44339
552.0 0.001812 313.00717 523.15967
643.0 0.001555 313.00305 610.62024
788.0 0.001269 312.99899 765.72491
1031.0 0.000970 312.99496 989.53070
1218.0 0.000821 312.99084 1214.13306
1341.0 0.000746 312.98679 1346.84912
1314.0 0.000761 312.98276 1344.83594
1110.0 0.000901 312.97873 1156.47302
887.0 0.001127 312.97467 891.23834
689.0 0.001451 312.97064 683.77606
526.0 0.001901 312.96655 557.78107
473.0 0.002114 312.96255 491.52704
437.0 0.002288 312.95847 461.11169
459.0 0.002179 312.95444 453.27374
465.0 0.002151 312.95041 464.54565
484.0 0.002066 312.94632 498.87094
552.0 0.001812 312.94229 562.04266
611.0 0.001637 312.93820 643.78741
667.0 0.001499 312.93420 714.00940
721.0 0.001387 312.93011 763.76599
719.0 0.001391 312.92609 759.38562
655.0 0.001527 312.92203 669.77094
618.0 0.001618 312.91800 564.56177
486.0 0.002058 312.91385 490.02805
461.0 0.002169 312.90979 449.05603
434.0 0.002304 312.90573 431.22928
425.0 0.002353 312.90167 427.59274
443.0 0.002257 312.89761 433.93405
448.0 0.002232 312.89346 449.75925
488.0 0.002049 312.88940 480.40213
529.0 0.001890 312.88535 537.12189
633.0 0.001580 312.88126 637.88281
809.0 0.001236 312.87711 807.67200
1043.0 0.000959 312.87302 1058.86426
1388.0 0.000720 312.86887 1372.40308
1620.0 0.000617 312.86481 1661.49329
1585.0 0.000631 312.86060 1664.47241
1273.0 0.000786 312.85645 1344.83398
944.0 0.001059 312.85226 991.87506
676.0 0.001479 312.84814 748.87933
556.0 0.001799 312.84402 617.47504
531.0 0.001883 312.83981 563.42200
568.0 0.001761 312.83566 555.38885
561.0 0.001783 312.83136 568.78375
590.0 0.001695 312.82718 584.11127
634.0 0.001577 312.82297 611.98645
654.0 0.001529 312.81879 680.81195
750.0 0.001333 312.81448 801.27936
922.0 0.001085 312.81030 959.67767
1090.0 0.000917 312.80600 1089.92542
1063.0 0.000941 312.80176 1060.20422
859.0 0.001164 312.79745 903.04205
727.0 0.001376 312.79315 755.64063
671.0 0.001490 312.78885 671.15991
629.0 0.001590 312.78448 638.88983
636.0 0.001572 312.78015 648.62720
694.0 0.001441 312.77582 693.48950
759.0 0.001318 312.77145 731.09027
757.0 0.001321 312.76706 731.58643
798.0 0.001253 312.76266 750.76837
865.0 0.001156 312.75821 825.14661
882.0 0.001134 312.75381 904.15088
830.0 0.001205 312.74939 869.33087
670.0 0.001493 312.74490 740.03510
589.0 0.001698 312.74048 621.11566
535.0 0.001869 312.73596 545.68298
481.0 0.002079 312.73148 509.32721
460.0 0.002174 312.72693 502.07950
487.0 0.002053 312.72238 511.47528
525.0 0.001905 312.71783 543.31555
630.0 0.001587 312.71332 605.34375
694.0 0.001441 312.70865 689.95428
751.0 0.001332 312.70407 788.96362
825.0 0.001212 312.69943 883.42474
904.0 0.001106 312.69479 905.83081
901.0 0.001110 312.69009 849.39081
720.0 0.001389 312.68539 737.50360
610.0 0.001639 312.68076 622.33490
538.0 0.001859 312.67603 547.79480
500.0 0.002000 312.67123 512.20721
466.0 0.002146 312.66647 486.81348
466.0 0.002146 312.66171 455.09067
446.0 0.002242 312.65686 428.17215
420.0 0.002381 312.65207 416.39850
436.0 0.002294 312.64722 423.75223
458.0 0.002183 312.64230 451.83871
479.0 0.002088 312.63739 495.89551
521.0 0.001919 312.63248 526.79657
506.0 0.001976 312.62756 509.09845
465.0 0.002151 312.62262 461.66086
437.0 0.002288 312.61755 421.11932
421.0 0.002375 312.61261 399.88425
400.0 0.002500 312.60751 394.73941
408.0 0.002451 312.60248 397.61835
415.0 0.002410 312.59735 396.01712
411.0 0.002433 312.59229 386.30212
401.0 0.002494 312.58713 376.55984
376.0 0.002660 312.58197 370.98724
384.0 0.002604 312.57681 371.42691
387.0 0.002584 312.57159 377.57681
413.0 0.002421 312.56635 391.79126
453.0 0.002208 312.56110 417.19962
471.0 0.002123 312.55573 459.54852
521.0 0.001919 312.55048 518.32196
581.0 0.001721 312.54517 579.72937
640.0 0.001563 312.53973 615.55811
655.0 0.001527 312.53436 628.78540
682.0 0.001466 312.52890 664.34442
804.0 0.001244 312.52350 752.66779
919.0 0.001088 312.51804 863.93640
916.0 0.001092 312.51242 906.06116
899.0 0.001112 312.50693 875.46643
850.0 0.001176 312.50137 854.25562
823.0 0.001215 312.49576 841.89099
765.0 0.001307 312.49014 791.75189
678.0 0.001475 312.48447 696.57355
581.0 0.001721 312.47876 609.88403
536.0 0.001866 312.47302 563.48303
571.0 0.001751 312.46729 549.93237
559.0 0.001789 312.46158 545.16473
548.0 0.001825 312.45572 541.58350
582.0 0.001718 312.44986 556.11963
642.0 0.001558 312.44397 603.84760
692.0 0.001445 312.43811 674.23560
750.0 0.001333 312.43210 729.12372
779.0 0.001284 312.42615 773.98590
848.0 0.001179 312.42020 863.96893
969.0 0.001032 312.41409 998.79321
1077.0 0.000929 312.40808 1092.17163
915.0 0.001093 312.40195 1020.07361
746.0 0.001340 312.39578 826.13873
619.0 0.001616 312.38962 646.10541
488.0 0.002049 312.38339 525.86255
426.0 0.002347 312.37717 457.40009
425.0 0.002353 312.37091 421.74194
418.0 0.002392 312.36462 403.70752
442.0 0.002262 312.35828 395.44919
405.0 0.002469 312.35187 394.99466
419.0 0.002387 312.34546 404.22165
416.0 0.002404 312.33899 428.07004
492.0 0.002033 312.33258 473.30344
585.0 0.001709 312.32602 540.42773
602.0 0.001661 312.31946 603.74200
596.0 0.001678 312.31277 605.94159
556.0 0.001799 312.30618 543.24341
461.0 0.002169 312.29953 476.32361
457.0 0.002188 312.29282 434.29495
452.0 0.002212 312.28610 417.15210
439.0 0.002278 312.27927 413.37555
430.0 0.002326 312.27246 405.82550
402.0 0.002488 312.26566 389.91580
391.0 0.002558 312.25876 372.33862
363.0 0.002755 312.25183 359.92224
371.0 0.002695 312.24484 353.73730
372.0 0.002688 312.23788 353.31448
360.0 0.002778 312.23077 359.58932
390.0 0.002564 312.22369 370.94159
414.0 0.002415 312.21658 380.57440
390.0 0.002564 312.20941 379.90182
383.0 0.002611 312.20221 372.28839
392.0 0.002551 312.19492 365.69449
411.0 0.002433 312.18765 363.60254
413.0 0.002421 312.18036 366.15521
382.0 0.002618 312.17297 367.67630
384.0 0.002604 312.16562 365.71542
405.0 0.002469 312.15814 363.48151
418.0 0.002392 312.15060 364.16415
423.0 0.002364 312.14310 369.96191
431.0 0.002320 312.13553 384.65384
438.0 0.002283 312.12787 407.86093
447.0 0.002237 312.12018 430.67572
445.0 0.002247 312.11249 430.76559
437.0 0.002288 312.10477 409.20157
414.0 0.002415 312.09702 383.65695
392.0 0.002551 312.08911 364.17737
376.0 0.002660 312.08124 352.13358
368.0 0.002717 312.07339 346.31155
355.0 0.002817 312.06540 345.09515
371.0 0.002695 312.05746 347.62180
395.0 0.002532 312.04944 353.48935
381.0 0.002625 312.04132 362.73672
397.0 0.002519 312.03320 375.77112
410.0 0.002439 312.02496 394.84317
423.0 0.002364 312.01675 424.86005
483.0 0.002070 312.00848 469.11951
555.0 0.001802 312.00018 518.75549
604.0 0.001656 311.99185 552.29651
590.0 0.001695 311.98346 542.10663
511.0 0.001957 311.97498 502.56104
482.0 0.002075 311.96649 475.56430
498.0 0.002008 311.95795 477.00079
503.0 0.001988 311.94937 497.62427
518.0 0.001931 311.94070 507.84323
498.0 0.002008 311.93204 488.82272
467.0 0.002141 311.92337 458.84592
446.0 0.002242 311.91458 435.29233
415.0 0.002410 311.90570 417.40347
420.0 0.002381 311.89688 408.43481
448.0 0.002232 311.88797 413.89056
452.0 0.002212 311.87903 434.74493
508.0 0.001969 311.87003 467.32626
525.0 0.001905 311.86099 497.00446
540.0 0.001852 311.85187 518.47406
546.0 0.001832 311.84274 546.23138
592.0 0.001689 311.83353 575.21295
589.0 0.001698 311.82425 581.79236
570.0 0.001754 311.81497 567.36536
551.0 0.001815 311.80566 553.00165
565.0 0.001770 311.79623 557.20782
558.0 0.001792 311.78687 585.74780
603.0 0.001658 311.77740 608.36115
625.0 0.001600 311.76782 579.71039
534.0 0.001873 311.75830 513.78662
442.0 0.002262 311.74863 454.36969
389.0 0.002571 311.73889 417.19296
402.0 0.002488 311.72925 401.42697
403.0 0.002481 311.71951 402.62650
402.0 0.002488 311.70956 415.66379
432.0 0.002315 311.69971 432.19144
445.0 0.002247 311.68982 438.68390
452.0 0.002212 311.67978 430.30942
448.0 0.002232 311.66977 422.17807
445.0 0.002247 311.65967 426.10846
443.0 0.002257 311.64957 443.21072
468.0 0.002137 311.63940 465.52618
494.0 0.002024 311.62918 471.98740
499.0 0.002004 311.61890 452.44873
443.0 0.002257 311.60858 425.99557
411.0 0.002433 311.59811 409.04053
416.0 0.002404 311.58774 404.66345
423.0 0.002364 311.57718 413.34869
455.0 0.002198 311.56674 437.17963
512.0 0.001953 311.55606 481.95218
620.0 0.001613 311.54544 556.58826
754.0 0.001326 311.53473 665.12317
849.0 0.001178 311.52399 802.14154
1068.0 0.000936 311.51318 954.47284
1109.0 0.000902 311.50235 1062.99915
979.0 0.001021 311.49139 1032.55078
824.0 0.001214 311.48053 878.89301
672.0 0.001488 311.46945 708.48755
559.0 0.001789 311.45840 585.57166
474.0 0.002110 311.44730 515.19067
495.0 0.002020 311.43610 483.73074
512.0 0.001953 311.42493 482.41599
553.0 0.001808 311.41367 512.74713
631.0 0.001585 311.40231 583.13959
795.0 0.001258 311.39090 700.63617
919.0 0.001088 311.37949 847.57727
962.0 0.001040 311.36804 948.50323
992.0 0.001008 311.35641 950.38458
883.0 0.001133 311.34485 909.95679
821.0 0.001218 311.33319 849.51062
721.0 0.001387 311.32150 747.39117
634.0 0.001577 311.30969 629.88934
526.0 0.001901 311.29791 536.39380
488.0 0.002049 311.28601 479.31470
440.0 0.002273 311.27414 453.03452
449.0 0.002227 311.26212 449.89072
476.0 0.002101 311.25015 463.60342
505.0 0.001980 311.23807 487.16940
502.0 0.001992 311.22589 517.86688
588.0 0.001701 311.21365 553.81024
615.0 0.001626 311.20145 581.50012
578.0 0.001730 311.18912 568.53107
526.0 0.001901 311.17682 512.61047
462.0 0.002165 311.16440 452.27603
392.0 0.002551 311.15189 407.53247
368.0 0.002717 311.13937 379.75870
367.0 0.002725 311.12680 364.39383
381.0 0.002625 311.11414 356.73309
377.0 0.002653 311.10144 354.16760
362.0 0.002762 311.08871 355.64066
361.0 0.002770 311.07590 360.76474
388.0 0.002577 311.06305 367.11246
398.0 0.002513 311.05008 370.59308
395.0 0.002532 311.03714 369.52695
390.0 0.002564 311.02414 363.99890
388.0 0.002577 311.01102 357.67035
358.0 0.002793 310.99792 353.12085
348.0 0.002874 310.98471 351.24881
328.0 0.003049 310.97150 350.45908
348.0 0.002874 310.95816 349.13144
382.0 0.002618 310.94470 347.22156
384.0 0.002604 310.93140 345.99820
390.0 0.002564 310.91794 346.97205
367.0 0.002725 310.90439 351.80045
358.0 0.002793 310.89078 362.88254
363.0 0.002755 310.87711 382.30103
411.0 0.002433 310.86337 409.84048
458.0 0.002183 310.84970 436.23187
437.0 0.002288 310.83585 442.53491
422.0 0.002370 310.82202 424.64029
414.0 0.002415 310.80807 402.46799
414.0 0.002415 310.79410 387.59714
412.0 0.002427 310.78000 383.46948
388.0 0.002577 310.76593 390.07211
389.0 0.002571 310.75180 407.98462
424.0 0.002358 310.73749 439.59027
468.0 0.002137 310.72330 485.34958
517.0 0.001934 310.70892 535.12018
566.0 0.001767 310.69452 568.55823
598.0 0.001672 310.68005 597.65698
648.0 0.001543 310.66553 662.60211
789.0 0.001267 310.65103 771.72253
961.0 0.001041 310.63635 871.94385
885.0 0.001130 310.62177 863.94281
797.0 0.001255 310.60699 756.36554
644.0 0.001553 310.59219 633.89355
524.0 0.001908 310.57739 533.78333
461.0 0.002169 310.56244 467.64633
452.0 0.002212 310.54749 433.00607
426.0 0.002347 310.53247 422.20901
452.0 0.002212 310.51743 430.13464
486.0 0.002058 310.50229 452.93073
478.0 0.002092 310.48706 480.97260
518.0 0.001931 310.47183 499.20670
533.0 0.001876 310.45645 508.91983
551.0 0.001815 310.44116 528.90747
577.0 0.001733 310.42578 568.23651
671.0 0.001490 310.41025 605.68988
633.0 0.001580 310.39468 599.55896
585.0 0.001709 310.37906 561.18188
562.0 0.001779 310.36343 525.47198
568.0 0.001761 310.34772 499.00687
533.0 0.001876 310.33194 470.51358
472.0 0.002119 310.31619 435.72733
419.0 0.002387 310.30026 406.40466
377.0 0.002653 310.28436 388.97800
367.0 0.002725 310.26831 383.66187
410.0 0.002439 310.25232 388.86478
427.0 0.002342 310.23618 402.87814
445.0 0.002247 310.21994 424.32202
518.0 0.001931 310.20374 452.89740
556.0 0.001799 310.18744 480.63281
506.0 0.001976 310.17108 483.60632
491.0 0.002037 310.15469 457.17133
449.0 0.002227 310.13821 428.50757
404.0 0.002475 310.12170 412.92709
418.0 0.002392 310.10513 408.19183
419.0 0.002387 310.08847 402.83237
394.0 0.002538 310.07178 391.18524
400.0 0.002500 310.05499 380.28540
400.0 0.002500 310.03821 376.32751
402.0 0.002488 310.02139 382.95575
397.0 0.002519 310.00436 403.70499
456.0 0.002193 309.98743 441.34280
526.0 0.001901 309.97040 493.19901
586.0 0.001706 309.95325 538.90106
598.0 0.001672 309.93616 547.38733
556.0 0.001799 309.91891 518.53192
455.0 0.002198 309.90158 473.26920
425.0 0.002353 309.88431 429.25720
398.0 0.002513 309.86691 395.80048
399.0 0.002506 309.84949 375.05307
388.0 0.002577 309.83200 363.80673
368.0 0.002717 309.81439 358.09125
367.0 0.002725 309.79678 355.33994
372.0 0.002688 309.77914 357.29681
364.0 0.002747 309.76141 364.19031
378.0 0.002646 309.74365 375.72101
367.0 0.002725 309.72577 392.61664
450.0 0.002222 309.70786 414.38934
432.0 0.002315 309.68988 433.18979
441.0 0.002268 309.67188 436.73096
452.0 0.002212 309.65384 431.91394
413.0 0.002421 309.63574 434.75607
482.0 0.002075 309.61749 451.02142
501.0 0.001996 309.59924 479.67032
544.0 0.001838 309.58093 509.04294
556.0 0.001799 309.56256 523.10254
550.0 0.001818 309.54416 536.48425
614.0 0.001629 309.52570 575.16925
670.0 0.001493 309.50711 640.55634
677.0 0.001477 309.48856 692.87775
724.0 0.001381 309.46994 686.05652
625.0 0.001600 309.45120 645.84741
626.0 0.001597 309.43240 606.78265
576.0 0.001736 309.41364 557.83545
513.0 0.001949 309.39474 499.46716
449.0 0.002227 309.37582 452.74139
438.0 0.002283 309.35684 426.43213
439.0 0.002278 309.33780 419.28934
460.0 0.002174 309.31873 426.82465
449.0 0.002227 309.29956 440.84268
458.0 0.002183 309.28036 451.32361
516.0 0.001938 309.26114 462.33966
486.0 0.002058 309.24179 488.23776
496.0 0.002016 309.22238 532.46405
564.0 0.001773 309.20300 574.44531
578.0 0.001730 309.18347 579.58435
566.0 0.001767 309.16394 555.79059
548.0 0.001825 309.14432 535.60461
518.0 0.001931 309.12466 525.88678
538.0 0.001859 309.10495 530.69037
587.0 0.001704 309.08521 566.71478
690.0 0.001449 309.06540 639.02307
777.0 0.001287 309.04547 721.22052
785.0 0.001274 309.02557 750.10229
703.0 0.001422 309.00558 691.38025
571.0 0.001751 308.98550 590.59167
481.0 0.002079 308.96539 503.79492
411.0 0.002433 308.94525 447.66074
391.0 0.002558 308.92505 418.56183
391.0 0.002558 308.90479 406.34836
369.0 0.002710 308.88452 398.94452
384.0 0.002604 308.86414 391.83167
390.0 0.002564 308.84372 388.93448
397.0 0.002519 308.82318 395.56046
413.0 0.002421 308.80270 417.32092
486.0 0.002058 308.78210 460.95383
520.0 0.001923 308.76147 530.26910
591.0 0.001692 308.74075 614.61328
609.0 0.001642 308.72000 669.94568
622.0 0.001608 308.69919 646.89063
534.0 0.001873 308.67838 566.78094
462.0 0.002165 308.65744 485.94867
402.0 0.002488 308.63647 428.83505
386.0 0.002591 308.61542 395.58252
351.0 0.002849 308.59436 378.48465
343.0 0.002915 308.57330 369.64133
355.0 0.002817 308.55206 364.54999
347.0 0.002882 308.53082 360.67026
341.0 0.002933 308.50949 356.22104
342.0 0.002924 308.48828 353.49283
376.0 0.002660 308.46686 355.63040
354.0 0.002825 308.44537 364.41888
374.0 0.002674 308.42389 378.87228
392.0 0.002551 308.40237 393.95724
387.0 0.002584 308.38080 396.33063
388.0 0.002577 308.35913 382.25146
390.0 0.002564 308.33743 364.33051
346.0 0.002890 308.31564 350.52097
333.0 0.003003 308.29388 342.49969
327.0 0.003058 308.27206 339.10486
341.0 0.002933 308.25012 338.34845
338.0 0.002959 308.22818 338.39163
371.0 0.002695 308.20612 338.55878
339.0 0.002950 308.18402 336.91824
330.0 0.003030 308.16196 334.22772
363.0 0.002755 308.13980 331.70322
359.0 0.002786 308.11755 330.40250
364.0 0.002747 308.09531 330.00485
346.0 0.002890 308.07297 331.01361
326.0 0.003067 308.05069 333.03052
350.0 0.002857 308.02820 336.06625
359.0 0.002786 308.00574 340.77985
370.0 0.002703 307.98331 348.21567
385.0 0.002597 307.96066 360.73755
416.0 0.002404 307.93811 381.40161
480.0 0.002083 307.91537 413.68137
534.0 0.001873 307.89270 456.93680
635.0 0.001575 307.86990 498.55817
631.0 0.001585 307.84711 517.85065
567.0 0.001764 307.82422 512.63281
543.0 0.001842 307.80133 506.91071
556.0 0.001799 307.77841 521.30670
561.0 0.001783 307.75540 549.51917
550.0 0.001818 307.73239 557.74829
494.0 0.002024 307.70926 526.14673
436.0 0.002294 307.68607 483.15762
465.0 0.002151 307.66290 456.34665
453.0 0.002208 307.63956 455.08817
463.0 0.002160 307.61630 481.37341
528.0 0.001894 307.59299 532.31750
609.0 0.001642 307.56958 597.60199
658.0 0.001520 307.54614 643.91101
608.0 0.001645 307.52258 638.76038
582.0 0.001718 307.49911 594.59259
533.0 0.001876 307.47562 540.99304
478.0 0.002092 307.45193 497.38358
484.0 0.002066 307.42825 476.66000
474.0 0.002110 307.40454 480.45541
490.0 0.002041 307.38074 497.26688
521.0 0.001919 307.35699 508.48376
528.0 0.001894 307.33313 512.79999
538.0 0.001859 307.30920 517.91162
527.0 0.001898 307.28528 512.84131
511.0 0.001957 307.26135 496.03522
461.0 0.002169 307.23730 486.47296
510.0 0.001961 307.21323 492.48865
524.0 0.001908 307.18912 503.79910
488.0 0.002049 307.16486 497.89685
445.0 0.002247 307.14069 468.86591
420.0 0.002381 307.11646 435.12332
384.0 0.002604 307.09216 412.20871
436.0 0.002294 307.06778 404.95914
406.0 0.002463 307.04337 413.58804
424.0 0.002358 307.01898 436.44995
462.0 0.002165 306.99457 467.47568
512.0 0.001953 306.97000 495.43942
546.0 0.001832 306.94543 520.52405
576.0 0.001736 306.92081 551.87543
631.0 0.001585 306.89612 580.80615
608.0 0.001645 306.87146 584.20001
536.0 0.001866 306.84674 546.12610
490.0 0.002041 306.82199 489.48950
405.0 0.002469 306.79718 440.35196
374.0 0.002674 306.77228 406.21289
367.0 0.002725 306.74744 386.38348
366.0 0.002732 306.72250 377.60748
394.0 0.002538 306.69751 377.23877
386.0 0.002591 306.67245 384.50970
403.0 0.002481 306.64740 400.60983
414.0 0.002415 306.62234 427.57898
466.0 0.002146 306.59717 466.33017
545.0 0.001835 306.57205 517.27191
648.0 0.001543 306.54672 584.48004
726.0 0.001377 306.52148 660.33466
742.0 0.001348 306.49625 703.34479
674.0 0.001484 306.47089 680.81866
571.0 0.001751 306.44553 618.96936
524.0 0.001908 306.42004 557.93335
505.0 0.001980 306.39462 512.50684
484.0 0.002066 306.36920 489.36771
497.0 0.002012 306.34357 494.04599
548.0 0.001825 306.31802 523.79626
610.0 0.001639 306.29242 565.52197
588.0 0.001701 306.26682 595.66498
539.0 0.001855 306.24112 589.33337
509.0 0.001965 306.21542 556.17859
519.0 0.001927 306.18967 522.61993
493.0 0.002028 306.16385 503.64383
502.0 0.001992 306.13800 506.13751
516.0 0.001938 306.11215 520.35175
532.0 0.001880 306.08624 521.10742
485.0 0.002062 306.06033 501.59753
459.0 0.002179 306.03430 483.00522
502.0 0.001992 306.00833 480.20865
535.0 0.001869 305.98233 496.43127
560.0 0.001786 305.95624 530.01733
609.0 0.001642 305.93011 565.31006
606.0 0.001650 305.90390 574.58582
564.0 0.001773 305.87778 557.91559
563.0 0.001776 305.85156 530.64539
521.0 0.001919 305.82529 493.87927
428.0 0.002336 305.79907 454.32251
400.0 0.002500 305.77271 420.05212
388.0 0.002577 305.74631 394.22214
394.0 0.002538 305.71994 377.12189
377.0 0.002653 305.69354 367.93558
355.0 0.002817 305.66711 364.06299
342.0 0.002924 305.64063 364.19382
381.0 0.002625 305.61407 369.60995
416.0 0.002404 305.58759 380.24884
410.0 0.002439 305.56097 396.03394
439.0 0.002278 305.53439 416.27759
460.0 0.002174 305.50775 434.00702
456.0 0.002193 305.48102 434.48248
443.0 0.002257 305.45441 416.54266
409.0 0.002445 305.42764 390.87643
379.0 0.002639 305.40094 368.36758
350.0 0.002857 305.37411 353.09985
313.0 0.003195 305.34729 345.03729
318.0 0.003145 305.32043 343.18018
350.0 0.002857 305.29355 346.28357
384.0 0.002604 305.26666 354.11462
394.0 0.002538 305.23972 364.76801
426.0 0.002347 305.21271 371.92877
364.0 0.002747 305.18582 369.17953
382.0 0.002618 305.15872 359.63559
356.0 0.002809 305.13171 349.89249
328.0 0.003049 305.10455 343.15839
337.0 0.002967 305.07751 340.78033
357.0 0.002801 305.05038 340.96014
367.0 0.002725 305.02319 340.07785
355.0 0.002817 304.99606 336.59680
339.0 0.002950 304.96887 332.32672
360.0 0.002778 304.94159 329.17905
367.0 0.002725 304.91437 328.04535
346.0 0.002890 304.88708 328.97284
332.0 0.003012 304.85977 332.42337
361.0 0.002770 304.83243 338.35571
375.0 0.002667 304.80505 346.19974
372.0 0.002688 304.77771 352.92203
342.0 0.002924 304.75021 354.52191
335.0 0.002985 304.72287 351.29340
338.0 0.002959 304.69537 347.07889
344.0 0.002907 304.66788 345.09802
364.0 0.002747 304.64044 347.05618
331.0 0.003021 304.61279 353.94556
388.0 0.002577 304.58527 366.59714
406.0 0.002463 304.55768 385.53033
433.0 0.002309 304.53015 408.31387
488.0 0.002049 304.50253 428.77719
462.0 0.002165 304.47488 445.66113
429.0 0.002331 304.44727 464.27985
480.0 0.002083 304.41956 482.38992
460.0 0.002174 304.39182 494.97232
518.0 0.001931 304.36420 517.62280
605.0 0.001653 304.33636 571.02197
644.0 0.001553 304.30862 660.75702
797.0 0.001255 304.28082 763.66351
782.0 0.001279 304.25299 813.21594
695.0 0.001439 304.22522 762.01270
591.0 0.001692 304.19742 656.74377
460.0 0.002174 304.16962 557.98370
431.0 0.002320 304.14169 489.68524
405.0 0.002469 304.11371 452.73392
397.0 0.002519 304.08594 438.31332
430.0 0.002326 304.05798 436.64154
430.0 0.002326 304.03003 442.54868
396.0 0.002525 304.00204 457.73550
453.0 0.002208 303.97409 480.96179
499.0 0.002004 303.94611 504.22672
498.0 0.002008 303.91806 520.59357
537.0 0.001862 303.89008 531.98944
548.0 0.001825 303.86194 553.23572
509.0 0.001965 303.83395 588.98279
551.0 0.001815 303.80588 615.66650
568.0 0.001761 303.77777 603.21503
544.0 0.001838 303.74973 565.93616
496.0 0.002016 303.72156 539.67639
550.0 0.001818 303.69345 545.17932
625.0 0.001600 303.66534 586.41833
739.0 0.001353 303.63715 648.70404
730.0 0.001370 303.60904 688.14294
616.0 0.001623 303.58081 664.89362
527.0 0.001898 303.55261 607.24384
505.0 0.001980 303.52438 562.42896
554.0 0.001805 303.49625 547.00891
552.0 0.001812 303.46802 551.02026
553.0 0.001808 303.43973 552.30951
541.0 0.001848 303.41150 543.79669
532.0 0.001880 303.38324 524.84216
505.0 0.001980 303.35501 491.00732
459.0 0.002179 303.32669 454.78333
429.0 0.002331 303.29840 430.45615
423.0 0.002364 303.27008 423.64960
425.0 0.002353 303.24182 436.14618
474.0 0.002110 303.21344 468.23254
537.0 0.001862 303.18518 515.75848
560.0 0.001786 303.15683 561.64282
556.0 0.001799 303.12848 577.71295
523.0 0.001912 303.10013 565.86780
548.0 0.001825 303.07175 559.65814
589.0 0.001698 303.04343 576.26971
587.0 0.001704 303.01508 603.09650
587.0 0.001704 302.98669 605.55768
566.0 0.001767 302.95834 573.10718
521.0 0.001919 302.92996 529.09607
469.0 0.002132 302.90155 488.37042
430.0 0.002326 302.87311 458.04495
461.0 0.002169 302.84473 445.17065
482.0 0.002075 302.81635 448.65332
450.0 0.002222 302.78793 456.64713
454.0 0.002203 302.75952 452.89139
445.0 0.002247 302.73108 434.90759
403.0 0.002481 302.70267 416.27744
392.0 0.002551 302.67426 403.95566
398.0 0.002513 302.64578 398.22861
372.0 0.002688 302.61743 400.13617
401.0 0.002494 302.58896 412.02414
412.0 0.002427 302.56055 429.97415
433.0 0.002309 302.53210 440.84106
415.0 0.002410 302.50369 432.51797
420.0 0.002381 302.47528 411.58737
344.0 0.002907 302.44678 391.03110
368.0 0.002717 302.41833 378.92816
372.0 0.002688 302.38995 377.80045
440.0 0.002273 302.36148 387.09955
399.0 0.002506 302.33310 404.74133
456.0 0.002193 302.30463 424.66901
458.0 0.002183 302.27615 442.40408
463.0 0.002160 302.24774 459.15024
508.0 0.001969 302.21933 469.05344
456.0 0.002193 302.19086 460.35318
466.0 0.002146 302.16241 441.48822
472.0 0.002119 302.13400 428.70279
433.0 0.002309 302.10565 429.56757
442.0 0.002262 302.07724 440.71326
499.0 0.002004 302.04886 458.80255
518.0 0.001931 302.02045 478.76959
524.0 0.001908 301.99200 483.79999
461.0 0.002169 301.96368 461.38589
421.0 0.002375 301.93524 426.87704
403.0 0.002481 301.90686 397.52405
385.0 0.002597 301.87842 378.66458
384.0 0.002604 301.85010 370.67749
388.0 0.002577 301.82175 373.04871
388.0 0.002577 301.79337 383.64731
402.0 0.002488 301.76501 398.61166
427.0 0.002342 301.73663 410.50323
408.0 0.002451 301.70831 416.62524
439.0 0.002278 301.68005 424.03848
474.0 0.002110 301.65170 436.67160
453.0 0.002208 301.62335 448.00824
430.0 0.002326 301.59509 451.72495
429.0 0.002331 301.56671 448.14551
463.0 0.002160 301.53848 440.21692
434.0 0.002304 301.51025 424.63641
380.0 0.002632 301.48203 401.93857
369.0 0.002710 301.45370 380.66068
341.0 0.002933 301.42545 365.87158
320.0 0.003125 301.39725 357.71576
372.0 0.002688 301.36902 355.10498
369.0 0.002710 301.34079 356.08484
358.0 0.002793 301.31265 359.39908
379.0 0.002639 301.28445 365.95932
398.0 0.002513 301.25632 378.40460
394.0 0.002538 301.22815 398.93521
424.0 0.002358 301.19995 429.07608
470.0 0.002128 301.17181 471.26505
533.0 0.001876 301.14377 522.89532
605.0 0.001653 301.11566 573.21350
632.0 0.001582 301.08759 597.60577
543.0 0.001842 301.05948 585.24634
541.0 0.001848 301.03146 565.28125
556.0 0.001799 301.00342 564.41180
605.0 0.001653 300.97540 580.99536
590.0 0.001695 300.94745 594.40204
551.0 0.001815 300.91943 588.07666
535.0 0.001869 300.89151 561.53491
444.0 0.002252 300.86349 525.36475
418.0 0.002392 300.83560 495.02032
441.0 0.002268 300.80771 481.16501
425.0 0.002353 300.77985 480.24957
457.0 0.002188 300.75189 477.43463
425.0 0.002353 300.72409 466.92239
395.0 0.002532 300.69629 460.43967
493.0 0.002028 300.66840 466.12280
485.0 0.002062 300.64059 479.43527
480.0 0.002083 300.61285 485.46109
462.0 0.002165 300.58505 480.36249
457.0 0.002188 300.55737 480.22360
474.0 0.002110 300.52966 497.11761
526.0 0.001901 300.50201 529.23431
595.0 0.001681 300.47427 562.23749
598.0 0.001672 300.44666 575.79755
580.0 0.001724 300.41904 553.99597
493.0 0.002028 300.39145 508.07587
446.0 0.002242 300.36389 464.02658
433.0 0.002309 300.33630 434.50522
414.0 0.002415 300.30884 417.27789
388.0 0.002577 300.28137 403.16705
360.0 0.002778 300.25391 387.75156
362.0 0.002762 300.22641 375.19055
359.0 0.002786 300.19901 369.03171
359.0 0.002786 300.17163 370.65216
374.0 0.002674 300.14426 380.60489
435.0 0.002299 300.11685 398.50989
458.0 0.002183 300.08963 421.36789
441.0 0.002268 300.06223 439.44901
440.0 0.002273 300.03500 444.21811
453.0 0.002208 300.00784 440.79031
456.0 0.002193 299.98059 433.43680
436.0 0.002294 299.95343 419.15469
414.0 0.002415 299.92627 402.91559
399.0 0.002506 299.89917 393.84000
396.0 0.002525 299.87213 397.29199
436.0 0.002294 299.84503 415.73080
472.0 0.002119 299.81796 449.17276
585.0 0.001709 299.79105 491.93259
616.0 0.001623 299.76407 526.00922
565.0 0.001770 299.73715 533.80475
543.0 0.001842 299.71021 527.29980
589.0 0.001698 299.68335 526.12170
557.0 0.001795 299.65656 527.63788
470.0 0.002128 299.62973 517.18549
438.0 0.002283 299.60300 492.81522
440.0 0.002273 299.57626 464.36319
432.0 0.002315 299.54950 441.23517
432.0 0.002315 299.52289 429.84769
425.0 0.002353 299.49625 432.24228
447.0 0.002237 299.46964 445.24869
440.0 0.002273 299.44308 455.53470
452.0 0.002212 299.41660 450.80438
450.0 0.002222 299.39008 437.72675
436.0 0.002294 299.36371 430.38306
454.0 0.002203 299.33734 432.49973
454.0 0.002203 299.31088 436.57239
453.0 0.002208 299.28461 431.98392
421.0 0.002375 299.25827 422.06693
377.0 0.002653 299.23196 415.12555
398.0 0.002513 299.20581 409.58209
361.0 0.002770 299.17960 398.65320
363.0 0.002755 299.15344 383.16660
358.0 0.002793 299.12732 370.06772
363.0 0.002755 299.10126 362.44958
367.0 0.002725 299.07529 360.87479
347.0 0.002882 299.04929 365.14307
412.0 0.002427 299.02335 374.26373
347.0 0.002882 298.99738 381.40143
357.0 0.002801 298.97153 378.63104
351.0 0.002849 298.94580 366.94247
333.0 0.003003 298.92001 354.29105
319.0 0.003135 298.89426 345.74124
340.0 0.002941 298.86859 343.09521
338.0 0.002959 298.84290 345.60068
353.0 0.002833 298.81729 350.58340
348.0 0.002874 298.79175 353.07010
343.0 0.002915 298.76633 350.20538
316.0 0.003165 298.74078 345.62616
334.0 0.002994 298.71539 343.56631
332.0 0.003012 298.69006 345.25229
338.0 0.002959 298.66467 349.42084
366.0 0.002732 298.63943 353.99756
362.0 0.002762 298.61411 360.15558
393.0 0.002545 298.58887 372.35840
422.0 0.002370 298.56384 392.21774
422.0 0.002370 298.53873 415.49228
430.0 0.002326 298.51373 429.45679
416.0 0.002404 298.48865 423.67108
388.0 0.002577 298.46368 403.20694
375.0 0.002667 298.43881 380.12030
363.0 0.002755 298.41391 362.42505
369.0 0.002710 298.38913 351.79117
352.0 0.002841 298.36438 345.13092
329.0 0.003040 298.33972 339.72665
319.0 0.003135 298.31497 334.99258
287.0 0.003484 298.29044 333.04276
312.0 0.003205 298.26590 334.48749
338.0 0.002959 298.24136 339.22980
321.0 0.003115 298.21698 346.82904
371.0 0.002695 298.19260 356.79694
390.0 0.002564 298.16821 369.83521
365.0 0.002740 298.14392 382.92044
358.0 0.002793 298.11966 390.59106
386.0 0.002591 298.09546 390.48953
379.0 0.002639 298.07141 381.34839
359.0 0.002786 298.04727 365.55066
374.0 0.002674 298.02325 348.62927
322.0 0.003106 297.99930 334.69833
325.0 0.003077 297.97534 324.98929
351.0 0.002849 297.95160 318.73618
320.0 0.003125 297.92776 315.17914
286.0 0.003497 297.90399 313.17255
320.0 0.003125 297.88031 312.44397
310.0 0.003226 297.85666 312.70285
312.0 0.003205 297.83313 314.03049
315.0 0.003175 297.80966 316.78394
319.0 0.003135 297.78616 321.04681
310.0 0.003226 297.76273 326.33200
340.0 0.002941 297.73947 331.41754
322.0 0.003106 297.71613 334.13031
349.0 0.002865 297.69296 335.23172
332.0 0.003012 297.66986 338.42499
317.0 0.003155 297.64670 346.40900
354.0 0.002825 297.62369 359.55130
351.0 0.002849 297.60071 374.38498
407.0 0.002457 297.57779 381.94629
386.0 0.002591 297.55493 375.08093
341.0 0.002933 297.53210 359.90088
333.0 0.003003 297.50943 345.71414
334.0 0.002994 297.48676 336.38470
336.0 0.002976 297.46411 332.78766
330.0 0.003030 297.44156 334.82388
344.0 0.002907 297.41907 342.38300
342.0 0.002924 297.39673 355.04315
388.0 0.002577 297.37439 370.66043
399.0 0.002506 297.35208 383.51895
416.0 0.002404 297.32986 384.64481
368.0 0.002717 297.30771 373.97247
347.0 0.002882 297.28564 361.12115
348.0 0.002874 297.26364 352.34674
335.0 0.002985 297.24161 350.07169
322.0 0.003106 297.21976 353.03265
349.0 0.002865 297.19791 357.34860
371.0 0.002695 297.17621 357.00449
375.0 0.002667 297.15451 351.05057
355.0 0.002817 297.13284 344.21765
343.0 0.002915 297.11130 340.23285
329.0 0.003040 297.08978 340.60278
341.0 0.002933 297.06842 346.77274
358.0 0.002793 297.04706 360.34290
361.0 0.002770 297.02579 383.40790
416.0 0.002404 297.00458 416.91678
500.0 0.002000 296.98340 457.91660
518.0 0.001931 296.96237 493.84464
511.0 0.001957 296.94141 507.93759
521.0 0.001919 296.92041 503.25604
483.0 0.002070 296.89963 489.93683
453.0 0.002208 296.87885 467.85016
417.0 0.002398 296.85809 439.05307
367.0 0.002725 296.83752 409.26953
391.0 0.002558 296.81693 383.09772
357.0 0.002801 296.79648 363.35040
345.0 0.002899 296.77600 350.59045
327.0 0.003058 296.75565 343.85352
304.0 0.003289 296.73544 342.31506
315.0 0.003175 296.71521 345.82883
344.0 0.002907 296.69510 355.38599
360.0 0.002778 296.67502 372.47202
405.0 0.002469 296.65503 397.84946
397.0 0.002519 296.63519 428.51782
448.0 0.002232 296.61536 455.07376
436.0 0.002294 296.59564 464.63751
428.0 0.002336 296.57593 455.92740
394.0 0.002538 296.55640 440.78967
397.0 0.002519 296.53690 426.04276
447.0 0.002237 296.51746 411.95776
407.0 0.002457 296.49805 400.36935
369.0 0.002710 296.47882 392.41403
411.0 0.002433 296.45963 387.63742
339.0 0.002950 296.44055 382.06323
364.0 0.002747 296.42145 374.04593
354.0 0.002825 296.40247 366.82800
354.0 0.002825 296.38358 364.04330
357.0 0.002801 296.36475 367.18323
374.0 0.002674 296.34607 375.29025
379.0 0.002639 296.32745 385.13562
376.0 0.002660 296.30887 394.58450
378.0 0.002646 296.29037 405.04388
438.0 0.002283 296.27197 417.77167
438.0 0.002283 296.25372 433.42514
467.0 0.002141 296.23547 455.49161
486.0 0.002058 296.21735 482.82727
515.0 0.001942 296.19922 506.55051
489.0 0.002045 296.18124 518.35065
483.0 0.002070 296.16339 513.14972
459.0 0.002179 296.14551 496.47375
462.0 0.002165 296.12784 482.00494
462.0 0.002165 296.11011 472.86459
455.0 0.002198 296.09265 465.70560
471.0 0.002123 296.07513 461.77362
473.0 0.002114 296.05774 462.45590
460.0 0.002174 296.04041 462.64474
461.0 0.002169 296.02319 455.09851
434.0 0.002304 296.00607 440.50027
410.0 0.002439 295.98907 428.43015
423.0 0.002364 295.97208 427.64575
451.0 0.002217 295.95520 442.89120
490.0 0.002041 295.93845 472.73987
547.0 0.001828 295.92169 509.56845
548.0 0.001825 295.90512 542.01221
550.0 0.001818 295.88861 565.08258
581.0 0.001721 295.87219 574.06586
536.0 0.001866 295.85577 565.72986
547.0 0.001828 295.83957 551.91187
536.0 0.001866 295.82343 542.16901
494.0 0.002024 295.80731 527.37451
490.0 0.002041 295.79132 500.05841
454.0 0.002203 295.77542 470.59235
445.0 0.002247 295.75961 449.10507
449.0 0.002227 295.74393 436.41562
399.0 0.002506 295.72833 429.09692
468.0 0.002137 295.71277 426.83130
480.0 0.002083 295.69730 429.21100
464.0 0.002155 295.68201 431.03864
403.0 0.002481 295.66675 429.28918
422.0 0.002370 295.65152 424.83997
444.0 0.002252 295.63651 419.61038
416.0 0.002404 295.62149 414.01260
445.0 0.002247 295.60669 409.51263
417.0 0.002398 295.59189 405.01733
401.0 0.002494 295.57715 399.13547
400.0 0.002500 295.56259 394.83160
388.0 0.002577 295.54810 392.18835
404.0 0.002475 295.53363 385.51022
385.0 0.002597 295.51938 372.13147
364.0 0.002747 295.50516 357.31638
348.0 0.002874 295.49100 346.11743
338.0 0.002959 295.47699 340.35452
337.0 0.002967 295.46301 339.74820
364.0 0.002747 295.44919 343.32520
351.0 0.002849 295.43549 348.56937
378.0 0.002646 295.42184 351.49884
317.0 0.003155 295.40829 349.79089
335.0 0.002985 295.39490 343.75919
321.0 0.003115 295.38156 335.39600
290.0 0.003448 295.36826 327.49576
305.0 0.003279 295.35513 321.89929
309.0 0.003236 295.34210 318.67203
304.0 0.003289 295.32913 317.64886
316.0 0.003165 295.31631 318.57831
330.0 0.003030 295.30350 321.36188
320.0 0.003125 295.29086 325.86026
340.0 0.002941 295.27829 331.03888
349.0 0.002865 295.26587 335.15240
351.0 0.002849 295.25351 337.73813
349.0 0.002865 295.24127 340.50851
326.0 0.003067 295.22916 346.51511
347.0 0.002882 295.21707 357.78912
388.0 0.002577 295.20514 372.72092
405.0 0.002469 295.19327 385.51678
396.0 0.002525 295.18161 386.72409
375.0 0.002667 295.16995 375.47116
372.0 0.002688 295.15842 359.62769
340.0 0.002941 295.14700 346.39099
320.0 0.003125 295.13568 338.30441
335.0 0.002985 295.12445 335.52646
344.0 0.002907 295.11334 337.64349
358.0 0.002793 295.10226 343.63898
360.0 0.002778 295.09137 352.85083
367.0 0.002725 295.08057 362.57373
388.0 0.002577 295.06989 371.70410
423.0 0.002364 295.05933 383.22873
420.0 0.002381 295.04883 401.76172
437.0 0.002288 295.03842 430.03751
494.0 0.002024 295.02814 466.29260
536.0 0.001866 295.01797 499.14005
594.0 0.001684 295.00790 514.47699
555.0 0.001802 294.99799 508.44666
475.0 0.002105 294.98816 481.79898
407.0 0.002457 294.97836 442.39505
351.0 0.002849 294.96875 404.41275
367.0 0.002725 294.95917 375.67798
331.0 0.003021 294.94980 356.97531
366.0 0.002732 294.94040 346.39755
364.0 0.002747 294.93124 341.34088
355.0 0.002817 294.92221 340.42065
362.0 0.002762 294.91312 343.16998
351.0 0.002849 294.90427 348.45828
349.0 0.002865 294.89557 355.95294
371.0 0.002695 294.88684 367.19174
373.0 0.002681 294.87830 384.02289
398.0 0.002513 294.86990 404.80984
430.0 0.002326 294.86151 423.31998
438.0 0.002283 294.85333 432.70078
471.0 0.002123 294.84525 430.75375
421.0 0.002375 294.83725 419.69064
401.0 0.002494 294.82938 403.64026
380.0 0.002632 294.82156 386.52585
365.0 0.002740 294.81390 373.19830
361.0 0.002770 294.80634 365.06738
357.0 0.002801 294.79898 360.91776
352.0 0.002841 294.79169 357.46890
332.0 0.003012 294.78439 352.41776
348.0 0.002874 294.77731 347.30545
355.0 0.002817 294.77036 344.83856
347.0 0.002882 294.76349 346.13538
347.0 0.002882 294.75668 351.60837
344.0 0.002907 294.75009 362.16641
374.0 0.002674 294.74353 378.70255
417.0 0.002398 294.73709 400.71948
395.0 0.002532 294.73080 424.96268
430.0 0.002326 294.72464 442.36026
435.0 0.002299 294.71851 441.82608
402.0 0.002488 294.71255 421.94363
396.0 0.002525 294.70676 395.79959
353.0 0.002833 294.70105 373.92303
338.0 0.002959 294.69540 359.60382
350.0 0.002857 294.68991 351.86420
339.0 0.002950 294.68451 348.65216
331.0 0.003021 294.67920 347.85419
346.0 0.002890 294.67413 348.16235
345.0 0.002899 294.66904 349.73532
335.0 0.002985 294.66418 353.82599
333.0 0.003003 294.65936 360.18982
360.0 0.002778 294.65469 367.46481
396.0 0.002525 294.65012 376.61063
414.0 0.002415 294.64572 391.00351
437.0 0.002288 294.64136 413.33344
459.0 0.002179 294.63718 440.79941
467.0 0.002141 294.63306 463.95908
496.0 0.002016 294.62912 471.92087
454.0 0.002203 294.62521 464.85941
450.0 0.002222 294.62158 455.87665
461.0 0.002169 294.61789 454.91376
475.0 0.002105 294.61438 461.23611
480.0 0.002083 294.61105 464.79855
439.0 0.002278 294.60779 460.79193
444.0 0.002252 294.60461 455.37830
464.0 0.002155 294.60159 451.71814
438.0 0.002283 294.59872 445.02209
422.0 0.002370 294.59589 432.96048
388.0 0.002577 294.59329 418.32932
362.0 0.002762 294.59073 402.17142
381.0 0.002625 294.58835 386.81656
396.0 0.002525 294.58609 375.57114
370.0 0.002703 294.58386 370.48965
373.0 0.002681 294.58188 371.54343
392.0 0.002551 294.57986 375.62939
344.0 0.002907 294.57813 378.18805
383.0 0.002611 294.57645 378.24411
406.0 0.002463 294.57489 380.03082
375.0 0.002667 294.57343 387.07272
377.0 0.002653 294.57211 397.97943
405.0 0.002469 294.57095 406.17337
379.0 0.002639 294.56982 405.72394
395.0 0.002532 294.56894 399.34116
411.0 0.002433 294.56805 393.26978
424.0 0.002358 294.56735 387.97763
388.0 0.002577 294.56677 381.24890
372.0 0.002688 294.56635 373.49741
356.0 0.002809 294.56607 366.42554
352.0 0.002841 294.56583 361.55588
355.0 0.002817 294.56577 361.08707
377.0 0.002653 294.56580 366.48721
384.0 0.002604 294.56598 377.42053
428.0 0.002336 294.56631 391.28116
434.0 0.002304 294.56668 400.27176
409.0 0.002445 294.56726 398.24789
372.0 0.002688 294.56790 389.84570
384.0 0.002604 294.56866 383.97751
375.0 0.002667 294.56952 384.79791
383.0 0.002611 294.57065 391.12048
398.0 0.002513 294.57181 397.30499
392.0 0.002551 294.57306 396.41229
370.0 0.002703 294.57455 386.68082
360.0 0.002778 294.57608 373.04089
352.0 0.002841 294.57773 361.44885
353.0 0.002833 294.57959 354.89984
358.0 0.002793 294.58145 354.48666
355.0 0.002817 294.58353 360.28186
384.0 0.002604 294.58575 371.75009
433.0 0.002309 294.58801 386.67648
425.0 0.002353 294.59045 401.34692
420.0 0.002381 294.59305 413.70193
452.0 0.002212 294.59567 426.06140
458.0 0.002183 294.59857 439.50311
451.0 0.002217 294.60156 453.56238
506.0 0.001976 294.60455 471.70624
557.0 0.001795 294.60776 497.71567
589.0 0.001698 294.61108 523.65558
518.0 0.001931 294.61459 531.92053
463.0 0.002160 294.61819 514.78394
463.0 0.002160 294.62183 484.35254
483.0 0.002070 294.62570 455.71768
420.0 0.002381 294.62967 438.64221
386.0 0.002591 294.63373 437.82193
452.0 0.002212 294.63803 453.93640
507.0 0.001972 294.64240 485.00455
580.0 0.001724 294.64682 522.48669
576.0 0.001736 294.65146 549.22711
534.0 0.001873 294.65625 553.86011
540.0 0.001852 294.66110 544.78918
519.0 0.001927 294.66617 536.25012
483.0 0.002070 294.67126 539.75989
607.0 0.001647 294.67654 560.97461
605.0 0.001653 294.68188 592.73407
634.0 0.001577 294.68744 614.01880
563.0 0.001776 294.69312 607.54510
562.0 0.001779 294.69888 579.77515
505.0 0.001980 294.70486 542.83679
467.0 0.002141 294.71088 504.10834
452.0 0.002212 294.71704 470.64761
407.0 0.002457 294.72339 443.72833
393.0 0.002545 294.72983 422.64297
405.0 0.002469 294.73645 409.69412
366.0 0.002732 294.74310 406.63440
412.0 0.002427 294.74997 412.70572
427.0 0.002342 294.75690 423.23660
414.0 0.002415 294.76401 429.18796
395.0 0.002532 294.77121 425.52878
407.0 0.002457 294.77859 416.98773
421.0 0.002375 294.78610 410.42975
418.0 0.002392 294.79370 410.14392
457.0 0.002188 294.80142 417.78320
438.0 0.002283 294.80933 429.67920
449.0 0.002227 294.81738 435.33020
412.0 0.002427 294.82547 427.00278
391.0 0.002558 294.83386 409.95667
393.0 0.002545 294.84222 393.94754
408.0 0.002451 294.85080 382.45828
397.0 0.002519 294.85947 373.44003
366.0 0.002732 294.86829 363.72345
354.0 0.002825 294.87726 352.79767
345.0 0.002899 294.88632 342.66080
337.0 0.002967 294.89554 334.97333
329.0 0.003040 294.90491 330.20453
324.0 0.003086 294.91437 328.34692
338.0 0.002959 294.92395 329.27921
348.0 0.002874 294.93372 332.85364
357.0 0.002801 294.94357 338.65506
370.0 0.002703 294.95361 345.38358
380.0 0.002632 294.96375 350.15207
365.0 0.002740 294.97406 350.66290
349.0 0.002865 294.98447 348.55734
343.0 0.002915 294.99500 346.72995
360.0 0.002778 295.00565 346.12384
354.0 0.002825 295.01651 346.46136
314.0 0.003185 295.02744 347.79776
330.0 0.003030 295.03851 350.56158
351.0 0.002849 295.04971 355.89224
371.0 0.002695 295.06116 365.71173
395.0 0.002532 295.07254 383.01651
400.0 0.002500 295.08414 410.29657
473.0 0.002114 295.09592 447.24493
483.0 0.002070 295.10779 487.32565
520.0 0.001923 295.11981 513.96722
497.0 0.002012 295.13202 510.61163
411.0 0.002433 295.14426 483.61057
422.0 0.002370 295.15671 453.45212
391.0 0.002558 295.16922 433.29773
424.0 0.002358 295.18198 426.79959
426.0 0.002347 295.19476 432.74942
488.0 0.002049 295.20770 448.14777
516.0 0.001938 295.22083 466.09824
560.0 0.001786 295.23404 473.03668
473.0 0.002114 295.24741 462.28775
474.0 0.002110 295.26089 442.99066
482.0 0.002075 295.27451 427.59695
419.0 0.002387 295.28830 421.06509
445.0 0.002247 295.30219 422.06406
416.0 0.002404 295.31625 424.20169
441.0 0.002268 295.33038 424.20868
428.0 0.002336 295.34470 426.16098
434.0 0.002304 295.35913 431.70786
446.0 0.002242 295.37366 436.05743
423.0 0.002364 295.38843 430.23444
415.0 0.002410 295.40329 413.42899
378.0 0.002646 295.41827 394.15692
371.0 0.002695 295.43332 379.94077
371.0 0.002695 295.44861 373.69424
386.0 0.002591 295.46396 375.35114
410.0 0.002439 295.47949 383.07169
416.0 0.002404 295.49512 392.85455
404.0 0.002475 295.51093 397.84775
407.0 0.002457 295.52682 393.48227
392.0 0.002551 295.54291 383.12195
382.0 0.002618 295.55908 374.11200
413.0 0.002421 295.57541 370.48575
409.0 0.002445 295.59186 372.38046
415.0 0.002410 295.60846 376.73792
419.0 0.002387 295.62521 380.06958
418.0 0.002392 295.64206 382.17825
405.0 0.002469 295.65909 382.40759
375.0 0.002667 295.67624 378.34399
354.0 0.002825 295.69348 370.61673
362.0 0.002762 295.71085 362.18295
371.0 0.002695 295.72842 353.35782
339.0 0.002950 295.74609 344.06635
322.0 0.003106 295.76398 335.83975
331.0 0.003021 295.78183 329.70212
346.0 0.002890 295.79996 325.59369
341.0 0.002933 295.81821 322.79346
335.0 0.002985 295.83655 320.45618
329.0 0.003040 295.85504 318.25699
312.0 0.003205 295.87363 316.64487
324.0 0.003086 295.89233 316.07870
303.0 0.003300 295.91122 316.84647
309.0 0.003236 295.93024 319.38840
321.0 0.003115 295.94946 324.00610
342.0 0.002924 295.96872 331.01501
369.0 0.002710 295.98816 340.32016
416.0 0.002404 296.00769 350.88177
363.0 0.002755 296.02744 359.83469
384.0 0.002604 296.04730 363.32187
338.0 0.002959 296.06720 359.95236
333.0 0.003003 296.08728 351.73764
354.0 0.002825 296.10751 341.65240
327.0 0.003058 296.12793 332.16022
311.0 0.003215 296.14841 324.81619
305.0 0.003279 296.16907 320.02948
329.0 0.003040 296.18988 317.49850
291.0 0.003436 296.21072 316.66327
352.0 0.002841 296.23181 317.97739
313.0 0.003195 296.25299 320.44803
339.0 0.002950 296.27429 323.89386
337.0 0.002967 296.29578 327.54376
300.0 0.003333 296.31732 330.79651
328.0 0.003049 296.33902 334.23914
335.0 0.002985 296.36093 339.46790
347.0 0.002882 296.38284 348.54120
402.0 0.002488 296.40500 361.37585
398.0 0.002513 296.42725 375.39325
395.0 0.002532 296.44962 384.33344
395.0 0.002532 296.47211 381.88721
344.0 0.002907 296.49478 369.55618
337.0 0.002967 296.51752 354.33914
334.0 0.002994 296.54053 341.19974
335.0 0.002985 296.56354 331.55603
320.0 0.003125 296.58679 325.44513
309.0 0.003236 296.61008 322.28186
291.0 0.003436 296.63351 321.30914
310.0 0.003226 296.65710 321.86838
311.0 0.003215 296.68091 324.35266
324.0 0.003086 296.70471 328.47833
350.0 0.002857 296.72867 334.55649
369.0 0.002710 296.75281 342.62619
376.0 0.002660 296.77701 352.55945
393.0 0.002545 296.80148 364.01685
406.0 0.002463 296.82596 375.22177
413.0 0.002421 296.85052 382.94342
419.0 0.002387 296.87540 386.30194
408.0 0.002451 296.90030 387.34460
412.0 0.002427 296.92538 387.11270
403.0 0.002481 296.95053 386.55887
384.0 0.002604 296.97589 389.23538
390.0 0.002564 297.00128 399.38943
415.0 0.002410 297.02689 418.55734
480.0 0.002083 297.05258 446.27524
540.0 0.001852 297.07849 478.44577
558.0 0.001792 297.10443 509.17819
562.0 0.001779 297.13046 535.66351
550.0 0.001818 297.15677 557.48303
541.0 0.001848 297.18317 573.79395
592.0 0.001689 297.20963 581.73712
574.0 0.001742 297.23627 573.86261
526.0 0.001901 297.26300 545.27185
460.0 0.002174 297.28986 505.28778
441.0 0.002268 297.31702 467.98544
426.0 0.002347 297.34415 438.96365
400.0 0.002500 297.37140 416.29205
401.0 0.002494 297.39890 398.34625
373.0 0.002681 297.42639 385.43695
378.0 0.002646 297.45413 379.00992
376.0 0.002660 297.48190 379.37112
365.0 0.002740 297.50980 385.96854
375.0 0.002667 297.53796 397.11432
414.0 0.002415 297.56613 409.50247
428.0 0.002336 297.59445 421.26324
442.0 0.002262 297.62296 432.64038
434.0 0.002304 297.65146 443.69165
480.0 0.002083 297.68027 454.55280
471.0 0.002123 297.70911 465.10974
474.0 0.002110 297.73810 474.10907
488.0 0.002049 297.76721 479.32132
482.0 0.002075 297.79648 477.68552
463.0 0.002160 297.82587 468.64047
450.0 0.002222 297.85532 458.29340
449.0 0.002227 297.88501 454.50262
460.0 0.002174 297.91476 461.01221
501.0 0.001996 297.94461 475.66223
564.0 0.001773 297.97467 489.32797
525.0 0.001905 298.00479 488.10736
450.0 0.002222 298.03513 468.51758
387.0 0.002584 298.06546 441.67380
375.0 0.002667 298.09598 418.42737
366.0 0.002732 298.12671 402.73129
373.0 0.002681 298.15750 393.87424
404.0 0.002475 298.18845 390.79477
401.0 0.002494 298.21945 393.84921
402.0 0.002488 298.25064 402.78522
399.0 0.002506 298.28192 416.14966
430.0 0.002326 298.31332 432.72876
470.0 0.002128 298.34494 451.66943
468.0 0.002137 298.37662 469.43118
512.0 0.001953 298.40839 482.38303
546.0 0.001832 298.44031 490.66183
547.0 0.001828 298.47241 495.11078
531.0 0.001883 298.50464 495.92648
525.0 0.001905 298.53699 493.48343
508.0 0.001969 298.56940 489.61826
499.0 0.002004 298.60193 485.70874
478.0 0.002092 298.63461 477.46130
454.0 0.002203 298.66751 462.76535
460.0 0.002174 298.70038 447.35599
427.0 0.002342 298.73346 436.29761
456.0 0.002193 298.76663 428.19992
423.0 0.002364 298.79999 419.91513
368.0 0.002717 298.83347 412.42966
400.0 0.002500 298.86703 410.36111
402.0 0.002488 298.90073 416.80457
406.0 0.002463 298.93454 432.56680
467.0 0.002141 298.96851 456.54236
504.0 0.001984 299.00250 484.98306
493.0 0.002028 299.03677 507.85226
511.0 0.001957 299.07108 512.71454
498.0 0.002008 299.10553 498.68359
493.0 0.002028 299.14008 475.68063
427.0 0.002342 299.17474 451.65295
392.0 0.002551 299.20959 429.59195
391.0 0.002558 299.24448 411.27805
387.0 0.002584 299.27960 398.18802
356.0 0.002809 299.31476 391.15735
413.0 0.002421 299.35007 390.16650
429.0 0.002331 299.38547 396.29443
418.0 0.002392 299.42099 410.69354
428.0 0.002336 299.45673 433.40903
512.0 0.001953 299.49249 462.95016
596.0 0.001678 299.52844 497.17691
603.0 0.001658 299.56445 529.40363
533.0 0.001876 299.60052 545.08917
567.0 0.001764 299.63690 534.69415
539.0 0.001855 299.67334 508.73193
432.0 0.002315 299.70984 483.09882
453.0 0.002208 299.74643 463.72922
471.0 0.002123 299.78317 447.36591
426.0 0.002347 299.82007 430.17188
415.0 0.002410 299.85709 412.08786
377.0 0.002653 299.89423 393.91141
363.0 0.002755 299.93143 376.89755
346.0 0.002890 299.96878 363.24838
345.0 0.002899 300.00629 353.51511
337.0 0.002967 300.04391 347.70300
334.0 0.002994 300.08160 345.43466
338.0 0.002959 300.11945 346.70493
348.0 0.002874 300.15744 351.91406
373.0 0.002681 300.19550 361.73691
391.0 0.002558 300.23364 376.74509
416.0 0.002404 300.27197 397.54697
458.0 0.002183 300.31049 421.76352
457.0 0.002188 300.34891 443.23346
467.0 0.002141 300.38763 454.82605
467.0 0.002141 300.42639 457.08224
453.0 0.002208 300.46530 455.67670
434.0 0.002304 300.50436 450.84332
423.0 0.002364 300.54346 438.62872
404.0 0.002475 300.58273 420.89673
384.0 0.002604 300.62198 403.66336
382.0 0.002618 300.66150 390.27350
366.0 0.002732 300.70111 381.76392
373.0 0.002681 300.74081 379.09161
372.0 0.002688 300.78067 382.62183
373.0 0.002681 300.82059 391.83823
416.0 0.002404 300.86066 404.11511
425.0 0.002353 300.90085 416.78436
413.0 0.002421 300.94110 428.82654
437.0 0.002288 300.98148 438.87076
443.0 0.002257 301.02197 441.27722
418.0 0.002392 301.06265 433.19745
399.0 0.002506 301.10333 419.83264
395.0 0.002532 301.14423 408.53497
393.0 0.002545 301.18518 403.89459
416.0 0.002404 301.22626 407.68680
398.0 0.002513 301.26749 419.09488
441.0 0.002268 301.30872 433.12958
439.0 0.002278 301.35016 441.14548
424.0 0.002358 301.39172 437.68823
430.0 0.002326 301.43332 427.47980
372.0 0.002688 301.47510 418.46082
365.0 0.002740 301.51697 414.68579
407.0 0.002457 301.55887 417.26517
416.0 0.002404 301.60107 426.08340
412.0 0.002427 301.64322 436.77756
365.0 0.002740 301.68549 442.03464
395.0 0.002532 301.72791 438.89334
395.0 0.002532 301.77042 431.92725
424.0 0.002358 301.81311 426.90427
434.0 0.002304 301.85587 424.96497
407.0 0.002457 301.89874 423.68069
426.0 0.002347 301.94165 421.66125
432.0 0.002315 301.98468 419.51529
395.0 0.002532 302.02792 416.32971
395.0 0.002532 302.07123 409.79163
380.0 0.002632 302.11459 400.23178
363.0 0.002755 302.15817 390.80112
386.0 0.002591 302.20172 382.70554
361.0 0.002770 302.24545 375.44629
356.0 0.002809 302.28928 367.86386
348.0 0.002874 302.33325 361.30359
359.0 0.002786 302.37723 357.15952
345.0 0.002899 302.42139 355.57535
348.0 0.002874 302.46567 356.58063
362.0 0.002762 302.51001 359.13724
351.0 0.002849 302.55453 360.69620
340.0 0.002941 302.59906 358.19885
346.0 0.002890 302.64368 351.96082
330.0 0.003030 302.68848 345.07391
363.0 0.002755 302.73337 340.04178
362.0 0.002762 302.77841 337.78302
357.0 0.002801 302.82352 338.28177
342.0 0.002924 302.86862 340.82910
337.0 0.002967 302.91400 343.77087
344.0 0.002907 302.95941 345.36664
341.0 0.002933 303.00491 343.72528
341.0 0.002933 303.05045 339.47549
328.0 0.003049 303.09619 334.54022
323.0 0.003096 303.14203 330.94571
350.0 0.002857 303.18796 329.44995
338.0 0.002959 303.23398 330.53195
345.0 0.002899 303.28006 334.38031
369.0 0.002710 303.32623 340.75992
389.0 0.002571 303.37259 348.89191
406.0 0.002463 303.41901 356.23804
369.0 0.002710 303.46564 359.05362
347.0 0.002882 303.51221 355.65378
355.0 0.002817 303.55893 348.80084
353.0 0.002833 303.60580 341.99118
338.0 0.002959 303.65268 336.75098
298.0 0.003356 303.69971 332.78976
327.0 0.003058 303.74680 329.44186
339.0 0.002950 303.79404 326.51862
312.0 0.003205 303.84137 324.54019
353.0 0.002833 303.88876 323.81946
346.0 0.002890 303.93628 325.00696
367.0 0.002725 303.98401 328.19366
343.0 0.002915 304.03165 333.25949
327.0 0.003058 304.07947 339.75967
388.0 0.002577 304.12738 346.10107
388.0 0.002577 304.17542 349.59940
380.0 0.002632 304.22351 348.79810
361.0 0.002770 304.27167 345.53696
363.0 0.002755 304.31998 342.69992
377.0 0.002653 304.36838 341.50513
323.0 0.003096 304.41684 341.14395
323.0 0.003096 304.46539 339.97189
366.0 0.002732 304.51404 336.51218
331.0 0.003021 304.56284 332.02319
323.0 0.003096 304.61172 327.99069
304.0 0.003289 304.66074 324.98480
329.0 0.003040 304.70969 322.59827
310.0 0.003226 304.75876 320.74689
294.0 0.003401 304.80817 319.15631
328.0 0.003049 304.85739 318.07303
333.0 0.003003 304.90686 317.63574
322.0 0.003106 304.95636 318.15341
313.0 0.003195 305.00595 319.60840
337.0 0.002967 305.05566 322.02612
327.0 0.003058 305.10541 325.11951
339.0 0.002950 305.15530 328.05923
332.0 0.003012 305.20535 329.57996
302.0 0.003311 305.25534 328.70364
342.0 0.002924 305.30554 326.16394
334.0 0.002994 305.35571 323.39084
314.0 0.003185 305.40613 321.14053
326.0 0.003067 305.45651 319.70450
320.0 0.003125 305.50699 319.11548
318.0 0.003145 305.55765 319.39282
337.0 0.002967 305.60825 320.27698
342.0 0.002924 305.65912 321.93719
338.0 0.002959 305.70999 324.70667
341.0 0.002933 305.76086 328.74805
328.0 0.003049 305.81189 335.08606
333.0 0.003003 305.86301 344.05353
351.0 0.002849 305.91428 356.37958
373.0 0.002681 305.96555 371.99728
396.0 0.002525 306.01694 389.32504
407.0 0.002457 306.06842 404.52237
397.0 0.002519 306.11993 413.60757
432.0 0.002315 306.17163 417.50861
443.0 0.002257 306.22336 420.44504
443.0 0.002257 306.27512 423.27249
441.0 0.002268 306.32712 422.14725
415.0 0.002410 306.37900 414.23608
367.0 0.002725 306.43118 403.02698
360.0 0.002778 306.48328 394.02084
392.0 0.002551 306.53546 389.56888
387.0 0.002584 306.58783 388.32193
371.0 0.002695 306.64020 386.17130
380.0 0.002632 306.69272 379.54605
356.0 0.002809 306.74530 369.66742
356.0 0.002809 306.79788 360.00290
367.0 0.002725 306.85065 352.90643
366.0 0.002732 306.90347 349.34598
356.0 0.002809 306.95636 349.78397
377.0 0.002653 307.00934 354.13525
370.0 0.002703 307.06232 362.19693
388.0 0.002577 307.11551 373.08972
413.0 0.002421 307.16864 384.44238
467.0 0.002141 307.22205 392.83762
392.0 0.002551 307.27536 396.43176
422.0 0.002370 307.32874 396.74667
392.0 0.002551 307.38235 395.28403
369.0 0.002710 307.43594 392.33279
388.0 0.002577 307.48975 386.93219
358.0 0.002793 307.54343 380.39087
389.0 0.002571 307.59723 375.69067
399.0 0.002506 307.65118 374.96881
340.0 0.002941 307.70514 378.83115
346.0 0.002890 307.75931 386.60013
370.0 0.002703 307.81339 397.15616
415.0 0.002410 307.86758 410.90961
439.0 0.002278 307.92188 429.06903
474.0 0.002110 307.97626 450.10812
493.0 0.002028 308.03073 467.11938
476.0 0.002101 308.08527 470.19434
443.0 0.002257 308.13989 456.74911
413.0 0.002421 308.19455 434.32181
408.0 0.002451 308.24927 411.76923
369.0 0.002710 308.30414 393.78613
383.0 0.002611 308.35907 381.51825
382.0 0.002618 308.41400 373.93927
385.0 0.002597 308.46906 369.39224
380.0 0.002632 308.52417 367.13483
380.0 0.002632 308.57944 367.28223
385.0 0.002597 308.63464 370.44858
376.0 0.002660 308.68991 376.55237
373.0 0.002681 308.74539 384.30539
373.0 0.002681 308.80084 391.97720
392.0 0.002551 308.85641 398.60858
413.0 0.002421 308.91205 403.37488
398.0 0.002513 308.96771 406.89246
393.0 0.002545 309.02347 411.02408
401.0 0.002494 309.07928 417.92566
430.0 0.002326 309.13519 429.47995
449.0 0.002227 309.19122 445.57242
452.0 0.002212 309.24719 462.74756
455.0 0.002198 309.30334 475.97559
478.0 0.002092 309.35944 483.43069
499.0 0.002004 309.41577 485.25549
483.0 0.002070 309.47205 481.94968
503.0 0.001988 309.52835 472.56012
448.0 0.002232 309.58481 455.56708
394.0 0.002538 309.64136 434.47458
382.0 0.002618 309.69800 415.41187
374.0 0.002674 309.75455 402.70502
387.0 0.002584 309.81122 397.53735
388.0 0.002577 309.86810 399.00955
447.0 0.002237 309.92490 404.84772
461.0 0.002169 309.98184 410.07990
435.0 0.002299 310.03876 410.12061
393.0 0.002545 310.09583 404.32123
398.0 0.002513 310.15292 395.15323
376.0 0.002660 310.21002 385.62265
347.0 0.002882 310.26733 377.46954
357.0 0.002801 310.32465 372.07498
372.0 0.002688 310.38199 370.18732
392.0 0.002551 310.43942 372.11829
363.0 0.002755 310.49692 377.35715
382.0 0.002618 310.55441 384.71149
364.0 0.002747 310.61206 392.18573
380.0 0.002632 310.66968 398.33871
401.0 0.002494 310.72739 402.54010
392.0 0.002551 310.78516 404.17661
385.0 0.002597 310.84305 403.71021
375.0 0.002667 310.90097 404.59665
388.0 0.002577 310.95889 411.10297
427.0 0.002342 311.01694 425.00250
459.0 0.002179 311.07498 445.17422
500.0 0.002000 311.13327 466.42749
489.0 0.002045 311.19138 478.57901
437.0 0.002288 311.24957 473.38434
405.0 0.002469 311.30798 453.18750
381.0 0.002625 311.36636 427.30484
343.0 0.002915 311.42484 402.85205
381.0 0.002625 311.48331 382.76151
377.0 0.002653 311.54184 367.49338
350.0 0.002857 311.60049 356.78253
346.0 0.002890 311.65912 349.77991
322.0 0.003106 311.71783 345.26138
350.0 0.002857 311.77673 342.53595
340.0 0.002941 311.83551 340.85962
317.0 0.003155 311.89438 339.74130
309.0 0.003236 311.95331 339.43951
339.0 0.002950 312.01236 340.26950
343.0 0.002915 312.07144 342.61340
361.0 0.002770 312.13049 346.81796
372.0 0.002688 312.18967 353.56805
357.0 0.002801 312.24890 363.46732
387.0 0.002584 312.30826 376.81570
426.0 0.002347 312.36752 392.95117
437.0 0.002288 312.42685 409.35760
431.0 0.002320 312.48636 421.33310
408.0 0.002451 312.54578 425.75226
402.0 0.002488 312.60544 425.42075
398.0 0.002513 312.66504 425.84183
423.0 0.002364 312.72458 429.51523
459.0 0.002179 312.78433 434.69022
467.0 0.002141 312.84402 436.68149
456.0 0.002193 312.90387 433.57333
441.0 0.002268 312.96375 428.67105
413.0 0.002421 313.02362 426.80884
440.0 0.002273 313.08359 429.49597
416.0 0.002404 313.14362 433.25665
416.0 0.002404 313.20364 431.73123
386.0 0.002591 313.26379 421.35568
351.0 0.002849 313.32382 405.22012
381.0 0.002625 313.38412 389.18927
403.0 0.002481 313.44437 376.43997
361.0 0.002770 313.50461 367.91617
332.0 0.003012 313.56503 363.62662
367.0 0.002725 313.62537 363.27402
367.0 0.002725 313.68582 366.52515
369.0 0.002710 313.74631 372.65637
380.0 0.002632 313.80685 380.17267
414.0 0.002415 313.86749 387.20605
424.0 0.002358 313.92801 392.39624
394.0 0.002538 313.98871 396.26437
415.0 0.002410 314.04941 400.11093
404.0 0.002475 314.11026 403.87894
426.0 0.002347 314.17105 405.77335
408.0 0.002451 314.23187 404.76349
389.0 0.002571 314.29279 402.27316
398.0 0.002513 314.35376 400.62781
386.0 0.002591 314.41479 400.61615
391.0 0.002558 314.47580 401.76422
395.0 0.002532 314.53687 401.66595
406.0 0.002463 314.59799 398.21408
360.0 0.002778 314.65918 392.43338
365.0 0.002740 314.72040 387.26208
375.0 0.002667 314.78168 383.93433
375.0 0.002667 314.84290 382.55475
393.0 0.002545 314.90427 382.82428
395.0 0.002532 314.96564 384.85727
384.0 0.002604 315.02704 387.13080
364.0 0.002747 315.08862 387.87762
360.0 0.002778 315.14999 386.08212
392.0 0.002551 315.21161 382.94046
387.0 0.002584 315.27319 379.64816
348.0 0.002874 315.33484 377.01907
376.0 0.002660 315.39651 375.83035
373.0 0.002681 315.45816 376.96402
372.0 0.002688 315.51996 381.22742
387.0 0.002584 315.58179 389.42502
415.0 0.002410 315.64368 401.98364
454.0 0.002203 315.70554 418.08130
462.0 0.002165 315.76736 435.05066
470.0 0.002128 315.82938 448.83984
473.0 0.002114 315.89136 456.36679
464.0 0.002155 315.95340 457.06033
449.0 0.002227 316.01550 452.14676
448.0 0.002232 316.07758 444.02261
428.0 0.002336 316.13974 434.69513
410.0 0.002439 316.20184 425.55795
387.0 0.002584 316.26419 417.82080
397.0 0.002519 316.32635 412.16592
388.0 0.002577 316.38870 407.61954
380.0 0.002632 316.45102 402.68744
390.0 0.002564 316.51334 397.30927
387.0 0.002584 316.57587 393.54718
422.0 0.002370 316.63828 393.48386
399.0 0.002506 316.70065 398.18631
390.0 0.002564 316.76331 407.61652
415.0 0.002410 316.82578 420.33554
422.0 0.002370 316.88840 434.78592
464.0 0.002155 316.95102 450.52380
522.0 0.001916 317.01364 469.42023
529.0 0.001890 317.07635 491.75000
546.0 0.001832 317.13907 512.92438
572.0 0.001748 317.20181 525.08118
583.0 0.001715 317.26468 524.37231
505.0 0.001980 317.32742 512.71777
518.0 0.001931 317.39035 492.50851
472.0 0.002119 317.45322 468.18216
424.0 0.002358 317.51617 444.40955
406.0 0.002463 317.57919 423.53430
375.0 0.002667 317.64206 406.19803
379.0 0.002639 317.70514 392.63052
363.0 0.002755 317.76816 382.55801
339.0 0.002950 317.83130 375.00793
320.0 0.003125 317.89441 369.39322
357.0 0.002801 317.95752 365.88617
362.0 0.002762 318.02078 364.89728
374.0 0.002674 318.08401 366.63638
394.0 0.002538 318.14725 371.06223
398.0 0.002513 318.21057 377.80164
397.0 0.002519 318.27386 386.14746
427.0 0.002342 318.33722 395.18427
408.0 0.002451 318.40051 405.28650
407.0 0.002457 318.46396 417.64563
471.0 0.002123 318.52750 432.20599
469.0 0.002132 318.59085 446.76572
489.0 0.002045 318.65445 458.11157
478.0 0.002092 318.71799 464.88412
455.0 0.002198 318.78152 466.65213
495.0 0.002020 318.84512 464.73178
488.0 0.002049 318.90872 461.32678
462.0 0.002165 318.97244 455.98355
446.0 0.002242 319.03604 445.52283
422.0 0.002370 319.09979 428.58224
395.0 0.002532 319.16354 408.75473
361.0 0.002770 319.22723 390.35364
349.0 0.002865 319.29111 375.45819
366.0 0.002732 319.35489 364.53708
353.0 0.002833 319.41879 357.28131
339.0 0.002950 319.48260 352.84064
344.0 0.002907 319.54651 350.67322
344.0 0.002907 319.61044 350.21674
353.0 0.002833 319.67441 350.95880
353.0 0.002833 319.73849 352.36453
367.0 0.002725 319.80246 354.01254
371.0 0.002695 319.86642 355.93619
372.0 0.002688 319.93054 358.73404
378.0 0.002646 319.99460 363.48871
385.0 0.002597 320.05884 370.62729
380.0 0.002632 320.12296 380.21686
420.0 0.002381 320.18710 391.69556
452.0 0.002212 320.25134 404.37436
509.0 0.001965 320.31552 417.71722
472.0 0.002119 320.37982 429.80966
438.0 0.002283 320.44415 436.19580
437.0 0.002288 320.50842 432.43069
411.0 0.002433 320.57278 419.39853
379.0 0.002639 320.63712 402.65155
385.0 0.002597 320.70151 386.99115
389.0 0.002571 320.76593 374.62384
363.0 0.002755 320.83041 366.07364
329.0 0.003040 320.89481 361.10620
377.0 0.002653 320.95929 359.41199
379.0 0.002639 321.02383 360.53638
359.0 0.002786 321.08844 364.68564
374.0 0.002674 321.15292 372.34625
377.0 0.002653 321.21753 383.70428
427.0 0.002342 321.28217 399.99518
435.0 0.002299 321.34680 421.53149
528.0 0.001894 321.41150 447.62640
494.0 0.002024 321.47617 475.65240
547.0 0.001828 321.54089 498.17279
548.0 0.001825 321.60556 510.11234
541.0 0.001848 321.67041 510.25226
484.0 0.002066 321.73517 500.13879
507.0 0.001972 321.79999 483.36545
494.0 0.002024 321.86484 464.20837
437.0 0.002288 321.92957 444.88791
414.0 0.002415 321.99457 425.44223
387.0 0.002584 322.05948 406.61514
375.0 0.002667 322.12433 390.23520
374.0 0.002674 322.18930 377.15594
346.0 0.002890 322.25427 367.59158
336.0 0.002976 322.31934 361.07837
332.0 0.003012 322.38431 357.09000
349.0 0.002865 322.44931 355.14493
346.0 0.002890 322.51447 355.09503
320.0 0.003125 322.57953 356.93115
323.0 0.003096 322.64468 360.91336
349.0 0.002865 322.70981 367.24329
393.0 0.002545 322.77487 376.43622
389.0 0.002571 322.84018 388.41367
414.0 0.002415 322.90533 402.58957
442.0 0.002262 322.97061 417.69009
474.0 0.002110 323.03586 430.29785
460.0 0.002174 323.10101 438.38535
453.0 0.002208 323.16638 441.41156
481.0 0.002079 323.23169 440.12070
458.0 0.002183 323.29709 435.44293
423.0 0.002364 323.36249 429.41638
432.0 0.002315 323.42780 423.20096
416.0 0.002404 323.49316 418.07092
416.0 0.002404 323.55865 415.25064
421.0 0.002375 323.62408 415.99377
446.0 0.002242 323.68964 420.17221
453.0 0.002208 323.75510 425.93121
438.0 0.002283 323.82065 429.47656
405.0 0.002469 323.88617 426.32593
385.0 0.002597 323.95175 416.03522
394.0 0.002538 324.01736 402.27365
377.0 0.002653 324.08286 389.17688
372.0 0.002688 324.14862 378.69843
375.0 0.002667 324.21423 371.42197
370.0 0.002703 324.27991 367.22150
372.0 0.002688 324.34561 365.55508
355.0 0.002817 324.41129 365.84802
356.0 0.002809 324.47705 367.47012
350.0 0.002857 324.54279 370.06769
368.0 0.002717 324.60867 373.60941
406.0 0.002463 324.67447 378.00284
408.0 0.002451 324.74023 383.30103
423.0 0.002364 324.80612 388.88971
392.0 0.002551 324.87201 394.16858
395.0 0.002532 324.93793 399.02539
394.0 0.002538 325.00385 403.57172
451.0 0.002217 325.06979 409.16061
423.0 0.002364 325.13574 417.91034
457.0 0.002188 325.20178 431.47681
461.0 0.002169 325.26782 450.70789
489.0 0.002045 325.33380 475.14484
576.0 0.001736 325.39981 503.14166
571.0 0.001751 325.46588 533.03973
598.0 0.001672 325.53198 563.42108
660.0 0.001515 325.59818 593.95966
700.0 0.001429 325.66434 625.68524
778.0 0.001285 325.73041 658.74066
812.0 0.001232 325.79666 685.14594
763.0 0.001311 325.86288 689.08032
626.0 0.001597 325.92920 662.18207
557.0 0.001795 325.99542 614.38074
501.0 0.001996 326.06161 562.18365
482.0 0.002075 326.12802 515.87823
453.0 0.002208 326.19437 479.45056
413.0 0.002421 326.26071 453.63089
433.0 0.002309 326.32709 437.41345
439.0 0.002278 326.39337 428.91479
445.0 0.002247 326.45984 425.88965
443.0 0.002257 326.52634 425.84299
432.0 0.002315 326.59283 426.15701
420.0 0.002381 326.65936 425.04892
448.0 0.002232 326.72577 422.71985
417.0 0.002398 326.79248 421.19757
410.0 0.002439 326.85895 422.82001
432.0 0.002315 326.92557 429.03427
429.0 0.002331 326.99222 440.27539
457.0 0.002188 327.05878 455.95020
504.0 0.001984 327.12546 474.65988
540.0 0.001852 327.19214 495.83524
581.0 0.001721 327.25888 520.27258
601.0 0.001664 327.32562 547.40100
633.0 0.001580 327.39233 572.84558
640.0 0.001563 327.45917 590.34192
631.0 0.001585 327.52594 599.96155
663.0 0.001508 327.59283 608.14362
672.0 0.001488 327.65967 618.12408
663.0 0.001508 327.72653 624.82733
590.0 0.001695 327.79349 619.13110
546.0 0.001832 327.86041 599.00861
570.0 0.001754 327.92743 570.93158
529.0 0.001890 327.99435 541.16815
535.0 0.001869 328.06137 512.35931
496.0 0.002016 328.12845 486.28027
451.0 0.002217 328.19547 463.96387
428.0 0.002336 328.26263 445.05740
426.0 0.002347 328.32977 428.39886
428.0 0.002336 328.39685 413.91254
393.0 0.002545 328.46405 401.94104
395.0 0.002532 328.53119 392.43848
382.0 0.002618 328.59848 384.97299
376.0 0.002660 328.66580 379.40543
410.0 0.002439 328.73303 375.92432
367.0 0.002725 328.80029 374.58435
373.0 0.002681 328.86765 375.89182
411.0 0.002433 328.93512 379.93289
426.0 0.002347 329.00253 387.34338
421.0 0.002375 329.06989 398.53925
432.0 0.002315 329.13733 413.57083
492.0 0.002033 329.20480 431.46149
488.0 0.002049 329.27234 449.62418
439.0 0.002278 329.33990 463.42068
467.0 0.002141 329.40735 468.40546
490.0 0.002041 329.47504 464.98721
452.0 0.002212 329.54260 457.19244
447.0 0.002237 329.61035 447.86780
400.0 0.002500 329.67804 437.86221
383.0 0.002611 329.74567 427.33170
413.0 0.002421 329.81351 416.64786
406.0 0.002463 329.88126 406.18555
372.0 0.002688 329.94904 396.36404
356.0 0.002809 330.01694 388.03131
363.0 0.002755 330.08475 381.51318
357.0 0.002801 330.15268 376.84186
386.0 0.002591 330.22055 373.82336
378.0 0.002646 330.28854 371.60715
383.0 0.002611 330.35663 371.52692
378.0 0.002646 330.42459 372.83459
369.0 0.002710 330.49268 375.94595
384.0 0.002604 330.56076 381.59265
396.0 0.002525 330.62897 390.53891
410.0 0.002439 330.69705 403.88092
443.0 0.002257 330.76523 422.51785
471.0 0.002123 330.83353 447.06531
544.0 0.001838 330.90176 476.64771
577.0 0.001733 330.97009 509.32648
580.0 0.001724 331.03842 541.57336
630.0 0.001587 331.10672 568.78564
660.0 0.001515 331.17520 585.97717
613.0 0.001631 331.24356 588.49554
523.0 0.001912 331.31213 573.24078
466.0 0.002146 331.38065 542.74200
461.0 0.002169 331.44913 505.39597
458.0 0.002183 331.51776 469.20676
407.0 0.002457 331.58630 438.61322
410.0 0.002439 331.65503 414.98343
368.0 0.002717 331.72385 397.95325
363.0 0.002755 331.79245 386.33475
353.0 0.002833 331.86124 378.89841
345.0 0.002899 331.93005 374.52414
354.0 0.002825 331.99893 372.21970
371.0 0.002695 332.06784 371.31720
342.0 0.002924 332.13669 371.62662
366.0 0.002732 332.20569 373.00458
354.0 0.002825 332.27469 376.03677
350.0 0.002857 332.34381 381.24316
358.0 0.002793 332.41287 389.11661
415.0 0.002410 332.48193 399.61453
427.0 0.002342 332.55121 412.75208
467.0 0.002141 332.62033 427.61096
449.0 0.002227 332.68970 442.65509
468.0 0.002137 332.75897 455.58966
486.0 0.002058 332.82819 463.95157
466.0 0.002146 332.89764 465.58356
443.0 0.002257 332.96704 458.89377
430.0 0.002326 333.03656 444.67020
392.0 0.002551 333.10605 426.83340
386.0 0.002591 333.17557 409.60687
384.0 0.002604 333.24521 395.27460
380.0 0.002632 333.31485 384.50638
366.0 0.002732 333.38455 376.99078
370.0 0.002703 333.45428 372.03525
370.0 0.002703 333.52399 368.86667
379.0 0.002639 333.59387 367.09375
364.0 0.002747 333.66376 366.31110
367.0 0.002725 333.73364 366.93652
356.0 0.002809 333.80365 368.90637
359.0 0.002786 333.87363 372.43454
384.0 0.002604 333.94379 378.09454
404.0 0.002475 334.01376 386.84143
408.0 0.002451 334.08405 399.29858
447.0 0.002237 334.15424 415.65939
468.0 0.002137 334.22440 436.39243
495.0 0.002020 334.29480 460.03622
533.0 0.001876 334.36511 482.80359
540.0 0.001852 334.43561 498.02518
519.0 0.001927 334.50607 499.62045
486.0 0.002058 334.57645 488.56662
455.0 0.002198 334.64713 472.12317
450.0 0.002222 334.71774 457.38257
444.0 0.002252 334.78845 447.99936
444.0 0.002252 334.85919 444.73334
447.0 0.002237 334.92993 446.53311
438.0 0.002283 335.00073 450.28531
422.0 0.002370 335.07166 451.47592
429.0 0.002331 335.14261 446.15732
403.0 0.002481 335.21368 434.39185
386.0 0.002591 335.28464 419.99979
383.0 0.002611 335.35580 406.25635
376.0 0.002660 335.42694 394.96353
356.0 0.002809 335.49823 386.63135
367.0 0.002725 335.56955 381.34946
373.0 0.002681 335.64084 378.91980
378.0 0.002646 335.71225 379.31683
378.0 0.002646 335.78369 382.59796
379.0 0.002639 335.85526 388.84052
380.0 0.002632 335.92685 397.97888
445.0 0.002247 335.99838 409.81952
461.0 0.002169 336.07019 423.43307
431.0 0.002320 336.14194 436.48874
457.0 0.002188 336.21384 445.78970
469.0 0.002132 336.28568 449.77231
426.0 0.002347 336.35760 450.56647
447.0 0.002237 336.42966 451.60651
474.0 0.002110 336.50171 454.57785
505.0 0.001980 336.57394 458.26978
445.0 0.002247 336.64612 459.93704
470.0 0.002128 336.71829 458.12610
423.0 0.002364 336.79068 452.91055
416.0 0.002404 336.86310 445.03003
430.0 0.002326 336.93561 435.12170
380.0 0.002632 337.00818 424.97540
424.0 0.002358 337.08066 417.12463
409.0 0.002445 337.15344 412.82355
407.0 0.002457 337.22617 412.77969
392.0 0.002551 337.29907 417.21628
465.0 0.002151 337.37201 425.91852
438.0 0.002283 337.44485 437.86755
471.0 0.002123 337.51794 450.83643
480.0 0.002083 337.59097 461.65152
486.0 0.002058 337.66428 468.70908
506.0 0.001976 337.73752 473.74103
497.0 0.002012 337.81076 479.90436
516.0 0.001938 337.88419 489.20529
560.0 0.001786 337.95770 501.05988
538.0 0.001859 338.03125 512.57831
561.0 0.001783 338.10489 519.91412
537.0 0.001862 338.17853 520.06415
539.0 0.001855 338.25238 512.06494
484.0 0.002066 338.32617 497.34097
461.0 0.002169 338.40015 478.84998
467.0 0.002141 338.47415 459.44550
449.0 0.002227 338.54822 440.92941
443.0 0.002257 338.62244 424.82117
399.0 0.002506 338.69669 412.08569
374.0 0.002674 338.77100 402.69440
358.0 0.002793 338.84540 396.85123
363.0 0.002755 338.91986 394.21909
388.0 0.002577 338.99448 394.61078
400.0 0.002500 339.06909 397.86771
419.0 0.002387 339.14392 404.00757
416.0 0.002404 339.21872 412.91901
430.0 0.002326 339.29355 424.11652
457.0 0.002188 339.36862 436.68185
460.0 0.002174 339.44366 449.51880
478.0 0.002092 339.51892 462.52823
492.0 0.002033 339.59415 477.04919
517.0 0.001934 339.66949 494.85242
580.0 0.001724 339.74496 516.39099
635.0 0.001575 339.82050 539.43188
637.0 0.001570 339.89612 559.91663
667.0 0.001499 339.97180 574.28912
657.0 0.001522 340.04764 580.05072
620.0 0.001613 340.12350 574.53265
582.0 0.001718 340.19946 556.58136
555.0 0.001802 340.27567 529.01648
492.0 0.002033 340.35187 497.98624
450.0 0.002222 340.42801 468.87509
419.0 0.002387 340.50436 445.12610
428.0 0.002336 340.58084 427.72296
369.0 0.002710 340.65738 416.56897
405.0 0.002469 340.73413 411.31860
417.0 0.002398 340.81079 411.52292
429.0 0.002331 340.88766 416.70700
465.0 0.002151 340.96463 426.00598
495.0 0.002020 341.04169 438.46277
494.0 0.002024 341.11884 451.40564
542.0 0.001845 341.19604 460.65857
485.0 0.002062 341.27335 462.62915
437.0 0.002288 341.35077 457.57977
427.0 0.002342 341.42841 449.49133
405.0 0.002469 341.50610 442.36600
450.0 0.002222 341.58380 438.37192
485.0 0.002062 341.66177 437.67123
497.0 0.002012 341.73969 439.24423
453.0 0.002208 341.81781 441.47098
451.0 0.002217 341.89603 443.29797
461.0 0.002169 341.97424 444.13467
438.0 0.002283 342.05273 442.77362
425.0 0.002353 342.13120 437.69849
416.0 0.002404 342.20993 428.62527
391.0 0.002558 342.28867 417.16080
410.0 0.002439 342.36740 405.49295
346.0 0.002890 342.44641 395.58414
353.0 0.002833 342.52548 388.15399
341.0 0.002933 342.60468 383.49396
380.0 0.002632 342.68399 381.42093
384.0 0.002604 342.76340 381.79041
368.0 0.002717 342.84296 384.08899
359.0 0.002786 342.92255 387.77289
369.0 0.002710 343.00238 392.53302
397.0 0.002519 343.08231 397.51181
431.0 0.002320 343.16220 401.13889
451.0 0.002217 343.24240 401.51529
433.0 0.002309 343.32269 398.01654
380.0 0.002632 343.40308 392.08923
385.0 0.002597 343.48355 385.77548
398.0 0.002513 343.56412 380.39490
359.0 0.002786 343.64490 376.42398
357.0 0.002801 343.72571 373.80478
369.0 0.002710 343.80673 372.54712
411.0 0.002433 343.88794 372.52112
404.0 0.002475 343.96906 373.48703
352.0 0.002841 344.05051 375.10953
358.0 0.002793 344.13199 376.58035
372.0 0.002688 344.21362 376.79242
375.0 0.002667 344.29538 375.67520
372.0 0.002688 344.37720 373.62985
353.0 0.002833 344.45926 371.61829
348.0 0.002874 344.54138 370.15543
369.0 0.002710 344.62372 369.80103
371.0 0.002695 344.70618 370.59897
383.0 0.002611 344.78867 372.71158
335.0 0.002985 344.87131 376.06223
373.0 0.002681 344.95410 380.34018
372.0 0.002688 345.03720 384.98328
380.0 0.002632 345.12024 389.20737
371.0 0.002695 345.20343 392.30206
385.0 0.002597 345.28693 393.53891
391.0 0.002558 345.37033 392.92285
378.0 0.002646 345.45407 390.86148
383.0 0.002611 345.53787 387.77322
363.0 0.002755 345.62173 383.55951
355.0 0.002817 345.70587 378.71964
347.0 0.002882 345.79010 374.08063
357.0 0.002801 345.87451 370.36752
340.0 0.002941 345.95901 367.81067
351.0 0.002849 346.04361 366.39365
326.0 0.003067 346.12851 365.92261
348.0 0.002874 346.21341 365.89279
382.0 0.002618 346.29855 365.92337
347.0 0.002882 346.38382 365.61618
354.0 0.002825 346.46918 364.70734
335.0 0.002985 346.55478 363.76926
326.0 0.003067 346.64047 363.01758
327.0 0.003058 346.72641 362.72211
350.0 0.002857 346.81238 362.95401
352.0 0.002841 346.89853 363.79599
321.0 0.003115 346.98499 365.35040
343.0 0.002915 347.07138 367.66577
345.0 0.002899 347.15808 370.69083
350.0 0.002857 347.24496 374.20706
407.0 0.002457 347.33182 377.89066
411.0 0.002433 347.41904 381.46445
383.0 0.002611 347.50623 384.83191
364.0 0.002747 347.59375 388.03787
362.0 0.002762 347.68143 391.32538
353.0 0.002833 347.76913 394.63351
385.0 0.002597 347.85706 397.19931
409.0 0.002445 347.94516 398.86206
412.0 0.002427 348.03342 399.33762
403.0 0.002481 348.12195 399.48239
410.0 0.002439 348.21045 400.13116
418.0 0.002392 348.29932 401.82480
405.0 0.002469 348.38824 404.16907
406.0 0.002463 348.47739 406.31143
398.0 0.002513 348.56668 407.04932
399.0 0.002506 348.65607 405.83640
416.0 0.002404 348.74579 403.36505
418.0 0.002392 348.83557 401.06317
404.0 0.002475 348.92563 399.79861
380.0 0.002632 349.01575 399.61194
395.0 0.002532 349.10599 400.20853
414.0 0.002415 349.19662 401.15085
408.0 0.002451 349.28720 402.01990
398.0 0.002513 349.37823 402.04257
379.0 0.002639 349.46921 400.46655
416.0 0.002404 349.56039 397.29480
381.0 0.002625 349.65189 393.37289
374.0 0.002674 349.74341 389.58179
380.0 0.002632 349.83530 386.27075
349.0 0.002865 349.92725 383.80127
360.0 0.002778 350.01938 382.41083
376.0 0.002660 350.11172 382.14389
352.0 0.002841 350.20422 382.68127
357.0 0.002801 350.29700 383.74399
407.0 0.002457 350.38995 385.03381
339.0 0.002950 350.48297 386.71176
392.0 0.002551 350.57629 389.25696
406.0 0.002463 350.66971 392.81424
382.0 0.002618 350.76349 397.22766
386.0 0.002591 350.85733 401.83316
404.0 0.002475 350.95129 405.59698
359.0 0.002786 351.04565 407.52612
414.0 0.002415 351.14001 407.35263
405.0 0.002469 351.23483 406.06616
411.0 0.002433 351.32965 405.00870
421.0 0.002375 351.42462 405.13065
406.0 0.002463 351.51990 406.77985
417.0 0.002398 351.61530 409.64493
445.0 0.002247 351.71100 413.30048
459.0 0.002179 351.80688 416.31317
421.0 0.002375 351.90286 417.51202
409.0 0.002445 351.99918 416.77261
416.0 0.002404 352.09567 415.31250
402.0 0.002488 352.19235 414.91357
406.0 0.002463 352.28925 416.82663
429.0 0.002331 352.38635 421.78772
489.0 0.002045 352.48367 430.14694
506.0 0.001976 352.58109 441.19528
544.0 0.001838 352.67892 453.06754
513.0 0.001949 352.77692 462.62704
523.0 0.001912 352.87497 466.92154
517.0 0.001934 352.97336 464.25140
461.0 0.002169 353.07190 455.65945
439.0 0.002278 353.17084 444.02420
427.0 0.002342 353.26981 432.44537
414.0 0.002415 353.36893 422.74286
391.0 0.002558 353.46851 415.35471
403.0 0.002481 353.56805 409.99829
397.0 0.002519 353.66809 406.27298
382.0 0.002618 353.76816 404.21722
387.0 0.002584 353.86841 404.16467
381.0 0.002625 353.96909 406.33508
388.0 0.002577 354.06979 410.69733
436.0 0.002294 354.17090 416.79617
458.0 0.002183 354.27209 423.63586
453.0 0.002208 354.37347 429.37531
436.0 0.002294 354.47522 431.77936
431.0 0.002320 354.57718 429.85428
443.0 0.002257 354.67929 424.80167
448.0 0.002232 354.78177 419.12805
437.0 0.002288 354.88425 414.93192
429.0 0.002331 354.98712 413.44781
444.0 0.002252 355.09024 415.22208
428.0 0.002336 355.19360 420.21729
455.0 0.002198 355.29718 427.76721
458.0 0.002183 355.40085 436.55344
463.0 0.002160 355.50494 444.79208
488.0 0.002049 355.60916 450.87497
454.0 0.002203 355.71371 453.83923
460.0 0.002174 355.81845 453.52142
475.0 0.002105 355.92337 450.67917
445.0 0.002247 356.02863 446.52649
478.0 0.002092 356.13409 441.76074
442.0 0.002262 356.23987 435.96027
398.0 0.002513 356.34583 428.87845
394.0 0.002538 356.45193 421.14185
422.0 0.002370 356.55850 414.13870
393.0 0.002545 356.66513 409.06558
361.0 0.002770 356.77216 406.23685
387.0 0.002584 356.87930 405.67361
410.0 0.002439 356.98669 407.05743
435.0 0.002299 357.09448 409.82068
425.0 0.002353 357.20230 413.03339
401.0 0.002494 357.31064 415.88864
430.0 0.002326 357.41907 418.02121
411.0 0.002433 357.52768 419.67044
425.0 0.002353 357.63669 420.89383
449.0 0.002227 357.74588 421.57825
374.0 0.002674 357.85541 421.52216
419.0 0.002387 357.96512 420.29477
398.0 0.002513 358.07507 417.71753
365.0 0.002740 358.18539 414.23172
423.0 0.002364 358.29584 411.09558
401.0 0.002494 358.40677 409.20313
372.0 0.002688 358.51773 408.77399
379.0 0.002639 358.62894 409.44632
390.0 0.002564 358.74063 410.69226
400.0 0.002500 358.85242 411.49344
424.0 0.002358 358.96457 411.98502
421.0 0.002375 359.07697 412.19815
406.0 0.002463 359.18948 412.18982
402.0 0.002488 359.30249 412.14359
394.0 0.002538 359.41562 412.79974
407.0 0.002457 359.52914 415.24969
399.0 0.002506 359.64288 420.29947
404.0 0.002475 359.75681 428.31012
441.0 0.002268 359.87106 439.26770
499.0 0.002004 359.98560 452.17288
495.0 0.002020 360.10043 465.08228
480.0 0.002083 360.21564 475.12463
475.0 0.002105 360.33090 480.04648
469.0 0.002132 360.44656 479.45120
456.0 0.002193 360.56247 474.93332
437.0 0.002288 360.67877 468.45956
407.0 0.002457 360.79529 461.49673
409.0 0.002445 360.91193 454.31369
444.0 0.002252 361.02902 446.84543
427.0 0.002342 361.14633 439.22134
396.0 0.002525 361.26398 432.59576
417.0 0.002398 361.38193 428.21579
435.0 0.002299 361.50000 426.61899
416.0 0.002404 361.61856 427.84879
428.0 0.002336 361.73727 431.35532
441.0 0.002268 361.85641 436.38269
449.0 0.002227 361.97577 440.71274
471.0 0.002123 362.09531 442.34250
455.0 0.002198 362.21527 440.41196
443.0 0.002257 362.33545 436.14752
442.0 0.002262 362.45599 431.75464
419.0 0.002387 362.57684 429.11893
421.0 0.002375 362.69781 429.45679
416.0 0.002404 362.81921 433.43576
436.0 0.002294 362.94089 441.27808
451.0 0.002217 363.06290 452.54230
483.0 0.002070 363.18527 466.10519
506.0 0.001976 363.30768 479.82813
538.0 0.001859 363.43063 491.30136
530.0 0.001887 363.55371 497.57181
494.0 0.002024 363.67731 496.63818
503.0 0.001988 363.80103 488.51746
465.0 0.002151 363.92499 475.63394
422.0 0.002370 364.04953 461.03775
393.0 0.002545 364.17410 447.08035
395.0 0.002532 364.29916 434.85175
374.0 0.002674 364.42450 425.02133
408.0 0.002451 364.54990 417.75470
400.0 0.002500 364.67587 413.26373
416.0 0.002404 364.80212 411.31821
419.0 0.002387 364.92871 411.52429
437.0 0.002288 365.05554 413.47839
422.0 0.002370 365.18256 416.52832
441.0 0.002268 365.31003 420.03049
434.0 0.002304 365.43777 422.95471
465.0 0.002151 365.56589 424.99228
444.0 0.002252 365.69431 426.23813
430.0 0.002326 365.82294 427.60782
453.0 0.002208 365.95190 429.61026
438.0 0.002283 366.08124 432.03525
410.0 0.002439 366.21088 434.14999
381.0 0.002625 366.34088 435.08368
398.0 0.002513 366.47107 435.12192
438.0 0.002283 366.60172 434.94653
454.0 0.002203 366.73257 435.27576
451.0 0.002217 366.86386 436.08954
461.0 0.002169 366.99539 437.09467
460.0 0.002174 367.12717 437.67004
451.0 0.002217 367.25946 437.36371
450.0 0.002222 367.39185 436.51111
423.0 0.002364 367.52478 436.18588
434.0 0.002304 367.65784 437.48730
469.0 0.002132 367.79120 440.97275
477.0 0.002096 367.92517 446.78732
504.0 0.001984 368.05920 454.27448
529.0 0.001890 368.19373 462.44360
510.0 0.001961 368.32852 470.84671
562.0 0.001779 368.46350 480.11282
553.0 0.001808 368.59900 491.18817
592.0 0.001689 368.73465 503.74554
609.0 0.001642 368.87082 515.58734
625.0 0.001600 369.00723 522.60980
544.0 0.001838 369.14380 521.22363
499.0 0.002004 369.28098 511.65262
461.0 0.002169 369.41824 497.76614
449.0 0.002227 369.55606 483.63162
429.0 0.002331 369.69424 471.84564
462.0 0.002165 369.83243 462.99020
449.0 0.002227 369.97125 456.82205
414.0 0.002415 370.11023 452.87906
446.0 0.002242 370.24973 450.75330
453.0 0.002208 370.38950 450.42722
490.0 0.002041 370.52942 452.25577
478.0 0.002092 370.66989 456.16718
539.0 0.001855 370.81055 461.91583
505.0 0.001980 370.95160 468.28693
471.0 0.002123 371.09311 474.09506
524.0 0.001908 371.23474 479.34424
537.0 0.001862 371.37686 484.66739
546.0 0.001832 371.51926 490.23157
497.0 0.002012 371.66202 494.81497
465.0 0.002151 371.80524 496.66470
500.0 0.002000 371.94846 494.56699
465.0 0.002151 372.09238 489.22940
476.0 0.002101 372.23639 482.61957
456.0 0.002193 372.38098 476.81604
471.0 0.002123 372.52570 473.43375
463.0 0.002160 372.67072 472.34128
465.0 0.002151 372.81635 472.23416
466.0 0.002146 372.96207 470.73221
426.0 0.002347 373.10834 466.27316
445.0 0.002247 373.25476 459.39816
416.0 0.002404 373.40149 452.03079
435.0 0.002299 373.54880 445.91220
443.0 0.002257 373.69626 442.01270
441.0 0.002268 373.84421 440.32916
456.0 0.002193 373.99249 440.30896
447.0 0.002237 374.14090 440.87744
436.0 0.002294 374.28998 440.88419
417.0 0.002398 374.43909 439.91739
436.0 0.002294 374.58881 438.59616
449.0 0.002227 374.73880 437.74780
450.0 0.002222 374.88889 437.60535
437.0 0.002288 375.03967 437.93536
435.0 0.002299 375.19058 438.38666
424.0 0.002358 375.34201 438.98810
454.0 0.002203 375.49371 440.07584
466.0 0.002146 375.64560 441.57864
434.0 0.002304 375.79807 442.89142
439.0 0.002278 375.95078 443.24185
424.0 0.002358 376.10394 442.47473
423.0 0.002364 376.25745 441.13348
431.0 0.002320 376.41104 439.85794
454.0 0.002203 376.56522 439.42172
439.0 0.002278 376.71957 439.94040
429.0 0.002331 376.87454 441.57971
447.0 0.002237 377.02975 444.69870
480.0 0.002083 377.18512 449.58722
519.0 0.001927 377.34113 455.86057
525.0 0.001905 377.49731 462.54150
481.0 0.002079 377.65396 468.48804
511.0 0.001957 377.81085 473.30463
517.0 0.001934 377.96802 477.57263
529.0 0.001890 378.12576 482.22769
557.0 0.001795 378.28366 486.45438
509.0 0.001965 378.44196 488.60367
478.0 0.002092 378.60077 486.94879
483.0 0.002070 378.75955 481.27341
478.0 0.002092 378.91910 472.59164
459.0 0.002179 379.07870 462.40524
419.0 0.002387 379.23895 452.09909
420.0 0.002381 379.39932 442.79733
405.0 0.002469 379.55997 435.35217
426.0 0.002347 379.72119 429.98734
380.0 0.002632 379.88257 426.72769
420.0 0.002381 380.04453 425.18768
405.0 0.002469 380.20670 425.08838
423.0 0.002364 380.36905 425.91153
401.0 0.002494 380.53198 427.63364
413.0 0.002421 380.69516 430.49091
436.0 0.002294 380.85892 434.69208
435.0 0.002299 381.02274 439.90009
463.0 0.002160 381.18689 446.19379
456.0 0.002193 381.35165 452.61572
471.0 0.002123 381.51645 458.46680
473.0 0.002114 381.68198 463.59830
487.0 0.002053 381.84763 468.42850
509.0 0.001965 382.01349 473.61987
532.0 0.001880 382.17996 478.99933
515.0 0.001942 382.34659 484.15601
500.0 0.002000 382.51373 488.48984
506.0 0.001976 382.68124 491.18713
501.0 0.001996 382.84872 491.95471
510.0 0.001961 383.01694 490.81329
506.0 0.001976 383.18530 488.31912
481.0 0.002079 383.35422 484.95587
466.0 0.002146 383.52341 481.09818
472.0 0.002119 383.69272 476.98163
495.0 0.002020 383.86258 473.31213
454.0 0.002203 384.03271 470.99173
459.0 0.002179 384.20328 470.98752
498.0 0.002008 384.37427 473.57135
530.0 0.001887 384.54526 478.68082
545.0 0.001835 384.71689 484.57925
527.0 0.001898 384.88867 489.61475
507.0 0.001972 385.06100 492.61047
485.0 0.002062 385.23361 493.84244
486.0 0.002058 385.40637 494.29477
499.0 0.002004 385.57977 494.45050
487.0 0.002053 385.75317 494.20856
464.0 0.002155 385.92734 492.34460
445.0 0.002247 386.10150 487.93808
439.0 0.002278 386.27594 481.02774
430.0 0.002326 386.45111 472.51831
425.0 0.002353 386.62628 463.76324
436.0 0.002294 386.80194 455.99771
399.0 0.002506 386.97794 450.01547
417.0 0.002398 387.15396 446.02533
402.0 0.002488 387.33075 443.63351
436.0 0.002294 387.50760 442.10599
435.0 . . .
loop_
_refln_index_h
_refln_index_k
_refln_index_l
_pd_refln_wavelength_id
_refln_observed_status
_refln_F_squared_meas
_refln_F_squared_calc
_refln_phase_calc
_refln_d_spacing
_gsas_i100_meas
0 2 0 1 o 42442.68 38461.04 0.00 6.67513 14.63
0 2 0 2 o 42218.74 38461.04 0.00 6.67513 7.24
1 1 1 1 o 19912.232 19405.107 0.00 6.05062 19.07
1 1 1 2 o 19263.283 19405.107 0.00 6.05062 9.15
2 0 0 1 o 822.732 1064.215 180.00 4.81982 0.00
2 0 0 2 o 822.732 1064.215 180.00 4.81982 0.00
0 0 2 1 o 36812.66 39923.80 0.00 4.77980 3.96
0 0 2 2 o 38552.00 39923.80 0.00 4.77980 2.11
1 2 1 1 o 5157.206 5313.925 0.00 4.75936 1.69
1 2 1 2 o 4957.117 5313.925 0.00 4.75936 0.77
2 1 0 1 o 161487.33 162159.27 180.00 4.53342 39.06
2 1 0 2 o 159634.86 162159.27 180.00 4.53342 19.17
1 0 2 1 o 229371.34 232354.53 0.00 4.28227 49.43
1 0 2 2 o 226779.72 232354.53 0.00 4.28227 24.27
2 1 1 1 o 123044.75 116393.63 0.00 4.09617 50.06
2 1 1 2 o 120930.03 116393.63 0.00 4.09617 24.42
1 1 2 1 o 121749.35 118453.80 0.00 4.07763 48.72
1 1 2 2 o 119834.73 118453.80 0.00 4.07763 23.80
0 3 1 1 o 443365.6 459062.0 180.00 4.03438 100.00
0 3 1 2 o 452055.5 459062.0 180.00 4.03438 50.88
2 2 0 1 o 89006.72 83638.71 180.00 3.90764 17.04
2 2 0 2 o 85519.08 83638.71 180.00 3.90764 8.09
0 2 2 1 o 51406.20 51906.63 0.00 3.88622 9.60
0 2 2 2 o 51467.82 51906.63 0.00 3.88622 4.78
1 3 1 1 o 82267.31 77926.97 180.00 3.72159 31.41
1 3 1 2 o 81173.67 77926.97 180.00 3.72159 15.39
2 2 1 1 o 190503.19 183591.52 180.00 3.61711 61.97
2 2 1 2 o 187310.48 183591.52 180.00 3.61711 30.23
1 2 2 1 o 532.971 518.223 0.00 3.60433 0.18
1 2 2 2 o 508.863 518.223 0.00 3.60433 0.09
2 0 2 1 o 154399.16 143229.67 180.00 3.39389 22.12
2 0 2 2 o 151947.72 143229.67 180.00 3.39389 10.82
0 4 0 1 o 147264.08 137117.58 180.00 3.33756 12.80
0 4 0 2 o 145582.19 137117.58 180.00 3.33756 6.29
2 1 2 1 o 14039.527 14523.363 180.00 3.28927 3.71
2 1 2 2 o 13887.390 14523.363 180.00 3.28927 1.82
2 3 0 1 o 40330.11 43685.48 180.00 3.26959 5.34
2 3 0 2 o 37452.40 43685.48 180.00 3.26959 2.43
0 1 3 1 o 148160.27 149672.50 180.00 3.09946 16.42
2 3 1 1 o 42847.80 43248.96 0.00 3.09365 10.34
0 1 3 2 o 149014.64 149672.50 180.00 3.09946 8.22
2 3 1 2 o 44532.50 43248.96 0.00 3.09365 5.38
1 3 2 1 o 27518.555 26688.988 0.00 3.08564 6.62
1 3 2 2 o 27464.682 26688.988 0.00 3.08564 3.29
2 2 2 1 o 58678.80 58217.14 180.00 3.02531 12.68
2 2 2 2 o 57711.50 58217.14 180.00 3.02531 6.19
1 4 1 1 o 17148.598 18047.865 180.00 2.99508 4.27
1 4 1 2 o 18013.246 18047.865 180.00 2.99508 2.24
3 1 1 1 o 64510.06 63620.64 0.00 2.96947 13.45
3 1 1 2 o 62414.22 63620.64 0.00 2.96947 6.44
1 1 3 1 o 699.719 1138.415 0.00 2.95069 0.10
1 1 3 2 o 290.963 1138.415 0.00 2.95069 0.00
3 2 1 1 o 33325.422 32003.068 180.00 2.77094 6.21
3 2 1 2 o 32184.473 32003.068 180.00 2.77094 2.97
1 2 3 1 o 118793.30 126773.73 0.00 2.75567 21.28
1 2 3 2 o 119368.81 126773.73 0.00 2.75567 10.65
2 4 0 1 o 98496.34 101590.48 180.00 2.74392 9.70
2 4 0 2 o 98872.75 101590.48 180.00 2.74392 4.85
0 4 2 1 o 28999.334 29788.445 0.00 2.73647 2.98
0 4 2 2 o 27617.441 29788.445 0.00 2.73647 1.40
2 3 2 1 o 3103.309 4111.915 180.00 2.69863 0.57
2 3 2 2 o 2788.051 4111.915 180.00 2.69863 0.25
3 0 2 1 o 91873.73 86418.41 0.00 2.66667 7.23
3 0 2 2 o 89348.55 86418.41 0.00 2.66667 3.48
2 4 1 1 o 24239.492 24041.129 0.00 2.63742 4.21
1 4 2 1 o 30118.990 30212.467 180.00 2.63245 5.17
2 4 1 2 o 23936.691 24041.129 0.00 2.63742 2.07
1 4 2 2 o 30445.104 30212.467 180.00 2.63245 2.61
3 1 2 1 o 29240.641 28842.945 180.00 2.61501 4.33
3 1 2 2 o 29344.898 28842.945 180.00 2.61501 2.16
2 1 3 1 o 29271.127 29064.365 0.00 2.60695 4.36
2 1 3 2 o 28118.512 29064.365 0.00 2.60695 2.07
0 3 3 1 o 1.244 1.017 180.00 2.59081 0.00
0 3 3 2 o 1.740 1.017 180.00 2.59081 0.00
0 5 1 1 o 61779.36 61323.03 180.00 2.57163 5.27
0 5 1 2 o 60650.90 61323.03 180.00 2.57163 2.56
3 3 1 1 o 27661.010 25484.637 180.00 2.51344 4.10
3 3 1 2 o 26022.805 25484.637 180.00 2.51344 1.89
1 3 3 1 o 123760.80 124499.96 180.00 2.50202 17.96
1 3 3 2 o 120064.77 124499.96 180.00 2.50202 8.61
1 5 1 1 o 5680.119 6020.626 180.00 2.48473 0.92
1 5 1 2 o 5895.125 6020.626 180.00 2.48473 0.48
3 2 2 1 o 15561.716 15987.205 180.00 2.47637 2.00
3 2 2 2 o 15709.568 15987.205 180.00 2.47637 1.01
2 2 3 1 o 24384.951 24675.584 0.00 2.46953 3.16
2 2 3 2 o 25546.965 24675.584 0.00 2.46953 1.67
4 0 0 1 o 22922.738 22036.984 180.00 2.40991 0.66
4 0 0 2 o 21894.180 22036.984 180.00 2.40991 0.31
0 0 4 1 o 55209.73 52320.04 180.00 2.38990 1.68
0 0 4 2 o 53556.64 52320.04 180.00 2.38990 0.80
2 4 2 1 o 29063.979 29031.904 180.00 2.37968 3.64
2 4 2 2 o 29768.607 29031.904 180.00 2.37968 1.87
4 1 0 1 o 14427.084 13527.182 180.00 2.37158 0.90
4 1 0 2 o 15326.150 13527.182 180.00 2.37158 0.48
2 5 0 1 o 161620.20 144618.03 0.00 2.33561 11.17
2 5 0 2 o 153694.11 144618.03 0.00 2.33561 5.23
1 0 4 1 o 36213.12 31905.795 0.00 2.31967 1.99
1 0 4 2 o 37947.14 31905.795 0.00 2.31967 1.05
4 1 1 1 o 166402.72 160164.25 180.00 2.30181 19.05
4 1 1 2 o 165584.61 160164.25 180.00 2.30181 9.42
3 3 2 1 o 30825.449 28338.770 180.00 2.28742 4.01
1 1 4 1 o 3479.118 3264.647 0.00 2.28543 0.34
2 3 3 1 o 31831.141 28457.861 0.00 2.28202 3.66
3 3 2 2 o 32200.594 28338.770 180.00 2.28742 2.09
1 1 4 2 o 3524.942 3264.647 0.00 2.28543 0.17
2 3 3 2 o 32479.627 28457.861 0.00 2.28202 1.87
2 5 1 1 o 38344.89 37699.65 0.00 2.26888 4.91
4 2 0 1 o 68497.48 68890.30 0.00 2.26671 3.72
1 5 2 1 o 55321.46 55949.92 180.00 2.26571 6.63
2 5 1 2 o 36565.24 37699.65 0.00 2.26888 2.31
4 2 0 2 o 66236.44 68890.30 0.00 2.26671 1.77
1 5 2 2 o 54283.07 55949.92 180.00 2.26571 3.22
0 2 4 1 o 64060.46 60440.54 0.00 2.25003 3.57
3 4 1 1 o 4979.415 4716.386 0.00 2.24978 0.60
0 2 4 2 o 62141.36 60440.54 0.00 2.25003 1.71
3 4 1 2 o 4856.356 4716.386 0.00 2.24978 0.29
1 4 3 1 o 19174.240 18548.727 180.00 2.24158 2.29
1 4 3 2 o 19768.213 18548.727 180.00 2.24158 1.18
3 1 3 1 o 57881.68 56912.91 0.00 2.23078 5.80
3 1 3 2 o 63442.21 56912.91 0.00 2.23078 3.24
0 6 0 1 o 219500.08 195319.95 0.00 2.22504 7.23
0 6 0 2 o 231657.42 195319.95 0.00 2.22504 3.83
4 2 1 1 o 16028.810 15928.756 180.00 2.20556 1.80
4 2 1 2 o 15667.086 15928.756 180.00 2.20556 0.87
1 2 4 1 o 9380.058 10282.671 0.00 2.19114 0.94
1 2 4 2 o 9291.396 10282.671 0.00 2.19114 0.46
4 0 2 1 o -360.889 60.949 180.00 2.15188 0.00
4 0 2 2 o -54.378 60.949 180.00 2.15188 0.01
3 2 3 1 o 4021.555 4027.867 180.00 2.14284 0.23
2 0 4 1 o 10563.070 10488.887 180.00 2.14113 0.39
3 2 3 2 o 3895.789 4027.867 180.00 2.14284 0.11
2 0 4 2 o 8922.633 10488.887 180.00 2.14113 0.14
4 1 2 1 o 5747.009 5361.873 180.00 2.12445 0.66
4 1 2 2 o 5847.190 5361.873 180.00 2.12445 0.33
4 3 0 1 o 1484.168 1393.080 180.00 2.11913 0.07
2 1 4 1 o 110327.48 109683.46 0.00 2.11412 10.76
4 3 0 2 o 1398.460 1393.080 180.00 2.11913 0.03
1 6 1 1 o 121.444 121.037 180.00 2.11434 0.01
2 1 4 2 o 106808.55 109683.46 0.00 2.11412 5.15
1 6 1 2 o 119.364 121.037 180.00 2.11434 0.00
2 5 2 1 o 24716.342 20394.883 0.00 2.09848 2.92
2 5 2 2 o 25433.836 20394.883 0.00 2.09848 1.50
3 4 2 1 o 108184.99 106684.67 180.00 2.08335 10.43
2 4 3 1 o 7151.567 7564.562 180.00 2.07927 0.71
3 4 2 2 o 102230.07 106684.67 180.00 2.08335 4.83
2 4 3 2 o 6756.886 7564.562 180.00 2.07927 0.33
4 3 1 1 o 6702.823 6563.409 0.00 2.06890 0.64
4 3 1 2 o 5783.361 6563.409 0.00 2.06890 0.27
1 3 4 1 o 4858.893 4310.504 0.00 2.05699 0.48
1 3 4 2 o 5172.758 4310.504 0.00 2.05699 0.25
4 2 2 1 o 56041.20 53097.64 0.00 2.04808 5.17
0 5 3 1 o 40789.95 40113.23 180.00 2.04657 2.17
4 2 2 2 o 54064.95 53097.64 0.00 2.04808 2.46
0 5 3 2 o 40651.14 40113.23 180.00 2.04657 1.08
2 2 4 1 o 20315.539 20000.781 180.00 2.03882 1.80
2 2 4 2 o 20499.107 20000.781 180.00 2.03882 0.91
2 6 0 1 o 44932.05 40941.70 180.00 2.02017 2.43
3 3 3 1 o 15819.511 15427.938 180.00 2.01687 1.28
0 6 2 1 o 69769.05 67722.50 0.00 2.01719 3.63
2 6 0 2 o 41297.98 40941.70 180.00 2.02017 1.10
3 3 3 2 o 15861.294 15427.938 180.00 2.01687 0.64
0 6 2 2 o 69409.51 67722.50 0.00 2.01719 1.79
3 5 1 1 o 596.203 499.421 180.00 2.00778 0.07
3 5 1 2 o 487.494 499.421 180.00 2.00778 0.03
1 5 3 1 o 20675.246 21287.432 180.00 2.00195 1.91
1 5 3 2 o 19163.617 21287.432 180.00 2.00195 0.87
2 6 1 1 o 76010.50 73573.52 0.00 1.97652 7.58
1 6 2 1 o 71565.38 69688.60 0.00 1.97442 7.09
2 6 1 2 o 72143.84 73573.52 0.00 1.97652 3.55
1 6 2 2 o 68246.48 69688.60 0.00 1.97442 3.33
4 4 0 1 o 278291.69 291141.13 0.00 1.95382 11.66
4 4 0 2 o 271888.59 291141.13 0.00 1.95382 5.64
0 4 4 1 o 168660.72 176467.27 0.00 1.94311 6.74
0 4 4 2 o 163294.42 176467.27 0.00 1.94311 3.22
4 3 2 1 o 5613.048 6106.407 180.00 1.93727 0.56
4 3 2 2 o 6000.916 6106.407 180.00 1.93727 0.30
2 3 4 1 o 41371.93 41361.00 0.00 1.92942 3.53
2 3 4 2 o 40743.06 41361.00 0.00 1.92942 1.73
3 0 4 1 o 1765.787 1163.219 180.00 1.91764 0.09
4 4 1 1 o 3304.851 2505.849 0.00 1.91425 0.29
3 0 4 2 o 1568.244 1163.219 180.00 1.91764 0.04
4 4 1 2 o 2296.543 2505.849 0.00 1.91425 0.10
1 4 4 1 o 3615.930 4802.845 0.00 1.90480 0.31
4 1 3 1 o 7956.219 8233.606 180.00 1.90250 0.63
1 4 4 2 o 4517.075 4802.845 0.00 1.90480 0.20
3 1 4 1 o 14477.941 14987.153 180.00 1.89815 1.19
4 1 3 2 o 8060.398 8233.606 180.00 1.90250 0.32
3 1 4 2 o 14084.108 14987.153 180.00 1.89815 0.57
0 1 5 1 o 101524.30 107956.06 180.00 1.89261 3.65
0 1 5 2 o 105605.09 107956.06 180.00 1.89261 1.91
3 5 2 1 o 33613.160 34315.363 0.00 1.88681 2.68
2 5 3 1 o 24023.273 23401.031 0.00 1.88378 1.91
3 5 2 2 o 34389.184 34315.363 0.00 1.88681 1.37
2 5 3 2 o 24020.828 23401.031 0.00 1.88378 0.95
3 4 3 1 o 18202.807 17093.523 0.00 1.87281 1.54
5 1 1 1 o 159.311 157.475 180.00 1.87122 0.00
0 7 1 1 o 37241.67 31771.740 0.00 1.87032 1.83
3 4 3 2 o 18545.717 17093.523 0.00 1.87281 0.78
5 1 1 2 o 158.498 157.475 180.00 1.87122 0.00
0 7 1 2 o 36043.18 31771.740 0.00 1.87032 0.88
2 6 2 1 o 16372.612 18477.879 180.00 1.86080 1.22
1 1 5 1 o 30688.492 33670.004 180.00 1.85715 2.11
2 6 2 2 o 16469.836 18477.879 180.00 1.86080 0.61
1 1 5 2 o 28774.494 33670.004 180.00 1.85715 0.97
4 2 3 1 o 7460.732 7914.191 0.00 1.84707 0.58
3 2 4 1 o 32613.063 33627.762 180.00 1.84309 2.37
4 2 3 2 o 7681.945 7914.191 0.00 1.84707 0.30
3 2 4 2 o 32846.762 33627.762 180.00 1.84309 1.19
1 7 1 1 o 24917.619 26348.418 0.00 1.83608 2.21
1 7 1 2 o 23919.027 26348.418 0.00 1.83608 1.05
5 2 1 1 o 75502.66 79679.86 180.00 1.81840 5.49
5 2 1 2 o 78856.84 79679.86 180.00 1.81840 2.87
4 4 2 1 o 103839.87 102742.14 0.00 1.80856 7.86
1 2 5 1 o 30093.924 31301.732 180.00 1.80548 2.37
4 4 2 2 o 100701.94 102742.14 0.00 1.80856 3.77
2 4 4 1 o 41004.48 42011.98 180.00 1.80217 3.29
1 2 5 2 o 30672.801 31301.732 180.00 1.80548 1.20
2 4 4 2 o 43044.60 42011.98 180.00 1.80217 1.72
3 6 1 1 o 36420.45 34719.070 0.00 1.79668 3.13
1 6 3 1 o 77221.75 73374.52 180.00 1.79249 6.33
3 6 1 2 o 36592.27 34719.070 0.00 1.79668 1.56
4 5 0 1 o 8916.859 9564.584 0.00 1.78898 0.30
5 0 2 1 o 5173.081 5484.629 180.00 1.78797 0.16
1 6 3 2 o 68740.07 73374.52 180.00 1.79249 2.76
4 5 0 2 o 7158.613 9564.584 0.00 1.78898 0.11
5 0 2 2 o 4193.305 5484.629 180.00 1.78797 0.06
2 7 0 1 o 2932.252 2625.506 180.00 1.77339 0.14
5 1 2 1 o 69804.27 64033.49 180.00 1.77214 4.53
2 7 0 2 o 2634.614 2625.506 180.00 1.77339 0.06
5 1 2 2 o 66902.09 64033.49 180.00 1.77214 2.14
4 3 3 1 o 94377.43 90822.11 180.00 1.76455 6.20
2 1 5 1 o 6780.031 6623.551 0.00 1.76166 0.43
3 3 4 1 o 1634.814 1610.556 180.00 1.76108 0.11
4 3 3 2 o 91882.74 90822.11 180.00 1.76455 2.99
4 5 1 1 o 19622.650 18925.027 180.00 1.75846 1.38
2 1 5 2 o 7009.015 6623.551 0.00 1.76166 0.22
3 3 4 2 o 1713.320 1610.556 180.00 1.76108 0.06
0 3 5 1 o 59509.85 56023.47 0.00 1.75665 2.00
4 5 1 2 o 18917.895 18925.027 180.00 1.75846 0.66
0 3 5 2 o 56192.18 56023.47 0.00 1.75665 0.93
1 5 4 1 o 18396.975 18883.719 180.00 1.75112 1.30
1 5 4 2 o 18394.232 18883.719 180.00 1.75112 0.65
2 7 1 1 o 43489.40 46290.07 0.00 1.74364 3.14
1 7 2 1 o 10.774 11.498 0.00 1.74221 0.00
5 3 1 1 o 909.819 997.610 0.00 1.73951 0.04
2 7 1 2 o 41109.59 46290.07 0.00 1.74364 1.46
1 7 2 2 o 9.715 11.498 0.00 1.74221 0.00
5 3 1 2 o 559.538 997.610 0.00 1.73951 0.01
1 3 5 1 o 5215.741 5681.604 180.00 1.72819 0.31
5 2 2 1 o 10299.317 11059.790 0.00 1.72708 0.63
3 5 3 1 o 7327.541 7996.970 0.00 1.72617 0.56
1 3 5 2 o 5667.910 5681.604 180.00 1.72819 0.17
5 2 2 2 o 10931.466 11059.790 0.00 1.72708 0.34
3 5 3 2 o 7751.528 7996.970 0.00 1.72617 0.29
2 2 5 1 o 129626.01 132020.97 0.00 1.71737 7.92
2 2 5 2 o 125032.31 132020.97 0.00 1.71737 3.77
3 6 2 1 o 13332.749 14272.959 0.00 1.70844 0.86
2 6 3 1 o 11910.773 12357.931 180.00 1.70618 0.77
3 6 2 2 o 13673.546 14272.959 0.00 1.70844 0.44
2 6 3 2 o 13487.849 12357.931 180.00 1.70618 0.44
4 0 4 1 o 311900.69 298190.31 0.00 1.69695 9.54
4 0 4 2 o 296115.44 298190.31 0.00 1.69695 4.46
4 1 4 1 o 18439.430 16860.992 0.00 1.68340 1.19
4 1 4 2 o 18361.928 16860.992 0.00 1.68340 0.59
4 5 2 1 o 3958.385 4174.257 0.00 1.67547 0.29
4 5 2 2 o 4415.741 4174.257 0.00 1.67547 0.16
2 5 4 1 o 104229.20 103137.61 180.00 1.67039 6.40
0 8 0 1 o 263807.53 265656.94 0.00 1.66878 4.89
2 5 4 2 o 100402.08 103137.61 180.00 1.67039 3.04
4 4 3 1 o 121.217 123.210 180.00 1.66565 0.01
0 8 0 2 o 263547.50 265656.94 0.00 1.66878 2.43
3 4 4 1 o 56852.95 58136.27 180.00 1.66273 3.36
2 7 2 1 o 719.230 742.350 0.00 1.66265 0.06
4 4 3 2 o 119.982 123.210 180.00 1.66565 0.00
5 3 2 1 o 21016.836 20763.189 180.00 1.65906 1.22
3 4 4 2 o 58510.76 58136.27 180.00 1.66273 1.73
2 7 2 2 o 747.665 742.350 0.00 1.66265 0.03
5 3 2 2 o 21159.400 20763.189 180.00 1.65906 0.61
2 3 5 1 o 28642.639 31691.090 0.00 1.65045 1.62
2 3 5 2 o 30720.822 31691.090 0.00 1.65045 0.88
4 2 4 1 o 8378.834 7493.555 0.00 1.64463 0.50
5 4 1 1 o 7859.608 7063.162 0.00 1.64453 0.45
4 2 4 2 o 8145.144 7493.555 0.00 1.64463 0.24
5 4 1 2 o 7650.771 7063.162 0.00 1.64453 0.22
5 1 3 1 o 58669.30 55372.61 180.00 1.63707 3.43
0 7 3 1 o 126178.67 120687.54 180.00 1.63647 4.09
1 4 5 1 o 331.555 324.373 0.00 1.63496 0.02
4 6 0 1 o 1593.949 1555.634 180.00 1.63480 0.05
5 1 3 2 o 57106.57 55372.61 180.00 1.63707 1.65
0 7 3 2 o 126144.71 120687.54 180.00 1.63647 2.04
1 4 5 2 o 353.335 324.373 0.00 1.63496 0.01
3 1 5 1 o 14687.892 13020.065 0.00 1.63075 0.85
4 6 0 2 o 1743.682 1555.634 180.00 1.63480 0.03
0 6 4 1 o 8037.172 7133.182 180.00 1.62851 0.25
3 1 5 2 o 15259.056 13020.065 0.00 1.63075 0.44
0 6 4 2 o 7117.854 7133.182 180.00 1.62851 0.11
1 8 1 1 o 31719.463 28600.328 0.00 1.62053 2.20
3 7 1 1 o 58050.43 56972.95 0.00 1.61643 3.65
1 8 1 2 o 29184.543 28600.328 0.00 1.62053 0.99
1 7 3 1 o 11174.637 11292.425 0.00 1.61338 0.66
3 7 1 2 o 56498.40 56972.95 0.00 1.61643 1.76
4 6 1 1 o 4114.136 4147.693 0.00 1.61140 0.24
1 7 3 2 o 11173.285 11292.425 0.00 1.61338 0.33
4 6 1 2 o 4142.752 4147.693 0.00 1.61140 0.12
6 0 0 1 o 74849.13 75395.07 180.00 1.60661 0.92
1 6 4 1 o 30811.230 31993.635 0.00 1.60575 1.77
6 0 0 2 o 71984.95 75395.07 180.00 1.60661 0.43
1 6 4 2 o 29831.949 31993.635 0.00 1.60575 0.84
5 2 3 1 o 50162.98 53520.91 180.00 1.60135 2.40
5 2 3 2 o 50155.69 53520.91 180.00 1.60135 1.20
3 2 5 1 o 1103.398 1165.701 180.00 1.59544 0.10
6 1 0 1 o 100870.29 103667.55 0.00 1.59510 2.72
0 0 6 1 o 30887.891 34031.168 180.00 1.59327 0.43
3 2 5 2 o 1039.165 1165.701 180.00 1.59544 0.05
6 1 0 2 o 99117.29 103667.55 0.00 1.59510 1.33
0 0 6 2 o 32369.953 34031.168 180.00 1.59327 0.22
3 6 3 1 o 2872.318 2895.816 0.00 1.58645 0.10
4 3 4 1 o 7255.053 7099.275 0.00 1.58558 0.43
3 6 3 2 o 3119.299 2895.816 0.00 1.58645 0.06
4 3 4 2 o 8087.702 7099.275 0.00 1.58558 0.24
2 8 0 1 o 2048.693 2072.258 180.00 1.57694 0.03
5 4 2 1 o 38736.93 40711.64 0.00 1.57606 2.03
0 8 2 1 o 17232.375 17910.637 0.00 1.57552 0.43
6 1 1 1 o 3742.459 3598.707 0.00 1.57335 0.16
2 8 0 2 o 2112.437 2072.258 180.00 1.57694 0.02
5 4 2 2 o 40689.30 40711.64 0.00 1.57606 1.07
1 0 6 1 o 4064.255 4076.667 180.00 1.57194 0.11
0 8 2 2 o 17965.326 17910.637 0.00 1.57552 0.23
6 1 1 2 o 3569.899 3598.707 0.00 1.57335 0.08
2 4 5 1 o 24790.176 25900.850 180.00 1.56867 1.28
1 0 6 2 o 3785.686 4076.667 180.00 1.57194 0.05
2 4 5 2 o 23930.836 25900.850 180.00 1.56867 0.61
6 2 0 1 o 23861.045 23546.297 180.00 1.56200 0.60
1 1 6 1 o 25712.541 25110.832 180.00 1.56115 1.24
4 5 3 1 o 34845.484 34033.582 180.00 1.55995 1.84
6 2 0 2 o 24651.404 23546.297 180.00 1.56200 0.31
3 5 4 1 o 3885.545 3685.890 0.00 1.55755 0.19
1 1 6 2 o 26608.695 25110.832 180.00 1.56115 0.65
4 5 3 2 o 37055.70 34033.582 180.00 1.55995 0.98
2 8 1 1 o 48574.04 44540.60 180.00 1.55591 2.88
1 8 2 1 o 33858.141 31531.379 0.00 1.55489 1.97
0 5 5 1 o 1212.990 1138.722 180.00 1.55449 0.03
3 5 4 2 o 3862.344 3685.890 0.00 1.55755 0.10
2 8 1 2 o 46836.38 44540.60 180.00 1.55591 1.37
3 7 2 1 o 50.766 49.135 0.00 1.55127 0.00
1 8 2 2 o 31743.307 31531.379 0.00 1.55489 0.90
0 5 5 2 o 1107.863 1138.722 180.00 1.55449 0.01
0 2 6 1 o 12396.082 13923.968 0.00 1.54973 0.28
2 7 3 1 o 20487.990 23495.613 0.00 1.54958 1.15
3 7 2 2 o 42.599 49.135 0.00 1.55127 0.00
5 3 3 1 o 4556.090 5207.251 0.00 1.54668 0.26
4 6 2 1 o 18228.893 20321.631 0.00 1.54683 0.99
0 2 6 2 o 11848.312 13923.968 0.00 1.54973 0.13
2 7 3 2 o 19563.898 23495.613 0.00 1.54958 0.54
5 3 3 2 o 4895.680 5207.251 0.00 1.54668 0.14
4 6 2 2 o 19273.215 20321.631 0.00 1.54683 0.52
2 6 4 1 o 29349.119 30966.639 180.00 1.54282 1.56
5 5 1 1 o 2418.933 2585.183 180.00 1.54257 0.15
6 2 1 1 o 58352.35 59954.20 0.00 1.54156 2.80
3 3 5 1 o 27125.188 27665.994 0.00 1.54135 1.23
2 6 4 2 o 28795.555 30966.639 180.00 1.54282 0.76
5 5 1 2 o 2365.185 2585.183 180.00 1.54257 0.07
6 2 1 2 o 58225.38 59954.20 0.00 1.54156 1.39
3 3 5 2 o 27198.109 27665.994 0.00 1.54135 0.62
1 5 5 1 o 23030.795 24182.076 180.00 1.53466 1.21
1 5 5 2 o 25317.477 24182.076 180.00 1.53466 0.67
1 2 6 1 o 37396.46 35272.12 0.00 1.53008 1.78
1 2 6 2 o 36575.82 35272.12 0.00 1.53008 0.86
6 0 2 2 o 52250.21 53033.33 180.00 1.52288 0.63
6 0 2 1 o 48890.24 53033.33 180.00 1.52288 1.17
6 1 2 1 o 22.922 22.971 0.00 1.51307 0.00
2 0 6 1 o 27437.631 28189.572 180.00 1.51276 0.69
4 4 4 1 o 37856.20 38998.60 180.00 1.51265 1.95
6 3 0 1 o 38322.21 40466.38 0.00 1.51114 0.97
6 1 2 2 o 22.737 22.971 0.00 1.51307 0.00
2 0 6 2 o 26515.299 28189.572 180.00 1.51276 0.33
4 4 4 2 o 36776.26 38998.60 180.00 1.51265 0.94
6 3 0 2 o 39799.28 40466.38 0.00 1.51114 0.50
2 1 6 1 o 19989.848 20203.961 0.00 1.50314 0.87
5 0 4 1 o 2377.226 2209.182 0.00 1.50054 0.05
2 1 6 2 o 21262.807 20203.961 0.00 1.50314 0.47
2 8 2 1 o 49234.76 50919.63 180.00 1.49754 2.85
5 0 4 2 o 2117.667 2209.182 0.00 1.50054 0.02
4 7 0 1 o 2472.629 2396.597 180.00 1.49552 0.08
2 8 2 2 o 49271.81 50919.63 180.00 1.49754 1.42
6 3 1 1 o 71630.84 75031.20 0.00 1.49261 3.23
4 7 0 2 o 2259.557 2396.597 180.00 1.49552 0.04
5 1 4 1 o 7976.456 8311.223 180.00 1.49115 0.34
6 3 1 2 o 69253.80 75031.20 0.00 1.49261 1.54
4 1 5 1 o 5759.993 6102.269 0.00 1.48846 0.24
5 1 4 2 o 8065.995 8311.223 180.00 1.49115 0.17
5 5 2 1 o 88465.80 94884.34 0.00 1.48564 4.11
4 1 5 2 o 5976.747 6102.269 0.00 1.48846 0.13
6 2 2 1 o 16767.914 17044.820 180.00 1.48473 0.71
1 3 6 1 o 10073.802 10372.018 180.00 1.48219 0.46
5 5 2 2 o 92597.05 94884.34 0.00 1.48564 2.16
6 2 2 2 o 17223.193 17044.820 180.00 1.48473 0.37
2 5 5 1 o 21414.299 20584.078 0.00 1.47944 1.05
5 4 3 1 o 16569.131 16304.618 0.00 1.47877 0.76
1 3 6 2 o 10450.775 10372.018 180.00 1.48219 0.24
4 7 1 1 o 191831.11 192818.52 180.00 1.47755 9.55
2 5 5 2 o 20431.965 20584.078 0.00 1.47944 0.49
2 2 6 1 o 5530.168 5514.266 180.00 1.47534 0.24
5 4 3 2 o 16390.072 16304.618 0.00 1.47877 0.37
3 4 5 1 o 681.003 679.859 180.00 1.47411 0.03
4 7 1 2 o 193774.44 192818.52 180.00 1.47755 4.81
1 7 4 1 o 87.177 84.810 0.00 1.47319 0.01
2 2 6 2 o 5426.985 5514.266 180.00 1.47534 0.12
3 4 5 2 o 780.967 679.859 180.00 1.47411 0.02
1 7 4 2 o 105.847 84.810 0.00 1.47319 0.00
0 9 1 1 o 56973.53 51505.28 180.00 1.46582 1.53
5 2 4 1 o 16500.127 14095.275 0.00 1.46401 0.73
3 8 1 1 o 7250.494 6390.500 180.00 1.46351 0.36
0 9 1 2 o 52023.14 51505.28 180.00 1.46582 0.68
4 2 5 1 o 6932.358 6808.310 0.00 1.46146 0.29
1 8 3 1 o 28557.871 27822.354 0.00 1.46124 1.40
5 2 4 2 o 14813.556 14095.275 0.00 1.46401 0.32
3 8 1 2 o 6724.393 6390.500 180.00 1.46351 0.16
3 7 3 1 o 87929.84 90263.48 0.00 1.45824 4.04
4 2 5 2 o 6568.263 6808.310 0.00 1.46146 0.14
1 8 3 2 o 26812.111 27822.354 0.00 1.46124 0.64
3 7 3 2 o 89723.47 90263.48 0.00 1.45824 2.06
4 6 3 1 o 468.498 471.142 180.00 1.45455 0.02
3 6 4 1 o 1589.347 1385.523 180.00 1.45260 0.08
4 6 3 2 o 549.255 471.142 180.00 1.45455 0.01
3 6 4 2 o 1993.952 1385.523 180.00 1.45260 0.05
1 9 1 1 o 3983.168 2818.783 180.00 1.44916 0.21
6 4 0 1 o 7089.087 4082.609 180.00 1.44762 0.18
1 9 1 2 o 4754.157 2818.783 180.00 1.44916 0.13
6 4 0 2 o 6237.951 4082.609 180.00 1.44762 0.08
6 3 2 1 o 685.206 631.881 180.00 1.44085 0.05
5 6 1 1 o 36857.81 35838.98 0.00 1.44042 1.78
0 4 6 1 o 130089.60 131261.13 0.00 1.43784 2.99
6 3 2 2 o 673.314 631.881 180.00 1.44085 0.02
5 6 1 2 o 38238.43 35838.98 0.00 1.44042 0.92
0 4 6 2 o 136662.27 131261.13 0.00 1.43784 1.58
1 6 5 1 o 14921.478 13816.434 0.00 1.43398 0.79
2 3 6 1 o 2581.938 2478.736 0.00 1.43226 0.09
4 5 4 1 o 16749.010 15887.526 180.00 1.43218 0.79
6 4 1 1 o 15466.048 14097.087 180.00 1.43130 0.68
1 6 5 2 o 15509.779 13816.434 0.00 1.43398 0.41
2 3 6 2 o 2539.316 2478.736 0.00 1.43226 0.04
4 5 4 2 o 16270.113 15887.526 180.00 1.43218 0.38
6 4 1 2 o 14068.710 14097.087 180.00 1.43130 0.30
3 0 6 1 o 137964.95 135740.70 180.00 1.42742 2.80
4 7 2 1 o 4043.997 3905.726 0.00 1.42729 0.24
6 1 3 1 o 40942.28 37223.29 0.00 1.42637 1.71
3 0 6 2 o 135915.50 135740.70 180.00 1.42742 1.37
2 7 4 1 o 172.448 172.684 180.00 1.42414 0.01
4 7 2 2 o 3927.595 3905.726 0.00 1.42729 0.12
6 1 3 2 o 36876.09 37223.29 0.00 1.42637 0.75
1 4 6 1 o 97894.55 98294.91 0.00 1.42210 4.11
5 3 4 1 o 249.601 247.786 180.00 1.42189 0.01
2 7 4 2 o 172.125 172.684 180.00 1.42414 0.01
4 3 5 1 o 142959.48 145117.05 180.00 1.41955 5.81
3 1 6 1 o 15438.476 15341.532 0.00 1.41933 0.63
1 4 6 2 o 103638.92 98294.91 0.00 1.42210 2.19
5 3 4 2 o 257.350 247.786 180.00 1.42189 0.00
2 9 0 1 o 109593.36 100010.74 180.00 1.41774 2.72
4 3 5 2 o 152176.02 145117.05 180.00 1.41955 3.12
3 1 6 2 o 16450.279 15341.532 0.00 1.41933 0.34
3 8 2 1 o 8900.648 7893.179 0.00 1.41462 0.41
2 9 0 2 o 115321.54 100010.74 180.00 1.41774 1.44
2 8 3 1 o 18576.703 15354.603 0.00 1.41334 0.90
3 8 2 2 o 10277.476 7893.179 0.00 1.41462 0.24
2 8 3 2 o 19919.979 15354.603 0.00 1.41334 0.49
5 5 3 1 o 13.568 11.293 180.00 1.40332 0.00
6 2 3 1 o 17212.063 16291.500 180.00 1.40256 0.68
2 9 1 1 o 28583.221 26898.242 0.00 1.40240 1.39
1 9 2 1 o 56731.41 49958.14 0.00 1.40165 2.73
5 5 3 2 o 12.989 11.293 180.00 1.40332 0.00
3 5 5 1 o 11295.443 10961.912 0.00 1.39934 0.42
6 2 3 2 o 17086.248 16291.500 180.00 1.40256 0.34
2 9 1 2 o 28772.705 26898.242 0.00 1.40240 0.70
1 9 2 2 o 59973.55 49958.14 0.00 1.40165 1.45
3 2 6 1 o 11010.215 8242.119 180.00 1.39586 0.45
3 5 5 2 o 14270.026 10961.912 0.00 1.39934 0.29
5 6 2 1 o 329.446 213.347 180.00 1.39374 0.01
3 2 6 2 o 11363.691 8242.119 180.00 1.39586 0.23
5 6 2 2 o 256.209 213.347 180.00 1.39374 0.00
2 6 5 1 o 64603.99 64254.96 180.00 1.38862 2.72
6 4 2 1 o 9857.351 9129.483 180.00 1.38547 0.36
2 6 5 2 o 71366.22 64254.96 180.00 1.38862 1.52
6 4 2 2 o 14300.612 9129.483 180.00 1.38547 0.29
2 4 6 1 o 2033.780 1606.539 0.00 1.37783 0.13
6 5 0 1 o 118053.92 112565.09 180.00 1.37661 2.46
2 4 6 2 o 1588.748 1606.539 0.00 1.37783 0.05
6 5 0 2 o 119120.80 112565.09 180.00 1.37661 1.24
4 8 0 1 o 1877.070 1397.073 0.00 1.37196 0.06
5 4 4 1 o 22766.277 16425.629 0.00 1.36859 0.90
4 8 0 2 o 2254.208 1397.073 0.00 1.37196 0.03
0 8 4 1 o 674.669 320.186 0.00 1.36823 0.03
4 4 5 1 o 2661.762 2158.724 180.00 1.36650 0.11
6 3 3 1 o 10957.089 9593.558 0.00 1.36539 0.44
5 4 4 2 o 18693.447 16425.629 0.00 1.36859 0.35
0 8 4 2 o 460.050 320.186 0.00 1.36823 0.01
4 4 5 2 o 2098.615 2158.724 180.00 1.36650 0.04
6 5 1 1 o 39114.56 39756.49 0.00 1.36256 1.55
6 3 3 2 o 9811.463 9593.558 0.00 1.36539 0.19
6 5 1 2 o 38734.14 39756.49 0.00 1.36256 0.76
3 3 6 1 o 3734.873 3835.900 0.00 1.35921 0.14
2 9 2 1 o 6593.328 6777.629 180.00 1.35921 0.31
0 1 7 1 o 1451.242 1340.209 180.00 1.35857 0.03
4 8 1 1 o 7058.826 6244.566 180.00 1.35804 0.32
7 1 1 1 o 797.662 773.090 180.00 1.35597 0.01
3 3 6 2 o 4071.444 3835.900 0.00 1.35921 0.08
2 9 2 2 o 7209.192 6777.629 180.00 1.35921 0.17
0 1 7 2 o 1367.733 1340.209 180.00 1.35857 0.01
1 5 6 1 o 37167.47 35950.26 0.00 1.35462 1.43
4 8 1 2 o 6438.228 6244.566 180.00 1.35804 0.14
1 8 4 1 o 20578.547 19963.682 0.00 1.35466 0.85
4 7 3 1 o 125.817 115.629 0.00 1.35383 0.01
7 1 1 2 o 773.042 773.090 180.00 1.35597 0.01
3 7 4 1 o 214.534 215.716 0.00 1.35226 0.01
1 5 6 2 o 35924.94 35950.26 0.00 1.35462 0.68
1 8 4 2 o 19924.859 19963.682 0.00 1.35466 0.41
5 1 5 1 o 8652.665 8555.394 180.00 1.35059 0.30
4 7 3 2 o 117.553 115.629 0.00 1.35383 0.00
0 7 5 1 o 179374.09 176130.73 180.00 1.35025 3.65
4 6 4 1 o 70742.53 68291.34 0.00 1.34931 2.69
3 7 4 2 o 227.532 215.716 0.00 1.35226 0.01
5 1 5 2 o 8320.427 8555.394 180.00 1.35059 0.14
0 7 5 2 o 172402.45 176130.73 180.00 1.35025 1.73
4 6 4 2 o 69114.75 68291.34 0.00 1.34931 1.30
1 1 7 1 o 73510.29 71020.10 180.00 1.34527 2.64
0 9 3 1 o 10782.307 10366.793 180.00 1.34479 0.23
3 8 3 1 o 21584.139 22066.146 180.00 1.34301 0.93
5 7 1 1 o 6657.444 6696.263 180.00 1.34242 0.24
1 1 7 2 o 70991.66 71020.10 180.00 1.34527 1.26
0 9 3 2 o 10417.781 10366.793 180.00 1.34479 0.11
3 8 3 2 o 23120.355 22066.146 180.00 1.34301 0.50
5 7 1 2 o 7113.791 6696.263 180.00 1.34242 0.13
1 7 5 1 o 37668.90 38562.84 180.00 1.33720 1.51
7 2 1 1 o 1621.928 1368.625 0.00 1.33547 0.05
0 10 0 1 o 17060.643 13726.956 180.00 1.33503 0.19
1 7 5 2 o 43195.35 38562.84 180.00 1.33720 0.89
6 0 4 1 o 338.252 295.713 0.00 1.33333 0.01
3 9 1 1 o 784.724 674.079 0.00 1.33361 0.05
7 2 1 2 o 1490.499 1368.625 0.00 1.33547 0.02
1 9 3 1 o 18987.875 16841.197 180.00 1.33189 0.82
0 10 0 2 o 15665.798 13726.956 180.00 1.33503 0.09
5 2 5 1 o 2764.916 2515.375 0.00 1.33032 0.09
6 0 4 2 o 330.064 295.713 0.00 1.33333 0.00
3 9 1 2 o 791.705 674.079 0.00 1.33361 0.02
4 0 6 1 o 55313.49 52465.07 0.00 1.32906 0.95
1 9 3 2 o 17366.945 16841.197 180.00 1.33189 0.37
5 2 5 2 o 2435.842 2515.375 0.00 1.33032 0.04
6 1 4 1 o 28254.895 28423.965 180.00 1.32673 0.93
4 0 6 2 o 53338.40 52465.07 0.00 1.32906 0.45
1 2 7 1 o 23103.684 22602.756 180.00 1.32524 0.70
5 6 3 1 o 20601.188 20054.736 0.00 1.32510 0.70
6 1 4 2 o 28121.580 28423.965 180.00 1.32673 0.46
7 0 2 1 o 105213.30 105311.36 180.00 1.32327 1.80
6 5 2 1 o 219.832 218.268 180.00 1.32284 0.00
4 1 6 1 o 126.471 125.653 0.00 1.32253 0.00
1 2 7 2 o 22565.625 22602.756 180.00 1.32524 0.34
5 6 3 2 o 20001.805 20054.736 0.00 1.32510 0.33
3 6 5 1 o 98.036 98.518 0.00 1.32174 0.01
7 0 2 2 o 100245.55 105311.36 180.00 1.32327 0.84
6 5 2 2 o 215.910 218.268 180.00 1.32284 0.00
4 1 6 2 o 124.300 125.653 0.00 1.32253 0.00
4 8 2 1 o 2139.527 2216.820 0.00 1.31871 0.05
3 6 5 2 o 83.937 98.518 0.00 1.32174 0.00
6 4 3 1 o 5505.665 5736.309 0.00 1.31799 0.21
7 1 2 1 o 9004.741 9327.849 0.00 1.31682 0.33
2 5 6 1 o 34286.277 34485.137 180.00 1.31619 1.25
2 8 4 1 o 7389.605 7437.636 180.00 1.31623 0.24
4 8 2 2 o 2260.334 2216.820 0.00 1.31871 0.03
6 4 3 2 o 5664.292 5736.309 0.00 1.31799 0.11
7 1 2 2 o 8870.704 9327.849 0.00 1.31682 0.16
2 5 6 2 o 32384.945 34485.137 180.00 1.31619 0.58
2 8 4 2 o 7062.963 7437.636 180.00 1.31623 0.11
3 4 6 1 o 3656.586 3913.614 0.00 1.31243 0.13
1 10 1 1 o 463.968 535.593 0.00 1.30993 0.01
3 4 6 2 o 2899.122 3913.614 0.00 1.31243 0.05
5 5 4 1 o 5888.981 6978.363 0.00 1.30812 0.18
2 1 7 1 o 1488.301 1733.609 0.00 1.30761 0.05
6 2 4 1 o 17157.646 20002.504 180.00 1.30750 0.56
1 10 1 2 o 494.640 535.593 0.00 1.30993 0.01
4 5 5 1 o 15731.439 18133.197 180.00 1.30630 0.52
0 3 7 1 o 3822.650 4549.200 180.00 1.30556 0.06
5 5 4 2 o 5588.988 6978.363 0.00 1.30812 0.08
2 1 7 2 o 1423.585 1733.609 0.00 1.30761 0.02
6 2 4 2 o 16508.629 20002.504 180.00 1.30750 0.27
5 7 2 1 o 953.800 1229.506 180.00 1.30439 0.04
4 2 6 1 o 276.068 310.942 0.00 1.30348 0.01
7 3 1 1 o 18606.916 21437.506 0.00 1.30326 0.55
4 5 5 2 o 15615.326 18133.197 180.00 1.30630 0.25
6 6 0 1 o 67533.22 76227.45 180.00 1.30255 1.24
0 3 7 2 o 4099.083 4549.200 180.00 1.30556 0.04
5 7 2 2 o 1013.962 1229.506 180.00 1.30439 0.02
4 2 6 2 o 261.515 310.942 0.00 1.30348 0.00
7 3 1 2 o 17598.391 21437.506 0.00 1.30326 0.25
2 7 5 1 o 1762.644 2187.850 0.00 1.30020 0.06
6 6 0 2 o 63220.98 76227.45 180.00 1.30255 0.57
5 3 5 1 o 25947.084 31250.834 180.00 1.29848 0.90
7 2 2 1 o 92.142 109.486 0.00 1.29801 0.00
2 7 5 2 o 1931.465 2187.850 0.00 1.30020 0.03
3 9 2 1 o 11713.833 12403.483 180.00 1.29630 0.41
5 3 5 2 o 25203.176 31250.834 180.00 1.29848 0.43
0 6 6 1 o 100.699 107.323 180.00 1.29541 0.00
2 9 3 1 o 11355.609 13732.280 0.00 1.29532 0.40
7 2 2 2 o 87.268 109.486 0.00 1.29801 0.00
1 3 7 1 o 1475.876 1789.424 0.00 1.29375 0.05
3 9 2 2 o 10652.565 12403.483 180.00 1.29630 0.18
0 6 6 2 o 99.511 107.323 180.00 1.29541 0.00
2 9 3 2 o 11285.139 13732.280 0.00 1.29532 0.20
6 6 1 1 o 23550.846 29298.223 180.00 1.29062 0.80
1 3 7 2 o 1413.772 1789.424 0.00 1.29375 0.02
2 2 7 1 o 377.569 665.006 0.00 1.28919 0.02
6 6 1 2 o 24373.361 29298.223 180.00 1.29062 0.42
2 10 0 1 o 20908.820 27912.082 180.00 1.28658 0.36
2 2 7 2 o 329.179 665.006 0.00 1.28919 0.01
0 10 2 1 o 3350.188 5094.537 0.00 1.28581 0.05
1 6 6 1 o 802.044 1345.777 0.00 1.28386 0.03
2 10 0 2 o 17488.424 27912.082 180.00 1.28658 0.14
0 10 2 2 o 2401.427 5094.537 0.00 1.28581 0.01
1 6 6 2 o 1127.609 1345.777 0.00 1.28386 0.02
6 3 4 1 o 3765.997 4542.510 180.00 1.27724 0.09
2 10 1 1 o 11641.103 11829.355 180.00 1.27509 0.48
1 10 2 1 o 19675.686 19285.117 180.00 1.27452 0.80
6 3 4 2 o 4545.011 4542.510 180.00 1.27724 0.06
4 3 6 1 o -2.971 1.192 180.00 1.27348 0.00
2 10 1 2 o 11148.715 11829.355 180.00 1.27509 0.23
1 10 2 2 o 18202.637 19285.117 180.00 1.27452 0.36
4 3 6 2 o -3.677 1.192 180.00 1.27348 0.00
7 3 2 1 o 1522.096 2032.378 0.00 1.26838 0.05
4 7 4 1 o 673.651 953.866 180.00 1.26776 0.03
7 3 2 2 o 1781.552 2032.378 0.00 1.26838 0.03
4 7 4 2 o 962.055 953.866 180.00 1.26776 0.02
6 5 3 1 o 12461.365 12308.962 0.00 1.26373 0.41
4 9 0 1 o 7503.682 7849.777 180.00 1.26324 0.14
7 4 1 1 o 2868.544 2713.245 180.00 1.26185 0.11
6 5 3 2 o 10995.875 12308.962 0.00 1.26373 0.17
2 3 7 1 o 3086.549 3271.064 0.00 1.26015 0.10
4 8 3 1 o 1945.766 2059.716 0.00 1.26012 0.07
4 9 0 2 o 7442.131 7849.777 180.00 1.26324 0.07
7 4 1 2 o 2293.356 2713.245 180.00 1.26185 0.04
3 5 6 1 o 9542.335 10868.726 180.00 1.25883 0.29
3 8 4 1 o 2017.161 2325.473 180.00 1.25886 0.07
7 1 3 1 o 10122.430 12072.516 180.00 1.25847 0.34
5 4 5 1 o 1616.436 1899.023 180.00 1.25751 0.06
2 3 7 2 o 2913.746 3271.064 0.00 1.26015 0.05
4 8 3 2 o 1829.961 2059.716 0.00 1.26012 0.03
6 6 2 1 o 18081.061 20049.105 180.00 1.25672 0.58
3 5 6 2 o 9205.618 10868.726 180.00 1.25883 0.14
3 8 4 2 o 1923.423 2325.473 180.00 1.25886 0.04
7 1 3 2 o 10388.848 12072.516 180.00 1.25847 0.17
5 4 5 2 o 1489.176 1899.023 180.00 1.25751 0.03
6 6 2 2 o 16033.916 20049.105 180.00 1.25672 0.24
1 4 7 1 o 10263.552 12858.372 0.00 1.25321 0.33
4 9 1 1 o 6442.314 7817.743 180.00 1.25235 0.22
3 1 7 1 o 542.225 726.229 180.00 1.25132 0.02
2 6 6 1 o 6211.035 7804.909 180.00 1.25101 0.19
5 8 1 1 o 15093.019 18862.854 180.00 1.25091 0.50
1 4 7 2 o 10510.200 12858.372 0.00 1.25321 0.17
1 9 4 1 o 2405.331 2818.304 0.00 1.24969 0.07
4 9 1 2 o 6664.849 7817.743 180.00 1.25235 0.12
3 1 7 2 o 661.877 726.229 180.00 1.25132 0.01
2 6 6 2 o 7378.764 7804.909 180.00 1.25101 0.12
5 8 1 2 o 17960.254 18862.854 180.00 1.25091 0.31
5 7 3 1 o 40012.16 41450.49 180.00 1.24761 1.40
1 8 5 1 o 712.840 710.961 180.00 1.24668 0.02
1 9 4 2 o 2834.538 2818.304 0.00 1.24969 0.04
3 7 5 1 o 2940.253 3264.172 0.00 1.24481 0.10
5 7 3 2 o 37948.83 41450.49 180.00 1.24761 0.65
5 6 4 1 o 1838.228 1870.664 0.00 1.24408 0.05
1 8 5 2 o 721.594 710.961 180.00 1.24668 0.01
4 6 5 1 o 3770.253 4281.232 180.00 1.24251 0.12
7 2 3 1 o 5297.551 6184.520 0.00 1.24202 0.17
2 10 2 1 o 23227.313 26781.111 180.00 1.24236 0.87
3 7 5 2 o 2784.298 3264.172 0.00 1.24481 0.05
5 6 4 2 o 1664.863 1870.664 0.00 1.24408 0.02
3 9 3 1 o 200.100 230.530 180.00 1.24053 0.01
4 6 5 2 o 4136.159 4281.232 180.00 1.24251 0.07
7 2 3 2 o 6072.237 6184.520 0.00 1.24202 0.10
2 10 2 2 o 25902.617 26781.111 180.00 1.24236 0.50
6 4 4 1 o 53920.90 49647.04 180.00 1.23819 1.77
3 9 3 2 o 274.740 230.530 180.00 1.24053 0.01
6 4 4 2 o 49774.92 49647.04 180.00 1.23819 0.80
3 2 7 1 o 38307.22 38202.09 0.00 1.23515 1.27
4 4 6 1 o 1441.116 1439.956 180.00 1.23476 0.03
3 2 7 2 o 34216.691 38202.09 0.00 1.23515 0.55
4 4 6 2 o 1358.901 1439.956 180.00 1.23476 0.01
7 4 2 1 o 32689.627 35399.61 0.00 1.23011 0.99
6 7 0 1 o 1479.864 1598.408 180.00 1.22873 0.03
5 0 6 1 o 50284.54 51070.34 0.00 1.22815 0.76
7 4 2 2 o 33793.887 35399.61 0.00 1.23011 0.52
6 7 0 2 o 1572.200 1598.408 180.00 1.22873 0.02
5 0 6 2 o 51426.40 51070.34 0.00 1.22815 0.39
6 1 5 1 o 28775.520 28087.373 0.00 1.22481 0.88
5 1 6 1 o 30718.555 31304.275 0.00 1.22299 0.94
2 4 7 1 o 273.252 281.158 0.00 1.22260 0.01
3 10 1 1 o 6320.775 6498.552 180.00 1.22272 0.27
6 1 5 2 o 28610.959 28087.373 0.00 1.22481 0.43
1 10 3 1 o 14738.973 14233.390 0.00 1.22140 0.60
4 9 2 1 o 534.237 514.939 180.00 1.22131 0.02
5 1 6 2 o 33420.949 31304.275 0.00 1.22299 0.52
5 8 2 1 o 52.450 50.110 180.00 1.21997 0.00
2 4 7 2 o 300.868 281.158 0.00 1.22260 0.01
3 10 1 2 o 6978.632 6498.552 180.00 1.22272 0.15
2 9 4 1 o 62392.84 59462.48 0.00 1.21933 2.17
6 7 1 1 o 1957.578 1914.134 0.00 1.21871 0.06
1 10 3 2 o 14741.653 14233.390 0.00 1.22140 0.30
4 9 2 2 o 537.177 514.939 180.00 1.22131 0.01
5 8 2 2 o 51.785 50.110 180.00 1.21997 0.00
2 8 5 1 o 42567.50 41757.30 0.00 1.21653 1.40
2 9 4 2 o 59918.71 59462.48 0.00 1.21933 1.03
7 3 3 1 o 94125.30 94968.53 0.00 1.21599 2.89
0 5 7 1 o 2242.398 2273.733 180.00 1.21585 0.03
6 7 1 2 o 1880.218 1914.134 0.00 1.21871 0.03
7 5 1 1 o 126.455 126.987 0.00 1.21399 0.00
2 8 5 2 o 39794.03 41757.30 0.00 1.21653 0.64
7 3 3 2 o 92126.26 94968.53 0.00 1.21599 1.40
1 7 6 1 o 74.235 76.920 180.00 1.21302 0.00
0 5 7 2 o 2233.704 2273.733 180.00 1.21585 0.02
7 5 1 2 o 127.005 126.987 0.00 1.21399 0.00
5 5 5 1 o 19770.518 20086.734 180.00 1.21012 0.65
1 7 6 2 o 75.438 76.920 180.00 1.21302 0.00
6 2 5 1 o 54024.35 55753.16 180.00 1.20963 1.58
3 3 7 1 o 131768.94 136771.59 0.00 1.20953 3.97
5 2 6 1 o 11536.897 11793.456 0.00 1.20788 0.34
5 5 5 2 o 19448.584 20086.734 180.00 1.21012 0.32
6 2 5 2 o 54220.61 55753.16 180.00 1.20963 0.79
3 3 7 2 o 133064.56 136771.59 0.00 1.20953 2.00
1 5 7 1 o 6404.002 6567.835 180.00 1.20629 0.18
6 6 3 1 o 9263.692 9443.656 0.00 1.20570 0.29
8 0 0 1 o 128667.99 127325.33 0.00 1.20496 0.93
5 2 6 2 o 11944.230 11793.456 0.00 1.20788 0.18
0 11 1 1 o 117304.06 120380.84 180.00 1.20400 2.14
1 5 7 2 o 6157.145 6567.835 180.00 1.20629 0.09
6 6 3 2 o 8756.242 9443.656 0.00 1.20570 0.14
8 0 0 2 o 124085.47 127325.33 0.00 1.20496 0.44
3 6 6 1 o 51361.69 52372.30 180.00 1.20144 1.55
0 11 1 2 o 119186.15 120380.84 180.00 1.20400 1.09
8 1 0 1 o 23150.783 23264.545 0.00 1.20008 0.36
3 6 6 2 o 53589.98 52372.30 180.00 1.20144 0.82
8 1 0 2 o 26720.869 23264.545 0.00 1.20008 0.21
0 0 8 1 o 54968.27 51473.58 0.00 1.19495 0.42
1 11 1 1 o 16334.279 15421.502 180.00 1.19471 0.59
3 10 2 1 o 60797.84 58447.78 180.00 1.19378 2.07
7 0 4 1 o 40547.93 40350.03 180.00 1.19318 0.58
6 5 4 1 o 37255.98 37614.09 0.00 1.19287 1.06
2 10 3 1 o 4086.038 4103.715 0.00 1.19301 0.15
0 0 8 2 o 52098.90 51473.58 0.00 1.19495 0.20
1 11 1 2 o 15840.346 15421.502 180.00 1.19471 0.28
8 1 1 1 o 971.827 948.869 180.00 1.19073 0.03
3 10 2 2 o 60153.20 58447.78 180.00 1.19378 1.02
7 0 4 2 o 39987.29 40350.03 180.00 1.19318 0.29
6 7 2 1 o 2043.090 2104.670 0.00 1.19004 0.09
6 5 4 2 o 36587.19 37614.09 0.00 1.19287 0.51
2 10 3 2 o 4018.707 4103.715 0.00 1.19301 0.07
4 5 6 1 o 675.721 695.151 180.00 1.18981 0.02
4 8 4 1 o 71081.30 73717.39 0.00 1.18984 2.32
7 1 4 1 o 284.935 264.767 0.00 1.18845 0.01
8 1 1 2 o 1039.977 948.869 180.00 1.19073 0.02
6 7 2 2 o 2296.026 2104.670 0.00 1.19004 0.05
4 5 6 2 o 729.013 695.151 180.00 1.18981 0.01
4 8 4 2 o 78538.84 73717.39 0.00 1.18984 1.30
8 2 0 1 o 4890.192 4220.772 0.00 1.18579 0.07
1 0 8 1 o 794.753 657.144 0.00 1.18587 0.01
7 5 2 1 o 6367.423 5398.547 180.00 1.18565 0.20
7 1 4 2 o 307.435 264.767 0.00 1.18845 0.00
6 3 5 1 o 852.717 709.347 180.00 1.18555 0.03
2 7 6 1 o 612.132 490.623 0.00 1.18519 0.02
5 3 6 1 o 8971.665 7074.360 0.00 1.18389 0.27
4 1 7 1 o 1846.193 1414.399 180.00 1.18347 0.05
8 2 0 2 o 5928.072 4220.772 0.00 1.18579 0.04
1 0 8 2 o 1019.046 657.144 0.00 1.18587 0.01
7 5 2 2 o 7777.809 5398.547 180.00 1.18565 0.12
6 3 5 2 o 1058.121 709.347 180.00 1.18555 0.02
7 4 3 1 o 2188.435 1435.778 180.00 1.18215 0.07
2 7 6 2 o 795.785 490.623 0.00 1.18519 0.02
1 1 8 1 o 18698.029 14366.780 180.00 1.18122 0.56
5 3 6 2 o 9149.275 7074.360 0.00 1.18389 0.14
4 1 7 2 o 1859.216 1414.399 180.00 1.18347 0.03
7 4 3 2 o 1931.374 1435.778 180.00 1.18215 0.03
5 7 4 1 o 29.562 19.432 0.00 1.17929 0.00
2 5 7 1 o 2173.662 1767.988 0.00 1.17892 0.07
1 1 8 2 o 16437.912 14366.780 180.00 1.18122 0.24
4 7 5 1 o 31216.822 27596.248 0.00 1.17796 0.98
8 2 1 1 o 13110.769 12246.234 0.00 1.17677 0.37
2 11 0 1 o 20504.088 19060.566 0.00 1.17692 0.37
5 7 4 2 o 21.575 19.432 0.00 1.17929 0.00
0 2 8 1 o 147.506 139.298 180.00 1.17625 0.00
3 4 7 1 o 4781.800 4440.737 180.00 1.17621 0.14
2 5 7 2 o 1920.597 1767.988 0.00 1.17892 0.03
3 4 7 2 o 4514.526 4440.737 180.00 1.17621 0.06
3 9 4 1 o 4038.026 3969.589 180.00 1.17330 0.13
5 8 3 1 o 30882.854 30289.936 180.00 1.17314 0.96
4 7 5 2 o 30500.920 27596.248 0.00 1.17796 0.47
7 2 4 1 o 4582.244 4319.483 180.00 1.17457 0.13
4 9 3 1 o 20876.293 20000.047 180.00 1.17433 0.67
0 9 5 1 o 228.406 229.613 180.00 1.17199 0.00
7 2 4 2 o 4403.391 4319.483 180.00 1.17457 0.06
8 2 1 2 o 12529.784 12246.234 0.00 1.17677 0.18
2 11 0 2 o 19628.965 19060.566 0.00 1.17692 0.17
4 9 3 2 o 20942.322 20000.047 180.00 1.17433 0.33
0 2 8 2 o 140.951 139.298 180.00 1.17625 0.00
3 8 5 1 o 1215.961 1115.570 0.00 1.17081 0.04
3 9 4 2 o 4320.886 3969.589 180.00 1.17330 0.07
5 8 3 2 o 33160.969 30289.936 180.00 1.17314 0.52
4 2 7 1 o 142.713 127.642 180.00 1.16976 0.00
0 9 5 2 o 253.046 229.613 180.00 1.17199 0.00
8 0 2 1 o 29540.309 26673.814 0.00 1.16840 0.41
2 11 1 1 o 11270.209 10447.171 0.00 1.16810 0.39
3 8 5 2 o 1182.102 1115.570 0.00 1.17081 0.02
4 10 0 1 o 136053.44 130967.13 0.00 1.16781 2.24
1 2 8 1 o 26019.771 25746.018 0.00 1.16759 0.73
1 11 2 1 o 8636.417 8466.214 180.00 1.16767 0.29
4 2 7 2 o 128.195 127.642 180.00 1.16976 0.00
5 9 1 1 o 839.832 832.435 0.00 1.16686 0.04
8 0 2 2 o 28235.471 26673.814 0.00 1.16840 0.19
0 10 4 1 o 124864.58 117960.77 0.00 1.16551 2.10
2 11 1 2 o 10759.835 10447.171 0.00 1.16810 0.18
4 10 0 2 o 132232.27 130967.13 0.00 1.16781 1.08
1 2 8 2 o 25842.938 25746.018 0.00 1.16759 0.36
1 11 2 2 o 8508.682 8466.214 180.00 1.16767 0.14
8 1 2 1 o 0.479 0.104 180.00 1.16395 0.00
5 9 1 2 o 846.434 832.435 0.00 1.16686 0.02
1 9 5 1 o 6035.764 5838.327 180.00 1.16342 0.18
8 3 0 1 o 12766.234 12102.394 0.00 1.16307 0.21
0 10 4 2 o 124563.58 117960.77 0.00 1.16551 1.04
7 6 1 1 o 1043.685 1000.108 180.00 1.16228 0.03
8 1 2 2 o 5.886 0.104 180.00 1.16395 0.00
1 9 5 2 o 7111.902 5838.327 180.00 1.16342 0.11
8 3 0 2 o 15742.647 12102.394 0.00 1.16307 0.13
2 0 8 1 o 1651.241 1263.883 0.00 1.15984 0.03
7 6 1 2 o 1133.065 1000.108 180.00 1.16228 0.02
4 10 1 1 o 1282.173 1084.555 180.00 1.15919 0.05
5 6 5 1 o 926.452 753.515 180.00 1.15889 0.02
6 8 0 1 o 36209.15 33887.094 180.00 1.15740 0.54
2 0 8 2 o 1419.557 1263.883 0.00 1.15984 0.01
1 10 4 1 o 502.464 463.512 0.00 1.15708 0.02
4 10 1 2 o 1138.364 1084.555 180.00 1.15919 0.02
5 6 5 2 o 752.757 753.515 180.00 1.15889 0.01
2 1 8 1 o 14070.104 14141.600 180.00 1.15548 0.37
1 6 7 1 o 12599.105 12677.897 0.00 1.15552 0.32
8 3 1 1 o 82042.58 78530.20 180.00 1.15456 2.28
6 8 0 2 o 35371.26 33887.094 180.00 1.15740 0.26
6 4 5 1 o 10600.530 10174.283 0.00 1.15412 0.30
1 10 4 2 o 484.125 463.512 0.00 1.15708 0.01
2 1 8 2 o 15284.827 14141.600 180.00 1.15548 0.20
1 6 7 2 o 13622.306 12677.897 0.00 1.15552 0.18
5 4 6 1 o 1923.524 1768.844 0.00 1.15259 0.06
7 3 4 1 o 1077.630 979.902 0.00 1.15248 0.03
0 8 6 1 o 6971.008 6303.701 180.00 1.15238 0.13
8 3 1 2 o 87174.50 78530.20 180.00 1.15456 1.22
6 4 5 2 o 11606.514 10174.283 0.00 1.15412 0.17
8 2 2 1 o 16715.328 14341.816 0.00 1.15090 0.48
5 4 6 2 o 2017.796 1768.844 0.00 1.15259 0.03
7 3 4 2 o 1155.987 979.902 0.00 1.15248 0.02
3 10 3 1 o 395.651 370.351 180.00 1.14980 0.01
0 8 6 2 o 7585.607 6303.701 180.00 1.15238 0.07
6 8 1 1 o 26469.662 22508.543 0.00 1.14901 0.82
8 2 2 2 o 15953.375 14341.816 0.00 1.15090 0.23
4 3 7 1 o 1696.262 1508.795 180.00 1.14793 0.05
3 10 3 2 o 393.194 370.351 180.00 1.14980 0.00
6 7 3 1 o 28591.707 25639.844 0.00 1.14645 0.85
6 8 1 2 o 24804.197 22508.543 0.00 1.14901 0.38
1 3 8 1 o 4659.742 4279.321 180.00 1.14588 0.13
4 3 7 2 o 1764.683 1508.795 180.00 1.14793 0.03
1 8 6 1 o 1291.710 1215.019 0.00 1.14423 0.04
6 6 4 1 o 731.888 695.471 180.00 1.14371 0.02
6 7 3 2 o 27068.520 25639.844 0.00 1.14645 0.40
1 3 8 2 o 4567.731 4279.321 180.00 1.14588 0.06
2 2 8 1 o 287.450 268.237 180.00 1.14271 0.01
3 7 6 1 o 17.421 15.399 180.00 1.14279 0.00
7 5 3 1 o 21206.547 19405.512 0.00 1.14252 0.65
2 11 2 1 o 109.358 104.690 0.00 1.14279 0.00
5 9 2 1 o 49868.57 47598.63 180.00 1.14162 1.52
1 8 6 2 o 1267.037 1215.019 0.00 1.14423 0.02
4 6 6 1 o 25801.021 24701.535 0.00 1.14101 0.74
6 6 4 2 o 726.435 695.471 180.00 1.14371 0.01
2 2 8 2 o 287.922 268.237 180.00 1.14271 0.00
3 7 6 2 o 17.565 15.399 180.00 1.14279 0.00
7 5 3 2 o 21057.494 19405.512 0.00 1.14252 0.32
2 11 2 2 o 109.694 104.690 0.00 1.14279 0.00
5 9 2 2 o 48057.28 47598.63 180.00 1.14162 0.72
2 9 5 1 o 8444.160 8363.321 0.00 1.13881 0.26
4 6 6 2 o 25237.881 24701.535 0.00 1.14101 0.36
7 6 2 1 o 36533.75 35585.72 180.00 1.13734 1.02
3 5 7 1 o 36999.83 36690.00 0.00 1.13716 1.07
2 9 5 2 o 7536.875 8363.321 0.00 1.13881 0.11
7 6 2 2 o 33354.176 35585.72 180.00 1.13734 0.45
3 5 7 2 o 33743.988 36690.00 0.00 1.13716 0.48
4 10 2 1 o 22001.402 23640.813 0.00 1.13444 0.65
0 11 3 1 o 2.846 4.078 0.00 1.13418 0.00
8 4 0 1 o 2732.519 3233.876 180.00 1.13336 0.03
2 10 4 1 o 2235.912 2543.645 180.00 1.13286 0.06
4 10 2 2 o 23854.529 23640.813 0.00 1.13444 0.36
6 0 6 1 o 311.128 295.913 180.00 1.13130 0.01
2 6 7 1 o 19.830 18.564 180.00 1.13139 0.00
0 11 3 2 o 4.517 4.078 0.00 1.13418 0.00
8 4 0 2 o 3475.487 3233.876 180.00 1.13336 0.02
8 3 2 1 o 591.300 410.227 180.00 1.13010 0.02
2 10 4 2 o 3169.740 2543.645 180.00 1.13286 0.05
6 0 6 2 o 450.315 295.913 180.00 1.13130 0.00
2 6 7 2 o 33.013 18.564 180.00 1.13139 0.00
8 3 2 2 o 620.128 410.227 180.00 1.13010 0.01
6 1 6 1 o 23237.041 17736.857 180.00 1.12726 0.68
3 11 1 1 o 13630.063 10167.709 180.00 1.12745 0.47
1 11 3 1 o 33154.219 31674.473 180.00 1.12641 1.04
8 4 1 1 o 2043.108 2051.092 180.00 1.12547 0.05
0 4 8 1 o 33867.797 33898.879 180.00 1.12502 0.50
6 8 2 1 o 24992.217 25088.996 180.00 1.12489 0.76
6 1 6 2 o 17523.656 17736.857 180.00 1.12726 0.25
3 11 1 2 o 10072.183 10167.709 180.00 1.12745 0.16
7 4 4 1 o 3.919 3.704 180.00 1.12354 0.00
1 11 3 2 o 32158.369 31674.473 180.00 1.12641 0.50
8 1 3 1 o 23442.127 22790.779 180.00 1.12307 0.60
8 4 1 2 o 2083.112 2051.092 180.00 1.12547 0.03
2 3 8 1 o 3830.390 3825.577 180.00 1.12234 0.10
0 4 8 2 o 33718.844 33898.879 180.00 1.12502 0.25
6 8 2 2 o 24707.887 25088.996 180.00 1.12489 0.37
7 4 4 2 o 3.915 3.704 180.00 1.12354 0.00
2 8 6 1 o 13113.067 12833.398 180.00 1.12079 0.43
8 1 3 2 o 23607.773 22790.779 180.00 1.12307 0.30
3 0 8 1 o 74969.02 74069.09 180.00 1.12001 0.97
2 3 8 2 o 3627.383 3825.577 180.00 1.12234 0.04
4 4 7 1 o 16.507 18.519 180.00 1.11933 0.00
2 8 6 2 o 13285.124 12833.398 180.00 1.12079 0.22
1 4 8 1 o 48932.26 47385.16 0.00 1.11743 1.29
3 0 8 2 o 74909.02 74069.09 180.00 1.12001 0.48
6 5 5 1 o 2122.720 2121.843 0.00 1.11716 0.05
4 9 4 1 o 7384.282 7531.705 0.00 1.11682 0.23
4 4 7 2 o 18.285 18.519 180.00 1.11933 0.00
3 1 8 1 o 7058.689 7004.914 0.00 1.11609 0.19
5 5 6 1 o 32323.883 32830.094 180.00 1.11577 0.87
5 8 4 1 o 2454.440 2485.899 0.00 1.11580 0.07
6 2 6 1 o 7962.034 8234.654 180.00 1.11539 0.22
1 4 8 2 o 47212.33 47385.16 0.00 1.11743 0.61
4 8 5 1 o 2923.239 2932.420 0.00 1.11467 0.08
6 5 5 2 o 2139.271 2121.843 0.00 1.11716 0.03
4 9 4 2 o 7885.806 7531.705 0.00 1.11682 0.13
7 1 5 1 o 32366.822 30118.137 0.00 1.11352 0.91
3 1 8 2 o 7447.643 7004.914 0.00 1.11609 0.10
5 5 6 2 o 34204.156 32830.094 180.00 1.11577 0.46
5 8 4 2 o 2591.069 2485.899 0.00 1.11580 0.04
6 2 6 2 o 8323.533 8234.654 180.00 1.11539 0.11
0 12 0 1 o 2152.970 2138.794 0.00 1.11252 0.01
4 8 5 2 o 3005.400 2932.420 0.00 1.11467 0.04
8 2 3 1 o 3140.146 2858.960 180.00 1.11134 0.08
7 1 5 2 o 34040.699 30118.137 0.00 1.11352 0.48
5 1 7 1 o 6715.781 6021.448 180.00 1.11054 0.20
0 7 7 1 o 494.014 462.524 180.00 1.11035 0.01
0 12 0 2 o 2080.198 2138.794 0.00 1.11252 0.01
7 7 1 1 o 11320.953 9538.834 180.00 1.10893 0.30
8 2 3 2 o 3327.391 2858.960 180.00 1.11134 0.04
5 1 7 2 o 8134.600 6021.448 180.00 1.11054 0.12
0 7 7 2 o 626.652 462.524 180.00 1.11035 0.00
7 7 1 2 o 11034.187 9538.834 180.00 1.10893 0.14
5 7 5 1 o 2140.116 2007.197 180.00 1.10598 0.05
3 2 8 1 o 6671.807 6070.883 180.00 1.10457 0.17
3 11 2 1 o 4257.274 3837.844 0.00 1.10464 0.13
2 11 3 1 o 14904.499 14810.997 0.00 1.10403 0.46
5 7 5 2 o 1957.494 2007.197 180.00 1.10598 0.02
1 7 7 1 o 71397.20 75832.87 180.00 1.10305 1.92
5 9 3 1 o 6623.146 7242.688 180.00 1.10297 0.22
8 4 2 1 o 5470.408 6135.734 0.00 1.10278 0.14
7 2 5 1 o 646.685 782.079 180.00 1.10208 0.02
3 2 8 2 o 5273.733 6070.883 180.00 1.10457 0.06
3 11 2 2 o 3300.025 3837.844 0.00 1.10464 0.05
2 11 3 2 o 13310.424 14810.997 0.00 1.10403 0.20
3 9 5 1 o 13358.953 14587.049 0.00 1.10104 0.39
1 7 7 2 o 69423.94 75832.87 180.00 1.10305 0.93
5 9 3 2 o 6547.771 7242.688 180.00 1.10297 0.11
8 4 2 2 o 5730.545 6135.734 0.00 1.10278 0.07
7 2 5 2 o 784.637 782.079 180.00 1.10208 0.01
5 2 7 1 o 56953.92 57615.47 0.00 1.09919 1.50
7 6 3 1 o 3909.333 3999.600 180.00 1.09911 0.11
8 5 0 1 o 26328.102 26880.688 180.00 1.09830 0.37
3 9 5 2 o 14260.877 14587.049 0.00 1.10104 0.21
1 12 1 1 o 17075.018 17075.078 180.00 1.09787 0.56
5 2 7 2 o 56357.54 57615.47 0.00 1.09919 0.74
6 3 6 1 o 7540.927 7753.231 180.00 1.09642 0.22
7 6 3 2 o 3890.548 3999.600 180.00 1.09911 0.06
4 10 3 1 o 247.933 253.457 0.00 1.09649 0.01
8 5 0 2 o 26040.650 26880.688 180.00 1.09830 0.18
2 4 8 1 o 8321.018 8626.784 180.00 1.09557 0.26
3 10 4 1 o 23432.912 24128.703 180.00 1.09566 0.68
1 12 1 2 o 16555.262 17075.078 180.00 1.09787 0.27
3 6 7 1 o 17846.932 17903.082 180.00 1.09433 0.52
6 3 6 2 o 7295.665 7753.231 180.00 1.09642 0.11
4 10 3 2 o 240.916 253.457 0.00 1.09649 0.00
2 4 8 2 o 7938.851 8626.784 180.00 1.09557 0.12
3 10 4 2 o 22506.705 24128.703 180.00 1.09566 0.32
6 7 4 1 o 1893.108 2071.144 180.00 1.09276 0.07
8 3 3 1 o 222.023 234.707 180.00 1.09257 0.00
3 6 7 2 o 19446.262 17903.082 180.00 1.09433 0.29
8 5 1 1 o 24730.832 22798.400 180.00 1.09112 0.66
4 7 6 1 o 172.830 150.518 0.00 1.09041 0.01
5 10 1 1 o 5724.624 5183.135 180.00 1.09040 0.18
6 7 4 2 o 2333.889 2071.144 180.00 1.09276 0.04
8 3 3 2 o 252.876 234.707 180.00 1.09257 0.00
6 9 0 1 o 54168.05 49844.88 0.00 1.08986 0.80
7 5 4 1 o 772.891 726.146 180.00 1.08936 0.02
8 5 1 2 o 24057.900 22798.400 180.00 1.09112 0.32
6 8 3 1 o 7370.476 7131.060 180.00 1.08786 0.21
4 7 6 2 o 154.960 150.518 0.00 1.09041 0.00
5 10 1 2 o 5286.090 5183.135 180.00 1.09040 0.08
1 10 5 1 o 6427.484 6384.411 180.00 1.08760 0.24
7 7 2 1 o 128.635 133.781 180.00 1.08720 0.00
6 9 0 2 o 48298.71 49844.88 0.00 1.08986 0.34
7 5 4 2 o 663.015 726.146 180.00 1.08936 0.01
3 3 8 1 o 1639.239 1626.852 0.00 1.08614 0.04
4 5 7 1 o 1786.396 1735.790 180.00 1.08552 0.05
6 8 3 2 o 7228.666 7131.060 180.00 1.08786 0.10
1 10 5 2 o 6449.895 6384.411 180.00 1.08760 0.12
3 8 6 1 o 40453.68 40546.86 180.00 1.08473 1.11
7 7 2 2 o 130.508 133.781 180.00 1.08720 0.00
7 3 5 1 o 42.866 42.930 0.00 1.08377 0.00
4 11 0 1 o 2738.512 2929.867 0.00 1.08396 0.05
2 12 0 1 o 28579.158 30223.268 180.00 1.08402 0.48
1 5 8 1 o 17663.244 19241.664 0.00 1.08379 0.45
3 3 8 2 o 1412.606 1626.852 0.00 1.08614 0.02
0 12 2 1 o 17086.654 19657.617 0.00 1.08356 0.28
4 5 7 2 o 1483.546 1735.790 180.00 1.08552 0.02
6 9 1 1 o 15079.030 17491.863 0.00 1.08285 0.40
3 8 6 2 o 38362.29 40546.86 180.00 1.08473 0.52
2 7 7 1 o 1116.862 1175.820 0.00 1.08201 0.03
7 3 5 2 o 42.925 42.930 0.00 1.08377 0.00
4 11 0 2 o 2881.167 2929.867 0.00 1.08396 0.02
2 12 0 2 o 29597.986 30223.268 180.00 1.08402 0.25
1 5 8 2 o 19123.678 19241.664 0.00 1.08379 0.25
5 3 7 1 o 28714.580 28878.193 180.00 1.08102 0.68
0 12 2 2 o 19420.924 19657.617 0.00 1.08356 0.16
6 9 1 2 o 16356.392 17491.863 0.00 1.08285 0.22
2 7 7 2 o 1180.371 1175.820 0.00 1.08201 0.02
1 9 6 1 o 17765.506 16809.430 180.00 1.07885 0.49
5 3 7 2 o 30739.531 28878.193 180.00 1.08102 0.37
4 11 1 1 o 2268.907 2009.992 0.00 1.07706 0.07
2 12 1 1 o 31512.994 27957.951 0.00 1.07712 0.97
1 12 2 1 o 553.829 508.486 0.00 1.07678 0.02
6 6 5 1 o 25286.162 24893.801 0.00 1.07647 0.66
1 9 6 2 o 16282.222 16809.430 180.00 1.07885 0.22
8 0 4 1 o 6798.438 7061.291 180.00 1.07594 0.08
5 6 6 1 o 20378.391 20486.822 0.00 1.07523 0.52
1 11 4 1 o 1787.209 1811.653 180.00 1.07537 0.06
4 11 1 2 o 2009.684 2009.992 0.00 1.07706 0.03
2 12 1 2 o 28155.047 27957.951 0.00 1.07712 0.42
1 12 2 2 o 479.215 508.486 0.00 1.07678 0.01
6 6 5 2 o 22413.021 24893.801 0.00 1.07647 0.28
8 0 4 2 o 6514.957 7061.291 180.00 1.07594 0.04
5 6 6 2 o 18070.037 20486.822 0.00 1.07523 0.22
8 1 4 1 o 2602.971 2924.579 180.00 1.07246 0.05
1 11 4 2 o 1630.173 1811.653 180.00 1.07537 0.02
6 4 6 1 o 6921.582 7862.404 180.00 1.07142 0.15
4 0 8 1 o 9943.547 10430.761 180.00 1.07057 0.11
8 5 2 1 o 11.437 11.461 180.00 1.07040 0.00
8 1 4 2 o 2951.551 2924.579 180.00 1.07246 0.03
5 10 2 1 o 16917.752 16913.801 0.00 1.06973 0.48
3 11 3 1 o 5961.147 6089.743 180.00 1.06951 0.16
6 4 6 2 o 7033.797 7862.404 180.00 1.07142 0.08
4 0 8 2 o 8824.368 10430.761 180.00 1.07057 0.05
8 4 3 1 o 188.563 212.165 0.00 1.06783 0.00
8 5 2 2 o 11.194 11.461 180.00 1.07040 0.00
2 10 5 1 o 7258.761 7826.737 0.00 1.06741 0.20
4 1 8 1 o 3.270 3.927 180.00 1.06714 0.00
5 10 2 2 o 16142.448 16913.801 0.00 1.06973 0.23
3 11 3 2 o 6037.259 6089.743 180.00 1.06951 0.08
8 4 3 2 o 195.847 212.165 0.00 1.06783 0.00
2 10 5 2 o 7187.658 7826.737 0.00 1.06741 0.10
4 1 8 2 o 2.859 3.927 180.00 1.06714 0.00
2 5 8 1 o 15796.612 16812.271 0.00 1.06380 0.37
6 9 2 1 o 799.171 800.904 0.00 1.06259 0.02
8 2 4 1 o 16460.148 16267.805 0.00 1.06223 0.41
3 4 8 1 o 283.025 299.877 0.00 1.06182 0.01
2 5 8 2 o 16466.121 16812.271 0.00 1.06380 0.20
9 1 1 1 o 346.199 341.505 0.00 1.06104 0.01
6 9 2 2 o 786.675 800.904 0.00 1.06259 0.01
8 2 4 2 o 16261.359 16267.805 0.00 1.06223 0.20
7 4 5 1 o 312.678 312.885 0.00 1.05961 0.01
8 6 0 1 o 48825.87 48925.45 0.00 1.05956 0.61
3 4 8 2 o 287.770 299.877 0.00 1.06182 0.00
2 9 6 1 o 16368.385 17234.217 0.00 1.05913 0.44
0 1 9 1 o 14038.244 15410.354 0.00 1.05883 0.16
9 1 1 2 o 260.868 341.505 0.00 1.06104 0.01
4 2 8 1 o 2854.661 3244.601 0.00 1.05706 0.07
5 4 7 1 o 7273.417 8207.410 180.00 1.05703 0.17
7 4 5 2 o 270.754 312.885 0.00 1.05961 0.00
8 6 0 2 o 43487.77 48925.45 0.00 1.05956 0.26
4 11 2 1 o 462.169 562.151 180.00 1.05712 0.02
2 12 2 1 o 4786.920 5314.094 180.00 1.05717 0.11
2 9 6 2 o 15803.264 17234.217 0.00 1.05913 0.21
0 1 9 2 o 14501.941 15410.354 0.00 1.05883 0.08
2 11 4 1 o 6432.497 7010.646 180.00 1.05584 0.17
7 8 1 1 o 1142.023 1273.778 0.00 1.05565 0.03
5 9 4 1 o 5682.509 6115.781 180.00 1.05492 0.15
4 2 8 2 o 3130.438 3244.601 0.00 1.05706 0.04
5 4 7 2 o 7952.059 8207.410 180.00 1.05703 0.10
4 11 2 2 o 528.298 562.151 180.00 1.05712 0.01
2 12 2 2 o 5113.514 5314.094 180.00 1.05717 0.06
4 9 5 1 o 14367.133 14770.381 180.00 1.05396 0.38
7 7 3 1 o 23034.576 24301.824 180.00 1.05367 0.62
8 6 1 1 o 5410.179 5631.013 180.00 1.05311 0.14
2 11 4 2 o 6692.062 7010.646 180.00 1.05584 0.09
5 8 5 1 o 4163.703 4348.920 0.00 1.05310 0.12
7 8 1 2 o 1228.617 1273.778 0.00 1.05565 0.02
0 6 8 1 o 10443.887 10588.924 0.00 1.05274 0.13
1 1 9 1 o 16317.085 16506.740 180.00 1.05250 0.39
5 9 4 2 o 6038.797 6115.781 180.00 1.05492 0.08
7 6 4 1 o 16208.966 15988.664 180.00 1.05153 0.41
4 9 5 2 o 14867.406 14770.381 180.00 1.05396 0.20
9 2 1 1 o 20232.379 20407.623 0.00 1.05113 0.50
7 7 3 2 o 23999.424 24301.824 180.00 1.05367 0.32
8 6 1 2 o 5485.473 5631.013 180.00 1.05311 0.07
1 8 7 1 o 22498.508 23127.746 180.00 1.05057 0.61
5 8 5 2 o 4224.750 4348.920 0.00 1.05310 0.06
0 6 8 2 o 10549.390 10588.924 0.00 1.05274 0.06
1 1 9 2 o 16911.420 16506.740 180.00 1.05250 0.21
3 7 7 1 o 9900.273 9243.941 180.00 1.04946 0.27
4 10 4 1 o 6653.220 6305.667 180.00 1.04924 0.17
7 6 4 2 o 16940.793 15988.664 180.00 1.05153 0.22
9 2 1 2 o 21717.592 20407.623 0.00 1.05113 0.27
4 6 7 1 o 10.516 9.689 180.00 1.04808 0.00
1 8 7 2 o 24375.439 23127.746 180.00 1.05057 0.34
3 7 7 2 o 8919.472 9243.941 180.00 1.04946 0.12
4 10 4 2 o 5601.803 6305.667 180.00 1.04924 0.07
1 6 8 1 o 1476.726 1808.569 0.00 1.04652 0.04
8 3 4 1 o 53.606 53.629 180.00 1.04580 0.00
4 6 7 2 o 8.869 9.689 180.00 1.04808 0.00
9 0 2 1 o 5398.023 5192.402 0.00 1.04515 0.07
3 12 1 1 o 2470.433 2376.640 0.00 1.04499 0.06
1 12 3 1 o 16320.922 15827.752 180.00 1.04417 0.45
1 6 8 2 o 1852.992 1808.569 0.00 1.04652 0.02
8 3 4 2 o 53.636 53.629 180.00 1.04580 0.00
1 2 9 1 o 5510.976 4882.395 180.00 1.04282 0.17
9 0 2 2 o 5820.340 5192.402 0.00 1.04515 0.04
3 12 1 2 o 2608.922 2376.640 0.00 1.04499 0.03
9 1 2 1 o 29100.904 26648.506 0.00 1.04197 0.71
7 0 6 1 o 5610.564 5199.676 0.00 1.04186 0.07
6 5 6 1 o 17796.355 17131.006 0.00 1.04165 0.47
6 8 4 1 o 78.334 77.435 180.00 1.04167 0.00
1 12 3 2 o 16162.685 15827.752 180.00 1.04417 0.22
4 3 8 1 o 424.526 389.405 0.00 1.04087 0.02
1 2 9 2 o 5266.496 4882.395 180.00 1.04282 0.08
4 8 6 1 o 11775.185 11587.012 0.00 1.03963 0.28
9 1 2 2 o 27242.008 26648.506 0.00 1.04197 0.33
7 0 6 2 o 5300.715 5199.676 0.00 1.04186 0.03
6 5 6 2 o 17173.479 17131.006 0.00 1.04165 0.22
6 8 4 2 o 77.530 77.435 180.00 1.04167 0.00
7 1 6 1 o 1335.608 1383.893 180.00 1.03870 0.03
8 5 3 1 o 5705.729 6004.501 180.00 1.03835 0.14
4 3 8 2 o 355.464 389.405 0.00 1.04087 0.01
5 10 3 1 o 1610.437 1658.592 180.00 1.03773 0.03
6 1 7 1 o 1512.057 1600.305 0.00 1.03739 0.04
4 8 6 2 o 10923.122 11587.012 0.00 1.03963 0.13
7 8 2 1 o 23519.734 25348.186 180.00 1.03685 0.59
7 1 6 2 o 1232.795 1383.893 180.00 1.03870 0.01
3 10 5 1 o 400.732 490.270 180.00 1.03612 0.02
8 5 3 2 o 5359.295 6004.501 180.00 1.03835 0.06
9 3 1 1 o 3973.522 4227.182 180.00 1.03521 0.11
5 10 3 2 o 1603.622 1658.592 180.00 1.03773 0.02
6 1 7 2 o 1647.950 1600.305 0.00 1.03739 0.02
8 6 2 1 o 19711.426 19093.988 0.00 1.03445 0.51
7 8 2 2 o 25920.555 25348.186 180.00 1.03685 0.34
2 1 9 1 o 73.521 72.711 0.00 1.03417 0.00
6 7 5 1 o 22616.590 22682.705 0.00 1.03367 0.56
3 10 5 2 o 482.929 490.270 180.00 1.03612 0.01
0 3 9 1 o 33481.859 34736.523 180.00 1.03315 0.40
3 5 8 1 o 7179.686 7611.978 180.00 1.03282 0.17
9 3 1 2 o 3979.083 4227.182 180.00 1.03521 0.06
9 2 2 1 o 1038.360 1082.737 0.00 1.03257 0.02
5 7 6 1 o 5.369 5.894 180.00 1.03257 0.00
2 8 7 1 o 179.368 182.523 180.00 1.03234 0.01
8 6 2 2 o 18904.012 19093.988 0.00 1.03445 0.24
2 1 9 2 o 72.082 72.711 0.00 1.03417 0.00
6 9 3 1 o 5811.847 5933.234 0.00 1.03122 0.15
6 7 5 2 o 22311.000 22682.705 0.00 1.03367 0.28
7 5 5 1 o 845.836 836.349 0.00 1.03079 0.01
0 3 9 2 o 35810.03 34736.523 180.00 1.03315 0.22
3 5 8 2 o 7703.284 7611.978 180.00 1.03282 0.10
9 2 2 2 o 1099.008 1082.737 0.00 1.03257 0.01
5 7 6 2 o 6.083 5.894 180.00 1.03257 0.00
2 8 7 2 o 191.156 182.523 180.00 1.03234 0.00
7 2 6 1 o 19782.896 18727.377 180.00 1.02940 0.48
6 9 3 2 o 5781.550 5933.234 0.00 1.03122 0.07
2 6 8 1 o 101.379 106.104 180.00 1.02849 0.00
3 9 6 1 o 8081.302 8347.141 0.00 1.02855 0.21
5 5 7 1 o 7002.534 7223.112 180.00 1.02842 0.14
7 5 5 2 o 821.001 836.349 0.00 1.03079 0.01
6 2 7 1 o 163.046 167.996 0.00 1.02812 0.00
6 2 7 2 o 164.117 167.996 0.00 1.02812 0.00
1 3 9 1 o 11106.097 10083.503 180.00 1.02727 0.28
3 11 4 1 o 530.308 540.500 0.00 1.02553 0.01
7 2 6 2 o 20364.311 18727.377 180.00 1.02940 0.25
2 2 9 1 o 40646.12 40263.10 180.00 1.02499 0.97
6 10 0 1 o 210.284 197.564 180.00 1.02679 0.00
3 12 2 1 o 4657.303 4305.953 180.00 1.02675 0.13
1 3 9 2 o 10020.194 10083.503 180.00 1.02727 0.13
0 11 5 1 o 14713.164 14887.958 0.00 1.02465 0.21
4 11 3 1 o 29972.611 29034.676 180.00 1.02621 0.83
2 12 3 1 o 7458.555 7172.644 180.00 1.02626 0.21
6 10 0 2 o 194.787 197.564 180.00 1.02679 0.00
2 6 8 2 o 105.579 106.104 180.00 1.02849 0.00
3 9 6 2 o 8366.892 8347.141 0.00 1.02855 0.11
5 5 7 2 o 7160.581 7223.112 180.00 1.02842 0.07
8 4 4 1 o 49722.31 51266.11 0.00 1.02404 1.19
3 12 2 2 o 4223.536 4305.953 180.00 1.02675 0.06
4 11 3 2 o 27133.869 29034.676 180.00 1.02621 0.36
2 12 3 2 o 6749.650 7172.644 180.00 1.02626 0.09
0 10 6 1 o 17876.418 19540.521 0.00 1.02328 0.22
3 11 4 2 o 492.840 540.500 0.00 1.02553 0.01
2 2 9 2 o 38418.79 40263.10 180.00 1.02499 0.45
0 11 5 2 o 14825.105 14887.958 0.00 1.02465 0.10
8 4 4 2 o 52919.09 51266.11 0.00 1.02404 0.64
5 11 1 1 o 227.284 221.652 0.00 1.02121 0.00
6 10 1 1 o 3894.835 3666.818 0.00 1.02092 0.11
0 13 1 1 o 10.763 10.311 0.00 1.02107 0.00
0 10 6 2 o 20706.211 19540.521 0.00 1.02328 0.13
4 4 8 1 o 10397.921 9150.674 0.00 1.01941 0.23
1 11 5 1 o 2005.297 1948.337 180.00 1.01891 0.05
8 7 0 1 o 1890.001 1960.029 180.00 1.01868 0.03
5 11 1 2 o 218.642 221.652 0.00 1.02121 0.00
6 10 1 2 o 3533.120 3666.818 0.00 1.02092 0.05
0 13 1 2 o 9.967 10.311 0.00 1.02107 0.00
9 3 2 1 o 4693.945 4873.191 0.00 1.01747 0.10
1 10 6 1 o 39026.40 40181.84 0.00 1.01757 1.04
4 4 8 2 o 9240.840 9150.674 0.00 1.01941 0.10
8 1 5 1 o 36070.67 32294.184 180.00 1.01644 0.89
1 11 5 2 o 2169.580 1948.337 180.00 1.01891 0.03
8 7 0 2 o 2291.821 1960.029 180.00 1.01868 0.02
5 0 8 1 o 33105.922 30925.746 0.00 1.01568 0.40
1 13 1 1 o 1182.971 1134.600 0.00 1.01539 0.03
9 3 2 2 o 4973.436 4873.191 0.00 1.01747 0.06
1 10 6 2 o 41231.62 40181.84 0.00 1.01757 0.56
7 3 6 1 o 874.473 820.201 180.00 1.01443 0.02
9 4 1 1 o 3601.230 3247.825 180.00 1.01409 0.09
8 1 5 2 o 36384.73 32294.184 180.00 1.01644 0.45
6 3 7 1 o 1021.159 850.373 0.00 1.01321 0.02
5 0 8 2 o 37737.69 30925.746 0.00 1.01568 0.24
8 7 1 1 o 935.491 798.290 0.00 1.01294 0.02
5 1 8 1 o 12447.273 11034.715 0.00 1.01275 0.30
1 13 1 2 o 1312.987 1134.600 0.00 1.01539 0.02
9 1 3 1 o 5210.650 4783.676 180.00 1.01233 0.15
7 3 6 2 o 939.296 820.201 180.00 1.01443 0.01
9 4 1 2 o 3849.996 3247.825 180.00 1.01409 0.05
7 7 4 1 o 20.736 16.835 0.00 1.01153 0.00
6 3 7 2 o 927.284 850.373 0.00 1.01321 0.01
8 7 1 2 o 920.320 798.290 0.00 1.01294 0.01
5 1 8 2 o 12482.665 11034.715 0.00 1.01275 0.15
2 3 9 1 o 1205.999 1077.423 180.00 1.01021 0.03
9 1 3 2 o 4746.255 4783.676 180.00 1.01233 0.07
4 12 0 1 o 14326.967 13435.175 0.00 1.01008 0.19
7 7 4 2 o 17.207 16.835 0.00 1.01153 0.00
6 6 6 1 o 184.530 186.400 180.00 1.00844 0.00
4 7 7 1 o 1384.376 1397.401 180.00 1.00846 0.03
0 12 4 1 o 4603.222 4569.644 0.00 1.00859 0.05
8 2 5 1 o 13714.294 13487.006 180.00 1.00771 0.33
2 3 9 2 o 1097.402 1077.423 180.00 1.01021 0.01
7 8 3 1 o 2409.497 2409.919 0.00 1.00764 0.06
4 12 0 2 o 13292.761 13435.175 0.00 1.01008 0.09
1 7 8 1 o 3.787 5.375 0.00 1.00707 0.00
1 4 9 1 o 19.249 21.138 0.00 1.00662 0.00
6 6 6 2 o 212.582 186.400 180.00 1.00844 0.00
4 7 7 2 o 1596.811 1397.401 180.00 1.00846 0.02
0 12 4 2 o 4914.178 4569.644 0.00 1.00859 0.03
3 1 9 1 o 12060.716 10110.453 0.00 1.00564 0.31
8 6 3 1 o 1342.670 1162.001 0.00 1.00544 0.03
8 2 5 2 o 15289.345 13487.006 180.00 1.00771 0.19
7 8 3 2 o 2706.740 2409.919 0.00 1.00764 0.04
0 9 7 1 o 1250.756 1166.215 180.00 1.00470 0.02
1 7 8 2 o 6.225 5.375 0.00 1.00707 0.00
4 12 1 1 o 3061.193 2835.339 0.00 1.00449 0.09
2 13 0 1 o 27484.617 25620.869 0.00 1.00440 0.41
5 2 8 1 o 8279.398 7993.833 0.00 1.00412 0.20
1 4 9 2 o 21.566 21.138 0.00 1.00662 0.00
5 11 2 1 o 9189.819 8798.105 0.00 1.00417 0.26
3 8 7 1 o 6976.292 6908.407 0.00 1.00396 0.17
9 2 3 1 o 31493.529 32199.717 0.00 1.00371 0.74
6 10 2 1 o 6492.290 6487.256 180.00 1.00389 0.17
7 9 1 1 o 8284.298 8574.068 0.00 1.00365 0.25
3 1 9 2 o 9543.326 10110.453 0.00 1.00564 0.12
8 6 3 2 o 1106.822 1162.001 0.00 1.00544 0.01
1 12 4 1 o 2915.196 3074.487 0.00 1.00312 0.08
0 9 7 2 o 1137.701 1166.215 180.00 1.00470 0.01
2 11 5 1 o 7341.599 7543.375 0.00 1.00225 0.20
4 12 1 2 o 2822.385 2835.339 0.00 1.00449 0.04
2 13 0 2 o 25681.936 25620.869 0.00 1.00440 0.19
5 2 8 2 o 8093.975 7993.833 0.00 1.00412 0.10
5 11 2 2 o 8904.099 8798.105 0.00 1.00417 0.12
3 8 7 2 o 6985.979 6908.407 0.00 1.00396 0.09
5 9 5 1 o 3185.559 3156.855 180.00 1.00147 0.07
9 2 3 2 o 32435.729 32199.717 0.00 1.00371 0.38
6 10 2 2 o 6556.490 6487.256 180.00 1.00389 0.09
7 9 1 2 o 8640.611 8574.068 0.00 1.00365 0.13
2 10 6 1 o 1893.489 1875.660 180.00 1.00097 0.06
1 12 4 2 o 3137.623 3074.487 0.00 1.00312 0.04
3 6 8 1 o 36605.93 36582.30 180.00 1.00042 0.90
2 11 5 2 o 7066.586 7543.375 0.00 1.00225 0.09
1 9 7 1 o 5579.278 5583.213 180.00 0.99929 0.15
5 9 5 2 o 3250.203 3156.855 180.00 1.00147 0.03
2 13 1 1 o 14674.291 13956.270 0.00 0.99890 0.43
7 6 5 1 o 679.612 617.616 0.00 0.99857 0.02
1 13 2 1 o 11648.137 10801.036 180.00 0.99863 0.33
2 10 6 2 o 2047.600 1875.660 180.00 1.00097 0.03
3 12 3 1 o 14690.789 13579.235 0.00 0.99836 0.44
8 5 4 1 o 6614.259 6406.918 0.00 0.99796 0.15
3 6 8 2 o 37890.25 36582.30 180.00 1.00042 0.47
9 4 2 1 o 134.593 136.584 0.00 0.99739 0.00
5 10 4 1 o 11474.713 11626.440 0.00 0.99741 0.31
3 2 9 1 o 288.685 310.855 180.00 0.99719 0.01
1 9 7 2 o 5361.454 5583.213 180.00 0.99929 0.07
4 10 5 1 o 315.581 322.794 0.00 0.99660 0.01
5 6 7 1 o 27173.861 27817.975 180.00 0.99641 0.70
8 7 2 1 o 997.889 1034.645 0.00 0.99630 0.04
2 13 1 2 o 13652.367 13956.270 0.00 0.99890 0.20
7 6 5 2 o 590.430 617.616 0.00 0.99857 0.01
1 13 2 2 o 10464.755 10801.036 180.00 0.99863 0.15
3 12 3 2 o 12856.322 13579.235 0.00 0.99836 0.19
8 5 4 2 o 6333.584 6406.918 0.00 0.99796 0.07
9 4 2 2 o 148.488 136.584 0.00 0.99739 0.00
5 10 4 2 o 12654.714 11626.440 0.00 0.99741 0.17
3 2 9 2 o 366.013 310.855 180.00 0.99719 0.01
7 4 6 1 o 56233.57 52634.62 180.00 0.99453 1.36
4 10 5 2 o 324.880 322.794 0.00 0.99660 0.00
5 6 7 2 o 27440.586 27817.975 180.00 0.99641 0.35
8 7 2 2 o 998.878 1034.645 0.00 0.99630 0.02
8 3 5 1 o 6312.868 6630.314 0.00 0.99366 0.15
4 5 8 1 o 724.054 753.908 0.00 0.99367 0.01
6 4 7 1 o 109.173 121.055 180.00 0.99338 0.00
7 4 6 2 o 54326.05 52634.62 180.00 0.99453 0.65
6 9 4 1 o 20921.578 21732.930 180.00 0.99162 0.51
8 3 5 2 o 6157.191 6630.314 0.00 0.99366 0.07
4 5 8 2 o 708.181 753.908 0.00 0.99367 0.01
6 4 7 2 o 111.023 121.055 180.00 0.99338 0.00
2 7 8 1 o 155.159 171.072 180.00 0.99097 0.01
2 4 9 1 o 9027.023 9474.877 0.00 0.99055 0.22
5 3 8 1 o 2459.812 2575.269 0.00 0.99021 0.05
6 8 5 1 o 20287.229 21395.271 180.00 0.99011 0.51
9 3 3 1 o 2559.372 2699.243 180.00 0.98982 0.05
4 9 6 1 o 115.349 118.442 0.00 0.98986 0.00
6 9 4 2 o 20250.682 21732.930 180.00 0.99162 0.24
5 8 6 1 o 13987.643 15086.533 0.00 0.98915 0.34
9 5 1 1 o 2634.930 3126.996 180.00 0.98874 0.08
2 7 8 2 o 139.522 171.072 180.00 0.99097 0.00
2 4 9 2 o 8136.547 9474.877 0.00 0.99055 0.10
4 12 2 1 o 14015.166 16650.107 0.00 0.98826 0.41
5 3 8 2 o 2362.189 2575.269 0.00 0.99021 0.03
6 8 5 2 o 19770.555 21395.271 180.00 0.99011 0.24
9 3 3 2 o 2543.665 2699.243 180.00 0.98982 0.02
7 9 2 1 o 2367.350 2533.260 0.00 0.98746 0.06
4 9 6 2 o 115.029 118.442 0.00 0.98986 0.00
4 11 4 1 o 4.064 10.100 0.00 0.98717 0.00
2 12 4 1 o 9550.378 10482.043 180.00 0.98721 0.29
0 5 9 1 o 1274.562 1402.017 180.00 0.98695 0.01
5 8 6 2 o 13746.044 15086.533 0.00 0.98915 0.17
9 5 1 2 o 2837.666 3126.996 180.00 0.98874 0.04
4 12 2 2 o 16026.527 16650.107 0.00 0.98826 0.24
7 9 2 2 o 2759.201 2533.260 0.00 0.98746 0.04
4 11 4 2 o 14.593 10.100 0.00 0.98717 0.00
2 12 4 2 o 11211.165 10482.043 180.00 0.98721 0.18
0 5 9 2 o 1518.729 1402.017 180.00 0.98695 0.01
3 3 9 1 o 14735.184 12124.851 0.00 0.98356 0.35
2 9 7 1 o 1461.615 1184.250 0.00 0.98356 0.04
2 13 2 1 o 2195.199 1987.744 0.00 0.98293 0.07
1 5 9 1 o 13014.169 9518.374 180.00 0.98182 0.34
3 3 9 2 o 13450.686 12124.851 0.00 0.98356 0.16
2 9 7 2 o 1324.847 1184.250 0.00 0.98356 0.02
2 13 2 2 o 1825.102 1987.744 0.00 0.98293 0.03
1 5 9 2 o 10564.538 9518.374 180.00 0.98182 0.13
9 0 4 1 o 7683.540 7352.071 0.00 0.97740 0.09
5 11 3 1 o 558.885 530.728 0.00 0.97757 0.02
6 10 3 1 o 760.381 730.064 180.00 0.97731 0.02
0 13 3 1 o 24724.563 23689.078 180.00 0.97744 0.36
8 8 0 1 o 41441.08 40688.58 0.00 0.97691 0.53
3 11 5 1 o 12588.161 12695.776 0.00 0.97622 0.33
9 0 4 2 o 8463.248 7352.071 0.00 0.97740 0.05
5 11 3 2 o 632.365 530.728 0.00 0.97757 0.01
8 4 5 1 o 2673.713 2359.081 0.00 0.97493 0.07
3 10 6 1 o 1455.646 1265.941 0.00 0.97504 0.04
9 1 4 1 o 3538.675 3243.970 0.00 0.97479 0.08
6 10 3 2 o 815.506 730.064 180.00 0.97731 0.01
0 13 3 2 o 27335.184 23689.078 180.00 0.97744 0.21
8 8 0 2 o 41293.87 40688.58 0.00 0.97691 0.26
3 11 5 2 o 11953.771 12695.776 0.00 0.97622 0.16
9 5 2 1 o 34880.695 35023.934 180.00 0.97325 0.84
6 7 6 1 o 822.846 840.069 0.00 0.97300 0.03
3 13 1 1 o 3807.775 3839.773 0.00 0.97312 0.09
8 4 5 2 o 2427.822 2359.081 0.00 0.97493 0.03
3 10 6 2 o 1283.113 1265.941 0.00 0.97504 0.02
9 1 4 2 o 3384.070 3243.970 0.00 0.97479 0.04
1 13 3 1 o 1243.754 1192.182 0.00 0.97245 0.04
8 8 1 1 o 4919.729 4961.083 0.00 0.97185 0.12
5 4 8 1 o 1918.082 1969.907 0.00 0.97168 0.05
0 8 8 1 o 12843.859 13331.517 0.00 0.97155 0.17
9 4 3 1 o 4965.543 5171.311 180.00 0.97131 0.11
9 5 2 2 o 33938.410 35023.934 180.00 0.97325 0.40
7 5 6 1 o 1646.410 1689.363 0.00 0.97059 0.04
6 7 6 2 o 808.138 840.069 0.00 0.97300 0.01
7 8 4 1 o 11323.167 11619.862 180.00 0.97060 0.28
3 13 1 2 o 3748.083 3839.773 0.00 0.97312 0.05
8 7 3 1 o 22740.631 23683.709 180.00 0.97030 0.55
1 13 3 2 o 1113.073 1192.182 0.00 0.97245 0.02
6 5 7 1 o 576.640 566.489 0.00 0.96952 0.01
8 8 1 2 o 5081.322 4961.083 0.00 0.97185 0.07
4 1 9 1 o 13488.719 13181.947 180.00 0.96939 0.32
5 4 8 2 o 1993.434 1969.907 0.00 0.97168 0.02
0 8 8 2 o 13165.333 13331.517 0.00 0.97155 0.09
9 4 3 2 o 4903.249 5171.311 180.00 0.97131 0.06
8 6 4 1 o 285.150 302.581 180.00 0.96863 0.01
6 11 0 1 o 3726.387 3977.953 180.00 0.96840 0.04
7 5 6 2 o 1539.187 1689.363 0.00 0.97059 0.02
7 8 4 2 o 10597.558 11619.862 180.00 0.97060 0.13
8 7 3 2 o 21377.473 23683.709 180.00 0.97030 0.25
4 8 7 1 o 0.656 0.715 180.00 0.96789 0.00
7 1 7 1 o 31770.838 34682.195 0.00 0.96714 0.68
9 2 4 1 o 3727.863 4130.746 0.00 0.96709 0.09
6 5 7 2 o 521.189 566.489 0.00 0.96952 0.01
4 1 9 2 o 11685.233 13181.947 180.00 0.96939 0.13
2 5 9 1 o 44.468 50.364 180.00 0.96689 0.00
1 8 8 1 o 1518.267 1769.363 0.00 0.96666 0.04
8 6 4 2 o 263.157 302.581 180.00 0.96863 0.00
6 11 0 2 o 3442.325 3977.953 180.00 0.96840 0.02
3 7 8 1 o 18.891 23.265 0.00 0.96579 0.00
4 8 7 2 o 0.683 0.715 180.00 0.96789 0.00
3 4 9 1 o 162.537 164.350 180.00 0.96539 0.00
7 1 7 2 o 35464.69 34682.195 0.00 0.96714 0.40
9 2 4 2 o 4200.854 4130.746 0.00 0.96709 0.05
4 6 8 1 o 4282.529 4212.654 180.00 0.96471 0.11
2 5 9 2 o 50.159 50.364 180.00 0.96689 0.00
1 8 8 2 o 1778.115 1769.363 0.00 0.96666 0.02
7 7 5 1 o 20382.707 20091.678 0.00 0.96412 0.53
10 0 0 1 o 458.762 455.836 0.00 0.96396 0.00
3 7 8 2 o 20.980 23.265 0.00 0.96579 0.00
6 11 1 1 o 21002.637 22621.508 0.00 0.96347 0.55
3 4 9 2 o 151.193 164.350 180.00 0.96539 0.00
4 12 3 1 o 577.535 612.145 180.00 0.96287 0.02
4 6 8 2 o 4355.601 4212.654 180.00 0.96471 0.05
5 7 7 1 o 597.180 564.311 180.00 0.96218 0.02
3 12 4 1 o 5032.382 4851.032 180.00 0.96230 0.14
7 9 3 1 o 4100.369 3943.205 0.00 0.96213 0.09
4 2 9 1 o 2779.946 2714.104 180.00 0.96181 0.07
7 7 5 2 o 20418.354 20091.678 0.00 0.96412 0.27
10 0 0 2 o 452.428 455.836 0.00 0.96396 0.00
10 1 0 1 o 7774.086 7985.244 180.00 0.96146 0.08
8 0 6 1 o 2518.450 2711.806 180.00 0.96106 0.03
6 11 1 2 o 21112.914 22621.508 0.00 0.96347 0.28
1 11 6 1 o 3492.445 3753.289 0.00 0.96065 0.09
4 12 3 2 o 577.883 612.145 180.00 0.96287 0.01
9 6 1 1 o 8965.534 9543.938 180.00 0.96020 0.22
5 7 7 2 o 526.410 564.311 180.00 0.96218 0.01
3 12 4 2 o 4567.000 4851.032 180.00 0.96230 0.06
7 9 3 2 o 3773.720 3943.205 0.00 0.96213 0.04
7 2 7 1 o 1343.111 1390.558 180.00 0.95961 0.03
4 2 9 2 o 2672.280 2714.104 180.00 0.96181 0.03
10 1 0 2 o 8281.895 7985.244 180.00 0.96146 0.04
6 0 8 1 o 2546.804 2469.171 180.00 0.95882 0.03
3 9 7 1 o 14494.294 13906.175 0.00 0.95892 0.36
8 0 6 2 o 2767.141 2711.806 180.00 0.96106 0.02
8 1 6 1 o 7813.288 7805.855 180.00 0.95858 0.21
5 12 1 1 o 9315.137 9088.058 0.00 0.95874 0.25
1 11 6 2 o 3565.625 3753.289 0.00 0.96065 0.05
3 13 2 1 o 5520.104 5757.290 0.00 0.95834 0.15
9 6 1 2 o 8977.796 9543.938 180.00 0.96020 0.11
2 13 3 1 o 5080.887 5441.632 0.00 0.95794 0.14
7 2 7 2 o 1399.400 1390.558 180.00 0.95961 0.01
8 8 2 1 o 11854.688 11591.861 0.00 0.95712 0.30
10 1 1 1 o 29661.711 27855.734 0.00 0.95664 0.72
1 12 5 1 o 244.104 236.098 0.00 0.95683 0.00
6 0 8 2 o 2560.980 2469.171 180.00 0.95882 0.01
3 9 7 2 o 14663.432 13906.175 0.00 0.95892 0.18
6 1 8 1 o 14450.106 14106.857 0.00 0.95636 0.37
8 1 6 2 o 7697.467 7805.855 180.00 0.95858 0.11
5 12 1 2 o 9323.654 9088.058 0.00 0.95874 0.12
0 0 10 1 o 10128.204 10946.310 0.00 0.95596 0.05
3 13 2 2 o 5281.001 5757.290 0.00 0.95834 0.07
2 13 3 2 o 4615.202 5441.632 0.00 0.95794 0.06
8 8 2 2 o 12556.072 11591.861 0.00 0.95712 0.16
9 3 4 1 o 1347.805 1237.763 0.00 0.95465 0.03
10 1 1 2 o 30053.758 27855.734 0.00 0.95664 0.37
1 12 5 2 o 246.975 236.098 0.00 0.95683 0.00
10 2 0 1 o 21773.580 20468.498 180.00 0.95407 0.27
6 1 8 2 o 14953.820 14106.857 0.00 0.95636 0.19
1 6 9 1 o 2209.886 2108.059 0.00 0.95385 0.07
7 10 1 1 o 79.126 77.764 0.00 0.95375 0.00
0 0 10 2 o 10886.407 10946.310 0.00 0.95596 0.03
0 14 0 1 o 74089.11 74828.18 0.00 0.95359 0.53
8 5 5 1 o 958.715 873.712 180.00 0.95235 0.02
9 3 4 2 o 1379.018 1237.763 0.00 0.95465 0.02
2 8 8 1 o 709.888 633.314 0.00 0.95240 0.03
10 2 0 2 o 24671.303 20468.498 180.00 0.95407 0.16
5 10 5 1 o 3.227 0.095 180.00 0.95187 0.00
1 6 9 2 o 2606.287 2108.059 0.00 0.95385 0.04
7 10 1 2 o 87.571 77.764 0.00 0.95375 0.00
8 2 6 1 o 4103.262 3716.441 0.00 0.95125 0.10
1 0 10 1 o 29890.781 26591.549 0.00 0.95129 0.37
0 14 0 2 o 82540.83 74828.18 0.00 0.95359 0.31
8 5 5 2 o 956.967 873.712 180.00 0.95235 0.01
2 8 8 2 o 718.273 633.314 0.00 0.95240 0.01
1 10 7 1 o 229.999 225.303 180.00 0.95000 0.00
4 3 9 1 o 32116.594 29178.053 0.00 0.94957 0.79
10 2 1 1 o 10696.195 10088.639 180.00 0.94935 0.25
5 10 5 2 o 1.683 0.095 180.00 0.95187 0.00
5 5 8 1 o 15128.496 14375.343 180.00 0.94931 0.37
6 2 8 1 o 69.920 70.278 0.00 0.94908 0.00
9 5 3 1 o 524.165 534.749 180.00 0.94897 0.01
6 11 2 1 o 2126.729 2105.722 180.00 0.94912 0.07
8 2 6 2 o 3521.448 3716.441 0.00 0.95125 0.04
1 0 10 2 o 25487.063 26591.549 0.00 0.95129 0.15
1 1 10 1 o 3083.697 3290.476 0.00 0.94889 0.07
1 10 7 2 o 219.784 225.303 180.00 0.95000 0.00
7 3 7 1 o 2668.165 2674.550 180.00 0.94745 0.05
4 3 9 2 o 30951.869 29178.053 0.00 0.94957 0.38
10 2 1 2 o 10834.188 10088.639 180.00 0.94935 0.13
5 5 8 2 o 15428.384 14375.343 180.00 0.94931 0.19
6 2 8 2 o 76.139 70.278 0.00 0.94908 0.00
6 9 5 1 o 2081.035 1948.675 0.00 0.94683 0.06
9 5 3 2 o 549.519 534.749 180.00 0.94897 0.00
6 11 2 2 o 2271.213 2105.722 180.00 0.94912 0.04
1 1 10 2 o 3442.038 3290.476 0.00 0.94889 0.04
2 11 6 1 o 5195.903 4919.749 180.00 0.94665 0.15
0 2 10 1 o 4027.042 3886.882 180.00 0.94630 0.05
9 6 2 1 o 1611.390 1621.587 0.00 0.94599 0.04
5 9 6 1 o 19615.971 19744.500 0.00 0.94599 0.51
7 3 7 2 o 2638.009 2674.550 180.00 0.94745 0.03
10 0 2 1 o 2692.109 2665.594 180.00 0.94494 0.03
4 13 0 1 o 742.396 705.655 0.00 0.94474 0.01
6 9 5 2 o 2138.241 1948.675 0.00 0.94683 0.03
5 12 2 1 o 2428.116 2227.781 0.00 0.94459 0.07
2 11 6 2 o 5439.816 4919.749 180.00 0.94665 0.08
1 14 1 1 o 2322.761 2052.677 0.00 0.94432 0.09
0 2 10 2 o 4329.212 3886.882 180.00 0.94630 0.03
9 6 2 2 o 1813.613 1621.587 0.00 0.94599 0.02
5 9 6 2 o 22263.531 19744.500 0.00 0.94599 0.30
7 6 6 1 o 211.399 186.053 0.00 0.94355 0.01
5 11 4 1 o 1500.882 1328.910 0.00 0.94364 0.04
3 5 9 1 o 7080.319 6339.759 0.00 0.94345 0.16
6 10 4 1 o 20156.363 17897.219 180.00 0.94341 0.54
4 11 5 1 o 52244.74 49447.86 180.00 0.94296 1.45
2 12 5 1 o 33814.746 31688.596 180.00 0.94299 0.95
10 0 2 2 o 2608.922 2665.594 180.00 0.94494 0.01
10 1 2 1 o 2170.815 2241.154 180.00 0.94258 0.06
6 6 7 1 o 122.138 126.157 180.00 0.94256 0.00
4 13 0 2 o 691.498 705.655 0.00 0.94474 0.00
10 3 0 1 o 902.609 891.979 180.00 0.94211 0.01
5 12 2 2 o 2215.941 2227.781 0.00 0.94459 0.03
4 10 6 1 o 4578.310 4403.707 180.00 0.94189 0.13
1 2 10 1 o 6831.887 6578.455 0.00 0.94178 0.17
1 14 1 2 o 2140.886 2052.677 0.00 0.94432 0.04
7 6 6 2 o 198.306 186.053 0.00 0.94355 0.00
5 11 4 2 o 1396.772 1328.910 0.00 0.94364 0.02
3 5 9 2 o 6787.321 6339.759 0.00 0.94345 0.08
6 10 4 2 o 19392.127 17897.219 180.00 0.94341 0.26
4 10 6 2 o 4463.089 4403.707 180.00 0.94189 0.06
1 2 10 2 o 6670.002 6578.455 0.00 0.94178 0.08
8 3 6 1 o 4153.986 4074.681 180.00 0.93940 0.12
4 11 5 2 o 54744.11 49447.86 180.00 0.94296 0.77
2 12 5 2 o 35117.73 31688.596 180.00 0.94299 0.50
10 1 2 2 o 2402.700 2241.154 180.00 0.94258 0.03
1 13 4 1 o 1904.642 1815.635 180.00 0.93904 0.05
6 6 7 2 o 134.454 126.157 180.00 0.94256 0.00
2 6 9 1 o 21350.902 20506.326 0.00 0.94014 0.54
4 13 1 1 o 32880.395 31532.586 180.00 0.94016 0.94
10 3 0 2 o 900.485 891.979 180.00 0.94211 0.00
7 10 2 1 o 15335.309 15109.915 0.00 0.93982 0.40
9 4 4 1 o 2123.512 1913.786 0.00 0.93801 0.05
2 6 9 2 o 21785.998 20506.326 0.00 0.94014 0.28
2 0 10 1 o 234.599 232.794 0.00 0.93769 0.00
4 13 1 2 o 33627.258 31532.586 180.00 0.94016 0.48
10 3 1 1 o 11.158 11.533 180.00 0.93757 0.00
7 10 2 2 o 14590.521 15109.915 0.00 0.93982 0.19
6 3 8 1 o 5453.450 6009.733 0.00 0.93731 0.15
8 3 6 2 o 3553.611 4074.681 180.00 0.93940 0.05
8 7 4 1 o 909.196 1063.555 180.00 0.93710 0.03
1 13 4 2 o 1704.769 1815.635 180.00 0.93904 0.02
6 8 6 1 o 721.543 708.008 180.00 0.93641 0.02
2 10 7 1 o 19.816 19.669 180.00 0.93646 0.00
9 4 4 2 o 2093.169 1913.786 0.00 0.93801 0.02
10 2 2 1 o 8343.366 7612.930 180.00 0.93561 0.20
2 1 10 1 o 19638.682 18492.414 180.00 0.93539 0.49
2 0 10 2 o 238.361 232.794 0.00 0.93769 0.00
10 3 1 2 o 12.012 11.533 180.00 0.93757 0.00
8 9 0 1 o 13622.836 13310.952 0.00 0.93527 0.19
2 14 0 1 o 8791.259 8106.809 180.00 0.93546 0.14
6 3 8 2 o 5483.796 6009.733 0.00 0.93731 0.08
3 13 3 1 o 24920.219 25729.764 0.00 0.93513 0.74
0 14 2 1 o 21333.541 21745.619 0.00 0.93516 0.33
8 7 4 2 o 858.686 1063.555 180.00 0.93710 0.02
6 8 6 2 o 506.894 708.008 180.00 0.93641 0.01
2 10 7 2 o 14.583 19.669 180.00 0.93646 0.00
8 8 3 1 o 763.956 983.891 180.00 0.93400 0.02
4 7 8 1 o 541.708 651.710 180.00 0.93354 0.02
10 2 2 2 o 7327.933 7612.930 180.00 0.93561 0.09
4 4 9 1 o 406.073 414.486 0.00 0.93319 0.01
2 1 10 2 o 18096.455 18492.414 180.00 0.93539 0.22
8 9 0 2 o 12849.971 13310.952 0.00 0.93527 0.09
2 14 0 2 o 7929.601 8106.809 180.00 0.93546 0.06
3 13 3 2 o 24230.393 25729.764 0.00 0.93513 0.36
0 14 2 2 o 20595.217 21745.619 0.00 0.93516 0.16
9 1 5 1 o 1474.424 1523.869 180.00 0.93215 0.02
8 8 3 2 o 975.831 983.891 180.00 0.93400 0.01
4 7 8 2 o 729.083 651.710 180.00 0.93354 0.01
7 4 7 1 o 482.153 441.990 0.00 0.93118 0.01
4 4 9 2 o 445.980 414.486 0.00 0.93319 0.01
8 9 1 1 o 14983.921 14054.986 180.00 0.93082 0.39
2 14 1 1 o 63.919 58.551 180.00 0.93101 0.00
1 14 2 1 o 26086.295 24601.158 0.00 0.93079 0.79
1 3 10 1 o 1386.020 1464.521 0.00 0.93027 0.04
4 12 4 1 o 376.818 382.897 0.00 0.93040 0.01
9 1 5 2 o 1384.696 1523.869 180.00 0.93215 0.01
3 8 8 1 o 21864.252 24597.459 180.00 0.92997 0.53
7 9 4 1 o 333.450 393.494 0.00 0.92973 0.01
9 7 1 1 o 225.904 292.053 0.00 0.92945 0.01
7 4 7 2 o 433.056 441.990 0.00 0.93118 0.01
2 2 10 1 o 57.041 56.068 0.00 0.92858 0.00
8 9 1 2 o 14389.957 14054.986 180.00 0.93082 0.19
2 14 1 2 o 59.292 58.551 180.00 0.93101 0.00
7 8 5 1 o 51.382 50.384 180.00 0.92849 0.00
1 14 2 2 o 25194.469 24601.158 0.00 0.93079 0.38
5 1 9 1 o 3143.025 3129.095 180.00 0.92808 0.06
1 3 10 2 o 1456.364 1464.521 0.00 0.93027 0.02
4 12 4 2 o 384.765 382.897 0.00 0.93040 0.00
0 7 9 1 o 30919.871 31169.068 0.00 0.92797 0.38
3 8 8 2 o 23465.799 24597.459 180.00 0.92997 0.29
7 9 4 2 o 375.955 393.494 0.00 0.92973 0.00
4 9 7 1 o 824.194 851.844 180.00 0.92734 0.02
9 7 1 2 o 291.342 292.053 0.00 0.92945 0.01
8 6 5 1 o 6394.985 5973.028 0.00 0.92676 0.16
5 8 7 1 o 15358.565 14383.880 0.00 0.92675 0.39
4 13 2 1 o 360.904 335.101 0.00 0.92681 0.01
6 11 3 1 o 3075.565 2820.948 0.00 0.92656 0.09
2 2 10 2 o 59.784 56.068 0.00 0.92858 0.00
10 4 0 1 o 39329.20 36721.23 180.00 0.92611 0.48
7 8 5 2 o 53.892 50.384 180.00 0.92849 0.00
1 9 8 1 o 10353.285 9522.295 180.00 0.92626 0.28
5 1 9 2 o 3176.038 3129.095 180.00 0.92808 0.03
2 13 4 1 o 17766.725 16962.344 180.00 0.92595 0.53
0 7 9 2 o 31114.492 31169.068 0.00 0.92797 0.19
9 2 5 1 o 1246.382 1318.026 180.00 0.92541 0.03
4 9 7 2 o 794.452 851.844 180.00 0.92734 0.01
8 6 5 2 o 6447.944 5973.028 0.00 0.92676 0.08
3 11 6 1 o 1593.630 1516.384 180.00 0.92462 0.04
5 8 7 2 o 15486.597 14383.880 0.00 0.92675 0.20
10 3 2 1 o 2099.312 1847.283 180.00 0.92433 0.07
4 13 2 2 o 363.249 335.101 0.00 0.92681 0.01
6 11 3 2 o 3149.573 2820.948 0.00 0.92656 0.05
5 6 8 1 o 19993.705 17393.096 0.00 0.92397 0.53
10 4 0 2 o 41737.94 36721.23 180.00 0.92611 0.26
1 9 8 2 o 10917.492 9522.295 180.00 0.92626 0.15
9 6 3 1 o 15338.383 13921.691 180.00 0.92365 0.39
1 7 9 1 o 10565.274 9518.657 180.00 0.92370 0.27
8 4 6 1 o 17004.055 15836.463 0.00 0.92353 0.43
2 13 4 2 o 18841.486 16962.344 180.00 0.92595 0.28
9 2 5 2 o 1316.450 1318.026 180.00 0.92541 0.01
3 11 6 2 o 1681.682 1516.384 180.00 0.92462 0.02
5 12 3 1 o 26602.906 23954.543 0.00 0.92235 0.78
10 3 2 2 o 1995.898 1847.283 180.00 0.92433 0.03
10 4 1 1 o 2671.356 2517.222 0.00 0.92180 0.07
5 6 8 2 o 18243.508 17393.096 0.00 0.92397 0.24
6 4 8 1 o 154.109 153.237 0.00 0.92154 0.00
5 2 9 1 o -0.349 0.288 0.00 0.92142 0.00
9 6 3 2 o 13235.777 13921.691 180.00 0.92365 0.16
1 7 9 2 o 9233.426 9518.657 180.00 0.92370 0.11
8 4 6 2 o 14290.908 15836.463 0.00 0.92353 0.17
3 12 5 1 o 763.231 877.227 180.00 0.92121 0.02
10 1 3 1 o 1527.952 1781.197 0.00 0.92047 0.03
5 12 3 2 o 24464.574 23954.543 0.00 0.92235 0.35
10 4 1 2 o 2520.037 2517.222 0.00 0.92180 0.03
6 4 8 2 o 151.768 153.237 0.00 0.92154 0.00
5 2 9 2 o -0.923 0.288 0.00 0.92142 0.00
0 4 10 1 o 12074.830 13425.279 180.00 0.91901 0.12
3 12 5 2 o 744.571 877.227 180.00 0.92121 0.01
3 6 9 1 o 181.081 297.695 0.00 0.91856 0.01
10 1 3 2 o 1342.350 1781.197 0.00 0.92047 0.01
9 5 4 1 o 3958.758 5521.555 180.00 0.91784 0.09
7 10 3 1 o 698.174 1023.598 0.00 0.91790 0.02
8 9 2 1 o 41.859 46.613 0.00 0.91786 0.00
2 14 2 1 o 2564.316 3306.243 180.00 0.91804 0.06
2 3 10 1 o 3311.281 5463.599 180.00 0.91755 0.07
0 4 10 2 o 5811.356 13425.279 180.00 0.91901 0.01
9 7 2 1 o 2.191 4.479 0.00 0.91655 0.00
3 0 10 1 o 39.091 189.733 180.00 0.91627 0.00
3 6 9 2 o -117.521 297.695 0.00 0.91856 0.00
9 5 4 2 o 4029.335 5521.555 180.00 0.91784 0.05
7 10 3 2 o 668.306 1023.598 0.00 0.91790 0.01
8 9 2 2 o 41.868 46.613 0.00 0.91786 0.00
2 14 2 2 o 2167.168 3306.243 180.00 0.91804 0.02
2 3 10 2 o 4377.117 5463.599 180.00 0.91755 0.05
3 10 7 1 o 4713.271 5535.222 0.00 0.91512 0.15
1 4 10 1 o 853.621 893.166 0.00 0.91486 0.02
9 3 5 1 o 7997.848 8260.986 180.00 0.91449 0.22
6 12 0 1 o 5663.251 5838.736 180.00 0.91464 0.08
7 7 6 1 o 52.349 54.425 180.00 0.91433 0.00
9 7 2 2 o 4.386 4.479 0.00 0.91655 0.00
3 1 10 1 o 1460.917 1525.920 180.00 0.91412 0.04
10 2 3 1 o 3218.523 3408.746 0.00 0.91398 0.08
3 0 10 2 o 179.523 189.733 180.00 0.91627 0.00
2 9 8 1 o 8050.004 8936.790 180.00 0.91369 0.19
6 7 7 1 o 762.200 953.966 0.00 0.91343 0.02
4 5 9 1 o 1042.939 1348.131 0.00 0.91333 0.02
3 10 7 2 o 3894.003 5535.222 0.00 0.91512 0.06
1 4 10 2 o 740.506 893.166 0.00 0.91486 0.01
9 3 5 2 o 7319.244 8260.986 180.00 0.91449 0.10
6 12 0 2 o 5041.780 5838.736 180.00 0.91464 0.03
7 7 6 2 o 50.720 54.425 180.00 0.91433 0.00
0 12 6 1 o 8734.188 9598.230 0.00 0.91216 0.14
3 1 10 2 o 1556.065 1525.920 180.00 0.91412 0.02
10 2 3 2 o 3605.960 3408.746 0.00 0.91398 0.05
7 5 7 1 o 7245.935 6567.964 0.00 0.91144 0.21
2 9 8 2 o 9681.627 8936.790 180.00 0.91369 0.12
2 7 9 1 o 543.723 497.115 0.00 0.91123 0.01
6 7 7 2 o 1057.166 953.966 0.00 0.91343 0.01
4 5 9 2 o 1518.731 1348.131 0.00 0.91333 0.02
5 3 9 1 o 17667.867 14632.814 180.00 0.91064 0.49
6 12 1 1 o 18019.729 15765.981 180.00 0.91048 0.53
3 14 1 1 o 1000.383 1069.130 0.00 0.91003 0.04
0 12 6 2 o 8869.729 9598.230 0.00 0.91216 0.07
1 14 3 1 o 608.861 603.633 180.00 0.90949 0.03
10 4 2 1 o 15259.070 13864.971 180.00 0.90920 0.41
7 5 7 2 o 7316.042 6567.964 0.00 0.91144 0.11
2 7 9 2 o 565.477 497.115 0.00 0.91123 0.01
5 3 9 2 o 16701.307 14632.814 180.00 0.91064 0.23
6 12 1 2 o 17438.363 15765.981 180.00 0.91048 0.26
1 12 6 1 o 8830.966 8209.578 0.00 0.90810 0.25
3 2 10 1 o 11174.106 11398.669 180.00 0.90776 0.28
3 14 1 2 o 1056.001 1069.130 0.00 0.91003 0.02
0 11 7 1 o 828.982 884.421 180.00 0.90719 0.01
1 14 3 2 o 530.275 603.633 180.00 0.90949 0.01
10 4 2 2 o 13274.428 13864.971 180.00 0.90920 0.17
10 5 0 1 o 10393.282 11084.196 0.00 0.90668 0.12
7 11 1 1 o 7998.850 9174.007 0.00 0.90641 0.20
1 12 6 2 o 6912.923 8209.578 0.00 0.90810 0.09
4 13 3 1 o 1037.112 1227.195 180.00 0.90577 0.03
3 2 10 2 o 10163.850 11398.669 180.00 0.90776 0.12
3 13 4 1 o 403.274 440.532 0.00 0.90530 0.01
0 11 7 2 o 845.755 884.421 180.00 0.90719 0.01
5 11 5 1 o 8861.702 9308.004 180.00 0.90480 0.26
6 10 5 1 o 4340.009 4739.884 180.00 0.90459 0.12
0 13 5 1 o 23597.791 25074.410 180.00 0.90470 0.33
10 5 0 2 o 9967.573 11084.196 0.00 0.90668 0.06
8 5 6 1 o 5458.542 6355.921 0.00 0.90427 0.15
8 8 4 1 o 81.729 91.710 180.00 0.90428 0.00
7 11 1 2 o 8114.606 9174.007 0.00 0.90641 0.10
5 10 6 1 o 527.631 563.601 0.00 0.90386 0.01
10 3 3 1 o 17126.438 16890.805 0.00 0.90346 0.44
4 13 3 2 o 1232.427 1227.195 180.00 0.90577 0.02
1 11 7 1 o 361.076 358.038 0.00 0.90319 0.01
3 13 4 2 o 440.677 440.532 0.00 0.90530 0.01
2 4 10 1 o 958.668 940.144 0.00 0.90274 0.04
10 5 1 1 o 3765.656 3707.016 0.00 0.90263 0.09
7 0 8 1 o 2256.828 2235.790 0.00 0.90253 0.03
5 11 5 2 o 9438.645 9308.004 180.00 0.90480 0.14
6 5 8 1 o 12967.676 13249.776 180.00 0.90240 0.35
6 10 5 2 o 4596.231 4739.884 180.00 0.90459 0.07
0 13 5 2 o 25021.650 25074.410 180.00 0.90470 0.18
5 13 1 1 o 4618.194 4850.424 180.00 0.90233 0.16
8 5 6 2 o 5495.268 6355.921 0.00 0.90427 0.08
8 8 4 2 o 82.240 91.710 180.00 0.90428 0.00
5 10 6 2 o 558.365 563.601 0.00 0.90386 0.01
8 1 7 1 o 821.016 773.151 180.00 0.90147 0.02
10 3 3 2 o 18673.443 16890.805 0.00 0.90346 0.25
4 8 8 1 o 753.440 711.836 180.00 0.90108 0.01
1 11 7 2 o 382.268 358.038 0.00 0.90319 0.01
1 13 5 1 o 8769.740 8683.352 180.00 0.90074 0.27
7 1 8 1 o 682.322 659.191 180.00 0.90048 0.02
2 4 10 2 o 974.855 940.144 0.00 0.90274 0.02
10 5 1 2 o 3901.177 3707.016 0.00 0.90263 0.05
7 0 8 2 o 2429.460 2235.790 0.00 0.90253 0.02
6 5 8 2 o 14787.253 13249.776 180.00 0.90240 0.20
5 13 1 2 o 5533.522 4850.424 180.00 0.90233 0.10
9 4 5 1 o 543.763 457.982 0.00 0.89983 0.01
6 9 6 1 o 14380.868 11280.444 180.00 0.89954 0.43
8 1 7 2 o 976.859 773.151 180.00 0.90147 0.01
8 7 5 1 o 46034.21 39570.17 180.00 0.89903 1.27
4 8 8 2 o 747.727 711.836 180.00 0.90108 0.01
1 13 5 2 o 8813.464 8683.352 180.00 0.90074 0.14
7 1 8 2 o 710.960 659.191 180.00 0.90048 0.01
6 12 2 1 o 4165.865 3968.377 180.00 0.89834 0.11
3 14 2 1 o 13672.152 11928.438 0.00 0.89791 0.43
9 4 5 2 o 502.864 457.982 0.00 0.89983 0.01
3 3 10 1 o 181.773 176.043 180.00 0.89744 0.00
6 11 4 1 o 11639.989 10852.901 0.00 0.89752 0.38
9 8 1 1 o 5494.105 5358.692 0.00 0.89740 0.14
8 9 3 1 o 3973.860 3858.078 180.00 0.89741 0.11
2 14 3 1 o 27.385 25.229 0.00 0.89758 0.00
6 9 6 2 o 11359.548 11280.444 180.00 0.89954 0.16
8 7 5 2 o 36920.84 39570.17 180.00 0.89903 0.48
5 7 8 1 o 13.584 14.349 0.00 0.89648 0.00
9 7 3 1 o 1237.688 1259.621 180.00 0.89618 0.04
5 4 9 1 o 82.660 83.760 180.00 0.89616 0.00
4 11 6 1 o 1219.558 1246.679 180.00 0.89621 0.04
2 12 6 1 o 69.718 69.820 180.00 0.89625 0.00
1 5 10 1 o 5360.458 5423.868 180.00 0.89612 0.15
6 12 2 2 o 3925.314 3968.377 180.00 0.89834 0.05
3 14 2 2 o 12026.988 11928.438 0.00 0.89791 0.18
8 2 7 1 o 44.460 44.228 0.00 0.89537 0.00
3 3 10 2 o 176.126 176.043 180.00 0.89744 0.00
6 11 4 2 o 10882.093 10852.901 0.00 0.89752 0.18
9 8 1 2 o 5364.036 5358.692 0.00 0.89740 0.07
8 9 3 2 o 3861.490 3858.078 180.00 0.89741 0.05
2 14 3 2 o 25.353 25.229 0.00 0.89758 0.00
9 6 4 1 o 4855.684 4584.610 0.00 0.89487 0.13
8 10 0 1 o 2624.604 2232.644 180.00 0.89449 0.04
7 2 8 1 o 14781.373 12508.029 180.00 0.89440 0.39
7 11 2 1 o 1298.300 1080.853 180.00 0.89443 0.04
5 7 8 2 o 17.096 14.349 0.00 0.89648 0.00
10 0 4 1 o 34534.273 31705.168 180.00 0.89398 0.46
9 7 3 2 o 1385.038 1259.621 180.00 0.89618 0.02
5 4 9 2 o 89.864 83.760 180.00 0.89616 0.00
4 11 6 2 o 1403.236 1246.679 180.00 0.89621 0.03
2 12 6 2 o 70.398 69.820 180.00 0.89625 0.00
1 5 10 2 o 5732.189 5423.868 180.00 0.89612 0.08
3 9 8 1 o 4608.210 4528.722 0.00 0.89384 0.13
5 12 4 1 o 3885.482 4113.081 0.00 0.89369 0.11
8 2 7 2 o 36.440 44.228 0.00 0.89537 0.00
4 12 5 1 o 2436.128 2854.101 180.00 0.89311 0.07
9 6 4 2 o 4610.716 4584.610 0.00 0.89487 0.06
7 9 5 1 o 8351.372 7844.726 0.00 0.89252 0.27
8 10 0 2 o 2466.260 2232.644 180.00 0.89449 0.02
7 2 8 2 o 13873.050 12508.029 180.00 0.89440 0.18
1 8 9 1 o 56.018 52.996 180.00 0.89222 0.00
7 11 2 2 o 1211.482 1080.853 180.00 0.89443 0.02
10 1 4 1 o 14050.913 12751.948 0.00 0.89198 0.39
10 0 4 2 o 33872.293 31705.168 180.00 0.89398 0.22
3 9 8 2 o 4764.637 4528.722 0.00 0.89384 0.07
3 7 9 1 o 5508.940 5238.000 0.00 0.89153 0.16
2 11 7 1 o 775.333 739.016 0.00 0.89153 0.02
5 12 4 2 o 4320.015 4113.081 0.00 0.89369 0.07
5 9 7 1 o 15660.282 14707.446 180.00 0.89098 0.47
10 5 2 1 o 1865.940 1869.855 0.00 0.89080 0.06
4 12 5 2 o 2973.968 2854.101 180.00 0.89311 0.05
4 6 9 1 o 1481.066 1567.415 0.00 0.89069 0.04
8 10 1 1 o 856.093 946.524 0.00 0.89060 0.02
5 13 2 1 o 10815.757 12559.502 0.00 0.89051 0.31
7 9 5 2 o 5861.487 7844.726 0.00 0.89252 0.09
0 10 8 1 o 5049.754 6198.326 180.00 0.89038 0.06
1 8 9 2 o 45.043 52.996 180.00 0.89222 0.00
