#------------------------------------------------------------------------------
#$Date: 2016-02-14 06:40:26 +0200 (Sun, 14 Feb 2016) $
#$Revision: 176432 $
#$URL: svn://www.crystallography.net/cod/cif/4/00/14/4001400.cif $
#------------------------------------------------------------------------------
#
# This file is available in the Crystallography Open Database (COD),
# http://www.crystallography.net/
#
# All data on this site have been placed in the public domain by the
# contributors.
#
data_4001400
loop_
_publ_author_name
'Go, Yong Bok'
'Jacobson, Allan J.'
_publ_section_title
;
 Solid Solution Precursors to Gadolinia-Doped Ceria Prepared via a
 Low-Temperature Solution Route
;
_journal_issue                   19
_journal_name_full               'Chemistry of Materials'
_journal_page_first              4702
_journal_paper_doi               10.1021/cm071310k
_journal_volume                  19
_journal_year                    2007
_chemical_formula_analytical     'Ce0.9 Gd0.1 C H O4'
_chemical_formula_moiety         'Ce0.9 Gd0.1 CO3 OH'
_chemical_formula_sum            'C H Ce0.9 Gd0.1 O4'
_chemical_formula_weight         217.84
_chemical_name_systematic
; 
cerium gadolinium carbonato hydroxide
;
_space_group_IT_number           19
_symmetry_cell_setting           orthorhombic
_symmetry_space_group_name_Hall  'P 2ac 2ab'
_symmetry_space_group_name_H-M   'P 21 21 21'
_cell_angle_alpha                90.0
_cell_angle_beta                 90.0
_cell_angle_gamma                90.0
_cell_formula_units_Z            4
_cell_length_a                   8.5501(2)
_cell_length_b                   7.3054(2)
_cell_length_c                   5.0045(1)
_cell_measurement_temperature    298
_cell_volume                     312.591(13)
_computing_structure_refinement  GSAS
_computing_structure_solution
;
FOX 1.2: V. Favre-Nicolin, R. J. Cerny, 
Appl. Cryst. 2002, 35, 734
;
_diffrn_ambient_temperature      298
_diffrn_detector_type            'germanium solid-state detector'
_diffrn_measurement_device_type  'Scintag XDS 2000 diffractometer'
_diffrn_radiation_monochromator  CuK\a
_diffrn_radiation_polarisn_ratio 0.7
_diffrn_radiation_probe          x-ray
_diffrn_radiation_type           CuK\a
_exptl_absorpt_correction_T_max  1.00000
_exptl_absorpt_correction_T_min  1.00000
_exptl_absorpt_process_details
;   GSAS Absorption/surface roughness correction: function number 0
 No correction is applied.
;
_exptl_crystal_density_diffrn    4.650
_exptl_crystal_F_000             390.4
_pd_calc_method                  'Rietveld Refinement'
_pd_char_colour                  colorless
_pd_char_particle_morphology     'cubic block'
_pd_instr_location               ' ?'
_pd_meas_2theta_range_inc        0.02
_pd_meas_2theta_range_max        60.00
_pd_meas_2theta_range_min        5.00
_pd_meas_number_of_points        2751
_pd_meas_scan_method             step
_pd_prep_temperature             298
_pd_proc_2theta_range_inc        0.02
_pd_proc_2theta_range_max        60.00
_pd_proc_2theta_range_min        10.00
_pd_proc_info_datetime           2007-04-12T21:34:49
_pd_proc_info_excluded_regions   ' ?'
_pd_proc_ls_background_function
;   GSAS Background function number 1 with  8 terms.
 Shifted Chebyshev function of 1st kind
      1:    120.705     2:   -88.6667     3:    39.2980     4:   -22.6535    
      5:    7.72394     6:   -3.16833     7:    6.49786     8:   -4.51295    
;
_pd_proc_ls_peak_cutoff          0.02000
_pd_proc_ls_profile_function
;
 CW Profile function number 3 with  19 terms
 Pseudovoigt profile coefficients as parameterized in
 P. Thompson, D.E. Cox & J.B. Hastings (1987). J. Appl. Cryst.,20,79-83.
 Asymmetry correction of L.W. Finger, D.E. Cox & A. P. Jephcoat (1994).
 J. Appl. Cryst.,27,892-900.
 Peak tails are ignored  where the intensity is below 0.0200 times the peak
   Aniso. broadening axis   0.0   0.0   1.0
;
_pd_proc_ls_prof_R_factor        0.0643
_pd_proc_ls_prof_wR_expected     0.0534
_pd_proc_ls_prof_wR_factor       0.0913
_pd_proc_number_of_points        2751
_pd_spec_mounting                'amorphous stainless steel sample holder'
_pd_spec_mount_mode              reflection
_pd_spec_shape                   flat_sheet
_pd_spec_size_axial              '10 mm'
_pd_spec_size_thick              '0.6 mm'
_refine_ls_extinction_coef       none
_refine_ls_extinction_method     none
_refine_ls_goodness_of_fit_all   1.73
_refine_ls_hydrogen_treatment    none
_refine_ls_matrix_type           full
_refine_ls_number_constraints    0
_refine_ls_number_parameters     31
_refine_ls_number_restraints     4
_refine_ls_R_Fsqd_factor         0.03063
_refine_ls_shift/su_max          0.2
_refine_ls_shift/su_mean         0.76
_reflns_d_resolution_high        1.549
_reflns_d_resolution_low         5.554
_reflns_limit_h_max              5
_reflns_limit_h_min              0
_reflns_limit_k_max              4
_reflns_limit_k_min              0
_reflns_limit_l_max              3
_reflns_limit_l_min              0
_reflns_number_total             128
_cod_data_source_file            cm071310ksi20070514_012815.cif
_cod_data_source_block           2
_cod_depositor_comments
;
The following automatic conversions were performed:

'_geom_bond_publ_flag' value 'N' changed to 'n' according to
/home/saulius/struct/CIF-dictionaries/cif_core.dic dictionary named
'cif_core.dic' version 2.4.1 from 2010-06-29 (68
times).

'_geom_angle_publ_flag' value 'N' changed to 'n' according
to /home/saulius/struct/CIF-dictionaries/cif_core.dic dictionary
named 'cif_core.dic' version 2.4.1 from 2010-06-29 (108 times).

Automatic conversion script
Id: cif_fix_values 1715 2011-07-08 13:25:40Z adriana 
;
_cod_original_cell_volume        312.59(2)
_cod_original_sg_symbol_Hall     'P 21 21 21'
_cod_original_formula_sum        'C H Ce0.90 Gd0.10 O4'
_cod_database_code               4001400
#BEGIN Tags that were not found in dictionaries:
_gsas_exptl_extinct_corr_t_min   1.00000
_gsas_exptl_extinct_corr_t_max   1.00000
#END Tags that were not found in dictionaries
loop_
_symmetry_equiv_pos_site_id
_symmetry_equiv_pos_as_xyz
1 +x,+y,+z
2 +x+1/2,-y+1/2,-z
3 -x,+y+1/2,-z+1/2
4 -x+1/2,-y,+z+1/2
loop_
_atom_site_type_symbol
_atom_site_label
_atom_site_fract_x
_atom_site_fract_y
_atom_site_fract_z
_atom_site_occupancy
_atom_site_thermal_displace_type
_atom_site_U_iso_or_equiv
_atom_site_symmetry_multiplicity
Ce CE1 0.91628(12) 0.64495(15) 0.7546(9) 0.9 Uiso 0.0112(7) 4
O O1 1.0554(11) 0.2092(12) 0.267(8) 1.0 Uiso 0.00371 4
O O2 0.8597(29) 0.3404(28) -0.001(5) 1.0 Uiso 0.00371 4
O O3 0.8694(30) 0.3481(29) 0.448(4) 1.0 Uiso 0.00371 4
O O4 0.8490(9) 0.9661(11) 0.738(6) 1.0 Uiso 0.00371 4
C C1 0.9314(9) 0.3045(15) 0.255(6) 1.0 Uiso 0.017 4
Gd GD1 0.91628(12) 0.64495(15) 0.7546(9) 0.1 Uiso 0.0112(7) 4
loop_
_atom_type_symbol
_atom_type_number_in_cell
_atom_type_scat_dispersion_real
_atom_type_scat_dispersion_imag
_atom_type_scat_Cromer_Mann_a1
_atom_type_scat_Cromer_Mann_a2
_atom_type_scat_Cromer_Mann_a3
_atom_type_scat_Cromer_Mann_a4
_atom_type_scat_Cromer_Mann_b1
_atom_type_scat_Cromer_Mann_b2
_atom_type_scat_Cromer_Mann_b3
_atom_type_scat_Cromer_Mann_b4
_atom_type_scat_Cromer_Mann_c
_atom_type_scat_source
Ce 3.6 0.000 0.000 21.1671 2.81219 19.7695 0.22684 11.8513 17.6083 3.33049
127.113 1.86264 International_Tables_Vol_C
O 16.0 0.000 0.000 3.04850 13.2771 2.28680 5.70110 1.54630 0.32390 0.86700
32.9089 0.25080 International_Tables_Vol_C
C 4.0 0.000 0.000 2.31000 20.8439 1.02000 10.2075 1.58860 0.56870 0.86500
51.6512 0.21560 International_Tables_Vol_C
Gd 0.4 0.000 0.000 25.0709 2.25341 19.0798 0.18195 13.8518 12.9331 3.54545
101.398 2.41960 International_Tables_Vol_C
loop_
_diffrn_radiation_wavelength
1.54178
loop_
_geom_angle_atom_site_label_1
_geom_angle_atom_site_label_2
_geom_angle_atom_site_label_3
_geom_angle
_geom_angle_site_symmetry_1
_geom_angle_site_symmetry_3
_geom_angle_publ_flag
O1 CE1 O1 156.1(4) 3_755 3_756 n
O1 CE1 O2 129.2(5) 3_755 1_556 n
O1 CE1 O2 51.9(6) 3_755 3_755 n
O1 CE1 O2 66.8(5) 3_755 4_665 n
O1 CE1 O3 66.2(5) 3_755 1_555 n
O1 CE1 O3 116.3(5) 3_755 4_665 n
O1 CE1 O4 79.4(7) 3_755 1_555 n
O1 CE1 O4 92.0(7) 3_755 3_746 n
O1 CE1 O2 73.8(5) 3_756 1_556 n
O1 CE1 O2 106.7(6) 3_756 3_755 n
O1 CE1 O2 123.0(5) 3_756 4_665 n
O1 CE1 O3 136.6(5) 3_756 1_555 n
O1 CE1 O3 74.2(5) 3_756 4_665 n
O1 CE1 O4 82.6(7) 3_756 1_555 n
O1 CE1 O4 90.4(7) 3_756 3_746 n
O2 CE1 O2 144.0(5) 1_556 3_755 n
O2 CE1 O2 95.5(5) 1_556 4_665 n
O2 CE1 O3 63.09(25) 1_556 1_555 n
O2 CE1 O3 70.6(6) 1_556 4_665 n
O2 CE1 O4 143.8(7) 1_556 1_555 n
O2 CE1 O4 71.3(7) 1_556 3_746 n
O2 CE1 O2 112.17(23) 3_755 4_665 n
O2 CE1 O3 105.3(6) 3_755 1_555 n
O2 CE1 O3 145.2(8) 3_755 4_665 n
O2 CE1 O4 68.9(6) 3_755 1_555 n
O2 CE1 O4 72.7(6) 3_755 3_746 n
O2 CE1 O3 68.2(6) 4_665 1_555 n
O2 CE1 O3 50.07(24) 4_665 4_665 n
O2 CE1 O4 74.7(6) 4_665 1_555 n
O2 CE1 O4 139.9(7) 4_665 3_746 n
O3 CE1 O3 95.0(5) 1_555 4_665 n
O3 CE1 O4 136.7(8) 1_555 1_555 n
O3 CE1 O4 72.2(7) 1_555 3_746 n
O3 CE1 O4 76.9(6) 4_665 1_555 n
O3 CE1 O4 141.6(7) 4_665 3_746 n
O4 CE1 O4 136.85(24) 1_555 3_746 n
CE1 O1 CE1 156.1(4) 3_745 3_746 n
CE1 O1 C1 97.1(10) 3_745 1_555 n
CE1 O1 GD1 0.0 3_745 3_745 n
CE1 O1 GD1 156.1(4) 3_745 3_746 n
CE1 O1 C1 103.7(11) 3_746 1_555 n
CE1 O1 GD1 156.1(4) 3_746 3_745 n
CE1 O1 GD1 0.0 3_746 3_746 n
C1 O1 GD1 97.1(10) 1_555 3_745 n
C1 O1 GD1 103.7(11) 1_555 3_746 n
GD1 O1 GD1 156.1(4) 3_745 3_746 n
CE1 O2 CE1 95.7(8) 1_554 3_745 n
CE1 O2 CE1 110.8(8) 1_554 4_664 n
CE1 O2 C1 119.8(13) 1_554 1_555 n
CE1 O2 GD1 0.0 1_554 1_554 n
CE1 O2 GD1 110.8(8) 1_554 4_664 n
CE1 O2 CE1 150.1(9) 3_745 4_664 n
CE1 O2 C1 91.1(10) 3_745 1_555 n
CE1 O2 GD1 95.7(8) 3_745 1_554 n
CE1 O2 GD1 150.1(9) 3_745 4_664 n
CE1 O2 C1 87.6(9) 4_664 1_555 n
CE1 O2 GD1 110.8(8) 4_664 1_554 n
CE1 O2 GD1 0.0 4_664 4_664 n
C1 O2 GD1 119.8(13) 1_555 1_554 n
C1 O2 GD1 87.6(9) 1_555 4_664 n
GD1 O2 GD1 110.8(8) 1_554 4_664 n
CE1 O3 CE1 109.5(8) 1_555 4_664 n
CE1 O3 C1 129.5(17) 1_555 1_555 n
CE1 O3 GD1 0.0 1_555 1_555 n
CE1 O3 GD1 109.5(8) 1_555 4_664 n
CE1 O3 C1 97.1(12) 4_664 1_555 n
CE1 O3 GD1 109.5(8) 4_664 1_555 n
CE1 O3 GD1 0.0 4_664 4_664 n
C1 O3 GD1 129.5(17) 1_555 1_555 n
C1 O3 GD1 97.1(12) 1_555 4_664 n
GD1 O3 GD1 109.5(8) 1_555 4_664 n
CE1 O4 CE1 109.25(31) 1_555 3_756 n
CE1 O4 GD1 0.0 1_555 1_555 n
CE1 O4 GD1 109.25(31) 1_555 3_756 n
CE1 O4 GD1 109.25(31) 3_756 1_555 n
CE1 O4 GD1 0.0 3_756 3_756 n
GD1 O4 GD1 109.25(31) 1_555 3_756 n
O1 C1 O2 119.93(10) 1_555 1_555 n
O1 C1 O3 119.66(34) 1_555 1_555 n
O2 C1 O3 120.06(20) 1_555 1_555 n
O1 GD1 O1 156.1(4) 3_755 3_756 n
O1 GD1 O2 129.2(5) 3_755 1_556 n
O1 GD1 O2 66.8(5) 3_755 4_665 n
O1 GD1 O3 66.2(5) 3_755 1_555 n
O1 GD1 O3 116.3(5) 3_755 4_665 n
O1 GD1 O4 79.4(7) 3_755 1_555 n
O1 GD1 O4 92.0(7) 3_755 3_746 n
O1 GD1 O2 73.8(5) 3_756 1_556 n
O1 GD1 O2 123.0(5) 3_756 4_665 n
O1 GD1 O3 136.6(5) 3_756 1_555 n
O1 GD1 O3 74.2(5) 3_756 4_665 n
O1 GD1 O4 82.6(7) 3_756 1_555 n
O1 GD1 O4 90.4(7) 3_756 3_746 n
O2 GD1 O2 95.5(5) 1_556 4_665 n
O2 GD1 O3 63.09(25) 1_556 1_555 n
O2 GD1 O3 70.6(6) 1_556 4_665 n
O2 GD1 O4 143.8(7) 1_556 1_555 n
O2 GD1 O4 71.3(7) 1_556 3_746 n
O2 GD1 O3 68.2(6) 4_665 1_555 n
O2 GD1 O3 50.07(24) 4_665 4_665 n
O2 GD1 O4 74.7(6) 4_665 1_555 n
O2 GD1 O4 139.9(7) 4_665 3_746 n
O3 GD1 O3 95.0(5) 1_555 4_665 n
O3 GD1 O4 136.7(8) 1_555 1_555 n
O3 GD1 O4 72.2(7) 1_555 3_746 n
O3 GD1 O4 76.9(6) 4_665 1_555 n
O3 GD1 O4 141.6(7) 4_665 3_746 n
O4 GD1 O4 136.85(24) 1_555 3_746 n
loop_
_geom_bond_atom_site_label_1
_geom_bond_atom_site_label_2
_geom_bond_distance
_geom_bond_site_symmetry_2
_geom_bond_publ_flag
CE1 CE1 3.9235(7) 3_746 n
CE1 CE1 3.9235(7) 3_756 n
CE1 O1 2.66(4) 3_755 n
CE1 O1 2.45(4) 3_756 n
CE1 O2 2.585(21) 1_556 n
CE1 O2 2.706(23) 3_755 n
CE1 O2 2.686(24) 4_665 n
CE1 O3 2.686(22) 1_555 n
CE1 O3 2.788(24) 3_756 n
CE1 O3 2.628(25) 4_665 n
CE1 O4 2.417(8) 1_555 n
CE1 O4 2.395(8) 3_746 n
CE1 C1 3.090(24) 3_755 n
CE1 C1 3.015(24) 3_756 n
CE1 C1 2.995(7) 4_665 n
CE1 GD1 3.9235(7) 3_746 n
CE1 GD1 3.9235(7) 3_756 n
O1 CE1 2.66(4) 3_745 n
O1 CE1 2.45(4) 3_746 n
O1 O3 2.093(29) 1_555 n
O1 C1 1.270(10) 1_555 n
O1 GD1 2.66(4) 3_745 n
O1 GD1 2.45(4) 3_746 n
O2 CE1 2.585(21) 1_554 n
O2 CE1 2.706(23) 3_745 n
O2 CE1 2.686(24) 4_664 n
O2 C1 1.442(34) 1_555 n
O2 GD1 2.585(21) 1_554 n
O2 GD1 2.706(23) 3_745 n
O2 GD1 2.686(24) 4_664 n
O3 CE1 2.686(22) 1_555 n
O3 CE1 2.788(24) 3_746 n
O3 CE1 2.628(25) 4_664 n
O3 O1 2.093(29) 1_555 n
O3 C1 1.150(34) 1_555 n
O3 GD1 2.686(22) 1_555 n
O3 GD1 2.788(24) 3_746 n
O3 GD1 2.628(25) 4_664 n
O4 CE1 2.417(8) 1_555 n
O4 CE1 2.395(8) 3_756 n
O4 GD1 2.417(8) 1_555 n
O4 GD1 2.395(8) 3_756 n
C1 CE1 3.090(24) 3_745 n
C1 CE1 3.015(24) 3_746 n
C1 CE1 2.995(7) 4_664 n
C1 O1 1.270(10) 1_555 n
C1 O2 1.442(34) 1_555 n
C1 O3 1.150(34) 1_555 n
C1 GD1 3.090(24) 3_745 n
C1 GD1 3.015(24) 3_746 n
C1 GD1 2.995(7) 4_664 n
GD1 CE1 3.9235(7) 3_746 n
GD1 CE1 3.9235(7) 3_756 n
GD1 O1 2.66(4) 3_755 n
GD1 O1 2.45(4) 3_756 n
GD1 O2 2.585(21) 1_556 n
GD1 O2 2.706(23) 3_755 n
GD1 O2 2.686(24) 4_665 n
GD1 O3 2.686(22) 1_555 n
GD1 O3 2.788(24) 3_756 n
GD1 O3 2.628(25) 4_665 n
GD1 O4 2.417(8) 1_555 n
GD1 O4 2.395(8) 3_746 n
GD1 C1 3.090(24) 3_755 n
GD1 C1 3.015(24) 3_756 n
GD1 C1 2.995(7) 4_665 n
GD1 GD1 3.9235(7) 3_746 n
GD1 GD1 3.9235(7) 3_756 n
loop_
_pd_meas_counts_total
_pd_proc_ls_weight
_pd_proc_intensity_bkg_calc
_pd_calc_intensity_total
739.0 0.0 774.68182 .
703.0 0.0 771.28113 .
680.0 0.0 767.89667 .
724.0 0.0 764.52832 .
728.0 0.0 761.17627 .
719.0 0.0 757.84021 .
705.0 0.0 754.52026 .
682.0 0.0 751.21619 .
641.0 0.0 747.92798 .
662.0 0.0 744.65576 .
732.0 0.0 741.39917 .
730.0 0.0 738.15820 .
629.0 0.0 734.93298 .
667.0 0.0 731.72333 .
692.0 0.0 728.52930 .
646.0 0.0 725.35052 .
592.0 0.0 722.18738 .
652.0 0.0 719.03937 .
647.0 0.0 715.90686 .
668.0 0.0 712.78931 .
649.0 0.0 709.68713 .
680.0 0.0 706.59991 .
623.0 0.0 703.52777 .
650.0 0.0 700.47064 .
651.0 0.0 697.42841 .
628.0 0.0 694.40100 .
638.0 0.0 691.38849 .
659.0 0.0 688.39050 .
629.0 0.0 685.40741 .
611.0 0.0 682.43878 .
591.0 0.0 679.48486 .
652.0 0.0 676.54535 .
615.0 0.0 673.62030 .
611.0 0.0 670.70959 .
621.0 0.0 667.81335 .
615.0 0.0 664.93115 .
576.0 0.0 662.06335 .
575.0 0.0 659.20972 .
556.0 0.0 656.36993 .
620.0 0.0 653.54443 .
574.0 0.0 650.73291 .
585.0 0.0 647.93524 .
584.0 0.0 645.15143 .
614.0 0.0 642.38147 .
568.0 0.0 639.62524 .
532.0 0.0 636.88287 .
599.0 0.0 634.15393 .
580.0 0.0 631.43854 .
582.0 0.0 628.73688 .
568.0 0.0 626.04865 .
576.0 0.0 623.37372 .
569.0 0.0 620.71222 .
543.0 0.0 618.06415 .
498.0 0.0 615.42926 .
519.0 0.0 612.80750 .
578.0 0.0 610.19897 .
527.0 0.0 607.60358 .
566.0 0.0 605.02112 .
531.0 0.0 602.45160 .
556.0 0.0 599.89520 .
557.0 0.0 597.35156 .
502.0 0.0 594.82080 .
514.0 0.0 592.30273 .
509.0 0.0 589.79742 .
517.0 0.0 587.30475 .
533.0 0.0 584.82477 .
507.0 0.0 582.35724 .
513.0 0.0 579.90234 .
532.0 0.0 577.45990 .
495.0 0.0 575.02979 .
513.0 0.0 572.61206 .
519.0 0.0 570.20660 .
509.0 0.0 567.81348 .
505.0 0.0 565.43250 .
518.0 0.0 563.06366 .
507.0 0.0 560.70697 .
518.0 0.0 558.36230 .
449.0 0.0 556.02954 .
473.0 0.0 553.70880 .
496.0 0.0 551.39990 .
490.0 0.0 549.10297 .
485.0 0.0 546.81769 .
520.0 0.0 544.54425 .
464.0 0.0 542.28247 .
489.0 0.0 540.03235 .
467.0 0.0 537.79370 .
507.0 0.0 535.56671 .
502.0 0.0 533.35120 .
478.0 0.0 531.14703 .
532.0 0.0 528.95441 .
460.0 0.0 526.77307 .
490.0 0.0 524.60309 .
447.0 0.0 522.44427 .
446.0 0.0 520.29675 .
448.0 0.0 518.16028 .
482.0 0.0 516.03503 .
489.0 0.0 513.92072 .
440.0 0.0 511.81747 .
485.0 0.0 509.72522 .
501.0 0.0 507.64392 .
496.0 0.0 505.57339 .
427.0 0.0 503.51373 .
472.0 0.0 501.46487 .
445.0 0.0 499.42673 .
458.0 0.0 497.39917 .
437.0 0.0 495.38239 .
424.0 0.0 493.37610 .
400.0 0.0 491.38043 .
405.0 0.0 489.39511 .
439.0 0.0 487.42041 .
447.0 0.0 485.45599 .
490.0 0.0 483.50204 .
387.0 0.0 481.55832 .
436.0 0.0 479.62488 .
412.0 0.0 477.70169 .
443.0 0.0 475.78857 .
435.0 0.0 473.88574 .
414.0 0.0 471.99298 .
428.0 0.0 470.11026 .
431.0 0.0 468.23740 .
461.0 0.0 466.37466 .
459.0 0.0 464.52182 .
450.0 0.0 462.67880 .
434.0 0.0 460.84555 .
413.0 0.0 459.02216 .
422.0 0.0 457.20853 .
409.0 0.0 455.40457 .
403.0 0.0 453.61023 .
416.0 0.0 451.82550 .
418.0 0.0 450.05032 .
423.0 0.0 448.28470 .
425.0 0.0 446.52850 .
445.0 0.0 444.78180 .
432.0 0.0 443.04446 .
412.0 0.0 441.31653 .
421.0 0.0 439.59784 .
400.0 0.0 437.88843 .
371.0 0.0 436.18829 .
393.0 0.0 434.49719 .
389.0 0.0 432.81537 .
408.0 0.0 431.14267 .
423.0 0.0 429.47897 .
370.0 0.0 427.82431 .
398.0 0.0 426.17859 .
348.0 0.0 424.54187 .
390.0 0.0 422.91406 .
379.0 0.0 421.29498 .
403.0 0.0 419.68488 .
418.0 0.0 418.08347 .
432.0 0.0 416.49081 .
406.0 0.0 414.90677 .
369.0 0.0 413.33145 .
348.0 0.0 411.76483 .
355.0 0.0 410.20657 .
347.0 0.0 408.65704 .
383.0 0.0 407.11584 .
385.0 0.0 405.58328 .
373.0 0.0 404.05902 .
341.0 0.0 402.54321 .
361.0 0.0 401.03571 .
382.0 0.0 399.53650 .
374.0 0.0 398.04553 .
378.0 0.0 396.56287 .
357.0 0.0 395.08832 .
310.0 0.0 393.62195 .
346.0 0.0 392.16367 .
376.0 0.0 390.71353 .
351.0 0.0 389.27130 .
355.0 0.0 387.83722 .
336.0 0.0 386.41092 .
349.0 0.0 384.99268 .
377.0 0.0 383.58221 .
369.0 0.0 382.17978 .
320.0 0.0 380.78497 .
361.0 0.0 379.39807 .
343.0 0.0 378.01877 .
374.0 0.0 376.64725 .
375.0 0.0 375.28336 .
378.0 0.0 373.92709 .
318.0 0.0 372.57855 .
354.0 0.0 371.23737 .
349.0 0.0 369.90387 .
333.0 0.0 368.57776 .
332.0 0.0 367.25916 .
358.0 0.0 365.94788 .
300.0 0.0 364.64401 .
351.0 0.0 363.34753 .
331.0 0.0 362.05835 .
311.0 0.0 360.77637 .
340.0 0.0 359.50171 .
345.0 0.0 358.23422 .
357.0 0.0 356.97391 .
321.0 0.0 355.72064 .
332.0 0.0 354.47461 .
325.0 0.0 353.23557 .
373.0 0.0 352.00357 .
335.0 0.0 350.77850 .
305.0 0.0 349.56049 .
324.0 0.0 348.34937 .
337.0 0.0 347.14520 .
311.0 0.0 345.94775 .
314.0 0.0 344.75720 .
324.0 0.0 343.57346 .
345.0 0.0 342.39642 .
330.0 0.0 341.22620 .
322.0 0.0 340.06259 .
288.0 0.0 338.90570 .
360.0 0.0 337.75534 .
303.0 0.0 336.61172 .
313.0 0.0 335.47455 .
319.0 0.0 334.34396 .
304.0 0.0 333.21988 .
350.0 0.0 332.10223 .
331.0 0.0 330.99106 .
286.0 0.0 329.88620 .
310.0 0.0 328.78775 .
339.0 0.0 327.69565 .
332.0 0.0 326.60986 .
325.0 0.0 325.53036 .
293.0 0.0 324.45709 .
298.0 0.0 323.39005 .
323.0 0.0 322.32910 .
333.0 0.0 321.27438 .
286.0 0.0 320.22574 .
298.0 0.0 319.18326 .
276.0 0.0 318.14676 .
274.0 0.0 317.11630 .
294.0 0.0 316.09183 .
315.0 0.0 315.07330 .
318.0 0.0 314.06082 .
308.0 0.0 313.05414 .
289.0 0.0 312.05334 .
274.0 0.0 311.05841 .
314.0 0.0 310.06937 .
283.0 0.0 309.08597 .
274.0 0.0 308.10846 .
302.0 0.0 307.13657 .
314.0 0.0 306.17050 .
273.0 0.0 305.20990 .
312.0 0.0 304.25513 .
292.0 0.0 303.30591 .
286.0 0.0 302.36224 .
280.0 0.0 301.42410 .
261.0 0.0 300.49155 .
287.0 0.0 299.56445 .
300.0 0.0 298.64288 .
299.0 0.0 297.72659 .
293.0 0.0 296.81589 .
280.0 0.0 295.91049 .
280.0 0.0 295.01047 .
295.0 0.0 294.11572 .
281.0 0.00356 293.22629 293.22629
277.0 0.00361 292.34213 292.34213
296.0 0.003378 291.46323 291.46323
275.0 0.00364 290.58954 290.58954
279.0 0.00358 289.72104 289.72104
254.0 0.00394 288.85773 288.85773
300.0 0.003333 287.99945 287.99945
255.0 0.00392 287.14633 287.14633
277.0 0.00361 286.29828 286.29828
281.0 0.00356 285.45538 285.45538
281.0 0.00356 284.61734 284.61734
247.0 0.00405 283.78442 283.78442
274.0 0.00365 282.95642 282.95642
276.0 0.00362 282.13339 282.13339
242.0 0.00413 281.31522 281.31522
272.0 0.00368 280.50201 280.50201
239.0 0.00418 279.69360 279.69360
272.0 0.00368 278.89008 278.89008
264.0 0.00379 278.09134 278.09134
285.0 0.00351 277.29745 277.29745
267.0 0.00375 276.50824 276.50824
255.0 0.00392 275.72385 275.72385
274.0 0.00365 274.94409 274.94409
255.0 0.00392 274.16904 274.16904
272.0 0.00368 273.39865 273.39865
285.0 0.00351 272.63287 272.63287
262.0 0.00382 271.87173 271.87173
290.0 0.003448 271.11517 271.11517
275.0 0.00364 270.36319 270.36319
293.0 0.003413 269.61572 269.61572
269.0 0.00372 268.87277 268.87277
289.0 0.003460 268.13425 268.13425
280.0 0.00357 267.40030 267.40030
292.0 0.003425 266.67062 266.67062
269.0 0.00372 265.94556 265.94556
258.0 0.00388 265.22470 265.22470
264.0 0.00379 264.50827 264.50827
270.0 0.00370 263.79620 263.79620
255.0 0.00392 263.08844 263.08844
248.0 0.00403 262.38495 262.38495
236.0 0.00424 261.68576 261.68576
254.0 0.00394 260.99072 260.99072
253.0 0.00395 260.30002 260.30002
246.0 0.00407 259.61343 259.61343
261.0 0.00383 258.93106 258.93106
281.0 0.00356 258.25281 258.25281
281.0 0.00356 257.57867 257.57867
245.0 0.00408 256.90866 256.90866
288.0 0.003472 256.24277 256.24277
226.0 0.00442 255.58084 255.58084
273.0 0.00366 254.92296 254.92296
245.0 0.00408 254.26917 254.26917
252.0 0.00397 253.61931 253.61931
257.0 0.00389 252.97343 252.97343
247.0 0.00405 252.33147 252.33147
253.0 0.00395 251.69348 251.69348
235.0 0.00426 251.05930 251.05930
279.0 0.00358 250.42906 250.42906
261.0 0.00383 249.80266 249.80266
236.0 0.00424 249.18010 249.18010
249.0 0.00402 248.56133 248.56133
269.0 0.00372 247.94637 247.94637
250.0 0.00400 247.33514 247.33514
240.0 0.00417 246.72771 246.72771
229.0 0.00437 246.12392 246.12392
248.0 0.00403 245.52390 245.52390
256.0 0.00391 244.92752 244.92752
259.0 0.00386 244.33482 244.33482
253.0 0.00395 243.74574 243.74574
225.0 0.00444 243.16028 243.16028
231.0 0.00433 242.57840 242.57840
245.0 0.00408 242.00014 242.00014
251.0 0.00398 241.42538 241.42538
236.0 0.00424 240.85419 240.85419
246.0 0.00407 240.28648 240.28648
245.0 0.00408 239.72226 239.72226
258.0 0.00388 239.16150 239.16150
232.0 0.00431 238.60422 238.60422
250.0 0.00400 238.05035 238.05035
277.0 0.00361 237.49991 237.49991
265.0 0.00377 236.95284 236.95284
234.0 0.00427 236.40912 236.40912
227.0 0.00441 235.86879 235.86879
228.0 0.00439 235.33174 235.33174
235.0 0.00426 234.79803 234.79803
231.0 0.00433 234.26758 234.26758
242.0 0.00413 233.74045 233.74045
228.0 0.00439 233.21651 233.21651
242.0 0.00413 232.69583 232.69583
222.0 0.00450 232.17836 232.17836
229.0 0.00437 231.66406 231.66406
252.0 0.00397 231.15294 231.15294
238.0 0.00420 230.64500 230.64500
249.0 0.00402 230.14014 230.14014
238.0 0.00420 229.63844 229.63844
251.0 0.00398 229.13980 229.13980
209.0 0.00478 228.64427 228.64427
215.0 0.00465 228.15175 228.15175
230.0 0.00435 227.66229 227.66229
237.0 0.00422 227.17586 227.17586
238.0 0.00420 226.69240 226.69240
231.0 0.00433 226.21198 226.21198
244.0 0.00410 225.73447 225.73447
261.0 0.00383 225.25993 225.25993
227.0 0.00441 224.78830 224.78830
236.0 0.00424 224.31961 224.31961
212.0 0.00472 223.85379 223.85379
250.0 0.00400 223.39085 223.39085
229.0 0.00437 222.93076 222.93076
218.0 0.00459 222.47351 222.47351
212.0 0.00472 222.01907 222.01907
237.0 0.00422 221.56743 221.56743
199.0 0.00503 221.11859 221.11859
210.0 0.00476 220.67253 220.67253
239.0 0.00418 220.22917 220.22917
240.0 0.00417 219.78857 219.78857
218.0 0.00459 219.35069 219.35069
231.0 0.00433 218.91551 218.91551
242.0 0.00413 218.48302 218.48302
216.0 0.00463 218.05315 218.05315
243.0 0.00412 217.62595 217.62595
236.0 0.00424 217.20142 217.20142
239.0 0.00418 216.77942 216.77942
215.0 0.00465 216.36008 216.36008
234.0 0.00427 215.94327 215.94327
220.0 0.00455 215.52905 215.52905
198.0 0.00505 215.11737 215.11737
213.0 0.00469 214.70822 214.70822
234.0 0.00427 214.30161 214.30161
212.0 0.00472 213.89745 213.89745
219.0 0.00457 213.49582 213.49582
211.0 0.00474 213.09660 213.09660
211.0 0.00474 212.69987 212.69987
223.0 0.00448 212.30554 212.30554
232.0 0.00431 211.91367 211.91367
227.0 0.00441 211.52415 211.52415
229.0 0.00437 211.13705 211.13705
183.0 0.00546 210.75230 210.75230
221.0 0.00452 210.36993 210.36993
217.0 0.00461 209.98985 209.98985
232.0 0.00431 209.61212 209.61212
198.0 0.00505 209.23668 209.23668
237.0 0.00422 208.86359 208.86359
215.0 0.00465 208.49272 208.49272
218.0 0.00459 208.12413 208.12413
233.0 0.00429 207.75777 207.75777
214.0 0.00467 207.39365 207.39365
223.0 0.00448 207.03175 207.03175
198.0 0.00505 206.67204 206.67204
199.0 0.00503 206.31451 206.31451
213.0 0.00469 205.95917 205.95917
212.0 0.00472 205.60596 205.60596
211.0 0.00474 205.25491 205.25491
218.0 0.00459 204.90601 204.90601
211.0 0.00474 204.55917 204.55917
196.0 0.00510 204.21448 204.21448
203.0 0.00493 203.87183 203.87183
216.0 0.00463 203.53130 203.53130
199.0 0.00503 203.19276 203.19276
187.0 0.00535 202.85631 202.85631
216.0 0.00463 202.52184 202.52184
193.0 0.00518 202.18944 202.18944
207.0 0.00483 201.85899 201.85899
204.0 0.00490 201.53056 201.53056
200.0 0.00500 201.20410 201.20410
207.0 0.00483 200.87958 200.87958
214.0 0.00467 200.55702 200.55702
210.0 0.00476 200.23636 200.23636
197.0 0.00508 199.91763 199.91763
215.0 0.00465 199.60083 199.60083
210.0 0.00476 199.28587 199.28587
200.0 0.00500 198.97284 198.97284
192.0 0.00521 198.66164 198.66164
208.0 0.00481 198.35228 198.35228
220.0 0.00455 198.04475 198.04475
209.0 0.00478 197.73907 197.73907
218.0 0.00459 197.43520 197.43520
212.0 0.00472 197.13310 197.13310
203.0 0.00493 196.83284 196.83284
183.0 0.00546 196.53427 196.53427
190.0 0.00526 196.23753 196.23753
186.0 0.00538 195.94250 195.94250
189.0 0.00529 195.64922 195.64922
199.0 0.00503 195.35764 195.35764
183.0 0.00546 195.06779 195.06779
211.0 0.00474 194.77963 194.77963
174.0 0.00575 194.49313 194.49313
197.0 0.00508 194.20831 194.20831
208.0 0.00481 193.92520 193.92520
191.0 0.00524 193.64365 193.64365
197.0 0.00508 193.36380 193.36380
186.0 0.00538 193.08554 193.08554
194.0 0.00515 192.80891 192.80891
197.0 0.00508 192.53387 192.53387
182.0 0.00549 192.26041 192.26041
199.0 0.00503 191.98853 191.98853
203.0 0.00493 191.71820 191.71820
212.0 0.00472 191.44943 191.44943
188.0 0.00532 191.18219 191.18219
184.0 0.00543 190.91646 190.91646
179.0 0.00559 190.65227 190.65227
217.0 0.00461 190.38960 190.38960
207.0 0.00483 190.12840 190.12840
188.0 0.00532 189.86868 189.86868
201.0 0.00498 189.61044 189.61044
175.0 0.00571 189.35365 189.35365
198.0 0.00505 189.09830 189.09830
199.0 0.00503 188.84444 188.84444
206.0 0.00485 188.59193 188.59193
197.0 0.00508 188.34087 188.34087
180.0 0.00556 188.09123 188.09123
178.0 0.00562 187.84294 187.84294
177.0 0.00565 187.59605 187.59605
195.0 0.00513 187.35057 187.35057
190.0 0.00526 187.10638 187.10638
173.0 0.00578 186.86359 186.86359
170.0 0.00588 186.62212 186.62212
175.0 0.00571 186.38199 186.38199
168.0 0.00595 186.14317 186.14317
181.0 0.00552 185.90564 185.90564
192.0 0.00521 185.66943 185.66943
196.0 0.00510 185.43448 185.43448
165.0 0.00606 185.20084 185.20084
191.0 0.00524 184.96846 184.96846
195.0 0.00513 184.73732 184.73732
173.0 0.00578 184.50737 184.50737
181.0 0.00552 184.27876 184.27876
179.0 0.00559 184.05133 184.05133
189.0 0.00529 183.82512 183.82512
175.0 0.00571 183.60011 183.60011
173.0 0.00578 183.37631 183.37631
224.0 0.00446 183.15366 183.15366
193.0 0.00518 182.93224 182.93224
174.0 0.00575 182.71193 182.71193
174.0 0.00575 182.49278 182.49278
181.0 0.00552 182.27481 182.27481
196.0 0.00510 182.05797 182.05797
186.0 0.00538 181.84229 181.84229
194.0 0.00515 181.62767 181.62767
218.0 0.00459 181.41417 181.41417
167.0 0.00599 181.20181 181.20181
184.0 0.00543 180.99049 180.99049
199.0 0.00503 180.78030 180.78030
179.0 0.00559 180.57114 180.57114
180.0 0.00556 180.36307 180.36307
185.0 0.00541 180.15604 180.15604
177.0 0.00565 179.95006 179.95006
156.0 0.00641 179.74512 179.74512
172.0 0.00581 179.54120 179.54120
159.0 0.00629 179.33827 179.33827
165.0 0.00606 179.13638 179.13638
164.0 0.00610 178.93552 178.93552
179.0 0.00559 178.73560 178.73560
170.0 0.00588 178.53668 178.53668
167.0 0.00599 178.33876 178.33876
175.0 0.00571 178.14180 178.14180
187.0 0.00535 177.94577 177.94577
158.0 0.00633 177.75072 177.75072
179.0 0.00559 177.55658 177.55658
192.0 0.00521 177.36339 177.36339
169.0 0.00592 177.17110 177.17110
201.0 0.00498 176.97978 176.97978
187.0 0.00535 176.78931 176.78931
169.0 0.00592 176.59976 176.59976
188.0 0.00532 176.41113 176.41113
165.0 0.00606 176.22336 176.22336
207.0 0.00483 176.03645 176.03645
179.0 0.00559 175.85043 175.85043
196.0 0.00510 175.66528 175.66528
193.0 0.00518 175.48096 175.48096
228.0 0.00439 175.29747 175.29747
177.0 0.00565 175.11482 175.11482
172.0 0.00581 174.93303 174.93303
185.0 0.00541 174.75204 174.75204
203.0 0.00493 174.57187 174.57187
190.0 0.00526 174.39250 174.39250
201.0 0.00498 174.21391 174.21391
193.0 0.00518 174.03615 174.03615
207.0 0.00483 173.85915 173.85915
205.0 0.00488 173.68291 173.68291
199.0 0.00503 173.50748 173.50748
224.0 0.00446 173.33279 173.33279
213.0 0.00469 173.15883 173.15883
195.0 0.00513 172.98563 172.98563
206.0 0.00485 172.81317 211.42393
229.0 0.00437 172.64143 217.77090
234.0 0.00427 172.47047 247.89670
245.0 0.00408 172.30017 262.29370
290.0 0.003448 172.13060 281.77045
319.0 0.003135 171.96172 310.56140
366.0 0.002732 171.79356 359.92792
473.0 0.002114 171.62610 457.69492
680.0 0.001471 171.45929 659.96167
1003.0 0.000997 171.29317 1050.11987
1695.0 0.000590 171.12772 1702.07556
2583.0 0.000387 170.96292 2599.20361
3451.0 0.0002898 170.79881 3537.43262
4059.0 0.0002464 170.63531 4146.68701
3981.0 0.0002512 170.47247 4153.93848
3436.0 0.0002910 170.31024 3588.49146
2584.0 0.000387 170.14870 2709.57080
1589.0 0.000629 169.98773 1826.96484
924.0 0.001082 169.82741 1151.40503
571.0 0.001751 169.66769 725.24829
394.0 0.002538 169.50854 492.20248
333.0 0.003003 169.35002 375.35004
307.0 0.003257 169.19212 316.54764
267.0 0.00375 169.03479 283.57675
218.0 0.00459 168.87799 262.11057
214.0 0.00467 168.72182 246.52681
190.0 0.00526 168.56621 197.44743
209.0 0.00478 168.41113 192.90198
173.0 0.00578 168.25662 168.25662
208.0 0.00481 168.10265 168.10265
189.0 0.00529 167.94926 167.94926
189.0 0.00529 167.79639 167.79639
198.0 0.00505 167.64403 167.64403
155.0 0.00645 167.49222 167.49222
201.0 0.00498 167.34093 167.34093
170.0 0.00588 167.19012 167.19012
173.0 0.00578 167.03987 167.03987
206.0 0.00485 166.89009 166.89009
189.0 0.00529 166.74083 166.74083
178.0 0.00562 166.59204 166.59204
171.0 0.00585 166.44374 166.44374
174.0 0.00575 166.29591 166.29591
159.0 0.00629 166.14859 166.14859
170.0 0.00588 166.00174 166.00174
164.0 0.00610 165.85532 165.85532
170.0 0.00588 165.70937 165.70937
160.0 0.00625 165.56387 165.56387
178.0 0.00562 165.41884 165.41884
161.0 0.00621 165.27423 165.27423
196.0 0.00510 165.13008 165.13008
183.0 0.00546 164.98634 164.98634
164.0 0.00610 164.84305 164.84305
189.0 0.00529 164.70018 164.70018
184.0 0.00543 164.55772 164.55772
167.0 0.00599 164.41566 164.41566
169.0 0.00592 164.27403 164.27403
159.0 0.00629 164.13278 164.13278
169.0 0.00592 163.99197 163.99197
153.0 0.00654 163.85150 163.85150
162.0 0.00617 163.71147 163.71147
150.0 0.00667 163.57181 163.57181
158.0 0.00633 163.43250 163.43250
159.0 0.00629 163.29358 163.29358
147.0 0.00680 163.15504 163.15504
143.0 0.00699 163.01686 163.01686
151.0 0.00662 162.87901 162.87901
165.0 0.00606 162.74155 162.74155
156.0 0.00641 162.60446 162.60446
151.0 0.00662 162.46770 162.46770
144.0 0.00694 162.33125 162.33125
130.0 0.00769 162.19514 162.19514
167.0 0.00599 162.05940 162.05940
158.0 0.00633 161.92400 161.92400
159.0 0.00629 161.78888 161.78888
155.0 0.00645 161.65411 161.65411
133.0 0.00752 161.51962 161.51962
155.0 0.00645 161.38550 161.38550
178.0 0.00562 161.25165 161.25165
139.0 0.00719 161.11809 161.11809
149.0 0.00671 160.98488 160.98488
160.0 0.00625 160.85194 160.85194
140.0 0.00714 160.71927 160.71927
154.0 0.00649 160.58691 160.58691
155.0 0.00645 160.45483 160.45483
141.0 0.00709 160.32301 160.32301
141.0 0.00709 160.19150 160.19150
161.0 0.00621 160.06023 160.06023
135.0 0.00741 159.92924 159.92924
146.0 0.00685 159.79854 159.79854
155.0 0.00645 159.66806 159.66806
138.0 0.00725 159.53784 159.53784
144.0 0.00694 159.40791 159.40791
161.0 0.00621 159.27820 159.27820
149.0 0.00671 159.14873 159.14873
161.0 0.00621 159.01950 159.01950
150.0 0.00667 158.89050 158.89050
146.0 0.00685 158.76178 158.76178
128.0 0.00781 158.63326 158.63326
137.0 0.00730 158.50497 158.50497
147.0 0.00680 158.37688 158.37688
152.0 0.00658 158.24902 158.24902
131.0 0.00763 158.12143 158.12143
189.0 0.00529 157.99399 157.99399
143.0 0.00699 157.86678 157.86678
123.0 0.00813 157.73975 157.73975
138.0 0.00725 157.61301 157.61301
138.0 0.00725 157.48639 157.48639
146.0 0.00685 157.35999 157.35999
137.0 0.00730 157.23375 157.23375
137.0 0.00730 157.10776 157.10776
143.0 0.00699 156.98190 156.98190
127.0 0.00787 156.85629 156.85629
144.0 0.00694 156.73079 156.73079
156.0 0.00641 156.60551 156.60551
133.0 0.00752 156.48038 156.48038
163.0 0.00613 156.35545 156.35545
155.0 0.00645 156.23070 156.23070
150.0 0.00667 156.10606 156.10606
167.0 0.00599 155.98161 155.98161
156.0 0.00641 155.85733 155.85733
138.0 0.00725 155.73318 155.73318
149.0 0.00671 155.60924 155.60924
137.0 0.00730 155.48540 155.48540
135.0 0.00741 155.36172 155.36172
136.0 0.00735 155.23816 155.23816
132.0 0.00758 155.11479 155.11479
155.0 0.00645 154.99155 154.99155
153.0 0.00654 154.86844 154.86844
149.0 0.00671 154.74547 154.74547
126.0 0.00794 154.62259 154.62259
142.0 0.00704 154.49989 154.49989
122.0 0.00820 154.37730 154.37730
145.0 0.00690 154.25484 154.25484
136.0 0.00735 154.13248 154.13248
143.0 0.00699 154.01028 154.01028
140.0 0.00714 153.88815 153.88815
149.0 0.00671 153.76614 153.76614
131.0 0.00763 153.64427 153.64427
143.0 0.00699 153.52251 153.52251
154.0 0.00649 153.40082 153.40082
132.0 0.00758 153.27927 153.27927
139.0 0.00719 153.15782 153.15782
168.0 0.00595 153.03645 153.03645
150.0 0.00667 152.91519 152.91519
148.0 0.00676 152.79404 152.79404
134.0 0.00746 152.67297 152.67297
121.0 0.00826 152.55196 152.55196
148.0 0.00676 152.43106 152.43106
156.0 0.00641 152.31027 152.31027
123.0 0.00813 152.18953 152.18953
153.0 0.00654 152.06889 152.06889
123.0 0.00813 151.94833 151.94833
128.0 0.00781 151.82787 151.82787
117.0 0.00855 151.70743 151.70743
146.0 0.00685 151.58710 151.58710
132.0 0.00758 151.46686 151.46686
158.0 0.00633 151.34665 151.34665
146.0 0.00685 151.22652 151.22652
125.0 0.00800 151.10643 151.10643
144.0 0.00694 150.98647 150.98647
155.0 0.00645 150.86653 150.86653
130.0 0.00769 150.74666 150.74666
136.0 0.00735 150.62686 150.62686
129.0 0.00775 150.50711 150.50711
139.0 0.00719 150.38737 150.38737
144.0 0.00694 150.26775 150.26775
148.0 0.00676 150.14813 150.14813
122.0 0.00820 150.02859 150.02859
160.0 0.00625 149.90907 149.90907
131.0 0.00763 149.78961 149.78961
133.0 0.00752 149.67021 149.67021
131.0 0.00763 149.55083 149.55083
124.0 0.00806 149.43150 149.43150
137.0 0.00730 149.31221 149.31221
142.0 0.00704 149.19296 149.19296
133.0 0.00752 149.07378 149.07378
134.0 0.00746 148.95457 148.95457
129.0 0.00775 148.83543 148.83543
150.0 0.00667 148.71632 148.71632
145.0 0.00690 148.59724 148.59724
116.0 0.00862 148.47818 148.47818
133.0 0.00752 148.35915 148.35915
137.0 0.00730 148.24017 148.24017
130.0 0.00769 148.12117 148.12117
146.0 0.00685 148.00223 148.00223
132.0 0.00758 147.88329 147.88329
133.0 0.00752 147.76436 147.76436
120.0 0.00833 147.64549 147.64549
142.0 0.00704 147.52663 147.52663
136.0 0.00735 147.40776 147.40776
147.0 0.00680 147.28889 147.28889
145.0 0.00690 147.17007 147.17007
139.0 0.00719 147.05125 147.05125
129.0 0.00775 146.93248 146.93248
131.0 0.00763 146.81367 146.81367
122.0 0.00820 146.69489 146.69489
153.0 0.00654 146.57610 146.57610
129.0 0.00775 146.45735 146.45735
172.0 0.00581 146.33856 146.33856
171.0 0.00585 146.21980 146.21980
135.0 0.00741 146.10106 146.10106
145.0 0.00690 145.98232 145.98232
148.0 0.00676 145.86356 145.86356
147.0 0.00680 145.74478 145.74478
160.0 0.00625 145.62604 145.62604
169.0 0.00592 145.50731 145.50731
162.0 0.00617 145.38855 145.38855
175.0 0.00571 145.26979 145.26979
194.0 0.00515 145.15102 145.15102
192.0 0.00521 145.03230 145.03230
172.0 0.00581 144.91348 144.91348
170.0 0.00588 144.79471 144.79471
196.0 0.00510 144.67593 144.67593
173.0 0.00578 144.55714 144.55714
187.0 0.00535 144.43832 144.43832
199.0 0.00503 144.31952 144.31952
182.0 0.00549 144.20067 144.20067
200.0 0.00500 144.08188 144.08188
232.0 0.00431 143.96301 143.96301
197.0 0.00508 143.84413 143.84413
200.0 0.00500 143.72528 143.72528
183.0 0.00546 143.60638 143.60638
193.0 0.00518 143.48746 143.48746
193.0 0.00518 143.36853 143.36853
256.0 0.00391 143.24959 143.24959
209.0 0.00478 143.13065 143.13065
216.0 0.00463 143.01169 143.01169
231.0 0.00433 142.89267 142.89267
244.0 0.00410 142.77365 142.77365
212.0 0.00472 142.65463 142.65463
262.0 0.00382 142.53557 230.63379
274.0 0.00365 142.41650 245.03882
273.0 0.00366 142.29741 263.29050
319.0 0.003135 142.17830 340.30380
384.0 0.002604 142.05917 380.72906
456.0 0.002193 141.94000 436.16840
547.0 0.001828 141.82080 520.15118
692.0 0.001445 141.70160 670.71002
997.0 0.001003 141.58238 984.21838
1655.0 0.000604 141.46312 1648.47595
3010.0 0.0003322 141.34383 2905.82495
5429.0 0.0001842 141.22450 4907.86572
7428.0 0.0001346 141.10516 7311.08643
9314.0 0.0001074 140.98582 9237.93652
9938.0 0.0001006 140.86642 9680.77344
8871.0 0.0001127 140.74701 8850.59473
7021.0 0.0001424 140.62756 7223.16064
5068.0 0.0001973 140.50809 5184.99219
3475.0 0.0002878 140.38858 3395.76416
2216.0 0.000451 140.26906 2233.35327
1726.0 0.000579 140.14951 1747.53174
1915.0 0.000522 140.02992 1845.24353
2533.0 0.000395 139.91031 2364.49854
3068.0 0.0003259 139.79066 3043.63892
3403.0 0.0002939 139.67101 3479.85669
3321.0 0.0003011 139.55132 3430.13525
2963.0 0.0003375 139.43158 2943.98096
2259.0 0.000443 139.31181 2335.59741
1550.0 0.000645 139.19202 1646.00513
1017.0 0.000983 139.07217 1024.32263
704.0 0.001420 138.95235 646.88806
439.0 0.002278 138.83246 432.25815
389.0 0.002571 138.71254 323.15094
299.0 0.003344 138.59261 268.77063
264.0 0.00379 138.47264 238.80389
250.0 0.00400 138.35260 219.52344
253.0 0.00395 138.23256 205.63008
245.0 0.00408 138.11252 164.50525
191.0 0.00524 137.99239 160.20837
184.0 0.00543 137.87227 156.82016
205.0 0.00488 137.75209 137.75209
180.0 0.00556 137.63190 137.63190
177.0 0.00565 137.51169 137.51169
166.0 0.00602 137.39142 137.39142
177.0 0.00565 137.27113 137.27113
166.0 0.00602 137.15079 137.15079
162.0 0.00617 137.03044 137.03044
174.0 0.00575 136.91008 136.91008
156.0 0.00641 136.78964 136.83408
152.0 0.00658 136.66922 136.72099
165.0 0.00606 136.54874 136.60982
156.0 0.00641 136.42822 136.52777
185.0 0.00541 136.30769 136.42767
167.0 0.00599 136.18713 136.33511
167.0 0.00599 136.06653 136.25682
144.0 0.00694 135.94591 136.21184
145.0 0.00690 135.82526 136.24826
157.0 0.00637 135.70456 136.45972
169.0 0.00592 135.58385 136.96579
156.0 0.00641 135.46310 137.82153
149.0 0.00671 135.34232 138.87634
134.0 0.00746 135.22151 139.66112
151.0 0.00662 135.10068 139.71126
144.0 0.00694 134.97981 139.17464
146.0 0.00685 134.85893 138.28651
143.0 0.00699 134.73799 137.18105
151.0 0.00662 134.61705 136.15456
156.0 0.00641 134.49609 135.38687
147.0 0.00680 134.37508 134.88054
139.0 0.00719 134.25403 134.55940
110.0 0.00909 134.13300 134.34039
124.0 0.00806 134.01192 134.16803
144.0 0.00694 133.89079 134.01556
142.0 0.00704 133.76967 133.87254
126.0 0.00794 133.64850 133.68916
157.0 0.00637 133.52733 133.56137
137.0 0.00730 133.40611 133.43501
130.0 0.00769 133.28485 133.28485
138.0 0.00725 133.16359 133.16359
134.0 0.00746 133.04234 133.04234
135.0 0.00741 132.92102 132.92102
123.0 0.00813 132.79968 132.79968
134.0 0.00746 132.67834 132.67834
129.0 0.00775 132.55698 132.55698
149.0 0.00671 132.43556 132.43556
124.0 0.00806 132.31416 132.31416
122.0 0.00820 132.19272 132.19272
144.0 0.00694 132.07124 132.07124
136.0 0.00735 131.94978 131.94978
105.0 0.00952 131.82828 131.82828
112.0 0.00893 131.70679 131.70679
113.0 0.00885 131.58521 131.58521
130.0 0.00769 131.46368 131.46368
121.0 0.00826 131.34212 131.34212
128.0 0.00781 131.22052 131.22052
152.0 0.00658 131.09892 131.09892
125.0 0.00800 130.97729 130.97729
125.0 0.00800 130.85568 130.85568
111.0 0.00901 130.73402 130.73402
114.0 0.00877 130.61235 130.61235
118.0 0.00847 130.49068 130.49068
121.0 0.00826 130.36897 130.36897
120.0 0.00833 130.24728 130.24728
111.0 0.00901 130.12558 130.12558
121.0 0.00826 130.00385 130.00385
126.0 0.00794 129.88211 129.88211
118.0 0.00847 129.76036 129.76036
114.0 0.00877 129.63861 129.63861
112.0 0.00893 129.51685 129.51685
126.0 0.00794 129.39507 129.39507
134.0 0.00746 129.27328 129.27328
120.0 0.00833 129.15147 129.15147
112.0 0.00893 129.02968 129.02968
111.0 0.00901 128.90790 128.90790
133.0 0.00752 128.78607 128.78607
118.0 0.00847 128.66428 128.66428
100.0 0.01000 128.54243 128.54243
131.0 0.00763 128.42064 128.42064
97.0 0.01031 128.29881 128.29881
96.0 0.01042 128.17699 128.17699
108.0 0.00926 128.05515 128.05515
119.0 0.00840 127.93333 127.93333
109.0 0.00917 127.81150 127.81150
120.0 0.00833 127.68966 127.68966
111.0 0.00901 127.56786 127.56786
116.0 0.00862 127.44604 127.44604
109.0 0.00917 127.32422 127.32422
109.0 0.00917 127.20241 127.20241
110.0 0.00909 127.08057 127.08057
110.0 0.00909 126.95880 126.95880
123.0 0.00813 126.83699 126.83699
114.0 0.00877 126.71519 126.71519
122.0 0.00820 126.59339 126.59339
131.0 0.00763 126.47162 126.47162
120.0 0.00833 126.34985 126.34985
131.0 0.00763 126.22809 126.22809
108.0 0.00926 126.10634 126.10634
106.0 0.00943 125.98460 125.98460
134.0 0.00746 125.86288 125.86288
120.0 0.00833 125.74116 125.74116
149.0 0.00671 125.61946 125.61946
142.0 0.00704 125.49777 125.49777
148.0 0.00676 125.37612 125.37612
168.0 0.00595 125.25445 125.25445
123.0 0.00813 125.13281 125.13281
117.0 0.00855 125.01118 125.01118
148.0 0.00676 124.88960 124.88960
131.0 0.00763 124.76801 124.76801
147.0 0.00680 124.64643 124.64643
162.0 0.00617 124.52489 124.52489
157.0 0.00637 124.40337 124.40337
157.0 0.00637 124.28187 124.28187
164.0 0.00610 124.16039 124.16039
143.0 0.00699 124.03894 124.03894
140.0 0.00714 123.91753 123.91753
139.0 0.00719 123.79612 123.79612
138.0 0.00725 123.67474 123.67474
160.0 0.00625 123.55340 123.55340
148.0 0.00676 123.43208 123.43208
139.0 0.00719 123.31079 123.31079
156.0 0.00641 123.18953 123.18953
174.0 0.00575 123.06832 123.06832
170.0 0.00588 122.94711 122.94711
175.0 0.00571 122.82595 122.82595
180.0 0.00556 122.70482 122.70482
155.0 0.00645 122.58372 122.58372
183.0 0.00546 122.46268 122.46268
164.0 0.00610 122.34164 122.34164
195.0 0.00513 122.22067 122.22067
184.0 0.00543 122.09971 175.67590
209.0 0.00478 121.97881 184.77022
223.0 0.00448 121.85795 196.41901
220.0 0.00455 121.73711 242.13132
300.0 0.003333 121.61632 267.98218
300.0 0.003333 121.49557 304.48602
343.0 0.002915 121.37489 362.80933
437.0 0.002288 121.25423 473.84219
669.0 0.001495 121.13361 709.41199
1117.0 0.000895 121.01308 1225.16064
2080.0 0.000481 120.89255 2071.08398
3230.0 0.0003096 120.77207 3254.97949
4270.0 0.0002342 120.65167 4472.25342
5048.0 0.0001981 120.53129 5071.78857
5170.0 0.0001934 120.41098 4906.66797
4365.0 0.0002291 120.29072 4394.28857
3584.0 0.0002790 120.17051 3661.34204
2807.0 0.000356 120.05034 2809.91626
2288.0 0.000437 119.93024 2201.65723
2212.0 0.000452 119.81019 2078.11426
2574.0 0.000389 119.69019 2450.72998
3113.0 0.0003212 119.57027 3099.24121
3510.0 0.0002849 119.45039 3541.11011
3771.0 0.0002652 119.33057 3484.15381
3306.0 0.0003025 119.21084 3144.88062
2552.0 0.000392 119.09114 2653.86621
2006.0 0.000499 118.97151 1963.68909
1430.0 0.000699 118.85194 1344.40198
948.0 0.001055 118.73244 888.67712
602.0 0.001661 118.61299 599.36591
501.0 0.001996 118.49363 509.61023
533.0 0.001876 118.37432 557.69714
673.0 0.001486 118.25509 720.71667
861.0 0.001161 118.13593 956.06110
1032.0 0.000969 118.01682 1161.22839
1111.0 0.000900 117.89780 1176.81799
1040.0 0.000962 117.77886 1098.34241
907.0 0.001103 117.65997 967.32391
745.0 0.001342 117.54116 765.00287
541.0 0.001848 117.42245 560.03125
454.0 0.002203 117.30378 388.96860
311.0 0.003215 117.18522 274.42465
241.0 0.00415 117.06670 209.51006
212.0 0.00472 116.94830 176.55473
185.0 0.00541 116.82996 159.85081
160.0 0.00625 116.71170 150.30138
143.0 0.00699 116.59351 143.94139
170.0 0.00588 116.47542 127.64039
179.0 0.00559 116.35741 125.61694
137.0 0.00730 116.23949 124.03883
156.0 0.00641 116.12166 122.77742
117.0 0.00855 116.00391 116.00391
147.0 0.00680 115.88624 115.88624
120.0 0.00833 115.76867 115.76867
125.0 0.00800 115.65118 115.65118
145.0 0.00690 115.53379 115.53379
100.0 0.01000 115.41650 115.41650
128.0 0.00781 115.29927 115.29927
118.0 0.00847 115.18217 115.18217
118.0 0.00847 115.06514 115.06514
126.0 0.00794 114.94822 114.94822
126.0 0.00794 114.83141 114.83141
102.0 0.00980 114.71467 114.71467
112.0 0.00893 114.59801 114.59801
117.0 0.00855 114.48151 114.48151
119.0 0.00840 114.36509 114.36509
138.0 0.00725 114.24873 114.24873
119.0 0.00840 114.13254 114.13254
141.0 0.00709 114.01640 114.01640
127.0 0.00787 113.90039 113.90039
120.0 0.00833 113.78448 113.78448
125.0 0.00800 113.66868 113.66868
111.0 0.00901 113.55298 113.55298
114.0 0.00877 113.43740 113.43740
110.0 0.00909 113.32192 113.32192
113.0 0.00885 113.20656 113.20656
91.0 0.01099 113.09129 113.09129
117.0 0.00855 112.97617 112.97617
100.0 0.01000 112.86115 112.86115
88.0 0.01136 112.74622 112.74622
116.0 0.00862 112.63142 112.63142
121.0 0.00826 112.51675 112.51675
120.0 0.00833 112.40218 112.40218
99.0 0.01010 112.28772 112.28772
111.0 0.00901 112.17340 112.17340
128.0 0.00781 112.05921 112.05921
118.0 0.00847 111.94512 111.94512
119.0 0.00840 111.83117 111.83117
108.0 0.00926 111.71732 111.71732
133.0 0.00752 111.60363 111.60363
96.0 0.01042 111.49004 111.49004
121.0 0.00826 111.37657 111.37657
104.0 0.00962 111.26325 111.26325
97.0 0.01031 111.15003 111.15003
139.0 0.00719 111.03697 111.03697
120.0 0.00833 110.92403 110.92403
117.0 0.00855 110.81120 110.81120
124.0 0.00806 110.69855 110.69855
101.0 0.00990 110.58598 110.58598
118.0 0.00847 110.47359 110.47359
133.0 0.00752 110.36131 110.36131
101.0 0.00990 110.24916 110.24916
88.0 0.01136 110.13717 110.13717
110.0 0.00909 110.02530 110.02530
98.0 0.01020 109.91358 109.91358
124.0 0.00806 109.80199 109.80199
126.0 0.00794 109.69056 109.69056
115.0 0.00870 109.57926 109.57926
112.0 0.00893 109.46809 109.46809
112.0 0.00893 109.35708 109.35708
100.0 0.01000 109.24623 109.24623
118.0 0.00847 109.13550 109.13550
119.0 0.00840 109.02490 109.02490
108.0 0.00926 108.91448 108.91448
102.0 0.00980 108.80421 108.80421
109.0 0.00917 108.69408 108.69408
118.0 0.00847 108.58410 108.58410
121.0 0.00826 108.47426 108.47426
121.0 0.00826 108.36461 108.36461
115.0 0.00870 108.25508 108.25508
113.0 0.00885 108.14572 108.14572
120.0 0.00833 108.03650 108.03650
111.0 0.00901 107.92744 107.92744
116.0 0.00862 107.81855 107.81855
134.0 0.00746 107.70982 107.70982
127.0 0.00787 107.60123 107.60123
125.0 0.00800 107.49281 107.49281
134.0 0.00746 107.38457 107.38457
123.0 0.00813 107.27645 107.27645
132.0 0.00758 107.16852 107.16852
141.0 0.00709 107.06075 155.92218
150.0 0.00667 106.95316 164.20549
173.0 0.00578 106.84570 174.81093
181.0 0.00552 106.73843 215.08708
230.0 0.00435 106.63132 238.19914
266.0 0.00376 106.52439 270.60190
280.0 0.00357 106.41763 321.50488
390.0 0.002564 106.31101 416.25235
539.0 0.001855 106.20461 614.39996
980.0 0.001020 106.09834 1017.40967
1646.0 0.000608 105.99226 1724.56824
2595.0 0.000385 105.88635 2719.07349
3449.0 0.0002899 105.78060 3721.56909
4084.0 0.0002449 105.67506 4189.09619
4109.0 0.0002434 105.56968 3991.91406
3600.0 0.0002778 105.46445 3572.62964
3044.0 0.0003285 105.35942 3057.67749
2338.0 0.000428 105.25459 2335.29321
1589.0 0.000629 105.14992 1577.60608
1154.0 0.000867 105.04542 989.04626
701.0 0.001427 104.94111 617.22711
433.0 0.002309 104.83698 416.49237
349.0 0.002865 104.73306 316.17017
242.0 0.00413 104.62930 263.38474
204.0 0.00490 104.52571 231.18248
188.0 0.00532 104.42233 208.72855
135.0 0.00741 104.31914 147.78850
141.0 0.00709 104.21612 140.48376
153.0 0.00654 104.11330 134.81389
124.0 0.00806 104.01065 104.01065
122.0 0.00820 103.90821 103.90821
119.0 0.00840 103.80595 103.80595
150.0 0.00667 103.70390 103.70390
114.0 0.00877 103.60202 103.60202
118.0 0.00847 103.50035 103.50035
110.0 0.00909 103.39886 103.39886
126.0 0.00794 103.29758 103.29758
121.0 0.00826 103.19649 103.19649
117.0 0.00855 103.09559 103.09559
105.0 0.00952 102.99490 102.99490
115.0 0.00870 102.89439 102.89439
79.0 0.01266 102.79408 102.79408
94.0 0.01064 102.69400 102.69400
91.0 0.01099 102.59410 102.59410
96.0 0.01042 102.49439 102.49439
82.0 0.01220 102.39489 102.57138
99.0 0.01010 102.29559 102.50212
115.0 0.00870 102.19651 102.44131
103.0 0.00971 102.09763 102.48602
108.0 0.00926 101.99895 102.46939
103.0 0.00971 101.90046 102.48459
89.0 0.01124 101.80221 102.56102
97.0 0.01031 101.70415 102.78023
103.0 0.00971 101.60628 103.34168
117.0 0.00855 101.50866 104.60579
109.0 0.00917 101.41123 106.96262
93.0 0.01075 101.31400 110.42971
102.0 0.00980 101.21698 114.10086
76.0 0.01316 101.12020 115.97896
101.0 0.00990 101.02361 115.27488
102.0 0.00980 100.92724 113.66838
91.0 0.01099 100.83108 111.92516
93.0 0.01075 100.73515 109.45620
88.0 0.01136 100.63942 106.58554
99.0 0.01010 100.54390 104.17932
88.0 0.01136 100.44860 102.55568
81.0 0.01235 100.35352 101.61121
95.0 0.01053 100.25867 101.09030
96.0 0.01042 100.16404 100.77714
95.0 0.01053 100.06963 100.55408
108.0 0.00926 99.97542 100.37230
103.0 0.00971 99.88145 100.04860
97.0 0.01031 99.78770 99.92663
91.0 0.01099 99.69417 99.81139
88.0 0.01136 99.60086 99.60086
113.0 0.00885 99.50777 99.50777
74.0 0.01351 99.41492 99.41492
83.0 0.01205 99.32230 99.32230
96.0 0.01042 99.22988 99.22988
82.0 0.01220 99.13770 99.13770
97.0 0.01031 99.04575 99.04575
85.0 0.01176 98.95403 98.95403
107.0 0.00935 98.86252 98.86252
74.0 0.01351 98.77126 98.77126
82.0 0.01220 98.68024 98.68024
88.0 0.01136 98.58943 98.58943
69.0 0.01449 98.49886 98.49886
83.0 0.01205 98.40851 98.40851
97.0 0.01031 98.31840 98.31840
87.0 0.01149 98.22854 98.22854
83.0 0.01205 98.13889 98.13889
100.0 0.01000 98.04949 98.04949
83.0 0.01205 97.96030 97.96030
80.0 0.01250 97.87137 97.87137
87.0 0.01149 97.78267 97.78267
92.0 0.01087 97.69421 97.69421
91.0 0.01099 97.60600 97.60600
89.0 0.01124 97.51799 97.51799
85.0 0.01176 97.43025 97.43025
113.0 0.00885 97.34274 97.34274
81.0 0.01235 97.25546 97.25546
69.0 0.01449 97.16846 97.16846
85.0 0.01176 97.08165 97.08165
79.0 0.01266 96.99511 96.99511
92.0 0.01087 96.90879 96.90879
72.0 0.01389 96.82274 96.82274
83.0 0.01205 96.73692 96.73692
80.0 0.01250 96.65134 96.65134
85.0 0.01176 96.56602 96.56602
86.0 0.01163 96.48093 96.48093
82.0 0.01220 96.39607 96.39607
92.0 0.01087 96.31147 96.31147
94.0 0.01064 96.22713 96.22713
73.0 0.01370 96.14301 96.14301
90.0 0.01111 96.05917 96.05917
71.0 0.01408 95.97556 95.97556
95.0 0.01053 95.89221 95.89221
63.0 0.01587 95.80910 95.80910
87.0 0.01149 95.72623 95.72623
77.0 0.01299 95.64362 95.64362
85.0 0.01176 95.56126 95.56126
82.0 0.01220 95.47915 95.47915
75.0 0.01333 95.39729 95.39729
90.0 0.01111 95.31569 95.31569
78.0 0.01282 95.23432 95.23432
83.0 0.01205 95.15324 95.15324
82.0 0.01220 95.07239 95.07239
91.0 0.01099 94.99179 94.99179
87.0 0.01149 94.91143 94.91143
100.0 0.01000 94.83135 94.83135
87.0 0.01149 94.75153 94.75153
81.0 0.01235 94.67194 94.67194
81.0 0.01235 94.59264 94.59264
91.0 0.01099 94.51356 94.51356
86.0 0.01163 94.43475 94.43475
98.0 0.01020 94.35622 94.35622
105.0 0.00952 94.27792 94.27792
85.0 0.01176 94.19987 94.19987
85.0 0.01176 94.12209 94.12209
96.0 0.01042 94.04458 94.04458
86.0 0.01163 93.96733 93.96733
91.0 0.01099 93.89032 93.89032
110.0 0.00909 93.81358 93.81358
93.0 0.01075 93.73711 93.73711
106.0 0.00943 93.66088 93.66088
89.0 0.01124 93.58491 93.58491
96.0 0.01042 93.50922 93.50922
106.0 0.00943 93.43379 93.43379
106.0 0.00943 93.35862 93.35862
134.0 0.00746 93.28370 93.28370
99.0 0.01010 93.20904 93.20904
137.0 0.00730 93.13467 93.13467
111.0 0.00901 93.06055 93.06055
89.0 0.01124 92.98668 92.98668
106.0 0.00943 92.91310 92.91310
107.0 0.00935 92.83978 92.83978
99.0 0.01010 92.76670 92.76670
98.0 0.01020 92.69391 92.69391
109.0 0.00917 92.62138 92.62138
95.0 0.01053 92.54910 92.54910
111.0 0.00901 92.47709 92.47709
95.0 0.01053 92.40536 92.40536
119.0 0.00840 92.33389 92.33389
98.0 0.01020 92.26269 92.26269
107.0 0.00935 92.19176 92.19176
107.0 0.00935 92.12108 92.12108
110.0 0.00909 92.05067 92.05067
102.0 0.00980 91.98054 91.98054
118.0 0.00847 91.91068 91.91068
113.0 0.00885 91.84109 91.84109
103.0 0.00971 91.77175 91.77175
104.0 0.00962 91.70270 91.70270
118.0 0.00847 91.63391 91.63391
104.0 0.00962 91.56539 91.56539
114.0 0.00877 91.49715 91.49715
127.0 0.00787 91.42915 91.42915
98.0 0.01020 91.36144 91.36144
129.0 0.00775 91.29401 109.75816
117.0 0.00855 91.22682 112.70235
123.0 0.00813 91.15992 116.43593
150.0 0.00667 91.09330 121.25607
139.0 0.00719 91.02694 138.43201
177.0 0.00565 90.96085 148.93542
187.0 0.00535 90.89504 164.04562
191.0 0.00524 90.82950 188.85753
265.0 0.00377 90.76423 237.00282
339.0 0.002950 90.69923 338.00458
514.0 0.001946 90.63449 601.55029
831.0 0.001203 90.57004 936.19629
1246.0 0.000803 90.50587 1361.34631
1549.0 0.000646 90.44194 1711.91931
1790.0 0.000559 90.37831 1819.29053
1613.0 0.000620 90.31495 1698.90417
1490.0 0.000671 90.25185 1599.49817
1450.0 0.000690 90.18903 1542.30981
1392.0 0.000718 90.12648 1470.21594
1426.0 0.000701 90.06421 1524.68213
1875.0 0.000533 90.00220 1955.93494
3013.0 0.0003319 89.94049 2920.67603
4205.0 0.0002378 89.87904 4310.50244
5390.0 0.0001855 89.81785 5559.06152
5673.0 0.0001763 89.75695 5841.49756
5289.0 0.0001891 89.69631 5293.84375
4728.0 0.0002115 89.63596 4693.24805
4302.0 0.0002325 89.57587 4209.95605
3527.0 0.0002835 89.51608 3431.74072
2631.0 0.000380 89.45656 2419.83301
1780.0 0.000562 89.39729 1526.01257
1150.0 0.000870 89.33831 929.62646
752.0 0.001330 89.27958 593.62799
502.0 0.001992 89.22116 423.64133
365.0 0.002740 89.16299 336.00241
299.0 0.003344 89.10511 284.28476
257.0 0.00389 89.04750 249.05016
212.0 0.00472 88.99016 158.29745
189.0 0.00529 88.93311 146.50296
191.0 0.00524 88.87631 137.42802
159.0 0.00629 88.81980 88.81980
126.0 0.00794 88.76357 88.76357
122.0 0.00820 88.70759 88.70759
109.0 0.00917 88.65191 88.65191
135.0 0.00741 88.59650 88.59650
137.0 0.00730 88.54136 88.54136
114.0 0.00877 88.48651 88.48651
110.0 0.00909 88.43192 88.43192
111.0 0.00901 88.37759 88.37759
123.0 0.00813 88.32355 88.32355
112.0 0.00893 88.26979 88.26979
113.0 0.00885 88.21630 88.21630
99.0 0.01010 88.16308 88.16308
92.0 0.01087 88.11015 88.11015
92.0 0.01087 88.05748 88.05748
88.0 0.01136 88.00509 88.00509
78.0 0.01282 87.95296 87.95296
72.0 0.01389 87.90112 87.90112
108.0 0.00926 87.84957 87.84957
108.0 0.00926 87.79827 87.79827
111.0 0.00901 87.74724 87.74724
95.0 0.01053 87.69650 87.69650
89.0 0.01124 87.64602 87.64602
79.0 0.01266 87.59583 87.59583
92.0 0.01087 87.54590 87.54590
88.0 0.01136 87.49625 87.49625
93.0 0.01075 87.44687 87.44687
85.0 0.01176 87.39776 87.39776
100.0 0.01000 87.34892 87.34892
99.0 0.01010 87.30037 87.30037
109.0 0.00917 87.25209 87.25209
87.0 0.01149 87.20407 87.20407
93.0 0.01075 87.15635 87.15635
85.0 0.01176 87.10887 87.10887
102.0 0.00980 87.06168 87.06168
89.0 0.01124 87.01476 87.01476
94.0 0.01064 86.96811 86.96811
94.0 0.01064 86.92174 86.92174
95.0 0.01053 86.87563 86.87563
106.0 0.00943 86.82978 86.82978
101.0 0.00990 86.78423 86.78423
95.0 0.01053 86.73894 86.73894
80.0 0.01250 86.69392 86.69392
95.0 0.01053 86.64917 86.64917
80.0 0.01250 86.60469 86.60469
74.0 0.01351 86.56047 86.56047
107.0 0.00935 86.51653 86.51653
95.0 0.01053 86.47289 86.47289
71.0 0.01408 86.42948 86.42948
78.0 0.01282 86.38634 86.38634
75.0 0.01333 86.34348 86.34348
82.0 0.01220 86.30090 86.30090
95.0 0.01053 86.25858 86.25858
89.0 0.01124 86.21651 86.21651
81.0 0.01235 86.17475 86.17475
66.0 0.01515 86.13323 86.13323
77.0 0.01299 86.09198 86.09198
84.0 0.01190 86.05099 86.05099
78.0 0.01282 86.01028 86.01028
82.0 0.01220 85.96985 85.96985
68.0 0.01471 85.92966 86.46225
100.0 0.01000 85.88976 86.50912
73.0 0.01370 85.85010 86.57893
81.0 0.01235 85.81074 86.68029
90.0 0.01111 85.77162 87.12625
87.0 0.01149 85.73277 87.38847
78.0 0.01282 85.69419 87.78139
80.0 0.01250 85.65588 93.39606
80.0 0.01250 85.61781 95.51243
87.0 0.01149 85.58005 99.30069
98.0 0.01020 85.54250 106.04129
105.0 0.00952 85.50526 119.45168
124.0 0.00806 85.46825 133.54198
154.0 0.00649 85.43152 146.53152
142.0 0.00704 85.39506 153.70653
154.0 0.00649 85.35883 160.74933
143.0 0.00699 85.32290 181.27132
212.0 0.00472 85.28719 227.20547
304.0 0.003289 85.25178 303.53021
433.0 0.002309 85.21660 402.05942
476.0 0.002101 85.18172 485.23279
512.0 0.001953 85.14707 496.32019
511.0 0.001957 85.11270 449.58731
390.0 0.002564 85.07856 406.40872
397.0 0.002519 85.04470 379.74112
329.0 0.003040 85.01109 336.90903
284.0 0.00352 84.97777 268.41565
199.0 0.00503 84.94467 202.40062
155.0 0.00645 84.91184 154.67548
115.0 0.00870 84.87926 126.47957
93.0 0.01075 84.84693 111.86048
96.0 0.01042 84.81488 104.09653
104.0 0.00962 84.78306 99.85181
103.0 0.00971 84.75153 97.03255
90.0 0.01111 84.72022 90.14750
85.0 0.01176 84.68919 89.17945
104.0 0.00962 84.65839 88.43276
84.0 0.01190 84.62787 87.84316
93.0 0.01075 84.59758 84.59758
77.0 0.01299 84.56757 84.56757
71.0 0.01408 84.53779 84.53779
79.0 0.01266 84.50827 84.50827
95.0 0.01053 84.47900 84.47900
79.0 0.01266 84.44999 84.44999
84.0 0.01190 84.42121 84.42121
84.0 0.01190 84.39270 84.39270
82.0 0.01220 84.36442 84.36442
91.0 0.01099 84.33640 84.33640
71.0 0.01408 84.30864 84.30864
85.0 0.01176 84.28111 84.28111
91.0 0.01099 84.25385 84.25385
90.0 0.01111 84.22681 84.22681
85.0 0.01176 84.20003 84.20003
69.0 0.01449 84.17349 84.17349
80.0 0.01250 84.14721 84.14721
81.0 0.01235 84.12116 84.12116
78.0 0.01282 84.09538 84.09538
90.0 0.01111 84.06980 84.06980
78.0 0.01282 84.04449 84.04449
88.0 0.01136 84.01943 84.01943
65.0 0.01538 83.99461 83.99461
86.0 0.01163 83.97002 83.97002
71.0 0.01408 83.94567 83.94567
80.0 0.01250 83.92157 83.92157
93.0 0.01075 83.89772 83.89772
84.0 0.01190 83.87411 83.87411
87.0 0.01149 83.85072 83.85072
79.0 0.01266 83.82758 83.82758
72.0 0.01389 83.80466 83.80466
94.0 0.01064 83.78200 83.78200
83.0 0.01205 83.75957 83.75957
78.0 0.01282 83.73737 83.73737
78.0 0.01282 83.71542 83.71542
88.0 0.01136 83.69369 83.69369
84.0 0.01190 83.67220 83.67220
74.0 0.01351 83.65095 83.65095
94.0 0.01064 83.62992 83.62992
103.0 0.00971 83.60914 83.60914
91.0 0.01099 83.58858 83.58858
88.0 0.01136 83.56826 83.56826
86.0 0.01163 83.54817 83.54817
91.0 0.01099 83.52831 83.52831
89.0 0.01124 83.50868 83.50868
103.0 0.00971 83.48928 83.48928
95.0 0.01053 83.47011 116.51520
109.0 0.00917 83.45116 122.22720
124.0 0.00806 83.43244 129.54205
140.0 0.00714 83.41395 139.11520
147.0 0.00680 83.39568 170.02562
188.0 0.00532 83.37764 191.65028
208.0 0.00481 83.35983 225.75470
259.0 0.00386 83.34224 289.04959
369.0 0.002710 83.32487 419.43112
590.0 0.001695 83.30772 678.20984
1038.0 0.000963 83.29081 1118.52258
1634.0 0.000612 83.27410 1711.34814
2274.0 0.000440 83.25761 2251.03882
2564.0 0.000390 83.24136 2390.88403
2434.0 0.000411 83.22533 2142.08691
2023.0 0.000494 83.20951 1877.16162
1731.0 0.000578 83.19391 1746.04248
1588.0 0.000630 83.17851 1588.72974
1388.0 0.000720 83.16335 1255.97021
896.0 0.001116 83.14840 868.44220
588.0 0.001701 83.13364 559.63440
390.0 0.002564 83.11913 364.35379
255.0 0.00392 83.10482 259.21658
177.0 0.00565 83.09072 206.02361
153.0 0.00654 83.07684 177.11713
159.0 0.00629 83.06318 158.88138
99.0 0.01010 83.04971 117.11184
108.0 0.00926 83.03646 111.04729
117.0 0.00855 83.02342 106.45264
102.0 0.00980 83.01058 102.88557
98.0 0.01020 82.99797 82.99797
109.0 0.00917 82.98555 82.98555
93.0 0.01075 82.97336 82.97336
75.0 0.01333 82.96133 82.96133
83.0 0.01205 82.94954 82.94954
95.0 0.01053 82.93795 82.93795
83.0 0.01205 82.92657 82.92657
95.0 0.01053 82.91537 82.91537
97.0 0.01031 82.90440 82.90440
76.0 0.01316 82.89360 82.89360
88.0 0.01136 82.88303 82.88303
85.0 0.01176 82.87265 82.87265
68.0 0.01471 82.86246 82.86246
90.0 0.01111 82.85249 82.85249
76.0 0.01316 82.84271 82.84271
82.0 0.01220 82.83311 82.83311
73.0 0.01370 82.82372 82.82372
83.0 0.01205 82.81454 82.81454
85.0 0.01176 82.80553 82.80553
71.0 0.01408 82.79672 82.79672
86.0 0.01163 82.78811 82.78811
87.0 0.01149 82.77968 82.77968
83.0 0.01205 82.77144 82.77144
95.0 0.01053 82.76340 82.76340
84.0 0.01190 82.75555 82.75555
88.0 0.01136 82.74789 82.74789
96.0 0.01042 82.74041 82.74041
88.0 0.01136 82.73312 82.73312
92.0 0.01087 82.72604 82.72604
90.0 0.01111 82.71912 82.71912
95.0 0.01053 82.71239 82.71239
105.0 0.00952 82.70584 82.70584
91.0 0.01099 82.69949 82.69949
89.0 0.01124 82.69330 82.69330
70.0 0.01429 82.68731 82.68731
75.0 0.01333 82.68149 82.68149
93.0 0.01075 82.67585 82.67585
90.0 0.01111 82.67038 82.67038
89.0 0.01124 82.66512 82.66512
87.0 0.01149 82.66000 82.66000
89.0 0.01124 82.65509 82.65509
69.0 0.01449 82.65034 82.65034
76.0 0.01316 82.64576 82.64576
77.0 0.01299 82.64137 82.64137
69.0 0.01449 82.63713 82.63713
92.0 0.01087 82.63307 82.63307
86.0 0.01163 82.62920 82.62920
73.0 0.01370 82.62548 82.62548
77.0 0.01299 82.62194 82.62194
59.0 0.01695 82.61857 82.61857
68.0 0.01471 82.61536 82.61536
87.0 0.01149 82.61232 82.61232
77.0 0.01299 82.60945 82.60945
59.0 0.01695 82.60675 82.60675
83.0 0.01205 82.60419 82.60419
95.0 0.01053 82.60182 82.60182
78.0 0.01282 82.59960 82.59960
93.0 0.01075 82.59755 82.59755
85.0 0.01176 82.59566 82.59566
90.0 0.01111 82.59393 82.59393
94.0 0.01064 82.59235 82.59235
71.0 0.01408 82.59093 82.59093
97.0 0.01031 82.58967 82.58967
87.0 0.01149 82.58858 82.58858
71.0 0.01408 82.58762 82.58762
97.0 0.01031 82.58684 82.58684
74.0 0.01351 82.58620 82.58620
74.0 0.01351 82.58572 82.58572
81.0 0.01235 82.58539 82.58539
87.0 0.01149 82.58519 82.58519
83.0 0.01205 82.58517 82.58517
86.0 0.01163 82.58528 82.58528
72.0 0.01389 82.58555 82.58555
91.0 0.01099 82.58596 82.58596
96.0 0.01042 82.58652 82.58652
78.0 0.01282 82.58722 82.58722
83.0 0.01205 82.58807 114.60896
98.0 0.01020 82.58907 119.95650
119.0 0.00840 82.59020 126.73962
142.0 0.00704 82.59148 135.51563
165.0 0.00606 82.59290 147.17401
156.0 0.00641 82.59447 182.80026
181.0 0.00552 82.59615 210.94597
186.0 0.00538 82.59799 259.50827
265.0 0.00377 82.59997 355.65009
449.0 0.002227 82.60207 550.01691
880.0 0.001136 82.60431 902.49658
1430.0 0.000699 82.60669 1428.13904
2154.0 0.000464 82.60921 2012.18726
2445.0 0.000409 82.61185 2345.75269
2265.0 0.000442 82.61464 2214.49121
2021.0 0.000495 82.61753 1899.09705
1831.0 0.000546 82.62057 1706.90967
1649.0 0.000606 82.62373 1639.13904
1465.0 0.000683 82.62703 1475.54150
1196.0 0.000836 82.63046 1138.19177
781.0 0.001280 82.63399 777.23718
545.0 0.001835 82.63766 503.77219
384.0 0.002604 82.64146 336.46295
282.0 0.00355 82.64537 247.78841
228.0 0.00439 82.64941 203.71468
194.0 0.00515 82.65356 179.24615
147.0 0.00680 82.65784 132.74034
142.0 0.00704 82.66223 129.19016
142.0 0.00704 82.66675 132.23381
146.0 0.00685 82.67138 144.41290
194.0 0.00515 82.67613 167.00281
201.0 0.00498 82.68098 178.56381
217.0 0.00461 82.68597 200.92859
204.0 0.00490 82.69106 198.87482
206.0 0.00485 82.69627 182.15956
188.0 0.00532 82.70158 169.67461
160.0 0.00625 82.70701 165.60971
151.0 0.00662 82.71254 159.88954
138.0 0.00725 82.71819 144.10599
137.0 0.00730 82.72392 124.50037
121.0 0.00826 82.72977 108.42405
99.0 0.01010 82.73574 98.03577
91.0 0.01099 82.74180 92.33764
92.0 0.01087 82.74796 89.42498
76.0 0.01316 82.75423 87.84760
73.0 0.01370 82.76060 85.10759
80.0 0.01250 82.76707 84.65225
90.0 0.01111 82.77364 84.32356
104.0 0.00962 82.78030 84.07657
93.0 0.01075 82.78707 83.88659
89.0 0.01124 82.79393 82.79393
88.0 0.01136 82.80090 82.80090
89.0 0.01124 82.80795 82.80795
97.0 0.01031 82.81509 82.81509
128.0 0.00781 82.82233 82.82233
92.0 0.01087 82.82964 82.82964
120.0 0.00833 82.83706 82.83706
107.0 0.00935 82.84457 107.06861
121.0 0.00826 82.85216 111.25476
129.0 0.00775 82.85983 116.60236
130.0 0.00769 82.86762 123.58478
158.0 0.00633 82.87547 145.35182
145.0 0.00690 82.88341 160.88239
169.0 0.00592 82.89143 185.36456
194.0 0.00515 82.89954 230.45029
275.0 0.00364 82.90771 321.77942
441.0 0.002268 82.91598 499.79330
812.0 0.001232 82.92432 798.81458
1210.0 0.000826 82.93275 1199.26306
1572.0 0.000636 82.94123 1565.09778
1643.0 0.000609 82.94982 1659.24731
1416.0 0.000706 82.95846 1471.67993
1334.0 0.000750 82.96718 1262.48975
1115.0 0.000897 82.97599 1174.50232
1106.0 0.000904 82.98484 1141.59045
947.0 0.001056 82.99378 1002.13983
744.0 0.001344 83.00279 754.94360
542.0 0.001845 83.01186 514.97687
373.0 0.002681 83.02103 342.63290
246.0 0.00407 83.03023 240.73714
213.0 0.00469 83.03952 187.41257
174.0 0.00575 83.04885 159.69769
146.0 0.00685 83.05827 143.61214
140.0 0.00714 83.06774 111.57699
113.0 0.00885 83.07728 106.58193
136.0 0.00735 83.08687 103.04550
118.0 0.00847 83.09652 100.71091
113.0 0.00885 83.10622 99.62724
112.0 0.00893 83.11600 88.25097
120.0 0.00833 83.12583 91.43333
102.0 0.00980 83.13570 94.85841
96.0 0.01042 83.14565 96.65290
108.0 0.00926 83.15563 95.68778
106.0 0.00943 83.16568 93.72943
108.0 0.00926 83.17578 92.58560
92.0 0.01087 83.18593 92.32835
134.0 0.00746 83.19612 91.66931
97.0 0.01031 83.20636 89.85910
88.0 0.01136 83.21666 87.71235
108.0 0.00926 83.22699 85.99303
95.0 0.01053 83.23737 84.89805
93.0 0.01075 83.24780 84.30306
96.0 0.01042 83.25828 84.00111
102.0 0.00980 83.26878 83.83950
115.0 0.00870 83.27934 83.54498
106.0 0.00943 83.28994 83.50400
110.0 0.00909 83.30058 83.91364
98.0 0.01020 83.31125 83.96812
115.0 0.00870 83.32195 84.04828
117.0 0.00855 83.33270 84.05180
102.0 0.00980 83.34348 84.21955
99.0 0.01010 83.35431 84.70151
92.0 0.01087 83.36515 85.08681
104.0 0.00962 83.37604 85.73951
101.0 0.00990 83.38696 87.00584
108.0 0.00926 83.39790 89.52397
108.0 0.00926 83.40887 94.05027
88.0 0.01136 83.41986 100.80126
105.0 0.00952 83.43090 108.40582
117.0 0.00855 83.44195 113.00665
115.0 0.00870 83.45303 111.48686
109.0 0.00917 83.46413 107.08907
138.0 0.00725 83.47526 104.17510
112.0 0.00893 83.48640 103.50867
144.0 0.00694 83.49758 155.07932
156.0 0.00641 83.50877 160.08690
156.0 0.00641 83.51998 166.05292
212.0 0.00472 83.53120 201.66478
246.0 0.00407 83.54246 221.19418
272.0 0.00368 83.55371 279.75858
328.0 0.003049 83.56499 326.85132
414.0 0.002415 83.57628 402.52972
504.0 0.001984 83.58758 556.26117
736.0 0.001359 83.59891 833.29486
1339.0 0.000747 83.61023 1349.81030
2282.0 0.000438 83.62156 2184.08594
3446.0 0.0002902 83.63291 3276.05322
4354.0 0.0002297 83.64426 4282.03662
4974.0 0.0002010 83.65562 4707.22998
4865.0 0.0002055 83.66699 4661.43799
4560.0 0.0002193 83.67835 4559.61816
4289.0 0.0002332 83.68974 4403.15576
3908.0 0.0002559 83.70112 4092.90186
3559.0 0.0002810 83.71249 3552.11938
2970.0 0.0003367 83.72386 2908.71484
2355.0 0.000425 83.73525 2327.50952
1709.0 0.000585 83.74664 1761.32007
1250.0 0.000800 83.75801 1233.59839
851.0 0.001175 83.76939 830.15326
707.0 0.001414 83.78075 565.73126
496.0 0.002016 83.79213 410.22974
395.0 0.002532 83.80349 272.37262
272.0 0.00368 83.81483 227.83818
237.0 0.00422 83.82618 199.81828
190.0 0.00526 83.83752 155.36453
168.0 0.00595 83.84885 110.70615
167.0 0.00599 83.86016 106.17855
135.0 0.00741 83.87148 102.70123
156.0 0.00641 83.88276 99.97398
129.0 0.00775 83.89403 83.89403
121.0 0.00826 83.90530 83.90530
111.0 0.00901 83.91654 83.91654
113.0 0.00885 83.92777 83.92777
125.0 0.00800 83.93898 83.93898
117.0 0.00855 83.95018 83.95018
107.0 0.00935 83.96136 83.96136
96.0 0.01042 83.97250 83.97250
106.0 0.00943 83.98363 83.98363
109.0 0.00917 83.99474 83.99474
73.0 0.01370 84.00584 84.00584
93.0 0.01075 84.01689 84.01689
76.0 0.01316 84.02794 84.02794
83.0 0.01205 84.03894 84.03894
83.0 0.01205 84.04992 84.04992
79.0 0.01266 84.06086 84.06086
91.0 0.01099 84.07179 84.07179
94.0 0.01064 84.08268 84.08268
86.0 0.01163 84.09355 84.09355
83.0 0.01205 84.10437 84.10437
89.0 0.01124 84.11518 84.11518
87.0 0.01149 84.12594 85.88270
63.0 0.01587 84.13666 86.17637
84.0 0.01190 84.14735 86.54308
109.0 0.00917 84.15802 87.00997
85.0 0.01176 84.16862 87.61913
88.0 0.01136 84.17921 89.43403
79.0 0.01266 84.18975 90.80268
86.0 0.01163 84.20025 93.03050
96.0 0.01042 84.21070 97.21556
107.0 0.00935 84.22112 105.54952
88.0 0.01136 84.23149 121.06213
138.0 0.00725 84.24181 145.65991
161.0 0.00621 84.25210 176.44893
186.0 0.00538 84.26232 201.32558
160.0 0.00625 84.27251 203.38945
165.0 0.00606 84.28265 186.50314
167.0 0.00599 84.29274 170.41205
141.0 0.00709 84.30279 164.59917
165.0 0.00606 84.31277 164.37766
148.0 0.00676 84.32272 157.11346
152.0 0.00658 84.33260 139.96846
116.0 0.00862 84.34243 121.40473
105.0 0.00952 84.35220 107.13357
75.0 0.01333 84.36193 98.22215
107.0 0.00935 84.37160 93.37519
86.0 0.01163 84.38121 90.84538
103.0 0.00971 84.39073 89.41937
76.0 0.01316 84.40023 86.77988
79.0 0.01266 84.40967 86.33848
90.0 0.01111 84.41903 86.01569
74.0 0.01351 84.42834 85.77124
72.0 0.01389 84.43758 85.58212
85.0 0.01176 84.44678 87.00662
78.0 0.01282 84.45588 87.44365
72.0 0.01389 84.46494 87.99560
80.0 0.01250 84.47393 88.70740
64.0 0.01563 84.48286 89.65250
76.0 0.01316 84.49171 92.39679
75.0 0.01333 84.50049 94.68903
88.0 0.01136 84.50920 98.71588
97.0 0.01031 84.51785 106.65736
103.0 0.00971 84.52640 122.26559
144.0 0.00694 84.53491 149.51511
180.0 0.00556 84.54334 188.62076
248.0 0.00403 84.55169 230.17155
246.0 0.00407 84.55997 251.41533
256.0 0.00391 84.56818 238.36304
239.0 0.00418 84.57629 211.97574
181.0 0.00552 84.58434 195.57703
209.0 0.00478 84.59232 193.31160
181.0 0.00552 84.60020 192.05486
156.0 0.00641 84.60802 176.41019
141.0 0.00709 84.61575 150.78674
109.0 0.00917 84.62341 126.99617
107.0 0.00935 84.63097 110.24440
72.0 0.01389 84.63845 100.42957
85.0 0.01176 84.64586 95.26643
90.0 0.01111 84.65318 92.53824
95.0 0.01053 84.66041 88.40136
73.0 0.01370 84.66753 87.64365
84.0 0.01190 84.67460 87.10860
67.0 0.01493 84.68156 86.70954
68.0 0.01471 84.68844 86.40321
86.0 0.01163 84.69524 84.69524
77.0 0.01299 84.70193 84.70193
59.0 0.01695 84.70854 84.70854
80.0 0.01250 84.71506 84.71506
59.0 0.01695 84.72148 84.72148
87.0 0.01149 84.72781 84.72781
70.0 0.01429 84.73404 84.73404
82.0 0.01220 84.74018 84.74018
88.0 0.01136 84.74622 84.74622
72.0 0.01389 84.75218 84.75218
66.0 0.01515 84.75803 84.75803
76.0 0.01316 84.76378 84.76378
73.0 0.01370 84.76943 84.76943
77.0 0.01299 84.77498 84.77498
68.0 0.01471 84.78043 84.78043
90.0 0.01111 84.78578 84.78578
96.0 0.01042 84.79102 84.79102
76.0 0.01316 84.79617 84.79617
75.0 0.01333 84.80122 84.80122
84.0 0.01190 84.80614 84.80614
66.0 0.01515 84.81099 84.81099
72.0 0.01389 84.81570 84.81570
75.0 0.01333 84.82033 84.82033
68.0 0.01471 84.82485 84.82485
66.0 0.01515 84.82925 84.98019
73.0 0.01370 84.83354 85.01003
63.0 0.01587 84.83772 85.04671
75.0 0.01333 84.84180 85.09303
78.0 0.01282 84.84578 85.15372
69.0 0.01449 84.84962 85.32049
78.0 0.01282 84.85336 85.46800
67.0 0.01493 84.85698 85.73151
79.0 0.01266 84.86050 86.24786
81.0 0.01235 84.86391 87.23044
89.0 0.01124 84.86719 88.86871
73.0 0.01370 84.87035 91.09566
80.0 0.01250 84.87341 93.27007
72.0 0.01389 84.87634 94.10175
77.0 0.01299 84.87916 93.13815
83.0 0.01205 84.88184 91.68772
82.0 0.01220 84.88444 90.88213
56.0 0.01786 84.88688 90.83643
74.0 0.01351 84.88922 90.80050
73.0 0.01370 84.89144 89.96027
77.0 0.01299 84.89353 88.57102
80.0 0.01250 84.89550 87.27151
79.0 0.01266 84.89735 86.34680
64.0 0.01563 84.89907 85.79783
76.0 0.01316 84.90068 85.50563
72.0 0.01389 84.90215 85.35063
69.0 0.01449 84.90350 85.11794
75.0 0.01333 84.90471 85.07524
73.0 0.01370 84.90582 85.04533
90.0 0.01111 84.90679 85.02308
101.0 0.00990 84.90762 99.96995
89.0 0.01124 84.90832 102.38500
110.0 0.00909 84.90890 105.57635
92.0 0.01087 84.90935 109.71487
104.0 0.00962 84.90966 115.25552
114.0 0.00877 84.90987 131.16190
121.0 0.00826 84.90992 145.03647
131.0 0.00763 84.90984 169.83745
175.0 0.00571 84.90964 218.27782
285.0 0.00351 84.90928 310.34311
435.0 0.002299 84.90881 464.48029
717.0 0.001395 84.90819 676.56610
971.0 0.001030 84.90743 890.49335
952.0 0.001050 84.90656 985.52319
930.0 0.001075 84.90552 903.46155
750.0 0.001333 84.90436 759.98322
698.0 0.001433 84.90305 671.59235
643.0 0.001555 84.90163 660.77057
668.0 0.001497 84.90005 665.62994
600.0 0.001667 84.89833 599.87939
471.0 0.002123 84.89648 470.23685
329.0 0.003040 84.89446 339.70801
253.0 0.00395 84.89235 253.79466
218.0 0.00459 84.89005 195.51964
155.0 0.00645 84.88763 165.00644
150.0 0.00667 84.88506 150.52501
136.0 0.00735 84.88236 129.95465
136.0 0.00735 84.87951 130.57275
169.0 0.00592 84.87651 142.33661
158.0 0.00633 84.87337 154.75269
168.0 0.00595 84.87008 181.06467
224.0 0.00446 84.86664 226.47748
301.0 0.003322 84.86306 327.65500
505.0 0.001980 84.85934 484.14578
669.0 0.001495 84.85546 675.10443
869.0 0.001151 84.85143 824.06000
830.0 0.001205 84.84727 829.72095
761.0 0.001314 84.84294 717.12482
618.0 0.001618 84.83848 606.75958
540.0 0.001852 84.83385 568.88336
557.0 0.001795 84.82909 579.16089
588.0 0.001701 84.82417 569.08447
512.0 0.001953 84.81909 488.24399
316.0 0.003165 84.81387 374.30814
290.0 0.003448 84.80849 275.48218
216.0 0.00463 84.80296 217.14442
194.0 0.00515 84.79729 184.54533
154.0 0.00649 84.79144 177.21404
195.0 0.00513 84.78546 192.48166
263.0 0.00380 84.77931 222.26686
342.0 0.002924 84.77302 292.74042
407.0 0.002457 84.76657 383.98239
479.0 0.002088 84.75996 458.50391
452.0 0.002212 84.75319 474.54935
445.0 0.002247 84.74627 439.15216
435.0 0.002299 84.73920 427.06082
458.0 0.002183 84.73196 461.81812
627.0 0.001595 84.72456 525.83606
591.0 0.001692 84.71701 555.29395
481.0 0.002079 84.70930 502.41898
447.0 0.002237 84.70144 408.60089
366.0 0.002732 84.69341 331.86966
304.0 0.003289 84.68523 292.36276
287.0 0.003484 84.67687 276.88919
266.0 0.00376 84.66837 255.57442
237.0 0.00422 84.65970 217.69774
180.0 0.00556 84.65087 171.83592
149.0 0.00671 84.64189 140.51755
154.0 0.00649 84.63273 120.15118
97.0 0.01031 84.62342 108.52635
110.0 0.00909 84.61395 102.17440
110.0 0.00909 84.60429 91.19648
108.0 0.00926 84.59449 89.72975
114.0 0.00877 84.58453 88.73895
108.0 0.00926 84.57441 88.01146
91.0 0.01099 84.56411 87.45419
103.0 0.00971 84.55365 87.01635
96.0 0.01042 84.54304 84.54304
104.0 0.00962 84.53225 84.53225
108.0 0.00926 84.52130 84.52130
117.0 0.00855 84.51019 84.51019
106.0 0.00943 84.49890 84.49890
92.0 0.01087 84.48745 84.48745
95.0 0.01053 84.47584 84.47584
97.0 0.01031 84.46406 84.46406
110.0 0.00909 84.45211 84.45211
89.0 0.01124 84.43999 84.43999
115.0 0.00870 84.42772 84.42772
110.0 0.00909 84.41527 84.41527
102.0 0.00980 84.40264 84.40264
120.0 0.00833 84.38986 84.38986
115.0 0.00870 84.37690 84.37690
106.0 0.00943 84.36378 84.36378
143.0 0.00699 84.35049 84.35049
151.0 0.00662 84.33703 142.99655
149.0 0.00671 84.32340 152.90152
177.0 0.00565 84.30960 165.50374
206.0 0.00485 84.29563 181.90346
252.0 0.00397 84.28149 204.04591
232.0 0.00431 84.26719 266.41159
285.0 0.00351 84.25271 323.95859
362.0 0.002762 84.23805 430.26520
564.0 0.001773 84.22324 633.28461
898.0 0.001114 84.20825 1006.57111
1544.0 0.000648 84.19309 1605.53308
2622.0 0.000381 84.17775 2391.96826
3329.0 0.0003004 84.16225 3133.15503
3435.0 0.0002911 84.14658 3395.42310
2862.0 0.0003494 84.13073 3041.88965
2419.0 0.000413 84.11470 2512.48169
2253.0 0.000444 84.09853 2199.83936
2255.0 0.000443 84.08215 2182.61841
2379.0 0.000420 84.06561 2259.92212
2026.0 0.000494 84.04890 2109.22754
1585.0 0.000631 84.03204 1684.98755
1186.0 0.000843 84.01498 1198.34607
891.0 0.001122 83.99776 823.45752
694.0 0.001441 83.98035 568.89978
503.0 0.001988 83.96278 430.27942
405.0 0.002469 83.94503 363.01889
377.0 0.002653 83.92712 272.68832
312.0 0.003205 83.90903 265.81308
306.0 0.003268 83.89077 261.56857
344.0 0.002907 83.87232 282.20340
379.0 0.002639 83.85372 348.09445
433.0 0.002309 83.83494 484.29861
710.0 0.001408 83.81598 674.43579
1011.0 0.000989 83.79685 952.57617
1280.0 0.000781 83.77754 1185.20117
1337.0 0.000748 83.75806 1220.41992
1151.0 0.000869 83.73843 1064.75403
937.0 0.001067 83.71860 885.65692
819.0 0.001221 83.69859 795.67639
830.0 0.001205 83.67841 800.33063
857.0 0.001167 83.65807 816.68286
714.0 0.001401 83.63755 739.99396
571.0 0.001751 83.61685 581.25598
387.0 0.002584 83.59598 417.42026
245.0 0.00408 83.57493 292.06070
219.0 0.00457 83.55371 212.76674
189.0 0.00529 83.53233 168.56686
173.0 0.00578 83.51076 144.88893
148.0 0.00676 83.48902 113.60399
141.0 0.00709 83.46710 107.13995
121.0 0.00826 83.44503 102.49419
136.0 0.00735 83.42276 99.25151
127.0 0.00787 83.40033 96.75996
95.0 0.01053 83.37772 83.56892
117.0 0.00855 83.35494 83.51665
115.0 0.00870 83.33198 83.33198
81.0 0.01235 83.30885 83.30885
105.0 0.00952 83.28554 83.28554
95.0 0.01053 83.26205 83.26205
89.0 0.01124 83.23841 83.23841
107.0 0.00935 83.21458 83.21458
95.0 0.01053 83.19058 83.19058
99.0 0.01010 83.16640 83.16640
102.0 0.00980 83.14208 83.14208
100.0 0.01000 83.11755 83.11755
112.0 0.00893 83.09286 83.09286
102.0 0.00980 83.06800 83.06800
109.0 0.00917 83.04295 108.98288
133.0 0.00752 83.01776 111.78082
95.0 0.01053 82.99238 115.06195
117.0 0.00855 82.96682 118.94219
123.0 0.00813 82.94109 123.57402
143.0 0.00699 82.91519 129.16106
137.0 0.00730 82.88913 150.91383
163.0 0.00613 82.86288 160.98270
173.0 0.00578 82.83646 173.49002
209.0 0.00478 82.80988 189.30373
196.0 0.00510 82.78312 209.80171
223.0 0.00448 82.75619 237.56898
260.0 0.00385 82.72910 278.49158
328.0 0.003049 82.70182 346.95923
413.0 0.002421 82.67438 474.80728
675.0 0.001481 82.64676 717.87451
1155.0 0.000866 82.61898 1143.34473
2075.0 0.000482 82.59103 1782.47412
2894.0 0.0003455 82.56293 2553.58057
3340.0 0.0002994 82.53462 3172.75610
3074.0 0.0003253 82.50616 3244.92188
2588.0 0.000386 82.47752 2805.63647
2222.0 0.000450 82.44873 2307.11694
2196.0 0.000455 82.41975 2051.34717
2249.0 0.000445 82.39062 2061.98804
2110.0 0.000474 82.36131 2126.98584
1857.0 0.000539 82.33184 1956.21509
1463.0 0.000684 82.30219 1538.15869
1067.0 0.000937 82.27238 1080.17529
787.0 0.001271 82.24239 716.42365
624.0 0.001603 82.21226 478.21863
458.0 0.002183 82.18194 341.59781
328.0 0.003049 82.15147 267.54660
275.0 0.00364 82.12082 225.61865
211.0 0.00474 82.09000 198.96362
206.0 0.00485 82.05904 180.00909
178.0 0.00562 82.02789 165.57549
151.0 0.00662 81.99657 154.18416
163.0 0.00613 81.96510 144.99974
130.0 0.00769 81.93346 111.55929
119.0 0.00840 81.90166 107.73935
117.0 0.00855 81.86969 104.59580
122.0 0.00820 81.83756 101.97788
109.0 0.00917 81.80527 99.77429
104.0 0.00962 81.77283 97.90151
118.0 0.00847 81.74020 81.74020
133.0 0.00752 81.70741 81.70741
109.0 0.00917 81.67447 81.67447
103.0 0.00971 81.64136 81.64136
121.0 0.00826 81.60810 81.60810
117.0 0.00855 81.57468 81.61846
97.0 0.01031 81.54109 81.58971
79.0 0.01266 81.50734 81.56165
101.0 0.00990 81.47343 81.53446
122.0 0.00820 81.43935 81.50844
97.0 0.01031 81.40514 81.48395
82.0 0.01220 81.37074 81.48630
90.0 0.01111 81.33620 81.46928
96.0 0.01042 81.30151 81.45645
79.0 0.01266 81.26663 81.44938
93.0 0.01075 81.23162 81.45082
97.0 0.01031 81.19645 81.46622
101.0 0.00990 81.16112 81.50860
90.0 0.01111 81.12563 81.60913
81.0 0.01235 81.08999 81.83191
101.0 0.00990 81.05419 82.27720
99.0 0.01010 81.01825 83.04403
115.0 0.00870 80.98215 84.13729
95.0 0.01053 80.94588 85.33630
88.0 0.01136 80.90946 86.08250
79.0 0.01266 80.87290 85.85488
102.0 0.00980 80.83619 100.33070
86.0 0.01163 80.79932 101.23670
87.0 0.01149 80.76228 102.88069
86.0 0.01163 80.72513 105.27908
94.0 0.01064 80.68779 108.12997
97.0 0.01031 80.65033 111.13215
97.0 0.01031 80.61271 123.17325
127.0 0.00787 80.57494 128.47385
141.0 0.00709 80.53703 135.42654
131.0 0.00763 80.49895 144.61472
150.0 0.00667 80.46074 156.90450
136.0 0.00735 80.42239 174.05908
192.0 0.00521 80.38388 200.34515
210.0 0.00476 80.34521 246.04485
314.0 0.003185 80.30643 332.48795
509.0 0.001965 80.26748 493.63416
852.0 0.001174 80.22839 764.38312
1284.0 0.000779 80.18916 1150.08203
1698.0 0.000589 80.14978 1582.45740
1877.0 0.000533 80.11025 1878.08679
1730.0 0.000578 80.07060 1842.68347
1435.0 0.000697 80.03080 1563.00879
1291.0 0.000775 79.99086 1290.39734
1207.0 0.000829 79.95078 1166.41125
1230.0 0.000813 79.91055 1188.54614
1207.0 0.000829 79.87019 1233.83582
1002.0 0.000998 79.82968 1143.74109
908.0 0.001101 79.78905 912.80414
681.0 0.001468 79.74828 655.46509
448.0 0.002232 79.70737 448.03152
346.0 0.002890 79.66631 310.20135
266.0 0.00376 79.62513 230.15141
205.0 0.00488 79.58380 186.51686
165.0 0.00606 79.54236 161.93190
180.0 0.00556 79.50076 146.47018
144.0 0.00694 79.45904 135.56348
108.0 0.00926 79.41719 127.28311
108.0 0.00926 79.37521 120.74858
109.0 0.00917 79.33308 115.47475
118.0 0.00847 79.29084 96.44305
98.0 0.01020 79.24846 94.20937
89.0 0.01124 79.20594 92.36650
87.0 0.01149 79.16331 90.82745
83.0 0.01205 79.12054 89.52793
75.0 0.01333 79.07765 88.41971
90.0 0.01111 79.03464 79.03464
91.0 0.01099 78.99149 78.99149
83.0 0.01205 78.94822 78.94822
91.0 0.01099 78.90482 78.90482
75.0 0.01333 78.86130 78.86130
70.0 0.01429 78.81766 78.81766
91.0 0.01099 78.77390 78.77390
86.0 0.01163 78.72999 78.72999
77.0 0.01299 78.68599 78.68599
89.0 0.01124 78.64187 78.64187
77.0 0.01299 78.59762 78.59762
84.0 0.01190 78.55324 78.55324
73.0 0.01370 78.50876 78.50876
109.0 0.00917 78.46415 78.46415
85.0 0.01176 78.41942 78.41942
88.0 0.01136 78.37459 78.37459
85.0 0.01176 78.32964 78.32964
69.0 0.01449 78.28458 78.28458
86.0 0.01163 78.23939 78.23939
84.0 0.01190 78.19409 78.19409
77.0 0.01299 78.14868 78.14868
84.0 0.01190 78.10316 85.72069
79.0 0.01266 78.05753 86.51191
90.0 0.01111 78.01178 87.44762
89.0 0.01124 77.96594 88.56284
84.0 0.01190 77.91998 89.90361
79.0 0.01266 77.87390 91.53168
91.0 0.01099 77.82774 97.74299
82.0 0.01220 77.78146 100.68617
97.0 0.01031 77.73506 104.36183
125.0 0.00800 77.68858 109.04226
118.0 0.00847 77.64197 115.19072
121.0 0.00826 77.59528 123.76036
132.0 0.00758 77.54848 137.00377
146.0 0.00685 77.50156 160.16434
201.0 0.00498 77.45457 203.68445
265.0 0.00377 77.40746 283.46841
389.0 0.002571 77.36026 414.93411
604.0 0.001656 77.31297 598.96918
874.0 0.001144 77.26555 802.36493
1010.0 0.000990 77.21805 940.03705
955.0 0.001047 77.17046 923.55579
838.0 0.001193 77.12278 791.23071
609.0 0.001642 77.07500 658.01392
519.0 0.001927 77.02712 592.20007
567.0 0.001764 76.97916 598.42487
565.0 0.001770 76.93110 626.90607
599.0 0.001669 76.88294 602.07318
496.0 0.002016 76.83470 504.12198
411.0 0.002433 76.78638 381.62180
270.0 0.00370 76.73795 276.26926
197.0 0.00508 76.68945 202.58186
184.0 0.00543 76.64086 158.07503
140.0 0.00714 76.59218 133.32289
124.0 0.00806 76.54341 119.56764
114.0 0.00877 76.49456 111.23763
112.0 0.00893 76.44564 105.58862
101.0 0.00990 76.39662 101.45393
96.0 0.01042 76.34753 98.37215
95.0 0.01053 76.29836 96.20207
98.0 0.01020 76.24911 87.67081
97.0 0.01031 76.19976 88.16925
96.0 0.01042 76.15036 89.58856
85.0 0.01176 76.10087 91.52633
89.0 0.01124 76.05132 92.92860
96.0 0.01042 76.00168 92.48721
75.0 0.01333 75.95197 86.08300
78.0 0.01282 75.90218 84.14314
96.0 0.01042 75.85233 82.99292
77.0 0.01299 75.80239 82.85034
69.0 0.01449 75.75241 83.20407
91.0 0.01099 75.70233 83.05936
70.0 0.01429 75.65219 81.88835
86.0 0.01163 75.60198 80.20297
85.0 0.01176 75.55172 78.63853
75.0 0.01333 75.50139 79.35505
93.0 0.01075 75.45099 78.80752
74.0 0.01351 75.40052 78.59917
90.0 0.01111 75.34999 78.61469
78.0 0.01282 75.29940 78.77828
91.0 0.01099 75.24875 79.05893
77.0 0.01299 75.19804 80.48180
106.0 0.00943 75.14725 81.12832
87.0 0.01149 75.09644 81.97005
90.0 0.01111 75.04554 82.97131
101.0 0.00990 74.99460 84.47911
95.0 0.01053 74.94361 103.71397
92.0 0.01087 74.89256 109.12872
90.0 0.01111 74.84145 117.63831
136.0 0.00735 74.79029 131.96692
152.0 0.00658 74.73908 155.78981
203.0 0.00493 74.68784 192.31230
243.0 0.00412 74.63654 249.88101
307.0 0.003257 74.58517 302.04880
350.0 0.002857 74.53377 337.28775
305.0 0.003279 74.48231 339.86349
305.0 0.003279 74.43082 323.64053
285.0 0.00351 74.37927 316.83142
313.0 0.003195 74.32768 340.48718
376.0 0.002660 74.27605 411.03625
491.0 0.002037 74.22439 545.42194
704.0 0.001420 74.17268 761.65405
1074.0 0.000931 74.12094 1074.79810
1537.0 0.000651 74.06916 1465.83936
1847.0 0.000541 74.01733 1824.30688
1976.0 0.000506 73.96547 1947.80884
1703.0 0.000587 73.91357 1758.44287
1439.0 0.000695 73.86164 1444.16077
1212.0 0.000825 73.80968 1209.82788
1171.0 0.000854 73.75769 1136.75000
1158.0 0.000864 73.70567 1190.10071
1156.0 0.000865 73.65360 1239.70349
1099.0 0.000910 73.60152 1146.99475
836.0 0.001196 73.54942 922.86432
653.0 0.001531 73.49726 671.80237
520.0 0.001923 73.44509 466.36990
348.0 0.002874 73.39291 325.25064
294.0 0.003401 73.34069 240.67987
228.0 0.00439 73.28844 194.07602
203.0 0.00493 73.23618 168.59633
164.0 0.00610 73.18391 152.13220
143.0 0.00699 73.13159 140.60834
108.0 0.00926 73.07927 135.02261
129.0 0.00775 73.02694 126.59672
122.0 0.00820 72.97458 103.39492
125.0 0.00800 72.92222 99.82810
99.0 0.01010 72.86982 97.48883
91.0 0.01099 72.81741 96.12912
103.0 0.00971 72.76501 98.02587
116.0 0.00862 72.71258 105.39828
104.0 0.00962 72.66014 107.26479
101.0 0.00990 72.60769 101.29102
92.0 0.01087 72.55523 106.39120
116.0 0.00862 72.50278 113.71386
137.0 0.00730 72.45032 125.31501
150.0 0.00667 72.39783 146.04080
178.0 0.00562 72.34536 187.47012
253.0 0.00395 72.29288 250.73318
383.0 0.002611 72.24039 344.33328
504.0 0.001984 72.18790 460.02826
591.0 0.001692 72.13542 566.46185
575.0 0.001739 72.08295 612.41681
553.0 0.001808 72.03047 583.32043
560.0 0.001786 71.97799 536.46045
514.0 0.001946 71.92551 537.19647
667.0 0.001499 71.87305 619.94098
817.0 0.001224 71.82059 780.56982
1016.0 0.000984 71.76813 967.81787
1065.0 0.000939 71.71569 1087.95593
1023.0 0.000978 71.66324 1060.31238
887.0 0.001127 71.61082 904.70129
719.0 0.001391 71.55841 725.08405
594.0 0.001684 71.50600 601.23938
579.0 0.001727 71.45362 556.16278
640.0 0.001563 71.40125 566.59155
538.0 0.001859 71.34888 574.76141
508.0 0.001969 71.29655 526.68750
370.0 0.002703 71.24422 429.86252
303.0 0.003300 71.19193 325.92313
253.0 0.00395 71.13964 241.17052
179.0 0.00559 71.08736 178.42490
183.0 0.00546 71.03513 143.24892
119.0 0.00840 70.98292 123.15984
104.0 0.00962 70.93072 111.49456
104.0 0.00962 70.87856 104.09514
100.0 0.01000 70.82642 98.87385
95.0 0.01053 70.77431 94.89403
93.0 0.01075 70.72223 89.31126
74.0 0.01351 70.67017 79.78760
83.0 0.01205 70.61815 78.51275
87.0 0.01149 70.56615 77.46581
78.0 0.01282 70.51420 76.59401
78.0 0.01282 70.46227 75.85887
62.0 0.01613 70.41039 75.23192
83.0 0.01205 70.35852 74.69159
74.0 0.01351 70.30672 70.30672
75.0 0.01333 70.25494 70.25494
77.0 0.01299 70.20321 70.20321
75.0 0.01333 70.15151 70.15151
74.0 0.01351 70.09985 70.09985
65.0 0.01538 70.04824 70.04824
73.0 0.01370 69.99666 69.99666
66.0 0.01515 69.94513 71.68150
83.0 0.01205 69.89367 71.82268
57.0 0.01754 69.84223 71.99747
62.0 0.01613 69.79084 72.21411
66.0 0.01515 69.73951 72.48343
82.0 0.01220 69.68822 72.81992
58.0 0.01724 69.63699 73.24343
69.0 0.01449 69.58579 74.79398
76.0 0.01316 69.53466 75.60157
67.0 0.01493 69.48360 76.65112
83.0 0.01205 69.43258 78.07576
70.0 0.01429 69.38160 80.17248
84.0 0.01190 69.33070 83.63123
82.0 0.01220 69.27985 89.90544
107.0 0.00935 69.22905 101.49793
119.0 0.00840 69.17831 121.56360
146.0 0.00685 69.12765 152.22034
203.0 0.00493 69.07704 191.68300
224.0 0.00446 69.02650 230.79218
273.0 0.00366 68.97604 251.57222
235.0 0.00426 68.92561 241.40627
211.0 0.00474 68.87526 212.40643
171.0 0.00585 68.82498 185.49919
183.0 0.00546 68.77477 172.25175
195.0 0.00513 68.72461 173.51416
188.0 0.00532 68.67455 180.99393
146.0 0.00685 68.62456 180.61855
133.0 0.00752 68.57463 164.97900
126.0 0.00794 68.52478 140.99898
119.0 0.00840 68.47500 117.96476
89.0 0.01124 68.42529 100.37431
86.0 0.01163 68.37566 88.87962
89.0 0.01124 68.32611 82.13735
80.0 0.01250 68.27663 78.34624
91.0 0.01099 68.22726 76.12234
83.0 0.01205 68.17794 74.67321
78.0 0.01282 68.12871 73.62272
75.0 0.01333 68.07956 72.80580
76.0 0.01316 68.03051 72.14544
65.0 0.01538 67.98151 70.00481
53.0 0.01887 67.93262 69.69115
72.0 0.01389 67.88381 69.42581
76.0 0.01316 67.83509 69.19785
58.0 0.01724 67.78647 68.99925
62.0 0.01613 67.73792 68.82401
85.0 0.01176 67.68948 67.68948
61.0 0.01639 67.64112 67.64112
75.0 0.01333 67.59284 67.59284
86.0 0.01163 67.54466 67.54466
62.0 0.01613 67.49657 67.49657
80.0 0.01250 67.44859 67.44859
63.0 0.01587 67.40070 67.40070
77.0 0.01299 67.35292 67.35292
53.0 0.01887 67.30523 67.30523
60.0 0.01667 67.25762 67.25762
66.0 0.01515 67.21013 67.21013
69.0 0.01449 67.16272 67.16272
56.0 0.01786 67.11543 67.11543
48.0 0.02083 67.06823 67.06823
45.0 0.02222 67.02116 67.02116
69.0 0.01449 66.97417 66.97417
58.0 0.01724 66.92729 66.92729
65.0 0.01538 66.88052 66.88052
78.0 0.01282 66.83385 66.83385
69.0 0.01449 66.78728 66.88377
71.0 0.01408 66.74083 66.84778
56.0 0.01786 66.69450 66.81370
64.0 0.01563 66.64826 66.78192
61.0 0.01639 66.60214 66.75301
70.0 0.01429 66.55613 66.72772
74.0 0.01351 66.51025 66.70707
83.0 0.01205 66.46446 66.74754
69.0 0.01449 66.41880 66.74692
55.0 0.01818 66.37325 66.75857
69.0 0.01449 66.32782 66.78880
61.0 0.01639 66.28249 66.85106
57.0 0.01754 66.23730 66.97581
69.0 0.01449 66.19225 67.22659
54.0 0.01852 66.14727 67.71484
76.0 0.01316 66.10243 73.08406
67.0 0.01493 66.05771 74.97874
69.0 0.01449 66.01311 77.45715
67.0 0.01493 65.96864 80.22768
88.0 0.01136 65.92429 82.57009
62.0 0.01613 65.88008 83.66202
76.0 0.01316 65.83598 83.66940
75.0 0.01333 65.79202 86.23496
91.0 0.01099 65.74816 92.37598
90.0 0.01111 65.70444 95.60073
88.0 0.01136 65.66086 100.67760
104.0 0.00962 65.61739 108.14007
108.0 0.00926 65.57407 119.72024
119.0 0.00840 65.53087 139.75980
172.0 0.00581 65.48782 175.11014
290.0 0.003448 65.44487 235.21646
352.0 0.002841 65.40207 316.41464
444.0 0.002252 65.35940 411.50961
529.0 0.001890 65.31687 492.72900
517.0 0.001934 65.27446 520.18903
488.0 0.002049 65.23221 485.85086
401.0 0.002494 65.19007 431.80490
392.0 0.002551 65.14810 404.13132
410.0 0.002439 65.10623 428.63483
543.0 0.001842 65.06451 509.00735
687.0 0.001456 65.02295 624.27063
788.0 0.001269 64.98151 729.14880
813.0 0.001230 64.94022 774.56915
727.0 0.001376 64.89906 731.56427
611.0 0.001637 64.85805 619.92773
471.0 0.002123 64.81718 499.28497
333.0 0.003003 64.77645 414.54529
363.0 0.002755 64.73588 379.87140
416.0 0.002404 64.69543 384.27325
432.0 0.002315 64.65514 400.29922
395.0 0.002532 64.61499 385.82272
323.0 0.003096 64.57499 334.43332
255.0 0.00392 64.53513 268.05405
192.0 0.00521 64.49541 203.47845
141.0 0.00709 64.45586 158.74377
141.0 0.00709 64.41645 129.80238
148.0 0.00676 64.37720 114.72697
106.0 0.00943 64.33807 105.91225
95.0 0.01053 64.29911 101.60252
94.0 0.01064 64.26028 103.94707
103.0 0.00971 64.22163 102.89201
110.0 0.00909 64.18311 107.89628
121.0 0.00826 64.14477 113.70841
145.0 0.00690 64.10654 134.54890
207.0 0.00483 64.06850 169.15498
226.0 0.00442 64.03059 219.43187
337.0 0.002967 63.99284 283.21948
325.0 0.003077 63.95525 341.42566
388.0 0.002577 63.91780 370.21744
329.0 0.003040 63.88052 352.44531
318.0 0.003145 63.84340 313.95358
296.0 0.003378 63.80642 282.57031
282.0 0.00355 63.76960 278.18915
365.0 0.002740 63.73295 307.98425
397.0 0.002519 63.69644 366.65201
477.0 0.002096 63.66009 435.88391
557.0 0.001795 63.62391 492.98834
532.0 0.001880 63.58787 521.08887
460.0 0.002174 63.55201 502.78967
386.0 0.002591 63.51629 439.37793
335.0 0.002985 63.48074 363.36349
323.0 0.003096 63.44535 305.54095
322.0 0.003106 63.41011 278.41110
313.0 0.003195 63.37503 278.56699
284.0 0.00352 63.34012 289.59235
292.0 0.003425 63.30537 287.35263
186.0 0.00538 63.27078 259.04343
177.0 0.00565 63.23635 215.22243
171.0 0.00585 63.20208 168.95352
136.0 0.00735 63.16798 134.36700
109.0 0.00917 63.13403 110.49707
109.0 0.00917 63.10025 95.68038
96.0 0.01042 63.06663 86.98040
89.0 0.01124 63.03317 81.80595
69.0 0.01449 62.99987 78.48306
66.0 0.01515 62.96675 74.57515
76.0 0.01316 62.93378 72.91505
86.0 0.01163 62.90097 67.94729
62.0 0.01613 62.86833 67.21201
72.0 0.01389 62.83585 66.61270
75.0 0.01333 62.80354 66.11646
63.0 0.01587 62.77139 65.70004
80.0 0.01250 62.73940 65.34633
75.0 0.01333 62.70757 65.04259
68.0 0.01471 62.67592 62.67592
75.0 0.01333 62.64442 62.64442
97.0 0.01031 62.61309 73.02538
70.0 0.01429 62.58193 74.11837
84.0 0.01190 62.55092 75.40187
74.0 0.01351 62.52008 76.92090
91.0 0.01099 62.48941 78.73432
88.0 0.01136 62.45890 82.28570
73.0 0.01370 62.42856 85.10078
102.0 0.00980 62.39837 88.56789
96.0 0.01042 62.36836 99.28130
114.0 0.00877 62.33850 105.58155
115.0 0.00870 62.30882 113.95833
122.0 0.00820 62.27929 125.99074
144.0 0.00694 62.24993 145.90132
159.0 0.00629 62.22073 179.19580
235.0 0.00426 62.19170 238.12662
396.0 0.002525 62.16283 337.44684
551.0 0.001815 62.13412 488.71872
821.0 0.001218 62.10557 689.24542
987.0 0.001013 62.07719 908.52252
1071.0 0.000934 62.04897 1076.46814
1003.0 0.000997 62.02092 1110.61902
902.0 0.001109 61.99302 1015.04321
832.0 0.001202 61.96529 881.68860
815.0 0.001227 61.93771 787.39435
847.0 0.001181 61.91031 756.19800
819.0 0.001221 61.88305 771.60431
748.0 0.001337 61.85596 794.30701
661.0 0.001513 61.82904 771.09131
623.0 0.001605 61.80227 679.22064
520.0 0.001923 61.77566 553.53357
426.0 0.002347 61.74921 435.68243
387.0 0.002584 61.72294 343.41330
316.0 0.003165 61.69681 272.75229
241.0 0.00415 61.67084 219.46078
219.0 0.00457 61.64503 181.18620
209.0 0.00478 61.61937 155.51939
144.0 0.00694 61.59387 139.35251
173.0 0.00578 61.56853 129.14088
115.0 0.00870 61.54335 121.83907
124.0 0.00806 61.51832 103.90368
111.0 0.00901 61.49345 98.15672
96.0 0.01042 61.46872 94.06977
103.0 0.00971 61.44416 92.34464
104.0 0.00962 61.41975 93.34053
103.0 0.00971 61.39550 95.96673
112.0 0.00893 61.37139 103.02589
105.0 0.00952 61.34744 107.44059
142.0 0.00704 61.32364 122.68976
142.0 0.00704 61.29998 140.93819
164.0 0.00610 61.27649 157.33369
163.0 0.00613 61.25313 163.60594
170.0 0.00588 61.22994 154.93762
115.0 0.00870 61.20687 139.25546
106.0 0.00943 61.18397 124.82233
109.0 0.00917 61.16120 116.84534
119.0 0.00840 61.13859 116.21438
116.0 0.00862 61.11613 120.09498
118.0 0.00847 61.09380 122.49100
110.0 0.00909 61.07161 118.41142
111.0 0.00901 61.04958 107.99629
88.0 0.01136 61.02769 95.63777
69.0 0.01449 61.00592 84.71922
87.0 0.01149 60.98430 76.61213
79.0 0.01266 60.96283 71.31416
70.0 0.01429 60.94149 68.14220
77.0 0.01299 60.92030 66.19261
67.0 0.01493 60.89923 65.08838
72.0 0.01389 60.87831 64.35738
67.0 0.01493 60.85751 63.82386
56.0 0.01786 60.83684 62.35923
66.0 0.01515 60.81631 62.12021
58.0 0.01724 60.79592 61.92501
64.0 0.01563 60.77566 61.76252
68.0 0.01471 60.75552 61.62513
78.0 0.01282 60.73551 61.50739
78.0 0.01282 60.71563 61.40522
65.0 0.01538 60.69588 61.31557
70.0 0.01429 60.67625 60.67625
58.0 0.01724 60.65673 60.65673
75.0 0.01333 60.63736 60.63736
65.0 0.01538 60.61810 60.61810
56.0 0.01786 60.59896 66.49269
64.0 0.01563 60.57994 67.10403
77.0 0.01299 60.56103 67.82108
63.0 0.01587 60.54224 68.66851
69.0 0.01449 60.52357 69.67850
81.0 0.01235 60.50501 70.89370
73.0 0.01370 60.48656 72.37171
85.0 0.01176 60.46823 74.19320
84.0 0.01190 60.45000 79.99108
75.0 0.01333 60.43189 83.33198
99.0 0.01010 60.41388 87.81469
87.0 0.01149 60.39597 94.32906
99.0 0.01010 60.37817 104.74500
117.0 0.00855 60.36048 122.59352
123.0 0.00813 60.34288 153.44678
201.0 0.00498 60.32539 204.05127
295.0 0.003390 60.30799 279.37506
502.0 0.001992 60.29068 377.77310
643.0 0.001555 60.27348 485.10001
596.0 0.001678 60.25636 569.13147
528.0 0.001894 60.23933 589.36041
453.0 0.002208 60.22240 539.87897
350.0 0.002857 60.20555 460.43802
332.0 0.003012 60.18879 394.57205
389.0 0.002571 60.17212 361.11652
443.0 0.002257 60.15553 362.53027
382.0 0.002618 60.13902 382.76163
377.0 0.002653 60.12259 392.53833
298.0 0.003356 60.10625 367.60031
259.0 0.00386 60.08996 312.69543
206.0 0.00485 60.07376 249.34906
154.0 0.00649 60.05762 194.40384
157.0 0.00637 60.04157 152.95990
111.0 0.00901 60.02558 126.00300
132.0 0.00758 60.00965 110.74885
120.0 0.00833 59.99380 104.03239
133.0 0.00752 59.97799 103.89583
103.0 0.00971 59.96226 115.56204
147.0 0.00680 59.94657 128.58649
144.0 0.00694 59.93095 141.77393
197.0 0.00508 59.91539 165.56116
186.0 0.00538 59.89987 190.74995
225.0 0.00444 59.88440 204.06921
190.0 0.00526 59.86898 201.91739
184.0 0.00543 59.85360 191.03387
173.0 0.00578 59.83828 176.05801
146.0 0.00685 59.82298 167.68517
152.0 0.00658 59.80773 165.95636
163.0 0.00613 59.79251 177.65541
176.0 0.00568 59.77734 198.89159
207.0 0.00483 59.76218 225.16304
265.0 0.00377 59.74707 261.12759
307.0 0.003257 59.73198 315.31580
415.0 0.002410 59.71691 393.26736
518.0 0.001931 59.70186 488.89261
664.0 0.001506 59.68684 579.33417
731.0 0.001368 59.67183 629.81970
654.0 0.001529 59.65683 627.48352
655.0 0.001527 59.64185 600.93878
613.0 0.001631 59.62688 583.20990
612.0 0.001634 59.61193 580.44196
566.0 0.001767 59.59697 580.37292
513.0 0.001949 59.58200 570.34521
554.0 0.001805 59.56704 548.15924
512.0 0.001953 59.55207 505.10919
481.0 0.002079 59.53711 446.26343
379.0 0.002639 59.52214 389.66019
351.0 0.002849 59.50714 345.22031
272.0 0.00368 59.49214 307.46481
254.0 0.00394 59.47711 266.23813
215.0 0.00465 59.46207 222.79501
183.0 0.00546 59.44699 182.91779
157.0 0.00637 59.43191 151.50386
144.0 0.00694 59.41679 130.35382
147.0 0.00680 59.40163 119.25325
137.0 0.00730 59.38644 111.18288
154.0 0.00649 59.37122 115.27304
128.0 0.00781 59.35595 124.27314
157.0 0.00637 59.34063 129.51695
151.0 0.00662 59.32527 128.59149
142.0 0.00704 59.30986 118.54942
111.0 0.00901 59.29440 109.54614
123.0 0.00813 59.27888 102.41370
94.0 0.01064 59.26328 96.07967
93.0 0.01075 59.24764 98.05464
132.0 0.00758 59.23193 101.19106
117.0 0.00855 59.21614 103.71928
110.0 0.00909 59.20028 103.95492
100.0 0.01000 59.18435 100.34118
94.0 0.01064 59.16834 99.93837
109.0 0.00917 59.15223 104.44105
112.0 0.00893 59.13605 116.59773
143.0 0.00699 59.11977 137.84195
198.0 0.00505 59.10340 167.20752
240.0 0.00417 59.08693 199.94431
198.0 0.00505 59.07036 226.44084
240.0 0.00417 59.05368 233.82651
188.0 0.00532 59.03690 219.67513
188.0 0.00532 59.02000 194.71785
152.0 0.00658 59.00298 180.85768
170.0 0.00588 58.98585 170.77875
195.0 0.00513 58.96859 173.13626
194.0 0.00515 58.95120 184.72932
199.0 0.00503 58.93368 197.87106
211.0 0.00474 58.91603 203.74870
181.0 0.00552 58.89824 199.57072
156.0 0.00641 58.88029 188.01956
141.0 0.00709 58.86222 177.10239
141.0 0.00709 58.84399 161.91685
125.0 0.00800 58.82559 151.47223
149.0 0.00671 58.80704 150.24348
147.0 0.00680 58.78833 162.26534
163.0 0.00613 58.76945 193.54834
241.0 0.00415 58.75040 246.78404
359.0 0.002786 58.73116 326.30212
452.0 0.002212 58.71175 427.72778
632.0 0.001582 58.69215 543.72388
684.0 0.001462 58.67237 644.42419
698.0 0.001433 58.65239 687.51398
637.0 0.001570 58.63222 650.96887
458.0 0.002183 58.61185 565.40051
406.0 0.002463 58.59126 478.00351
354.0 0.002825 58.57046 421.32593
373.0 0.002681 58.54945 404.76730
421.0 0.002375 58.52821 422.93686
406.0 0.002463 58.50676 451.03271
400.0 0.002500 58.48508 457.38083
356.0 0.002809 58.46317 428.55167
306.0 0.003268 58.44099 378.93271
306.0 0.003268 58.41859 329.80435
304.0 0.003289 58.39594 290.84097
265.0 0.00377 58.37305 259.52127
228.0 0.00439 58.34988 228.72095
220.0 0.00455 58.32645 197.36946
179.0 0.00559 58.30277 169.88876
133.0 0.00752 58.27880 150.82001
152.0 0.00658 58.25455 141.07626
149.0 0.00671 58.23002 139.23466
158.0 0.00633 58.20521 134.51694
141.0 0.00709 58.18010 135.15944
120.0 0.00833 58.15469 129.06755
135.0 0.00741 58.12898 117.11008
80.0 0.01250 58.10297 103.38460
91.0 0.01099 58.07663 91.04945
90.0 0.01111 58.04998 81.50170
85.0 0.01176 58.02301 70.67296
65.0 0.01538 57.99571 66.80420
77.0 0.01299 57.96807 64.48048
71.0 0.01408 57.94009 63.06584
74.0 0.01351 57.91175 62.14374
67.0 0.01493 57.88308 61.48527
59.0 0.01695 57.85405 59.73536
52.0 0.01923 57.82465 59.43837
57.0 0.01754 57.79487 59.19482
64.0 0.01563 57.76473 58.99045
73.0 0.01370 57.73421 58.81596
60.0 0.01667 57.70331 58.66477
66.0 0.01515 57.67200 58.53197
48.0 0.02083 57.64031 58.41391
67.0 0.01493 57.60822 57.60822
61.0 0.01639 57.57571 57.57571
62.0 0.01613 57.54278 57.54278
75.0 0.01333 57.50944 57.50944
82.0 0.01220 57.47567 57.47567
48.0 0.02083 57.44145 57.44145
61.0 0.01639 57.40681 57.45105
67.0 0.01493 57.37172 57.42069
67.0 0.01493 57.33619 57.39068
60.0 0.01667 57.30019 57.36118
62.0 0.01613 57.26372 57.33241
67.0 0.01493 57.22679 57.30473
53.0 0.01887 57.18938 57.27853
51.0 0.01961 57.15148 57.25445
64.0 0.01563 57.11310 57.25852
64.0 0.01563 57.07422 57.24531
68.0 0.01471 57.03484 57.24153
77.0 0.01299 56.99495 57.25539
49.0 0.02041 56.95454 61.63413
61.0 0.01639 56.91360 62.22273
76.0 0.01316 56.87214 62.99131
62.0 0.01613 56.83014 63.99723
69.0 0.01449 56.78761 65.28556
81.0 0.01235 56.74451 66.86520
72.0 0.01389 56.70087 68.68481
82.0 0.01220 56.65666 70.62384
79.0 0.01266 56.61187 75.04060
97.0 0.01031 56.56652 77.60487
81.0 0.01235 56.52057 81.38032
78.0 0.01282 56.47403 87.88358
94.0 0.01064 56.42691 99.54218
116.0 0.00862 56.37916 119.83179
151.0 0.00662 56.33081 152.68205
195.0 0.00513 56.28184 200.74722
271.0 0.00369 56.23223 262.78607
354.0 0.002825 56.18200 330.77368
400.0 0.002500 56.13111 387.20117
427.0 0.002342 56.07959 408.44467
375.0 0.002667 56.02738 385.19830
321.0 0.003115 55.97453 335.72308
262.0 0.00382 55.92100 286.26398
240.0 0.00417 55.86681 253.88103
214.0 0.00467 55.81190 244.23463
267.0 0.00375 55.75631 253.14302
243.0 0.00412 55.70000 267.82990
280.0 0.00357 55.64299 270.60129
226.0 0.00442 55.58526 250.96469
192.0 0.00521 55.52680 214.72287
153.0 0.00654 55.46761 174.46896
139.0 0.00719 55.40768 138.98570
104.0 0.00962 55.34700 112.01173
98.0 0.01020 55.28554 93.66668
99.0 0.01010 55.22332 82.20119
70.0 . . .
loop_
_refln_index_h
_refln_index_k
_refln_index_l
_pd_refln_wavelength_id
_refln_observed_status
_refln_F_squared_meas
_refln_F_squared_calc
_refln_phase_calc
_refln_d_spacing
_gsas_i100_meas
1 1 0 1 o 5155.095 5368.586 90.00 5.55413 39.62
1 1 0 2 o 4979.850 5368.586 90.00 5.55413 21.69
1 0 1 1 o 21838.672 21389.871 -90.00 4.31905 100.00
1 0 1 2 o 21442.369 21389.871 -90.00 4.31905 55.69
2 0 0 1 o 14613.658 14499.141 0.00 4.27505 33.11
2 0 0 2 o 14763.580 14499.141 0.00 4.27505 19.01
0 1 1 1 o 149.982 11.453 -90.00 4.12865 0.67
0 1 1 2 o 107.623 11.453 -90.00 4.12865 0.27
1 1 1 1 o 7721.950 7768.690 93.02 3.71789 52.38
1 1 1 2 o 7819.741 7768.690 93.02 3.71789 30.14
2 1 0 1 o 11023.190 10745.670 -180.00 3.68971 36.51
2 1 0 2 o 10988.392 10745.670 -180.00 3.68971 20.66
0 2 0 1 o 6405.842 6780.177 180.00 3.65270 10.63
0 2 0 2 o 7142.280 6780.177 180.00 3.65270 6.76
1 2 0 1 o 16473.979 16956.314 90.00 3.35901 44.81
1 2 0 2 o 17155.693 16956.314 90.00 3.35901 26.57
2 0 1 1 o 3.789 66.159 -90.00 3.25052 0.00
2 0 1 2 o 3.789 66.159 -90.00 3.25052 0.00
2 1 1 1 o 4202.879 4425.689 -2.51 2.96981 17.68
2 1 1 2 o 4215.636 4425.689 -2.51 2.96981 10.07
0 2 1 1 o 32172.836 32414.201 0.00 2.95040 67.29
0 2 1 2 o 34221.449 32414.201 0.00 2.95040 40.81
1 2 1 1 o 1.848 46.702 -30.70 2.78902 0.35
1 2 1 2 o 31.896 46.702 -30.70 2.78902 0.27
2 2 0 1 o 2597.952 2604.078 180.00 2.77707 4.95
2 2 0 2 o 2624.021 2604.078 180.00 2.77707 2.84
3 1 0 1 o 17141.004 16990.109 90.00 2.65513 28.98
3 1 0 2 o 17541.701 16990.109 90.00 2.65513 16.86
0 0 2 1 o 39238.89 38849.74 180.00 2.50225 29.21
0 0 2 2 o 40326.41 38849.74 180.00 2.50225 17.07
3 0 1 1 o 1129.929 982.196 90.00 2.47658 1.77
3 0 1 2 o 1082.511 982.196 90.00 2.47658 0.96
2 2 1 1 o 7237.676 7330.435 6.47 2.42825 20.14
2 2 1 2 o 7399.063 7330.435 6.47 2.42825 11.71
1 0 2 1 o 318.061 126.902 180.00 2.40152 0.45
1 0 2 2 o 640.831 126.902 180.00 2.40152 0.52
0 1 2 1 o 612.478 287.067 90.00 2.36724 0.85
0 1 2 2 o 375.389 287.067 90.00 2.36724 0.29
3 1 1 1 o 19370.510 18967.354 90.39 2.34547 50.17
1 3 0 1 o 18615.230 18399.539 -90.00 2.34200 24.55
3 1 1 2 o 19126.377 18967.354 90.39 2.34547 28.10
1 3 0 2 o 19667.848 18399.539 -90.00 2.34200 14.76
1 1 2 1 o 501.623 643.614 -103.59 2.28141 1.25
1 1 2 2 o 521.085 643.614 -103.59 2.28141 0.74
3 2 0 1 o 1506.445 1726.113 90.00 2.24698 1.95
3 2 0 2 o 1297.454 1726.113 90.00 2.24698 0.96
0 3 1 1 o 1.554 106.565 -90.00 2.18967 0.00
0 3 1 2 o 1.554 106.565 -90.00 2.18967 0.00
2 0 2 1 o 11113.418 11289.633 -180.00 2.15953 12.17
2 0 2 2 o 11281.491 11289.633 -180.00 2.15953 7.02
4 0 0 1 o 19557.525 19262.197 180.00 2.13753 10.61
4 0 0 2 o 19155.625 19262.197 180.00 2.13753 5.90
1 3 1 1 o 2431.570 2311.099 80.39 2.12121 5.17
1 3 1 2 o 2473.447 2311.099 80.39 2.12121 2.99
2 3 0 1 o 3506.477 3279.201 -180.00 2.11594 3.66
2 3 0 2 o 3977.382 3279.201 -180.00 2.11594 2.38
2 1 2 1 o 23278.604 23203.818 0.86 2.07094 46.86
2 1 2 2 o 23659.660 23203.818 0.86 2.07094 27.06
0 2 2 1 o 1332.056 1279.875 0.00 2.06433 1.31
0 2 2 2 o 1560.278 1279.875 0.00 2.06433 0.88
4 1 0 1 o 17519.881 16345.933 -180.00 2.05151 17.23
3 2 1 1 o 104.248 97.030 45.16 2.04984 0.21
4 1 0 2 o 17183.352 16345.933 -180.00 2.05151 9.59
3 2 1 2 o 192.992 97.030 45.16 2.04984 0.23
1 2 2 1 o 25318.736 24756.959 -88.61 2.00667 47.40
1 2 2 2 o 25622.838 24756.959 -88.61 2.00667 27.26
4 0 1 1 o 693.943 83.931 -90.00 1.96573 0.65
4 0 1 2 o 118.953 83.931 -90.00 1.96573 0.06
2 3 1 1 o 15262.850 15297.971 -179.81 1.94890 26.66
2 3 1 2 o 15209.414 15297.971 -179.81 1.94890 15.08
4 1 1 1 o 7936.640 7895.504 0.17 1.89821 13.15
4 1 1 2 o 7739.446 7895.504 0.17 1.89821 7.27
3 0 2 1 o 211.421 222.636 180.00 1.88036 0.17
3 0 2 2 o 220.488 222.636 180.00 1.88036 0.10
2 2 2 1 o 1891.498 1897.286 -7.32 1.85895 3.09
2 2 2 2 o 1815.620 1897.286 -7.32 1.85895 1.68
3 3 0 1 o 35023.617 35258.73 -90.00 1.85138 27.70
3 3 0 2 o 34977.824 35258.73 -90.00 1.85138 15.70
4 2 0 1 o 345.427 330.457 0.00 1.84486 0.27
4 2 0 2 o 369.407 330.457 0.00 1.84486 0.16
0 4 0 1 o 20017.303 19641.088 180.00 1.82635 7.64
0 4 0 2 o 19866.807 19641.088 180.00 1.82635 4.30
3 1 2 1 o 7932.148 7894.371 -93.17 1.82101 11.99
3 1 2 2 o 7857.932 7894.371 -93.17 1.82101 6.74
1 4 0 1 o 3823.672 3927.680 -90.00 1.78606 2.77
1 4 0 2 o 3563.972 3927.680 -90.00 1.78606 1.46
0 3 2 1 o 69.875 225.742 -90.00 1.74514 0.04
0 3 2 2 o 182.872 225.742 -90.00 1.74514 0.07
3 3 1 1 o 5075.462 4999.471 90.09 1.73637 6.99
3 3 1 2 o 5114.909 4999.471 90.09 1.73637 4.00
4 2 1 1 o 6049.913 6008.020 179.30 1.73099 8.24
4 2 1 2 o 6019.008 6008.020 179.30 1.73099 4.65
0 4 1 1 o 7358.256 6992.218 -180.00 1.71567 4.94
0 4 1 2 o 7425.604 6992.218 -180.00 1.71567 2.83
1 3 2 1 o 4425.485 4355.289 91.45 1.70989 5.86
1 3 2 2 o 4382.024 4355.289 91.45 1.70989 3.29
1 4 1 1 o 13526.718 13237.742 87.96 1.68214 17.35
2 4 0 1 o 3443.637 3417.906 180.00 1.67951 2.19
1 4 1 2 o 13213.304 13237.742 87.96 1.68214 9.61
2 4 0 2 o 3824.253 3417.906 180.00 1.67951 1.39
3 2 2 1 o 290.861 230.481 79.34 1.67184 0.40
3 2 2 2 o 268.290 230.481 79.34 1.67184 0.21
5 1 0 1 o 2695.739 2620.543 90.00 1.66501 1.70
5 1 0 2 o 2817.622 2620.543 90.00 1.66501 1.01
1 0 3 1 o 15369.623 15246.921 90.00 1.63730 9.30
1 0 3 2 o 14353.261 15246.921 90.00 1.63730 4.91
0 1 3 1 o 403.747 375.907 90.00 1.62631 0.24
4 0 2 1 o 3444.384 3368.580 0.00 1.62526 2.05
0 1 3 2 o 350.641 375.907 90.00 1.62631 0.12
4 0 2 2 o 3224.058 3368.580 0.00 1.62526 1.08
5 0 1 1 o 15152.271 14271.045 90.00 1.61816 8.97
2 3 2 1 o 3812.646 3718.261 -4.05 1.61571 4.52
5 0 1 2 o 14434.387 14271.045 90.00 1.61816 4.84
2 3 2 2 o 3781.181 3718.261 -4.05 1.61571 2.54
4 3 0 1 o 2056.631 1622.343 180.00 1.60643 1.21
4 3 0 2 o 1867.741 1622.343 180.00 1.60643 0.62
1 1 3 1 o 2673.413 2662.458 -76.88 1.59766 3.07
1 1 3 2 o 2540.835 2662.458 -76.88 1.59766 1.65
2 4 1 1 o 608.447 692.616 -179.59 1.59223 0.69
2 4 1 2 o 682.861 692.616 -179.59 1.59223 0.44
4 1 2 1 o 9400.970 9639.055 -5.41 1.58647 10.65
4 1 2 2 o 8730.122 9639.055 -5.41 1.58647 5.59
5 1 1 1 o 1779.775 1758.835 85.18 1.57987 2.00
5 1 1 2 o 1979.793 1758.835 85.18 1.57987 1.27
2 0 3 1 o 433.854 121.613 90.00 1.55405 0.25
2 0 3 2 o 169.518 121.613 90.00 1.55405 0.05
5 2 0 1 o 11827.405 11786.820 -90.00 1.54871 6.37
5 2 0 2 o 11166.278 11786.820 -90.00 1.54871 3.40
