#------------------------------------------------------------------------------
#$Date: 2016-03-21 01:21:50 +0200 (Mon, 21 Mar 2016) $
#$Revision: 178377 $
#$URL: svn://www.crystallography.net/cod/cif/4/00/11/4001193.cif $
#------------------------------------------------------------------------------
#
# This file is available in the Crystallography Open Database (COD),
# http://www.crystallography.net/
#
# All data on this site have been placed in the public domain by the
# contributors.
#
data_4001193
loop_
_publ_author_name
'Zhou, Yongkai'
'Adams, Stefan'
'Rao, R. Prasada'
'Edwards, Doreen D.'
'Neiman, Arkady'
'Pestereva, N.'
_publ_section_title
;
 Charge Transport by Polyatomic Anion Diffusion in Sc2(WO4)3
;
_journal_issue                   20
_journal_name_full               'Chemistry of Materials'
_journal_page_first              6335
_journal_paper_doi               10.1021/cm800466y
_journal_volume                  20
_journal_year                    2008
_chemical_formula_moiety         ' Sc2(WO4)3 '
_chemical_formula_sum            'O12 Sc2 W3'
_chemical_formula_weight         833.45
_chemical_melting_point          1913
_chemical_name_common            ' Scandium Tungstate '
_chemical_name_systematic        ' Scandium Tungstate '
_space_group_IT_number           60
_symmetry_cell_setting           orthorhombic
_symmetry_space_group_name_Hall  '-P 2a 2n'
_symmetry_space_group_name_H-M   'P n c a'
_audit_creation_date             2008-01-25T12:03
_audit_creation_method           'from EXP file using GSAS2CIF'
_audit_update_record
' 2008-01-25T12:03  Initial CIF as created by GSAS2CIF'
_cell_angle_alpha                90.0
_cell_angle_beta                 90.0
_cell_angle_gamma                90.0
_cell_formula_units_Z            4
_cell_length_a                   9.65196(5)
_cell_length_b                   13.34383(7)
_cell_length_c                   9.56777(5)
_cell_measurement_temperature    550
_cell_volume                     1232.272(11)
_computing_structure_refinement  GSAS
_diffrn_radiation_polarisn_ratio 0.68
_diffrn_radiation_probe          x-ray
_exptl_absorpt_correction_T_max  1.00000
_exptl_absorpt_correction_T_min  1.00000
_exptl_absorpt_process_details
;   GSAS Absorption/surface roughness correction: function number 0
 No correction is applied.
;
_pd_block_id
2008-01-25T12:03|T11K|Zhou_Yongkai|Philips_Xpert
_pd_calc_method                  'Rietveld Refinement'
_pd_instr_location               ' ?'
_pd_meas_2theta_range_inc        0.017
_pd_meas_2theta_range_max        119.9874
_pd_meas_2theta_range_min        10.0144
_pd_meas_number_of_points        6470
_pd_proc_2theta_range_inc        0.017
_pd_proc_2theta_range_max        119.9874
_pd_proc_2theta_range_min        10.0144
_pd_proc_info_datetime           2008-01-25T12:27:24
_pd_proc_info_excluded_regions   ' ?'
_pd_proc_ls_background_function
;   GSAS Background function number 1 with 12 terms.
 Shifted Chebyshev function of 1st kind
      1:    340.397     2:   -45.5336     3:    28.2844     4:    36.2372    
      5:   -7.02628     6:    12.3167     7:   -9.99328     8:    4.33548    
      9:    8.66136    10:   -20.9951    11:    20.7489    12:   -6.25480    
;
_pd_proc_ls_peak_cutoff          0.00250
_pd_proc_ls_pref_orient_corr
;   March-Dollase
 AXIS  1 Ratio=   0.95000  h= 0.000  k= 1.000  l= 0.000
 Prefered orientation correction range: Min=   0.92594, Max=   1.16637
;
_pd_proc_ls_profile_function
;
 CW Profile function number 3 with  19 terms
 Pseudovoigt profile coefficients as parameterized in
 P. Thompson, D.E. Cox & J.B. Hastings (1987). J. Appl. Cryst.,20,79-83.
 Asymmetry correction of L.W. Finger, D.E. Cox & A. P. Jephcoat (1994).
 J. Appl. Cryst.,27,892-900.
 Peak tails are ignored  where the intensity is below 0.0025 times the peak
   Aniso. broadening axis   0.0   0.0   1.0
;
_pd_proc_ls_prof_R_factor        0.0479
_pd_proc_ls_prof_wR_expected     0.0357
_pd_proc_ls_prof_wR_factor       0.0639
_pd_proc_number_of_points        6470
_pd_spec_mounting                ' ?'
_refine_ls_goodness_of_fit_all   1.85
_refine_ls_matrix_type           full
_refine_ls_number_parameters     51
_refine_ls_number_restraints     0
_refine_ls_R_Fsqd_factor         0.05101
_refine_ls_shift/su_max          0.03
_refine_ls_shift/su_mean         0.01
_reflns_d_resolution_high        0.890
_reflns_d_resolution_low         6.672
_reflns_limit_h_max              10
_reflns_limit_h_min              0
_reflns_limit_k_max              15
_reflns_limit_k_min              0
_reflns_limit_l_max              10
_reflns_limit_l_min              0
_reflns_number_total             1834
_cod_data_source_file            cm800466y_si_012.cif
_cod_data_source_block           T550K
_cod_depositor_comments
;
The following automatic conversions were performed:

'_chemical_melting_point' value ' 1913K ' was changed to '1913' - the
value should be numeric and without a unit
designator.

'_geom_bond_publ_flag' value 'N' changed to 'n'
according to /home/saulius/struct/CIF-dictionaries/cif_core.dic
dictionary named 'cif_core.dic' version 2.4.1 from 2010-06-29 (26
times).

'_geom_angle_publ_flag' value 'N' changed to 'n' according
to /home/saulius/struct/CIF-dictionaries/cif_core.dic dictionary
named 'cif_core.dic' version 2.4.1 from 2010-06-29 (33 times).

Automatic conversion script
Id: cif_fix_values 1715 2011-07-08 13:25:40Z adriana 
;
_cod_original_cell_volume        1232.273(13)
_cod_database_code               4001193
#BEGIN Tags that were not found in dictionaries:
_gsas_exptl_extinct_corr_t_min   1.00000
_gsas_exptl_extinct_corr_t_max   1.00000
#END Tags that were not found in dictionaries
loop_
_symmetry_equiv_pos_site_id
_symmetry_equiv_pos_as_xyz
1 +x,+y,+z
2 -x+1/2,+y+1/2,+z+1/2
3 +x,-y+1/2,+z+1/2
4 -x+1/2,-y,+z
-1 -x,-y,-z
-2 +x+1/2,-y+1/2,-z+1/2
-3 -x,+y+1/2,-z+1/2
-4 +x+1/2,+y,-z
loop_
_atom_site_type_symbol
_atom_site_label
_atom_site_fract_x
_atom_site_fract_y
_atom_site_fract_z
_atom_site_occupancy
_atom_site_thermal_displace_type
_atom_site_U_iso_or_equiv
_atom_site_symmetry_multiplicity
Sc Sc1 0.46794(33) 0.38120(22) 0.2483(4) 1.0 Uiso 0.0211(10) 8
W W1 0.25 0.0 0.47198(13) 1.0 Uiso 0.02144(26) 4
W W2 0.11450(10) 0.35625(7) 0.39265(10) 1.0 Uiso 0.02144(26) 8
O O1 0.0920(11) 0.1326(8) 0.0731(11) 1.0 Uiso 0.0378(15) 8
O O2 0.1434(11) 0.0712(7) 0.3682(11) 1.0 Uiso 0.0378(15) 8
O O3 0.0080(11) 0.2642(8) 0.3166(10) 1.0 Uiso 0.0378(15) 8
O O4 0.3331(10) 0.4075(7) 0.0769(10) 1.0 Uiso 0.0378(15) 8
O O5 0.0642(10) 0.4752(8) 0.3228(11) 1.0 Uiso 0.0378(15) 8
O O6 0.2921(11) 0.3419(7) 0.3496(10) 1.0 Uiso 0.0378(15) 8
loop_
_atom_type_symbol
_atom_type_number_in_cell
_atom_type_scat_dispersion_real
_atom_type_scat_dispersion_imag
_atom_type_scat_Cromer_Mann_a1
_atom_type_scat_Cromer_Mann_a2
_atom_type_scat_Cromer_Mann_a3
_atom_type_scat_Cromer_Mann_a4
_atom_type_scat_Cromer_Mann_b1
_atom_type_scat_Cromer_Mann_b2
_atom_type_scat_Cromer_Mann_b3
_atom_type_scat_Cromer_Mann_b4
_atom_type_scat_Cromer_Mann_c
_atom_type_scat_source
Sc 8.0 0.000 0.000 9.18900 9.02130 7.36790 0.57290 1.64090 136.108 1.46800
51.3531 1.33290 International_Tables_Vol_C
W 12.0 0.000 0.000 29.0818 1.72029 15.4300 9.22590 14.4327 0.32170 5.11982
57.0560 9.88750 International_Tables_Vol_C
O 48.0 0.000 0.000 3.04850 13.2771 2.28680 5.70110 1.54630 0.32390 0.86700
32.9089 0.25080 International_Tables_Vol_C
loop_
_diffrn_radiation_wavelength
_diffrn_radiation_wavelength_wt
_diffrn_radiation_type
_diffrn_radiation_wavelength_id
1.540500 1.000 K\a~1~ 1
1.544300 0.000 K\a~2~ 2
loop_
_geom_angle_atom_site_label_1
_geom_angle_atom_site_label_2
_geom_angle_atom_site_label_3
_geom_angle
_geom_angle_site_symmetry_1
_geom_angle_site_symmetry_3
_geom_angle_publ_flag
O1 Sc1 O2 89.9(4) -2_666 -2_666 n
O1 Sc1 O3 93.2(4) -2_666 -2_666 n
O1 Sc1 O4 174.4(5) -2_666 1_555 n
O1 Sc1 O5 83.5(4) -2_666 4_565 n
O1 Sc1 O6 93.8(4) -2_666 1_555 n
O2 Sc1 O3 88.5(4) -2_666 -2_666 n
O2 Sc1 O4 91.9(4) -2_666 1_555 n
O2 Sc1 O5 91.3(4) -2_666 4_565 n
O2 Sc1 O6 175.8(5) -2_666 1_555 n
O3 Sc1 O4 92.2(4) -2_666 1_555 n
O3 Sc1 O5 176.6(4) -2_666 4_565 n
O3 Sc1 O6 93.3(4) -2_666 1_555 n
O4 Sc1 O5 91.2(4) 1_555 4_565 n
O4 Sc1 O6 84.2(4) 1_555 1_555 n
O5 Sc1 O6 87.1(4) 4_565 1_555 n
O2 W1 O2 109.3(7) 1_555 4_555 n
O2 W1 O4 116.1(5) 1_555 2_545 n
O2 W1 O4 102.3(5) 1_555 3_555 n
O2 W1 O4 102.3(5) 4_555 2_545 n
O2 W1 O4 116.1(5) 4_555 3_555 n
O4 W1 O4 111.4(6) 2_545 3_555 n
O1 W2 O3 113.3(5) 3_555 1_555 n
O1 W2 O5 105.1(4) 3_555 1_555 n
O1 W2 O6 111.1(5) 3_555 1_555 n
O3 W2 O5 107.8(5) 1_555 1_555 n
O3 W2 O6 113.2(5) 1_555 1_555 n
O5 W2 O6 105.7(4) 1_555 1_555 n
Sc1 O1 W2 152.3(6) -2_466 3_554 n
Sc1 O2 W1 161.2(6) -2_555 1_555 n
Sc1 O3 W2 152.4(6) -2_466 1_555 n
Sc1 O4 W1 145.7(6) 1_555 2_554 n
Sc1 O5 W2 172.5(6) 4_565 1_555 n
Sc1 O6 W2 153.4(6) 1_555 1_555 n
loop_
_geom_bond_atom_site_label_1
_geom_bond_atom_site_label_2
_geom_bond_distance
_geom_bond_site_symmetry_2
_geom_bond_publ_flag
Sc1 O1 2.095(10) -2_555 n
Sc1 O2 2.125(11) -2_555 n
Sc1 O3 2.074(11) -2_555 n
Sc1 O4 2.123(10) 1_555 n
Sc1 O5 2.067(10) 4_565 n
Sc1 O6 2.023(10) 1_555 n
W1 O2 1.716(11) 1_555 n
W1 O2 1.716(11) 4_555 n
W1 O4 1.782(9) 2_545 n
W1 O4 1.782(9) 3_555 n
W2 O1 1.746(10) 3_555 n
W2 O3 1.759(10) 1_555 n
W2 O5 1.790(10) 1_555 n
W2 O6 1.773(11) 1_555 n
O1 Sc1 2.095(10) -2_455 n
O1 W2 1.746(10) 3_554 n
O2 Sc1 2.125(11) -2_455 n
O2 W1 1.716(11) 1_555 n
O3 Sc1 2.074(11) -2_455 n
O3 W2 1.759(10) 1_555 n
O4 Sc1 2.123(10) 1_555 n
O4 W1 1.782(9) 2_554 n
O5 Sc1 2.067(10) 4_565 n
O5 W2 1.790(10) 1_555 n
O6 Sc1 2.023(10) 1_555 n
O6 W2 1.773(11) 1_555 n
loop_
_pd_meas_counts_total
_pd_proc_ls_weight
_pd_proc_intensity_bkg_calc
_pd_calc_intensity_total
309.0 0.0 669.89484 .
315.0 0.0 666.29572 .
346.0 0.0 662.72406 .
321.0 0.0 659.17932 .
291.0 0.0 655.66101 .
324.0 0.0 652.17023 .
358.0 0.0 648.70557 .
320.0 0.0 645.26733 .
323.0 0.0 641.85571 .
323.0 0.0 638.46985 .
336.0 0.0 635.11041 .
318.0 0.0 631.77673 .
297.0 0.0 628.46875 .
321.0 0.0 625.18677 .
330.0 0.0 621.92999 .
307.0 0.0 618.69885 .
316.0 0.0 615.49280 .
328.0 0.0 612.31158 .
330.0 0.0 609.15594 .
325.0 0.0 606.02515 .
316.0 0.0 602.91907 .
311.0 0.0 599.83728 .
303.0 0.0 596.78015 .
319.0 0.0 593.74744 .
320.0 0.0 590.73920 .
332.0 0.0 587.75494 .
324.0 0.0 584.79462 .
325.0 0.0 581.85803 .
322.0 0.0 578.94525 .
326.0 0.0 576.05646 .
329.0 0.0 573.19080 .
319.0 0.0 570.34851 .
321.0 0.0 567.52936 .
323.0 0.0 564.73383 .
329.0 0.0 561.96106 .
305.0 0.0 559.21124 .
307.0 0.0 556.48407 .
325.0 0.0 553.77942 .
305.0 0.0 551.09747 .
306.0 0.0 548.43817 .
328.0 0.0 545.80084 .
331.0 0.0 543.18585 .
342.0 0.0 540.59259 .
363.0 0.0 538.02167 .
369.0 0.0 535.47253 .
360.0 0.0 532.94501 .
360.0 0.0 530.43896 .
325.0 0.0 527.95435 .
329.0 0.0 525.49133 .
318.0 0.0 523.04950 .
333.0 0.0 520.62891 .
338.0 0.0 518.22913 .
319.0 0.0 515.85004 .
344.0 0.0 513.49213 .
337.0 0.0 511.15479 .
301.0 0.0 508.83804 .
344.0 0.0 506.54169 .
357.0 0.0 504.26550 .
305.0 0.0 502.00980 .
313.0 0.0 499.77429 .
337.0 0.0 497.55872 .
317.0 0.0 495.36279 .
340.0 0.0 493.18671 .
324.0 0.0 491.03052 .
321.0 0.0 488.89389 .
304.0 0.0 486.77682 .
319.0 0.0 484.67874 .
322.0 0.0 482.60010 .
333.0 0.0 480.54062 .
338.0 0.0 478.50024 .
344.0 0.0 476.47876 .
363.0 0.0 474.47607 .
331.0 0.0 472.49210 .
352.0 0.0 470.52664 .
353.0 0.0 468.57996 .
332.0 0.0 466.65158 .
339.0 0.0 464.74127 .
342.0 0.0 462.84952 .
354.0 0.0 460.97559 .
354.0 0.0 459.11984 .
366.0 0.0 457.28204 .
358.0 0.0 455.46182 .
343.0 0.0 453.65936 .
325.0 0.0 451.87442 .
331.0 0.0 450.10724 .
364.0 0.0 448.35730 .
369.0 0.0 446.62466 .
335.0 0.0 444.90918 .
309.0 0.0 443.21075 .
327.0 0.0 441.52951 .
325.0 0.0 439.86508 .
341.0 0.0 438.21741 .
357.0 0.0 436.58636 .
357.0 0.0 434.97195 .
342.0 0.0 433.37424 .
337.0 0.0 431.79300 .
341.0 0.0 430.22775 .
348.0 0.0 428.67883 .
361.0 0.0 427.14606 .
365.0 0.0 425.62949 .
368.0 0.0 424.12885 .
344.0 0.0 422.64380 .
356.0 0.0 421.17465 .
360.0 0.0 419.72128 .
347.0 0.0 418.28326 .
322.0 0.0 416.86096 .
368.0 0.0 415.45380 .
353.0 0.0 414.06213 .
360.0 0.0 412.68555 .
359.0 0.0 411.32416 .
347.0 0.0 409.97781 .
372.0 0.0 408.64636 .
380.0 0.0 407.32962 .
336.0 0.0 406.02792 .
358.0 0.0 404.74066 .
385.0 0.0 403.46805 .
380.0 0.0 402.20993 .
360.0 0.002778 400.96613 400.96313
344.0 0.002907 399.73685 399.73389
355.0 0.002817 398.52161 398.51871
372.0 0.002688 397.32068 397.31775
371.0 0.002695 396.13367 396.13092
359.0 0.002786 394.96051 394.95782
332.0 0.003012 393.80151 393.79880
345.0 0.002899 392.65619 392.65353
348.0 0.002874 391.52457 391.52203
367.0 0.002725 390.40659 390.40399
351.0 0.002849 389.30206 389.29953
339.0 0.002950 388.21112 388.20871
336.0 0.002976 387.13361 387.13110
337.0 0.002967 386.06931 386.06683
336.0 0.002976 385.01819 385.01581
371.0 0.002695 383.98022 383.97778
365.0 0.002740 382.95529 382.95300
337.0 0.002967 381.94336 381.94107
335.0 0.002985 380.94434 380.94208
343.0 0.002915 379.95816 379.95593
341.0 0.002933 378.98450 378.98227
349.0 0.002865 378.02365 378.02148
378.0 0.002646 377.07538 377.07324
370.0 0.002703 376.13956 376.13739
359.0 0.002786 375.21609 375.21402
343.0 0.002915 374.30487 374.30286
339.0 0.002950 373.40604 373.40402
343.0 0.002915 372.51941 372.51740
338.0 0.002959 371.64484 371.64288
341.0 0.002933 370.78220 370.78027
362.0 0.002762 369.93146 369.92950
365.0 0.002740 369.09271 369.09085
332.0 0.003012 368.26575 368.26389
347.0 0.002882 367.45038 367.44855
370.0 0.002703 366.64673 366.64484
366.0 0.002732 365.85446 365.85266
343.0 0.002915 365.07382 365.07208
340.0 0.002941 364.30463 364.30286
360.0 0.002778 363.54663 363.54495
384.0 0.002604 362.79996 362.79828
398.0 0.002513 362.06442 362.06271
358.0 0.002793 361.34006 361.33838
351.0 0.002849 360.62671 360.62509
372.0 0.002688 359.92422 359.92264
372.0 0.002688 359.23273 363.84607
404.0 0.002475 358.55194 363.59308
397.0 0.002519 357.88205 365.73126
420.0 0.002381 357.22272 365.88266
456.0 0.002193 356.57404 366.21036
428.0 0.002336 355.93582 366.78143
383.0 0.002611 355.30801 367.72778
416.0 0.002404 354.69073 369.50723
468.0 0.002137 354.08365 373.82990
410.0 0.002439 353.48688 383.75137
419.0 0.002387 352.90021 400.54056
444.0 0.002252 352.32370 423.37814
490.0 0.002041 351.75723 451.11789
527.0 0.001898 351.20074 482.44858
476.0 0.002101 350.65417 516.84375
474.0 0.002110 350.11725 554.45825
551.0 0.001815 349.59027 595.67584
582.0 0.001718 349.07294 640.98846
642.0 0.001558 348.56525 691.00964
698.0 0.001433 348.06702 746.54352
724.0 0.001381 347.57837 808.70508
780.0 0.001282 347.09909 878.94196
897.0 0.001115 346.62921 959.02887
993.0 0.001007 346.16870 1051.41565
1104.0 0.000906 345.71732 1159.70862
1304.0 0.000767 345.27505 1288.89648
1543.0 0.000648 344.84195 1446.85327
1809.0 0.000553 344.41791 1646.19153
2221.0 0.000450 344.00281 1909.97913
2823.0 0.000354 343.59659 2288.77393
3542.0 0.0002823 343.19919 2903.72876
4162.0 0.0002403 342.81067 3781.42407
4214.0 0.0002373 342.43069 4030.92090
3351.0 0.0002984 342.05957 3019.35986
2184.0 0.000458 341.69693 2046.81067
1241.0 0.000806 341.34277 1107.45728
684.0 0.001462 340.99707 620.43256
510.0 0.001961 340.65988 481.64069
449.0 0.002227 340.33096 435.30725
409.0 0.002445 340.01038 410.07431
399.0 0.002506 339.69791 393.83215
392.0 0.002551 339.39365 382.63113
372.0 0.002688 339.09744 374.51730
380.0 0.002632 338.80930 368.41043
383.0 0.002611 338.52924 363.67133
380.0 0.002632 338.25693 359.89966
372.0 0.002688 337.99246 356.83466
362.0 0.002762 337.73596 354.29922
403.0 0.002481 337.48706 352.16922
390.0 0.002564 337.24591 350.35596
345.0 0.002899 337.01233 348.79413
368.0 0.002717 336.78632 347.43536
385.0 0.002597 336.56778 346.24252
358.0 0.002793 336.35681 345.18692
364.0 0.002747 336.15314 339.15060
363.0 0.002755 335.95685 338.70209
348.0 0.002874 335.76776 335.76703
349.0 0.002865 335.58591 335.58521
367.0 0.002725 335.41129 335.41055
357.0 0.002801 335.24365 335.24304
370.0 0.002703 335.08316 335.08252
371.0 0.002695 334.92969 334.92896
378.0 0.002646 334.78311 334.78244
393.0 0.002545 334.64337 334.64273
368.0 0.002717 334.51056 334.50992
351.0 0.002849 334.38449 334.38379
390.0 0.002564 334.26514 334.26447
365.0 0.002740 334.15244 334.15176
373.0 0.002681 334.04639 334.04575
362.0 0.002762 333.94690 333.94629
331.0 0.003021 333.85388 333.85324
343.0 0.002915 333.76730 333.76669
359.0 0.002786 333.68719 333.68649
372.0 0.002688 333.61340 333.61276
385.0 0.002597 333.54587 333.54526
421.0 0.002375 333.48462 333.48401
368.0 0.002717 333.42953 333.42896
372.0 0.002688 333.38065 333.38004
383.0 0.002611 333.33780 333.33725
377.0 0.002653 333.30106 339.63251
376.0 0.002660 333.27026 340.11783
379.0 0.002639 333.24545 343.79852
417.0 0.002398 333.22644 344.70651
377.0 0.002653 333.21329 345.76309
400.0 0.002500 333.20602 347.00403
412.0 0.002427 333.20441 348.48004
400.0 0.002500 333.20850 350.26584
439.0 0.002278 333.21829 352.47913
456.0 0.002193 333.23355 355.33823
466.0 0.002146 333.25449 359.50424
490.0 0.002041 333.28088 367.53424
495.0 0.002020 333.31268 384.85919
523.0 0.001912 333.34995 414.63953
544.0 0.001838 333.39249 455.82968
571.0 0.001751 333.44037 507.10889
616.0 0.001623 333.49350 566.55322
641.0 0.001560 333.55188 632.74091
692.0 0.001445 333.61542 705.80267
753.0 0.001328 333.68399 786.65192
799.0 0.001252 333.75772 876.61517
898.0 0.001114 333.83652 977.45038
1007.0 0.000993 333.92020 1091.39575
1137.0 0.000880 334.00891 1221.34265
1301.0 0.000769 334.10242 1371.36108
1462.0 0.000684 334.20078 1547.45422
1623.0 0.000616 334.30402 1758.06201
1959.0 0.000510 334.41190 2015.93054
2349.0 0.000426 334.52457 2342.91016
2922.0 0.0003422 334.64191 2778.53589
3700.0 0.0002703 334.76382 3413.08594
4894.0 0.0002043 334.89038 4447.70605
5778.0 0.0001731 335.02139 5794.56689
5514.0 0.0001814 335.15701 5830.19238
4067.0 0.0002459 335.29697 4206.63623
2742.0 0.000365 335.44131 2958.13403
1521.0 0.000657 335.59012 1585.71436
804.0 0.001244 335.74326 798.06805
557.0 0.001795 335.90057 564.60120
499.0 0.002004 336.06216 488.85156
458.0 0.002183 336.22797 448.68347
404.0 0.002475 336.39792 423.17102
416.0 0.002404 336.57202 405.81238
471.0 0.002123 336.75012 393.42865
386.0 0.002591 336.93231 384.26978
389.0 0.002571 337.11841 377.30292
386.0 0.002591 337.30847 371.88278
371.0 0.002695 337.50253 367.58905
382.0 0.002618 337.70041 364.13681
389.0 0.002571 337.90210 361.32669
401.0 0.002494 338.10760 359.01596
381.0 0.002625 338.31680 357.10019
375.0 0.002667 338.52975 355.50125
375.0 0.002667 338.74637 354.16000
393.0 0.002545 338.96658 344.26364
411.0 0.002433 339.19046 344.01758
382.0 0.002618 339.41788 339.41733
398.0 0.002513 339.64880 339.64825
379.0 0.002639 339.88324 339.88269
359.0 0.002786 340.12103 340.12042
398.0 0.002513 340.36218 340.36160
358.0 0.002793 340.60678 340.60629
365.0 0.002740 340.85477 340.85422
364.0 0.002747 341.10596 341.10541
363.0 0.002755 341.36041 341.35989
395.0 0.002532 341.61804 341.61749
381.0 0.002625 341.87894 341.87839
393.0 0.002545 342.14294 342.14243
371.0 0.002695 342.41013 342.40948
380.0 0.002632 342.68024 342.67975
372.0 0.002688 342.95349 342.95294
379.0 0.002639 343.22968 343.22919
355.0 0.002817 343.50888 343.50833
371.0 0.002695 343.79102 343.79041
382.0 0.002618 344.07602 344.07544
376.0 0.002660 344.36380 344.36328
362.0 0.002762 344.65460 344.65396
350.0 0.002857 344.94806 344.94754
349.0 0.002865 345.24432 345.24368
370.0 0.002703 345.54327 345.54269
370.0 0.002703 345.84488 345.84436
356.0 0.002809 346.14920 346.14871
359.0 0.002786 346.45621 346.45557
360.0 0.002778 346.76569 346.76508
379.0 0.002639 347.07773 347.07715
386.0 0.002591 347.39240 347.39172
359.0 0.002786 347.70938 347.70886
341.0 0.002933 348.02896 348.02838
325.0 0.003077 348.35101 348.35028
337.0 0.002967 348.67529 348.67471
345.0 0.002899 349.00201 349.00140
340.0 0.002941 349.33105 349.33041
338.0 0.002959 349.66241 349.66180
348.0 0.002874 349.99600 349.99542
346.0 0.002890 350.33188 350.33118
339.0 0.002950 350.66986 350.66931
354.0 0.002825 351.01007 351.00952
359.0 0.002786 351.35242 351.35187
334.0 0.002994 351.69699 351.69635
356.0 0.002809 352.04349 352.04285
350.0 0.002857 352.39206 352.39142
360.0 0.002778 352.74274 352.74210
360.0 0.002778 353.09534 353.09470
380.0 0.002632 353.44989 353.44928
332.0 0.003012 353.80634 353.80569
334.0 0.002994 354.16479 354.16406
347.0 0.002882 354.52509 354.52441
355.0 0.002817 354.88712 354.88647
334.0 0.002994 355.25113 355.25046
373.0 0.002681 355.61679 355.61609
376.0 0.002660 355.98419 355.98352
349.0 0.002865 356.35336 356.35278
396.0 0.002525 356.72433 356.72366
344.0 0.002907 357.09686 357.09619
320.0 0.003125 357.47110 357.47043
339.0 0.002950 357.84689 357.84619
366.0 0.002732 358.22430 358.22357
379.0 0.002639 358.60327 358.60260
351.0 0.002849 358.98376 358.98312
330.0 0.003030 359.36578 359.36508
337.0 0.002967 359.74927 359.74850
382.0 0.002618 360.13416 360.13348
375.0 0.002667 360.52060 360.51987
349.0 0.002865 360.90826 360.90756
344.0 0.002907 361.29745 361.29669
344.0 0.002907 361.68790 361.68716
355.0 0.002817 362.07971 362.07901
354.0 0.002825 362.47287 362.47208
354.0 0.002825 362.86716 362.86642
347.0 0.002882 363.26273 363.26199
366.0 0.002732 363.65961 363.65884
353.0 0.002833 364.05756 364.05685
346.0 0.002890 364.45685 364.45605
341.0 0.002933 364.85715 364.85635
333.0 0.003003 365.25854 365.25775
326.0 0.003067 365.66104 365.66031
331.0 0.003021 366.06476 366.06396
368.0 0.002717 366.46939 366.46863
381.0 0.002625 366.87503 366.87427
341.0 0.002933 367.28168 367.28091
355.0 0.002817 367.68930 367.68851
379.0 0.002639 368.09787 368.09708
365.0 0.002740 368.50739 368.50662
353.0 0.002833 368.91782 368.91702
344.0 0.002907 369.32907 369.32834
351.0 0.002849 369.74118 369.74039
375.0 0.002667 370.15417 370.15344
358.0 0.002793 370.56796 370.56720
336.0 0.002976 370.98257 370.98184
359.0 0.002786 371.39789 371.39709
373.0 0.002681 371.81396 371.81314
347.0 0.002882 372.23077 372.22995
338.0 0.002959 372.64822 372.64743
357.0 0.002801 373.06635 373.06561
365.0 0.002740 373.48517 373.48441
339.0 0.002950 373.90463 373.90378
352.0 0.002841 374.32480 374.32397
383.0 0.002611 374.74542 374.74454
363.0 0.002755 375.16660 375.16577
352.0 0.002841 375.58829 375.58746
353.0 0.002833 376.01059 376.00980
328.0 0.003049 376.43341 376.43259
343.0 0.002915 376.85666 376.85580
328.0 0.003049 377.28046 377.27957
329.0 0.003040 377.70453 377.70370
323.0 0.003096 378.12918 378.12827
371.0 0.002695 378.55414 378.55331
344.0 0.002907 378.97955 378.97861
360.0 0.002778 379.40530 379.40442
349.0 0.002865 379.83127 379.83051
352.0 0.002841 380.25775 380.25690
365.0 0.002740 380.68445 380.68356
352.0 0.002841 381.11142 381.11057
329.0 0.003040 381.53870 381.53784
369.0 0.002710 381.96613 381.96530
343.0 0.002915 382.39383 382.39297
359.0 0.002786 382.82181 382.82089
354.0 0.002825 383.24988 383.24905
347.0 0.002882 383.67813 383.67725
367.0 0.002725 384.10657 384.10568
360.0 0.002778 384.53510 384.53427
379.0 0.002639 384.96381 384.96292
351.0 0.002849 385.39252 385.39163
337.0 0.002967 385.82138 385.82053
341.0 0.002933 386.25027 386.24939
332.0 0.003012 386.67923 386.67834
324.0 0.003086 387.10822 387.10739
342.0 0.002924 387.53720 387.53632
364.0 0.002747 387.96619 387.96521
375.0 0.002667 388.39511 388.39420
361.0 0.002770 388.82394 388.82306
348.0 0.002874 389.25281 389.25183
349.0 0.002865 389.68158 389.68063
371.0 0.002695 390.11020 390.10925
371.0 0.002695 390.53876 390.53781
351.0 0.002849 390.96710 390.96616
341.0 0.002933 391.39532 391.39444
330.0 0.003030 391.82343 391.82260
356.0 0.002809 392.25137 392.25046
361.0 0.002770 392.67905 392.67819
347.0 0.002882 393.10657 393.10571
364.0 0.002747 393.53391 393.53302
374.0 0.002674 393.96097 393.96008
356.0 0.002809 394.38773 394.38681
342.0 0.002924 394.81424 394.81332
345.0 0.002899 395.24042 395.23956
373.0 0.002681 395.66638 395.66544
367.0 0.002725 396.09201 396.09109
339.0 0.002950 396.51724 396.51630
373.0 0.002681 396.94217 396.94122
399.0 0.002506 397.36670 397.36578
371.0 0.002695 397.79092 397.79004
367.0 0.002725 398.21466 398.21381
347.0 0.002882 398.63809 398.63715
330.0 0.003030 399.06100 399.06003
350.0 0.002857 399.48355 399.48254
343.0 0.002915 399.90558 399.90469
342.0 0.002924 400.32721 400.32626
358.0 0.002793 400.74832 400.74741
362.0 0.002762 401.16895 401.16806
358.0 0.002793 401.58908 401.58817
365.0 0.002740 402.00861 402.03955
359.0 0.002786 402.42776 402.46103
369.0 0.002710 402.84625 402.89734
347.0 0.002882 403.26425 403.31940
324.0 0.003086 403.68161 403.74146
356.0 0.002809 404.09845 404.16348
406.0 0.002463 404.51465 404.58578
356.0 0.002809 404.93024 405.00830
353.0 0.002833 405.34521 405.43137
380.0 0.002632 405.75949 407.39996
347.0 0.002882 406.17319 407.93793
350.0 0.002857 406.58621 408.49091
351.0 0.002849 406.99860 409.84628
356.0 0.002809 407.41016 410.49768
365.0 0.002740 407.82120 411.18579
356.0 0.002809 408.23138 412.48145
362.0 0.002762 408.64099 413.36771
362.0 0.002762 409.04974 414.40164
371.0 0.002695 409.45773 415.87427
361.0 0.002770 409.86508 417.25906
366.0 0.002732 410.27158 418.84592
386.0 0.002591 410.67731 420.66592
392.0 0.002551 411.08224 422.77505
398.0 0.002513 411.48636 425.28769
399.0 0.002506 411.88962 428.50531
396.0 0.002525 412.29214 433.45535
379.0 0.002639 412.69385 442.31650
412.0 0.002427 413.09464 456.47186
467.0 0.002141 413.49460 475.65485
478.0 0.002092 413.89362 500.14636
486.0 0.002058 414.29184 530.96680
522.0 0.001916 414.68912 569.36224
559.0 0.001789 415.08554 613.44415
586.0 0.001706 415.48099 654.43896
641.0 0.001560 415.87558 700.23212
685.0 0.001460 416.26926 760.81744
795.0 0.001258 416.66193 832.27686
911.0 0.001098 417.05365 923.27881
1015.0 0.000985 417.44443 1045.21851
1266.0 0.000790 417.83420 1215.68677
1534.0 0.000652 418.22302 1479.12109
1883.0 0.000531 418.61090 1852.78796
2008.0 0.000498 418.99774 2020.20190
1678.0 0.000596 419.38354 1657.38245
1420.0 0.000704 419.76834 1431.51575
1300.0 0.000769 420.15213 1317.00366
1170.0 0.000855 420.53488 1110.47424
1032.0 0.000969 420.91660 1033.60242
873.0 0.001145 421.29724 898.72662
727.0 0.001376 421.67676 751.68329
671.0 0.001490 422.05533 688.60779
574.0 0.001742 422.43274 581.46796
484.0 0.002066 422.80905 494.54907
432.0 0.002315 423.18423 462.86279
430.0 0.002326 423.55835 451.94348
386.0 0.002591 423.93137 446.16302
375.0 0.002667 424.30322 442.39255
362.0 0.002762 424.67395 439.75107
374.0 0.002674 425.04358 437.87024
370.0 0.002703 425.41202 436.48795
421.0 0.002375 425.77933 435.45917
406.0 0.002463 426.14548 434.68991
424.0 0.002358 426.51044 434.11661
379.0 0.002639 426.87421 433.69437
433.0 0.002309 427.23679 431.02725
385.0 0.002597 427.59824 431.00613
403.0 0.002481 427.95847 429.78799
426.0 0.002347 428.31738 429.96872
435.0 0.002299 428.67511 430.17337
414.0 0.002415 429.03165 443.24176
413.0 0.002421 429.38699 444.55112
431.0 0.002320 429.74106 445.98297
430.0 0.002326 430.09396 454.02328
425.0 0.002353 430.44547 456.29929
419.0 0.002387 430.79578 458.82516
434.0 0.002304 431.14487 461.64929
451.0 0.002217 431.49258 464.83228
495.0 0.002020 431.83917 468.45267
504.0 0.001984 432.18433 472.61368
482.0 0.002075 432.52829 477.45453
511.0 0.001957 432.87091 483.16888
550.0 0.001818 433.21219 490.03482
538.0 0.001859 433.55222 498.47559
572.0 0.001748 433.89084 509.19354
608.0 0.001645 434.22818 523.70801
671.0 0.001490 434.56427 547.22986
740.0 0.001351 434.89896 595.20587
831.0 0.001203 435.23230 687.11609
961.0 0.001041 435.56433 825.19568
1118.0 0.000894 435.89490 1004.58508
1253.0 0.000798 436.22430 1229.61719
1418.0 0.000705 436.55215 1501.52625
1659.0 0.000603 436.87869 1819.65747
1962.0 0.000510 437.20395 2190.65503
2423.0 0.000413 437.52771 2628.15356
2903.0 0.0003445 437.85013 3153.23633
3590.0 0.0002786 438.17117 3799.25879
4650.0 0.0002151 438.49078 4622.86719
5930.0 0.0001686 438.80896 5730.84912
7663.0 0.0001305 439.12576 7372.51123
10425.0 0.0000959 439.44119 9987.50781
12984.0 0.0000770 439.75525 12794.66113
11396.0 0.0000878 440.06775 11660.22754
8130.0 0.0001230 440.37885 8031.76660
6729.0 0.0001486 440.68860 6737.36084
4655.0 0.0002148 440.99689 4805.85107
2251.0 0.000444 441.30374 2297.44824
1110.0 0.000901 441.60901 1209.68689
767.0 0.001304 441.91309 891.58136
659.0 0.001517 442.21555 760.14905
599.0 0.001669 442.51654 682.64362
580.0 0.001724 442.81613 631.53668
529.0 0.001890 443.11423 595.83270
509.0 0.001965 443.41086 569.81140
501.0 0.001996 443.70602 550.21936
514.0 0.001946 443.99973 535.08093
475.0 0.002105 444.29187 523.13641
481.0 0.002079 444.58258 513.54797
502.0 0.001992 444.87177 505.73679
487.0 0.002053 445.15952 499.29462
512.0 0.001953 445.44580 493.92450
531.0 0.001883 445.73047 489.40726
504.0 0.001984 446.01373 485.57758
425.0 0.002353 446.29550 460.48273
444.0 0.002252 446.57562 459.45105
426.0 0.002347 446.85440 458.59314
453.0 0.002208 447.13150 447.13092
449.0 0.002227 447.40720 447.40659
427.0 0.002342 447.68130 447.68063
460.0 0.002174 447.95389 447.95325
470.0 0.002128 448.22498 448.22440
444.0 0.002252 448.49454 448.49396
432.0 0.002315 448.76254 448.76193
445.0 0.002247 449.02899 449.02841
429.0 0.002331 449.29391 449.29333
446.0 0.002242 449.55728 449.55670
473.0 0.002114 449.81906 449.81854
452.0 0.002212 450.07944 467.28088
477.0 0.002096 450.33813 468.76917
475.0 0.002105 450.59531 470.39545
484.0 0.002066 450.85089 480.72379
487.0 0.002053 451.10492 483.30829
488.0 0.002049 451.35742 486.18326
484.0 0.002066 451.60834 489.40225
495.0 0.002020 451.85773 493.03128
498.0 0.002008 452.10550 497.15472
503.0 0.001988 452.35172 501.88058
530.0 0.001887 452.59637 507.35031
565.0 0.001770 452.83936 513.75433
579.0 0.001727 453.08087 521.35553
616.0 0.001623 453.32080 530.53040
698.0 0.001433 453.55914 541.84235
743.0 0.001346 453.79587 556.19934
749.0 0.001335 454.03104 575.37939
815.0 0.001227 454.26456 604.91803
893.0 0.001120 454.49649 662.73590
987.0 0.001013 454.72696 777.98834
1188.0 0.000842 454.95578 961.20563
1330.0 0.000752 455.18298 1204.48486
1496.0 0.000668 455.40851 1512.45947
1740.0 0.000575 455.63254 1893.71741
2058.0 0.000486 455.85501 2350.18896
2552.0 0.000392 456.07578 2890.12280
3051.0 0.0003278 456.29501 3536.00293
3687.0 0.0002712 456.51260 4324.63818
4846.0 0.0002064 456.72864 5317.91992
6294.0 0.0001589 456.94305 6628.00146
8536.0 0.0001172 457.15585 8498.09863
11414.0 0.0000876 457.36700 11451.61133
15385.0 0.0000650 457.57660 15328.12988
16147.0 0.0000619 457.78455 15922.18848
10954.0 0.0000913 457.99097 11133.55859
8434.0 0.0001186 458.19562 8718.95410
7626.0 0.0001311 458.39890 7522.81104
4046.0 0.0002472 458.60034 4204.48145
1700.0 0.000588 458.80026 1933.19995
970.0 0.001031 458.99850 1187.80774
770.0 0.001299 459.19528 942.08295
722.0 0.001385 459.39035 814.82214
688.0 0.001453 459.58377 734.22003
642.0 0.001558 459.77567 679.22528
580.0 0.001724 459.96585 639.81683
602.0 0.001661 460.15448 610.53009
576.0 0.001736 460.34149 588.10529
586.0 0.001706 460.52682 570.53656
559.0 0.001789 460.71057 556.49707
547.0 0.001828 460.89273 545.09302
560.0 0.001786 461.07324 535.70764
582.0 0.001718 461.25220 527.88550
572.0 0.001748 461.42947 521.30249
551.0 0.001815 461.60507 515.70947
558.0 0.001792 461.77924 481.40292
544.0 0.001838 461.95160 479.71353
556.0 0.001799 462.12241 494.24698
581.0 0.001721 462.29166 479.39816
558.0 0.001792 462.45911 480.83060
578.0 0.001730 462.62521 490.26498
578.0 0.001730 462.78949 492.57092
564.0 0.001773 462.95221 495.14191
599.0 0.001669 463.11328 514.03595
637.0 0.001570 463.27277 518.42139
658.0 0.001520 463.43066 523.38025
693.0 0.001443 463.58698 536.89154
717.0 0.001395 463.74158 543.92438
721.0 0.001387 463.89456 552.04529
751.0 0.001332 464.04596 561.52679
800.0 0.001250 464.19583 572.74237
820.0 0.001220 464.34393 586.21271
818.0 0.001222 464.49054 602.74493
884.0 0.001131 464.63553 623.65021
979.0 0.001021 464.77881 651.90259
1075.0 0.000930 464.92062 697.35876
1266.0 0.000790 465.06070 785.20917
1362.0 0.000734 465.19922 940.27423
1512.0 0.000661 465.33609 1163.71545
1853.0 0.000540 465.47141 1490.79199
2154.0 0.000464 465.60516 1858.92651
2459.0 0.000407 465.73724 2320.98096
2956.0 0.0003383 465.86771 2923.38354
3580.0 0.0002793 465.99658 3675.04419
4506.0 0.0002219 466.12381 4636.14209
5696.0 0.0001756 466.24951 5860.35889
7561.0 0.0001323 466.37363 7470.12842
10056.0 0.0000994 466.49606 9733.44336
13726.0 0.0000729 466.61694 13147.37598
17727.0 0.0000564 466.73618 17241.78711
18213.0 0.0000549 466.85397 17676.91406
14652.0 0.0000683 466.96997 14114.36621
13853.0 0.0000722 467.08447 13594.53320
14758.0 0.0000678 467.19736 14464.15430
14436.0 0.0000693 467.30872 14248.63867
16045.0 0.0000623 467.41846 15806.78320
15903.0 0.0000629 467.52658 15809.66309
11255.0 0.0000888 467.63315 11231.05371
9092.0 0.0001100 467.73807 9040.97461
8664.0 0.0001154 467.84149 8710.50098
6535.0 0.0001530 467.94327 6410.00732
4610.0 0.0002169 468.04355 4671.70557
4341.0 0.0002304 468.14218 4675.60645
5036.0 0.0001986 468.23923 5493.37549
6075.0 0.0001646 468.33475 6687.69434
7315.0 0.0001367 468.42868 8227.54199
9146.0 0.0001093 468.52106 10201.10547
12053.0 0.0000830 468.61185 12801.05273
16034.0 0.0000624 468.70102 16442.34375
21980.0 0.0000455 468.78864 22091.63867
29677.0 0.00003370 468.87473 30360.80273
33522.0 0.00002983 468.95926 35056.49219
26886.0 0.0000372 469.04230 26385.46484
18930.0 0.0000528 469.12363 18668.91797
16456.0 0.0000608 469.20349 17329.68164
12243.0 0.0000817 469.28183 12347.97461
6053.0 0.0001652 469.35858 5622.66699
2671.0 0.000374 469.43378 2650.63232
1750.0 0.000571 469.50745 1761.69946
1447.0 0.000691 469.57956 1388.64417
1236.0 0.000809 469.65012 1173.27319
1050.0 0.000952 469.71912 1014.08765
920.0 0.001087 469.78659 912.55035
845.0 0.001183 469.85251 841.15637
787.0 0.001271 469.91702 785.42426
801.0 0.001248 469.97986 742.38232
796.0 0.001256 470.04120 708.52075
733.0 0.001364 470.10104 681.46521
703.0 0.001422 470.15930 663.09595
724.0 0.001381 470.21609 645.58679
724.0 0.001381 470.27142 631.38959
687.0 0.001456 470.32513 621.63727
672.0 0.001488 470.37735 612.67798
643.0 0.001555 470.42804 543.85022
621.0 0.001610 470.47723 544.01483
634.0 0.001577 470.52496 545.61768
615.0 0.001626 470.57117 517.42206
697.0 0.001435 470.61588 525.69135
732.0 0.001366 470.65906 538.08044
699.0 0.001431 470.70074 561.19629
766.0 0.001305 470.74097 606.31824
804.0 0.001244 470.77966 678.15619
898.0 0.001114 470.81686 773.71075
1031.0 0.000970 470.85260 895.06812
1127.0 0.000887 470.88681 1048.45825
1264.0 0.000791 470.91965 1238.09326
1446.0 0.000692 470.95099 1470.80786
1745.0 0.000573 470.98074 1764.27148
2065.0 0.000484 471.00909 2149.83765
2715.0 0.000368 471.03604 2678.60229
3644.0 0.0002744 471.06134 3460.31396
4911.0 0.0002036 471.08536 4653.55859
5688.0 0.0001758 471.10779 5803.17432
5030.0 0.0001988 471.12888 5226.75781
3792.0 0.0002637 471.14841 3901.55249
3606.0 0.0002773 471.16650 3733.01294
3328.0 0.0003005 471.18323 3633.09888
2861.0 0.0003495 471.19846 2901.78394
2570.0 0.000389 471.21225 2711.96289
3203.0 0.0003122 471.22461 3208.93896
3468.0 0.0002884 471.23547 3676.58105
2930.0 0.0003413 471.24500 3017.68652
2081.0 0.000481 471.25305 2190.97437
1855.0 0.000539 471.25970 2040.39587
1656.0 0.000604 471.26489 1757.55505
1122.0 0.000891 471.26868 1112.22253
774.0 0.001292 471.27100 752.72693
624.0 0.001603 471.27200 636.01471
599.0 0.001669 471.27148 590.78723
583.0 0.001715 471.26962 564.58020
590.0 0.001695 471.26630 546.94476
556.0 0.001799 471.26166 534.30304
564.0 0.001773 471.25555 524.82715
546.0 0.001832 471.24808 517.48944
551.0 0.001815 471.23929 502.18607
540.0 0.001852 471.22906 498.22476
521.0 0.001919 471.21741 494.99945
509.0 0.001965 471.20438 487.46817
566.0 0.001767 471.19000 485.63538
553.0 0.001808 471.17426 484.09430
489.0 0.002045 471.15710 482.78427
484.0 0.002066 471.13867 481.66061
520.0 0.001923 471.11871 475.00165
521.0 0.001919 471.09750 474.61438
504.0 0.001984 471.07498 474.27536
505.0 0.001980 471.05109 471.05197
533.0 0.001876 471.02576 471.02670
543.0 0.001842 470.99911 471.00015
517.0 0.001934 470.97119 470.97214
510.0 0.001961 470.94189 482.10754
510.0 0.001961 470.91119 482.87317
520.0 0.001923 470.87930 483.72659
510.0 0.001961 470.84598 490.05145
519.0 0.001927 470.81134 491.50198
509.0 0.001965 470.77536 493.13428
489.0 0.002045 470.73810 494.98117
493.0 0.002028 470.69955 497.08081
526.0 0.001901 470.65973 499.48471
574.0 0.001742 470.61853 502.25464
632.0 0.001582 470.57602 505.47305
592.0 0.001689 470.53223 509.24716
586.0 0.001706 470.48706 513.71674
599.0 0.001669 470.44080 519.08014
608.0 0.001645 470.39319 525.61066
615.0 0.001626 470.34421 533.71765
628.0 0.001592 470.29401 544.03790
728.0 0.001374 470.24252 557.66089
758.0 0.001319 470.18973 577.25085
805.0 0.001242 470.13574 611.69891
876.0 0.001142 470.08041 682.03986
945.0 0.001058 470.02386 805.16473
1061.0 0.000943 469.96613 985.15430
1264.0 0.000791 469.90698 1215.74976
1520.0 0.000658 469.84674 1507.56848
1903.0 0.000525 469.78513 1877.52551
2336.0 0.000428 469.72235 2340.93042
2813.0 0.000355 469.65829 2923.17920
3555.0 0.0002813 469.59305 3676.98413
4762.0 0.0002100 469.52664 4715.67432
6605.0 0.0001514 469.45886 6299.31934
8932.0 0.0001120 469.38998 8608.78223
10224.0 0.0000978 469.31976 10076.91992
8288.0 0.0001207 469.24838 7808.20557
5708.0 0.0001752 469.17584 5424.53271
5140.0 0.0001946 469.10211 5151.18457
4555.0 0.0002195 469.02713 4469.01416
2544.0 0.000393 468.95102 2478.24756
1286.0 0.000778 468.87363 1286.78271
901.0 0.001110 468.79510 898.46777
807.0 0.001239 468.71536 782.38318
736.0 0.001359 468.63443 709.10681
737.0 0.001357 468.55231 662.74640
661.0 0.001513 468.46909 642.26434
639.0 0.001565 468.38467 621.20874
597.0 0.001675 468.29913 606.55084
588.0 0.001701 468.21234 596.37946
586.0 0.001706 468.12448 589.62463
594.0 0.001684 468.03540 585.59277
598.0 0.001672 467.94519 583.89362
604.0 0.001656 467.85385 584.26385
643.0 0.001555 467.76141 586.65283
684.0 0.001462 467.66776 591.12250
715.0 0.001399 467.57309 597.88147
734.0 0.001362 467.47720 588.98248
768.0 0.001302 467.38022 603.18677
825.0 0.001212 467.28214 621.52130
877.0 0.001140 467.18292 645.67969
969.0 0.001032 467.08261 670.25134
1098.0 0.000911 466.98120 723.27960
1266.0 0.000790 466.87863 825.46796
1412.0 0.000708 466.77496 1027.08130
1675.0 0.000597 466.67032 1348.81689
2082.0 0.000480 466.56445 1781.68384
2417.0 0.000414 466.45764 2337.66284
2863.0 0.0003493 466.34970 3051.78320
3555.0 0.0002813 466.24063 3957.80078
4580.0 0.0002183 466.13055 5095.82568
6166.0 0.0001622 466.01938 6563.15869
8483.0 0.0001179 465.90714 8566.12012
12144.0 0.0000823 465.79379 11574.36719
16987.0 0.0000589 465.67944 16096.67969
21058.0 0.0000475 465.56409 19817.38867
16913.0 0.0000591 465.44766 16355.02832
11115.0 0.0000900 465.33020 10822.22754
10150.0 0.0000985 465.21173 9805.19727
9683.0 0.0001033 465.09213 9340.64941
5789.0 0.0001727 464.97159 5615.04834
2486.0 0.000402 464.84998 2603.92358
1337.0 0.000748 464.72742 1498.25500
1001.0 0.000999 464.60382 1134.36121
878.0 0.001139 464.47910 958.63605
802.0 0.001247 464.35355 844.61969
702.0 0.001425 464.22684 762.81287
660.0 0.001515 464.09924 706.03290
622.0 0.001608 463.97058 665.35229
552.0 0.001812 463.84097 634.58923
615.0 0.001626 463.71042 610.53979
561.0 0.001783 463.57883 591.30157
531.0 0.001883 463.44629 575.64594
516.0 0.001938 463.31274 562.70801
506.0 0.001976 463.17828 551.87628
496.0 0.002016 463.04285 542.71185
480.0 0.002083 462.90640 534.87524
502.0 0.001992 462.76913 489.87552
515.0 0.001942 462.63080 487.12549
504.0 0.001984 462.49155 484.73599
478.0 0.002092 462.35147 482.64450
463.0 0.002160 462.21024 462.35410
479.0 0.002088 462.06827 462.12357
495.0 0.002020 461.92529 461.97534
472.0 0.002119 461.78140 461.82684
476.0 0.002101 461.63663 461.67825
485.0 0.002062 461.49084 461.49286
509.0 0.001965 461.34427 461.34625
484.0 0.002066 461.19678 461.19873
465.0 0.002151 461.04834 461.05032
456.0 0.002193 460.89902 460.90097
452.0 0.002212 460.74878 460.75082
458.0 0.002183 460.59772 460.59973
447.0 0.002237 460.44577 460.44778
450.0 0.002222 460.29288 460.29486
470.0 0.002128 460.13910 460.14127
457.0 0.002188 459.98450 459.98666
449.0 0.002227 459.82910 459.83121
458.0 0.002183 459.67285 459.67493
462.0 0.002165 459.51566 459.51764
481.0 0.002079 459.35767 459.35971
480.0 0.002083 459.19870 459.20093
466.0 0.002146 459.03906 459.04117
480.0 0.002083 458.87860 458.88068
480.0 0.002083 458.71716 458.71930
457.0 0.002188 458.55499 458.55716
452.0 0.002212 458.39194 458.39413
437.0 0.002288 458.22815 458.23029
445.0 0.002247 458.06351 458.06570
465.0 0.002151 457.89807 457.90021
460.0 0.002174 457.73181 457.73395
470.0 0.002128 457.56467 457.56686
441.0 0.002268 457.39688 457.39911
455.0 0.002198 457.22824 457.23047
456.0 0.002193 457.05875 457.06097
458.0 0.002183 456.88855 456.89078
444.0 0.002252 456.71759 456.71982
473.0 0.002114 456.54587 456.54813
429.0 0.002331 456.37332 456.37558
420.0 0.002381 456.19998 464.11871
495.0 0.002020 456.02597 464.49548
458.0 0.002183 455.85117 464.93167
454.0 0.002203 455.67560 469.16086
447.0 0.002237 455.49930 469.99658
463.0 0.002160 455.32217 470.95212
440.0 0.002273 455.14441 472.04694
466.0 0.002146 454.96588 473.30673
500.0 0.002000 454.78671 474.76123
474.0 0.002110 454.60678 476.44955
534.0 0.001873 454.42596 478.42047
491.0 0.002037 454.24463 480.73483
469.0 0.002132 454.06247 483.47543
504.0 0.001984 453.87967 486.74887
514.0 0.001946 453.69614 490.70334
534.0 0.001873 453.51187 495.54568
565.0 0.001770 453.32703 501.57013
556.0 0.001799 453.14139 509.23291
561.0 0.001783 452.95514 519.26361
662.0 0.001511 452.76819 533.10065
708.0 0.001412 452.58047 554.94672
749.0 0.001335 452.39221 597.22607
831.0 0.001203 452.20319 679.90601
1001.0 0.000999 452.01367 810.74176
1088.0 0.000919 451.82333 988.64850
1262.0 0.000792 451.63239 1219.70337
1502.0 0.000666 451.44080 1517.95300
1906.0 0.000525 451.24854 1903.13635
2427.0 0.000412 451.05563 2406.24902
3159.0 0.0003166 450.86218 3096.59912
4370.0 0.0002288 450.66803 4112.47461
6170.0 0.0001621 450.47327 5643.66016
7609.0 0.0001314 450.27786 7077.18652
6547.0 0.0001527 450.08185 6223.10547
4353.0 0.0002297 449.88522 4135.41455
3768.0 0.0002654 449.68805 3563.32104
3862.0 0.0002589 449.49023 3704.09326
2961.0 0.0003377 449.29178 2808.82153
1612.0 0.000620 449.09274 1517.36731
869.0 0.001151 448.89316 921.92438
641.0 0.001560 448.69296 732.59833
556.0 0.001799 448.49222 654.94672
578.0 0.001730 448.29074 610.42749
561.0 0.001783 448.08890 581.96564
535.0 0.001869 447.88641 563.09540
517.0 0.001934 447.68335 550.59650
533.0 0.001876 447.47971 542.79364
551.0 0.001815 447.27545 538.89679
543.0 0.001842 447.07080 538.87231
540.0 0.001852 446.86554 544.13428
621.0 0.001610 446.65967 561.84760
648.0 0.001543 446.45340 599.97455
664.0 0.001506 446.24646 666.08685
730.0 0.001370 446.03906 761.07312
825.0 0.001212 445.83112 872.03900
1041.0 0.000961 445.62265 1034.49817
1212.0 0.000825 445.41373 1246.71045
1510.0 0.000662 445.20419 1527.75769
1993.0 0.000502 444.99420 1905.61926
2675.0 0.000374 444.78372 2477.62256
3768.0 0.0002654 444.57269 3333.71875
4661.0 0.0002145 444.36124 4100.14893
3809.0 0.0002625 444.14920 3567.39258
2529.0 0.000395 443.93680 2432.66748
2196.0 0.000455 443.72385 2141.07520
2372.0 0.000422 443.51035 2241.33154
1900.0 0.000526 443.29651 1780.17932
1138.0 0.000879 443.08209 1063.15601
667.0 0.001499 442.86734 722.92517
613.0 0.001631 442.65201 615.39368
595.0 0.001681 442.43625 574.36951
552.0 0.001812 442.22009 555.18652
548.0 0.001825 442.00342 551.55243
549.0 0.001821 441.78638 562.95294
568.0 0.001761 441.56882 588.92151
584.0 0.001712 441.35077 626.74579
625.0 0.001600 441.13245 679.31274
730.0 0.001370 440.91364 751.75452
777.0 0.001287 440.69443 849.47668
954.0 0.001048 440.47482 982.95044
1207.0 0.000829 440.25470 1180.44434
1499.0 0.000667 440.03421 1481.63843
1826.0 0.000548 439.81332 1792.52332
1763.0 0.000567 439.59210 1696.44617
1338.0 0.000747 439.37036 1292.12903
1135.0 0.000881 439.14822 1190.25195
1226.0 0.000816 438.92581 1295.68896
1212.0 0.000825 438.70291 1260.02856
1066.0 0.000938 438.47980 1099.16980
1024.0 0.000977 438.25620 1095.93481
1169.0 0.000855 438.03210 1247.14087
1465.0 0.000683 437.80783 1528.17175
1935.0 0.000517 437.58310 1961.27295
2230.0 0.000448 437.35812 2323.04688
1929.0 0.000518 437.13266 2004.94421
1404.0 0.000712 436.90689 1434.88159
1243.0 0.000805 436.68085 1299.26892
1300.0 0.000769 436.45428 1356.71130
1088.0 0.000919 436.22760 1132.93176
748.0 0.001337 436.00046 763.29749
536.0 0.001866 435.77298 581.31531
475.0 0.002105 435.54514 521.39661
454.0 0.002203 435.31705 496.76346
429.0 0.002331 435.08868 482.34180
433.0 0.002309 434.85999 469.78702
413.0 0.002421 434.63083 463.10724
408.0 0.002451 434.40158 458.14142
392.0 0.002551 434.17181 454.31180
416.0 0.002404 433.94196 449.83768
385.0 0.002597 433.71176 447.48639
381.0 0.002625 433.48111 445.54114
424.0 0.002358 433.25034 443.90372
428.0 0.002336 433.01923 442.50250
411.0 0.002433 432.78790 441.28714
390.0 0.002564 432.55627 440.21918
405.0 0.002469 432.32428 435.26974
391.0 0.002558 432.09213 434.74689
380.0 0.002632 431.85959 434.26489
369.0 0.002710 431.62701 433.81656
347.0 0.002882 431.39404 431.39706
405.0 0.002469 431.16080 431.16379
392.0 0.002551 430.92737 430.93042
374.0 0.002674 430.69363 430.69669
384.0 0.002604 430.45981 430.46283
389.0 0.002571 430.22559 430.22864
408.0 0.002451 429.99118 429.99426
414.0 0.002415 429.75656 429.75961
406.0 0.002463 429.52167 429.52472
399.0 0.002506 429.28668 429.28973
420.0 0.002381 429.05145 429.05447
396.0 0.002525 428.81583 428.81888
420.0 0.002381 428.58023 428.58331
427.0 0.002342 428.34433 428.34738
411.0 0.002433 428.10822 428.11136
402.0 0.002488 427.87192 427.87509
407.0 0.002457 427.63538 427.63846
400.0 0.002500 427.39877 427.40186
381.0 0.002625 427.16190 427.16498
374.0 0.002674 426.92493 426.92801
409.0 0.002445 426.68771 426.69080
399.0 0.002506 426.45020 426.45340
401.0 0.002494 426.21271 426.21588
422.0 0.002370 425.97504 425.97815
413.0 0.002421 425.73715 425.74030
410.0 0.002439 425.49915 425.50232
405.0 0.002469 425.26086 425.26404
388.0 0.002577 425.02258 425.02573
407.0 0.002457 424.78409 424.78729
418.0 0.002392 424.54553 424.54868
419.0 0.002387 424.30676 424.30994
423.0 0.002364 424.06784 430.59436
407.0 0.002457 423.82886 430.80530
405.0 0.002469 423.58972 431.06485
421.0 0.002375 423.35046 431.38004
403.0 0.002481 423.11108 439.39771
415.0 0.002410 422.87152 440.37823
426.0 0.002347 422.63187 441.50259
411.0 0.002433 422.39209 442.79611
387.0 0.002584 422.15234 446.46176
383.0 0.002611 421.91241 450.93335
425.0 0.002353 421.67233 453.28702
425.0 0.002353 421.43219 456.01578
422.0 0.002370 421.19196 459.20142
465.0 0.002151 420.95172 464.21432
479.0 0.002088 420.71127 468.74133
478.0 0.002092 420.47073 474.15750
489.0 0.002045 420.23029 480.71246
474.0 0.002110 419.98962 488.77274
546.0 0.001832 419.74899 498.87183
587.0 0.001704 419.50818 511.86560
614.0 0.001629 419.26733 529.34534
634.0 0.001577 419.02652 555.53705
723.0 0.001383 418.78555 602.40955
801.0 0.001248 418.54456 689.88837
949.0 0.001054 418.30359 827.50311
1080.0 0.000926 418.06247 1022.80670
1355.0 0.000738 417.82141 1286.46594
1662.0 0.000602 417.58023 1648.12207
2115.0 0.000473 417.33908 2150.87207
2646.0 0.000378 417.09775 2859.26416
3859.0 0.0002591 416.85651 3894.68042
5466.0 0.0001829 416.61533 5385.04443
6767.0 0.0001478 416.37402 6747.18555
6060.0 0.0001650 416.13272 6341.50293
5206.0 0.0001921 415.89142 5394.97559
5913.0 0.0001691 415.64996 5926.51514
7029.0 0.0001423 415.40872 6964.74707
6082.0 0.0001644 415.16730 6127.55957
4314.0 0.0002318 414.92606 4248.44336
3868.0 0.0002585 414.68469 3739.57300
4368.0 0.0002289 414.44330 4198.79150
4247.0 0.0002355 414.20203 4060.62524
2868.0 0.0003487 413.96069 2726.05127
1783.0 0.000561 413.71942 1780.69861
1572.0 0.000636 413.47818 1583.45288
1582.0 0.000632 413.23691 1593.44617
1295.0 0.000772 412.99570 1286.11682
900.0 0.001111 412.75449 871.82153
638.0 0.001567 412.51337 666.68701
533.0 0.001876 412.27228 590.83514
485.0 0.002062 412.03113 554.60449
506.0 0.001976 411.79007 531.61823
500.0 0.002000 411.54910 515.54102
491.0 0.002037 411.30826 503.87070
471.0 0.002123 411.06726 495.26016
467.0 0.002141 410.82642 488.93243
459.0 0.002179 410.58569 484.42993
460.0 0.002174 410.34491 481.48615
469.0 0.002132 410.10434 479.98355
505.0 0.001980 409.86377 479.92661
514.0 0.001946 409.62320 481.45685
496.0 0.002016 409.38281 484.89554
513.0 0.001949 409.14243 492.69403
546.0 0.001832 408.90219 496.74582
576.0 0.001736 408.66199 515.59637
637.0 0.001570 408.42188 554.41968
690.0 0.001449 408.18182 628.52692
805.0 0.001242 407.94193 738.13141
949.0 0.001054 407.70215 894.73962
1099.0 0.000910 407.46243 1101.99915
1325.0 0.000755 407.22275 1380.24036
1721.0 0.000581 406.98328 1760.13110
2364.0 0.000423 406.74380 2317.89185
3300.0 0.0003030 406.50464 3169.36816
4366.0 0.0002290 406.26547 4189.63428
4237.0 0.0002360 406.02631 4315.60889
2807.0 0.000356 405.78741 3018.82373
2168.0 0.000461 405.54861 2217.12061
2267.0 0.000441 405.30991 2267.18213
2388.0 0.000419 405.07138 2390.77612
1752.0 0.000571 404.83289 1775.44885
942.0 0.001062 404.59470 1039.93530
663.0 0.001508 404.35648 713.22449
580.0 0.001724 404.11856 608.89545
551.0 0.001815 403.88071 571.20355
524.0 0.001908 403.64285 562.33331
584.0 0.001712 403.40530 576.64307
579.0 0.001727 403.16797 612.91711
601.0 0.001664 402.93063 667.02106
659.0 0.001517 402.69360 745.15698
740.0 0.001351 402.45654 855.63354
958.0 0.001044 402.21991 1013.01630
1140.0 0.000877 401.98318 1252.92810
1615.0 0.000619 401.74683 1603.25720
1861.0 0.000537 401.51059 1893.33008
1681.0 0.000595 401.27444 1669.73035
1237.0 0.000808 401.03860 1233.13391
1159.0 0.000863 400.80283 1123.37354
1216.0 0.000822 400.56735 1243.58545
1293.0 0.000773 400.33203 1287.83191
1174.0 0.000852 400.09674 1137.55640
1134.0 0.000882 399.86182 1106.83752
1208.0 0.000828 399.62698 1264.63904
1476.0 0.000678 399.39252 1554.35608
1986.0 0.000504 399.15811 1984.46643
2764.0 0.000362 398.92389 2641.99121
3841.0 0.0002603 398.69000 3622.43188
4650.0 0.0002151 398.45618 4500.34521
4007.0 0.0002496 398.22260 3964.81445
2622.0 0.000381 397.98932 2627.08887
2165.0 0.000462 397.75616 2163.93970
2331.0 0.000429 397.52335 2360.41992
2233.0 0.000448 397.29059 2327.87231
1591.0 0.000629 397.05820 1553.80688
903.0 0.001107 396.82602 914.55347
626.0 0.001597 396.59390 666.30408
549.0 0.001821 396.36218 587.17157
517.0 0.001934 396.13068 557.78418
526.0 0.001901 395.89944 550.89227
538.0 0.001859 395.66837 551.92865
523.0 0.001912 395.43747 531.26721
473.0 0.002114 395.20697 493.60233
431.0 0.002320 394.97665 474.57401
438.0 0.002283 394.74661 471.93491
432.0 0.002315 394.51682 468.05707
422.0 0.002370 394.28717 447.59677
389.0 0.002571 394.05795 430.05618
379.0 0.002639 393.82892 421.27982
372.0 0.002688 393.60016 416.83844
399.0 0.002506 393.37167 413.80801
388.0 0.002577 393.14334 410.58319
353.0 0.002833 392.91537 408.62051
371.0 0.002695 392.68768 406.93875
368.0 0.002717 392.46033 405.47134
373.0 0.002681 392.23318 404.17212
365.0 0.002740 392.00626 403.00876
348.0 0.002874 391.77972 401.95795
375.0 0.002667 391.55334 395.71799
376.0 0.002660 391.32739 395.16840
408.0 0.002451 391.10165 394.65665
377.0 0.002653 390.87625 394.17688
388.0 0.002577 390.65106 393.72482
349.0 0.002865 390.42621 390.75360
343.0 0.002915 390.20160 390.50082
363.0 0.002755 389.97742 390.25180
367.0 0.002725 389.75348 390.00607
333.0 0.003003 389.52988 389.76328
372.0 0.002688 389.30658 389.52292
332.0 0.003012 389.08353 389.28473
371.0 0.002695 388.86084 389.04843
348.0 0.002874 388.63840 388.71124
372.0 0.002688 388.41635 388.48428
355.0 0.002817 388.19455 388.25815
347.0 0.002882 387.97314 388.03284
373.0 0.002681 387.75204 387.75543
379.0 0.002639 387.53119 387.53461
353.0 0.002833 387.31079 387.31421
364.0 0.002747 387.09061 387.09406
345.0 0.002899 386.87085 386.87427
352.0 0.002841 386.65140 386.65482
375.0 0.002667 386.43219 386.43564
370.0 0.002703 386.21344 386.21683
357.0 0.002801 385.99493 385.99835
369.0 0.002710 385.77689 385.78027
360.0 0.002778 385.55908 385.56253
368.0 0.002717 385.34161 385.34506
356.0 0.002809 385.12457 385.12799
350.0 0.002857 384.90784 384.91129
343.0 0.002915 384.69147 384.69498
336.0 0.002976 384.47556 384.47897
340.0 0.002941 384.25980 384.26321
363.0 0.002755 384.04456 384.04794
373.0 0.002681 383.82956 383.83301
361.0 0.002770 383.61502 383.61847
364.0 0.002747 383.40079 383.40421
375.0 0.002667 383.18689 383.19034
373.0 0.002681 382.97348 382.97687
365.0 0.002740 382.76038 382.76376
367.0 0.002725 382.54767 382.55109
371.0 0.002695 382.33533 382.33871
363.0 0.002755 382.12323 382.12665
340.0 0.002941 381.91159 381.91510
350.0 0.002857 381.70038 381.70383
363.0 0.002755 381.48962 381.49295
382.0 0.002618 381.27917 381.28253
361.0 0.002770 381.06903 381.07239
360.0 0.002778 380.85934 380.86273
377.0 0.002653 380.65002 380.65344
393.0 0.002545 380.44116 380.44461
391.0 0.002558 380.23260 380.23602
351.0 0.002849 380.02448 380.02789
357.0 0.002801 379.81674 379.82016
368.0 0.002717 379.60941 379.61279
369.0 0.002710 379.40253 379.40594
372.0 0.002688 379.19598 379.19940
391.0 0.002558 378.98981 378.99329
352.0 0.002841 378.78415 378.78757
354.0 0.002825 378.57883 378.58218
396.0 0.002525 378.37393 378.37735
363.0 0.002755 378.16946 378.17285
366.0 0.002732 377.96530 377.96875
359.0 0.002786 377.76169 377.76508
389.0 0.002571 377.55841 377.56183
362.0 0.002762 377.35565 377.35907
362.0 0.002762 377.15320 377.15659
370.0 0.002703 376.95120 379.44443
367.0 0.002725 376.74954 379.41028
340.0 0.002941 376.54846 379.39429
392.0 0.002551 376.34772 379.39886
381.0 0.002625 376.14752 379.42688
374.0 0.002674 375.94760 380.73788
358.0 0.002793 375.74811 380.90985
360.0 0.002778 375.54913 381.12790
374.0 0.002674 375.35056 381.39981
353.0 0.002833 375.15247 381.73535
362.0 0.002762 374.95468 382.14648
378.0 0.002646 374.75751 391.85236
398.0 0.002513 374.56067 393.07584
383.0 0.002611 374.36432 394.49704
352.0 0.002841 374.16840 396.15771
388.0 0.002577 373.97281 398.11221
402.0 0.002488 373.77780 405.06223
374.0 0.002674 373.58316 408.15253
388.0 0.002577 373.38898 411.87167
405.0 0.002469 373.19537 416.42365
438.0 0.002283 373.00198 422.11694
444.0 0.002252 372.80933 433.53827
450.0 0.002222 372.61697 443.88654
487.0 0.002053 372.42502 460.06189
527.0 0.001898 372.23364 489.43484
574.0 0.001742 372.04260 540.97125
621.0 0.001610 371.85205 620.85327
712.0 0.001404 371.66205 728.25598
834.0 0.001199 371.47256 871.81628
1046.0 0.000956 371.28336 1068.67004
1376.0 0.000727 371.09470 1360.76978
1817.0 0.000550 370.90656 1803.13245
2336.0 0.000428 370.71869 2298.31006
2388.0 0.000419 370.53146 2316.73682
1945.0 0.000514 370.34473 1731.20154
1584.0 0.000631 370.15833 1433.12781
1659.0 0.000603 369.97260 1596.78088
1965.0 0.000509 369.78720 1962.98279
2058.0 0.000486 369.60229 2165.04175
2023.0 0.000494 369.41797 2243.95166
2409.0 0.000415 369.23392 2642.97705
3185.0 0.0003140 369.05054 3485.45825
4626.0 0.0002162 368.86752 4874.21484
6524.0 0.0001533 368.68512 6733.57617
7099.0 0.0001409 368.50308 7644.74512
5176.0 0.0001932 368.32153 5786.82422
3444.0 0.0002904 368.14050 3891.57080
3310.0 0.0003021 367.95990 3641.39722
4044.0 0.0002473 367.77991 4300.85205
4312.0 0.0002319 367.60031 4521.20410
3261.0 0.0003067 367.42114 3525.00464
2808.0 0.000356 367.24261 2876.00830
3162.0 0.0003163 367.06448 3149.91675
3752.0 0.0002665 366.88690 3756.10864
3557.0 0.0002811 366.70978 3553.37085
2338.0 0.000428 366.53317 2550.05933
1982.0 0.000505 366.35703 2105.95923
2221.0 0.000450 366.18146 2321.27881
2618.0 0.000382 366.00626 2736.07837
2428.0 0.000412 365.83170 2594.36890
1683.0 0.000594 365.65753 1777.89526
994.0 0.001006 365.48392 1145.05518
844.0 0.001185 365.31085 934.71063
825.0 0.001212 365.13824 931.85754
848.0 0.001179 364.96613 927.49377
678.0 0.001475 364.79449 762.75818
565.0 0.001770 364.62341 586.77069
466.0 0.002146 364.45285 501.77148
426.0 0.002347 364.28278 465.93692
436.0 0.002294 364.11319 447.57333
416.0 0.002404 363.94412 435.13754
403.0 0.002481 363.77560 425.96280
407.0 0.002457 363.60754 418.92654
385.0 0.002597 363.44009 413.43060
394.0 0.002538 363.27307 399.50494
421.0 0.002375 363.10654 396.84497
426.0 0.002347 362.94061 398.12985
403.0 0.002481 362.77515 398.45981
378.0 0.002646 362.61017 401.75214
409.0 0.002445 362.44580 403.86191
408.0 0.002451 362.28189 415.64175
424.0 0.002358 362.11856 432.92065
451.0 0.002217 361.95572 456.06039
487.0 0.002053 361.79343 490.82791
508.0 0.001969 361.63156 539.93793
555.0 0.001802 361.47025 604.90924
554.0 0.001805 361.30951 619.16010
503.0 0.001988 361.14926 541.89783
460.0 0.002174 360.98965 482.98859
452.0 0.002212 360.83041 476.05402
464.0 0.002155 360.67181 494.66455
460.0 0.002174 360.51364 492.00003
437.0 0.002288 360.35608 445.75665
405.0 0.002469 360.19910 409.59402
402.0 0.002488 360.04251 396.60403
406.0 0.002463 359.88654 393.74646
424.0 0.002358 359.73105 395.37729
431.0 0.002320 359.57617 399.53784
466.0 0.002146 359.42178 406.72275
486.0 0.002058 359.26788 419.45413
503.0 0.001988 359.11450 444.89337
576.0 0.001736 358.96179 496.47195
583.0 0.001715 358.80957 575.46082
665.0 0.001504 358.65784 693.23871
829.0 0.001206 358.50668 848.56635
1052.0 0.000951 358.35599 1069.75842
1505.0 0.000664 358.20593 1404.87756
2135.0 0.000468 358.05634 1901.12073
2666.0 0.000375 357.90738 2408.38354
2438.0 0.000410 357.75888 2299.61841
1617.0 0.000618 357.61093 1593.48767
1204.0 0.000831 357.46359 1217.97656
1231.0 0.000812 357.31674 1251.71606
1510.0 0.000662 357.17047 1411.51599
1337.0 0.000748 357.02466 1294.88757
889.0 0.001125 356.87949 874.91058
548.0 0.001825 356.73483 599.66718
468.0 0.002137 356.59070 495.14545
436.0 0.002294 356.44711 458.04327
446.0 0.002242 356.30408 440.67465
425.0 0.002353 356.16159 431.49509
434.0 0.002304 356.01968 428.14032
438.0 0.002283 355.87827 428.07220
461.0 0.002169 355.73746 434.03052
478.0 0.002092 355.59717 444.48154
494.0 0.002024 355.45737 467.18152
562.0 0.001779 355.31821 509.82523
627.0 0.001595 355.17953 576.61115
687.0 0.001456 355.04153 675.06354
828.0 0.001208 354.90402 816.65717
1050.0 0.000952 354.76703 1028.40601
1398.0 0.000715 354.63055 1357.02209
1796.0 0.000557 354.49466 1812.29443
1968.0 0.000508 354.35938 2171.04663
1907.0 0.000524 354.22455 2054.77808
1912.0 0.000523 354.09033 1922.80334
2164.0 0.000462 353.95673 2202.30884
2499.0 0.000400 353.82358 2571.98999
2311.0 0.000433 353.69104 2349.87817
1703.0 0.000587 353.55902 1686.99377
1284.0 0.000779 353.42749 1271.30713
1226.0 0.000816 353.29663 1243.54187
1282.0 0.000780 353.16632 1338.59937
1180.0 0.000847 353.03653 1218.00647
1015.0 0.000985 352.90738 997.05444
1024.0 0.000977 352.77866 960.87231
1151.0 0.000869 352.65057 1097.18481
1439.0 0.000695 352.52301 1381.20007
1788.0 0.000559 352.39603 1755.66309
1826.0 0.000548 352.26962 1886.79822
1453.0 0.000688 352.14368 1534.64539
1216.0 0.000822 352.01843 1287.36633
1326.0 0.000754 351.89359 1380.89404
1733.0 0.000577 351.76950 1703.16699
2109.0 0.000474 351.64581 2055.71265
2213.0 0.000452 351.52267 2159.94067
1851.0 0.000540 351.40021 1861.34326
1248.0 0.000801 351.27820 1286.02832
1002.0 0.000998 351.15674 983.28467
975.0 0.001026 351.03601 974.76740
1100.0 0.000909 350.91568 1078.23108
1050.0 0.000952 350.79593 1037.49854
725.0 0.001379 350.67682 763.52985
567.0 0.001764 350.55817 552.94244
439.0 0.002278 350.44019 463.82608
389.0 0.002571 350.32266 431.12643
371.0 0.002695 350.20575 414.69702
403.0 0.002481 350.08942 404.39880
361.0 0.002770 349.97357 395.37918
409.0 0.002445 349.85843 389.81747
384.0 0.002604 349.74365 386.68774
347.0 0.002882 349.62955 384.65131
388.0 0.002577 349.51599 383.62784
377.0 0.002653 349.40302 382.53302
408.0 0.002451 349.29056 383.56027
414.0 0.002415 349.17871 385.74033
432.0 0.002315 349.06738 389.44656
408.0 0.002451 348.95667 395.65189
403.0 0.002481 348.84644 407.04938
454.0 0.002203 348.73685 428.32385
528.0 0.001894 348.62778 472.84235
553.0 0.001808 348.51932 543.29340
650.0 0.001538 348.41135 645.21783
748.0 0.001337 348.30402 786.55865
953.0 0.001049 348.19720 989.55225
1305.0 0.000766 348.09091 1304.73743
1726.0 0.000579 347.98520 1707.91309
1871.0 0.000534 347.88016 1885.13464
1473.0 0.000679 347.77557 1466.63843
1015.0 0.000985 347.67163 1035.42798
911.0 0.001098 347.56812 935.97577
1029.0 0.000972 347.46524 1040.28162
1095.0 0.000913 347.36288 1123.67590
931.0 0.001074 347.26114 925.21552
675.0 0.001481 347.15994 630.92688
477.0 0.002096 347.05930 478.01572
410.0 0.002439 346.95926 422.41870
400.0 0.002500 346.85974 399.49426
382.0 0.002618 346.76077 386.53662
382.0 0.002618 346.66232 378.00729
384.0 0.002604 346.56454 372.00681
385.0 0.002597 346.46725 369.13895
396.0 0.002525 346.37054 365.87827
391.0 0.002558 346.27438 363.35635
377.0 0.002653 346.17883 361.36765
374.0 0.002674 346.08380 359.77762
346.0 0.002890 345.98929 359.24850
340.0 0.002941 345.89536 358.25952
350.0 0.002857 345.80197 357.47449
367.0 0.002725 345.70917 356.86176
371.0 0.002695 345.61697 356.40015
383.0 0.002611 345.52527 356.07605
366.0 0.002732 345.43414 364.37015
371.0 0.002695 345.34360 364.88037
362.0 0.002762 345.25357 365.58353
386.0 0.002591 345.16415 366.49838
376.0 0.002660 345.07523 367.65210
399.0 0.002506 344.98685 373.21133
388.0 0.002577 344.89911 373.16397
354.0 0.002825 344.81189 375.76840
374.0 0.002674 344.72525 378.91318
422.0 0.002370 344.63913 382.76044
414.0 0.002415 344.55353 387.56262
414.0 0.002415 344.46857 392.67169
400.0 0.002500 344.38412 401.11102
414.0 0.002415 344.30020 414.05072
448.0 0.002232 344.21689 436.86020
455.0 0.002198 344.13406 476.68201
562.0 0.001779 344.05191 536.52277
646.0 0.001548 343.97018 624.68604
738.0 0.001355 343.88901 743.89954
919.0 0.001088 343.80847 918.96643
1260.0 0.000794 343.72842 1182.96973
1606.0 0.000623 343.64902 1478.93884
1665.0 0.000601 343.57004 1520.69702
1394.0 0.000717 343.49170 1205.63037
1215.0 0.000823 343.41388 1033.87561
1231.0 0.000812 343.33664 1156.03528
1530.0 0.000654 343.25986 1488.44897
1785.0 0.000560 343.18378 1903.87598
2156.0 0.000464 343.10815 2244.39697
2787.0 0.000359 343.03305 2797.86816
3923.0 0.0002549 342.95853 3834.22754
5504.0 0.0001817 342.88452 5304.09717
6005.0 0.0001665 342.81113 6151.69434
4619.0 0.0002165 342.73822 4804.92676
2826.0 0.000354 342.66592 3055.86035
2333.0 0.000429 342.59415 2499.44263
2716.0 0.000368 342.52289 2811.31982
3131.0 0.0003194 342.45218 3266.94629
2772.0 0.000361 342.38202 2857.29492
1719.0 0.000582 342.31238 1712.99939
967.0 0.001034 342.24338 984.29547
675.0 0.001481 342.17484 703.96735
558.0 0.001792 342.10693 604.18884
520.0 0.001923 342.03940 562.36792
507.0 0.001972 341.97250 549.04321
547.0 0.001828 341.90613 556.06476
614.0 0.001629 341.84033 587.84216
673.0 0.001486 341.77512 653.16766
734.0 0.001362 341.71033 745.11401
785.0 0.001274 341.64615 804.45105
785.0 0.001274 341.58249 778.67896
761.0 0.001314 341.51938 792.40552
902.0 0.001109 341.45679 912.26508
1126.0 0.000888 341.39474 1091.53003
1155.0 0.000866 341.33331 1145.41248
1010.0 0.000990 341.27231 989.64099
855.0 0.001170 341.21191 892.89996
931.0 0.001074 341.15195 970.92670
1214.0 0.000824 341.09256 1189.79590
1510.0 0.000662 341.03378 1454.34534
1579.0 0.000633 340.97543 1506.55164
1199.0 0.000834 340.91769 1178.63806
838.0 0.001193 340.86044 840.18787
692.0 0.001445 340.80377 720.21832
739.0 0.001353 340.74753 760.96057
859.0 0.001164 340.69189 833.92529
777.0 0.001287 340.63678 776.61365
619.0 0.001616 340.58215 588.35706
493.0 0.002028 340.52808 456.51672
390.0 0.002564 340.47458 404.78857
362.0 0.002762 340.42157 384.61777
384.0 0.002604 340.36902 374.03329
362.0 0.002762 340.31711 367.17908
350.0 0.002857 340.26566 362.35361
342.0 0.002924 340.21472 358.78949
353.0 0.002833 340.16431 356.05737
340.0 0.002941 340.11447 353.90384
356.0 0.002809 340.06509 352.16605
341.0 0.002933 340.01630 350.73682
337.0 0.002967 339.96805 349.54340
345.0 0.002899 339.92023 348.14508
352.0 0.002841 339.87292 347.63425
357.0 0.002801 339.82617 346.92773
336.0 0.002976 339.77991 346.31653
341.0 0.002933 339.73422 344.95886
359.0 0.002786 339.68900 344.34576
323.0 0.003096 339.64429 344.15488
348.0 0.002874 339.60010 343.85931
352.0 0.002841 339.55646 343.60345
339.0 0.002950 339.51334 342.96039
327.0 0.003058 339.47070 341.37756
335.0 0.002985 339.42862 341.33414
312.0 0.003205 339.38696 341.31079
320.0 0.003125 339.34589 341.30841
336.0 0.002976 339.30530 341.32925
350.0 0.002857 339.26517 341.37595
352.0 0.002841 339.22556 340.76825
342.0 0.002924 339.18655 340.92285
339.0 0.002950 339.14795 341.11804
334.0 0.002994 339.10992 341.36624
336.0 0.002976 339.07227 341.68512
336.0 0.002976 339.03522 342.83731
345.0 0.002899 338.99872 343.43915
356.0 0.002809 338.96265 344.25070
337.0 0.002967 338.92703 345.40155
319.0 0.003135 338.89200 347.22754
333.0 0.003003 338.85745 350.61014
355.0 0.002817 338.82339 357.53809
379.0 0.002639 338.78989 368.50317
371.0 0.002695 338.75681 385.38055
424.0 0.002358 338.72424 408.91086
497.0 0.002012 338.69217 444.18503
542.0 0.001845 338.66064 496.64420
599.0 0.001669 338.62958 556.27478
564.0 0.001773 338.59888 560.72473
495.0 0.002020 338.56876 488.17563
471.0 0.002123 338.53922 434.71408
445.0 0.002247 338.51013 426.74197
461.0 0.002169 338.48148 446.23706
507.0 0.001972 338.45337 463.26578
489.0 0.002045 338.42566 441.55258
409.0 0.002445 338.39850 398.44559
357.0 0.002801 338.37177 374.08075
375.0 0.002667 338.34558 366.37067
400.0 0.002500 338.31979 365.37827
401.0 0.002494 338.29462 367.77539
390.0 0.002564 338.26990 374.44299
429.0 0.002331 338.24561 388.66901
417.0 0.002398 338.22174 412.90625
455.0 0.002198 338.19846 450.33667
509.0 0.001965 338.17560 504.21402
544.0 0.001838 338.15323 584.86395
718.0 0.001393 338.13132 701.64594
850.0 0.001176 338.10989 829.93750
891.0 0.001122 338.08902 836.93750
708.0 0.001412 338.06845 681.13788
531.0 0.001883 338.04846 572.23364
590.0 0.001695 338.02899 569.74335
647.0 0.001546 338.00995 636.74213
718.0 0.001393 337.99133 723.10858
772.0 0.001295 337.97314 752.16376
775.0 0.001290 337.95554 768.15039
885.0 0.001130 337.93839 873.63031
1112.0 0.000899 337.92160 1096.55164
1395.0 0.000717 337.90540 1384.63232
1370.0 0.000730 337.88950 1473.84119
1170.0 0.000855 337.87418 1163.76147
897.0 0.001115 337.85938 887.45386
870.0 0.001149 337.84491 852.47028
999.0 0.001001 337.83096 977.62195
1081.0 0.000925 337.81738 1130.49231
1022.0 0.000978 337.80441 1062.63940
798.0 0.001253 337.79181 766.44385
605.0 0.001653 337.77969 563.69812
474.0 0.002110 337.76797 496.02026
458.0 0.002183 337.75674 491.32004
467.0 0.002141 337.74600 494.39365
457.0 0.002188 337.73566 465.20502
419.0 0.002387 337.72580 414.69077
395.0 0.002532 337.71634 385.19052
375.0 0.002667 337.70740 372.59671
363.0 0.002755 337.69879 366.69873
375.0 0.002667 337.69070 363.16824
363.0 0.002755 337.68314 363.15143
359.0 0.002786 337.67587 360.94620
350.0 0.002857 337.66910 360.11639
346.0 0.002890 337.66278 359.72894
352.0 0.002841 337.65683 359.71881
368.0 0.002717 337.65143 360.05478
369.0 0.002710 337.64639 360.72925
376.0 0.002660 337.64188 362.15668
368.0 0.002717 337.63776 363.64221
375.0 0.002667 337.63400 365.57404
368.0 0.002717 337.63077 368.03952
393.0 0.002545 337.62787 371.16348
390.0 0.002564 337.62549 375.13156
405.0 0.002469 337.62347 378.97403
444.0 0.002252 337.62195 385.70050
478.0 0.002092 337.62085 394.59109
469.0 0.002132 337.62018 406.73215
535.0 0.001869 337.61987 424.37213
586.0 0.001706 337.62000 452.29950
609.0 0.001642 337.62057 508.04800
702.0 0.001425 337.62164 614.76361
861.0 0.001161 337.62302 786.29645
1111.0 0.000900 337.62485 1054.95422
1481.0 0.000675 337.62708 1433.87732
2212.0 0.000452 337.62976 2018.44250
3202.0 0.0003123 337.63281 2802.57837
3694.0 0.0002707 337.63635 3336.47510
3012.0 0.0003320 337.64032 2786.83887
1863.0 0.000537 337.64459 1820.09180
1322.0 0.000756 337.64935 1400.76331
1537.0 0.000651 337.65448 1474.88806
1949.0 0.000513 337.66000 1769.86670
2007.0 0.000498 337.66602 1889.37939
1578.0 0.000634 337.67233 1454.18774
991.0 0.001009 337.67908 936.70093
759.0 0.001318 337.68631 695.35913
667.0 0.001499 337.69394 642.05829
687.0 0.001456 337.70193 668.81152
785.0 0.001274 337.71027 751.92126
931.0 0.001074 337.71909 876.06073
1095.0 0.000913 337.72824 954.17047
930.0 0.001075 337.73782 843.62299
758.0 0.001319 337.74780 675.54053
678.0 0.001475 337.75815 609.06842
722.0 0.001385 337.76895 629.18896
771.0 0.001297 337.78015 688.24988
808.0 0.001238 337.79169 718.34998
802.0 0.001247 337.80359 657.43195
734.0 0.001362 337.81592 588.08545
709.0 0.001410 337.82864 578.62256
809.0 0.001236 337.84174 627.82385
905.0 0.001105 337.85522 752.25415
1089.0 0.000918 337.86914 992.68457
1411.0 0.000709 337.88333 1374.62244
1928.0 0.000519 337.89795 1966.53699
2862.0 0.0003494 337.91299 2827.11890
4346.0 0.0002301 337.92834 4103.54004
6059.0 0.0001650 337.94412 5546.97754
6184.0 0.0001617 337.96030 5816.12354
4339.0 0.0002305 337.97681 4094.35376
2602.0 0.000384 337.99374 2628.50952
2169.0 0.000461 338.01099 2267.84448
2535.0 0.000394 338.02859 2622.39136
3182.0 0.0003143 338.04660 3169.85889
3113.0 0.0003212 338.06500 3065.91772
2170.0 0.000461 338.08377 2028.34229
1290.0 0.000775 338.10287 1185.06299
869.0 0.001151 338.12234 832.00726
749.0 0.001335 338.14215 737.61993
760.0 0.001316 338.16235 750.88623
831.0 0.001203 338.18286 835.13977
1003.0 0.000997 338.20383 989.81610
1344.0 0.000744 338.22513 1248.25989
1758.0 0.000569 338.24673 1587.18909
1960.0 0.000510 338.26880 1780.72913
1605.0 0.000623 338.29111 1551.90112
1281.0 0.000781 338.31384 1284.43323
1262.0 0.000792 338.33688 1257.13855
1467.0 0.000682 338.36026 1481.15771
2038.0 0.000491 338.38406 1841.78870
2203.0 0.000454 338.40814 1987.78882
1707.0 0.000586 338.43259 1564.18640
1071.0 0.000934 338.45740 1077.30249
885.0 0.001130 338.48254 863.45129
949.0 0.001054 338.50800 855.67664
1039.0 0.000962 338.53384 936.57477
1089.0 0.000918 338.56006 964.88586
979.0 0.001021 338.58655 831.98285
823.0 0.001215 338.61337 698.88690
797.0 0.001255 338.64056 699.08087
848.0 0.001179 338.66806 812.89117
1045.0 0.000957 338.69589 1030.88391
1361.0 0.000735 338.72412 1378.57935
1956.0 0.000511 338.75266 1924.72095
2778.0 0.000360 338.78149 2680.22192
3247.0 0.0003080 338.81073 3359.76172
3164.0 0.0003161 338.84015 3273.18604
2669.0 0.000375 338.87000 2827.38501
2725.0 0.000367 338.90015 2882.27271
2998.0 0.0003336 338.93060 3122.59473
2848.0 0.000351 338.96143 2890.64038
2382.0 0.000420 338.99249 2508.72095
1969.0 0.000508 339.02402 2069.62671
1585.0 0.000631 339.05576 1652.00525
1466.0 0.000682 339.08783 1533.61572
1404.0 0.000712 339.12024 1494.38782
1191.0 0.000840 339.15292 1187.07471
842.0 0.001188 339.18594 841.55914
701.0 0.001427 339.21930 687.06995
688.0 0.001453 339.25293 675.40479
754.0 0.001326 339.28690 745.16260
934.0 0.001071 339.32117 885.42719
1150.0 0.000870 339.35565 1115.85022
1463.0 0.000684 339.39050 1423.93066
1648.0 0.000607 339.42569 1615.97375
1423.0 0.000703 339.46124 1396.65112
1057.0 0.000946 339.49698 1022.81134
853.0 0.001172 339.53305 844.85614
874.0 0.001144 339.56946 872.39032
1031.0 0.000970 339.60614 1017.70502
1186.0 0.000843 339.64304 1149.67249
1149.0 0.000870 339.68033 1110.23120
1051.0 0.000951 339.71790 1017.35864
1079.0 0.000927 339.75574 1052.16150
1144.0 0.000874 339.79388 1142.19226
1058.0 0.000945 339.83231 1048.48547
803.0 0.001245 339.87100 815.96515
710.0 0.001408 339.90997 702.33337
757.0 0.001321 339.94925 730.46912
871.0 0.001148 339.98883 860.99664
1015.0 0.000985 340.02875 1039.25903
1138.0 0.000879 340.06888 1185.27112
1289.0 0.000776 340.10934 1334.06555
1668.0 0.000600 340.14993 1636.39575
2060.0 0.000485 340.19095 1958.08875
1804.0 0.000554 340.23215 1837.30249
1319.0 0.000758 340.27362 1314.83972
1015.0 0.000985 340.31546 1014.29675
1047.0 0.000955 340.35754 1017.43512
1283.0 0.000779 340.39987 1231.47290
1624.0 0.000616 340.44250 1516.65601
1952.0 0.000512 340.48529 1683.75305
1952.0 0.000512 340.52844 1723.08557
2370.0 0.000422 340.57184 1988.05774
2884.0 0.0003467 340.61551 2352.86255
2656.0 0.000377 340.65939 2250.26978
1810.0 0.000552 340.70361 1576.48816
1209.0 0.000827 340.74802 1115.38403
1121.0 0.000892 340.79272 1023.53320
1309.0 0.000764 340.83765 1158.84753
1555.0 0.000643 340.88290 1349.87878
1557.0 0.000642 340.92831 1328.34778
1123.0 0.000890 340.97406 972.73975
748.0 0.001337 341.02008 662.50128
557.0 0.001795 341.06631 519.29584
482.0 0.002075 341.11270 466.13535
451.0 0.002217 341.15936 449.23715
441.0 0.002268 341.20639 452.12125
473.0 0.002114 341.25357 472.17105
522.0 0.001916 341.30099 513.82428
610.0 0.001639 341.34875 582.05792
715.0 0.001399 341.39667 684.96198
819.0 0.001221 341.44479 792.93256
801.0 0.001248 341.49316 796.85071
639.0 0.001565 341.54178 648.96368
541.0 0.001848 341.59067 532.85199
505.0 0.001980 341.63977 503.47833
541.0 0.001848 341.68906 529.05731
580.0 0.001724 341.73871 574.97253
592.0 0.001689 341.78848 584.49182
535.0 0.001869 341.83847 512.27985
459.0 0.002179 341.88873 434.88284
401.0 0.002494 341.93921 398.20575
377.0 0.002653 341.98990 387.53897
412.0 0.002427 342.04080 390.15656
419.0 0.002387 342.09189 403.11691
397.0 0.002519 342.14334 423.79883
434.0 0.002304 342.19489 464.48782
513.0 0.001949 342.24661 524.20319
604.0 0.001656 342.29865 599.69012
625.0 0.001600 342.35089 637.82935
577.0 0.001733 342.40326 569.58734
475.0 0.002105 342.45596 476.25748
436.0 0.002294 342.50879 439.20502
432.0 0.002315 342.56180 444.84540
447.0 0.002237 342.61508 473.21094
495.0 0.002020 342.66858 494.62250
479.0 0.002088 342.72220 467.24976
443.0 0.002257 342.77612 411.70618
371.0 0.002695 342.83020 376.82718
399.0 0.002506 342.88446 362.27521
366.0 0.002732 342.93896 356.38614
344.0 0.002907 342.99359 353.31320
341.0 0.002933 343.04849 350.58676
366.0 0.002732 343.10352 349.26788
343.0 0.002915 343.15878 348.31870
346.0 0.002890 343.21429 347.61337
358.0 0.002793 343.26990 347.07617
360.0 0.002778 343.32571 346.66492
357.0 0.002801 343.38168 345.95511
331.0 0.003021 343.43787 345.71863
323.0 0.003096 343.49426 345.53220
340.0 0.002941 343.55090 345.38504
346.0 0.002890 343.60760 345.26938
362.0 0.002762 343.66455 345.32529
353.0 0.002833 343.72165 345.26553
340.0 0.002941 343.77893 345.39105
348.0 0.002874 343.83633 345.37674
347.0 0.002882 343.89398 345.37772
312.0 0.003205 343.95184 345.39255
318.0 0.003145 344.00983 344.98859
312.0 0.003205 344.06802 345.06564
313.0 0.003195 344.12631 345.23474
350.0 0.002857 344.18475 345.34021
356.0 0.002809 344.24344 345.46036
344.0 0.002907 344.30228 345.59860
364.0 0.002747 344.36127 345.76056
355.0 0.002817 344.42044 345.71951
371.0 0.002695 344.47964 345.99689
343.0 0.002915 344.53912 346.39874
352.0 0.002841 344.59882 347.00455
319.0 0.003135 344.65863 347.86969
319.0 0.003135 344.71857 349.16129
353.0 0.002833 344.77866 350.94769
359.0 0.002786 344.83881 353.16498
356.0 0.002809 344.89923 354.87003
354.0 0.002825 344.95987 353.88568
385.0 0.002597 345.02054 352.45395
384.0 0.002604 345.08139 352.55847
355.0 0.002817 345.14233 354.20395
361.0 0.002770 345.20349 357.47998
357.0 0.002801 345.26483 362.87146
367.0 0.002725 345.32626 370.95795
396.0 0.002525 345.38776 383.71332
441.0 0.002268 345.44946 405.28513
500.0 0.002000 345.51132 438.09866
517.0 0.001934 345.57327 477.87219
524.0 0.001908 345.63544 503.85773
522.0 0.001916 345.69766 500.64493
487.0 0.002053 345.76001 483.02356
443.0 0.002257 345.82260 444.49368
418.0 0.002392 345.88522 423.39764
452.0 0.002212 345.94800 426.72723
443.0 0.002257 346.01083 437.48798
429.0 0.002331 346.07391 437.72659
457.0 0.002188 346.13702 427.42480
407.0 0.002457 346.20035 408.50888
370.0 0.002703 346.26367 387.52377
394.0 0.002538 346.32724 377.16885
350.0 0.002857 346.39084 374.17972
359.0 0.002786 346.45456 374.57321
367.0 0.002725 346.51849 377.02460
363.0 0.002755 346.58243 382.16415
394.0 0.002538 346.64651 391.87204
413.0 0.002421 346.71072 407.95465
406.0 0.002463 346.77505 433.23483
482.0 0.002075 346.83948 471.15683
526.0 0.001901 346.90396 523.59650
586.0 0.001706 346.96866 571.85547
594.0 0.001684 347.03339 566.73474
538.0 0.001859 347.09824 511.18997
516.0 0.001938 347.16321 478.89764
492.0 0.002033 347.22830 486.67261
566.0 0.001767 347.29346 520.17542
665.0 0.001504 347.35867 573.52429
665.0 0.001504 347.42401 636.44873
765.0 0.001307 347.48944 712.24585
866.0 0.001155 347.55499 865.45087
1167.0 0.000857 347.62067 1151.36780
1606.0 0.000623 347.68637 1640.68799
2350.0 0.000426 347.75220 2355.30054
3272.0 0.0003056 347.81808 3208.98486
3678.0 0.0002719 347.88416 3555.52319
2881.0 0.0003471 347.95013 2728.90137
1716.0 0.000583 348.01636 1738.27100
1233.0 0.000811 348.08264 1337.11792
1304.0 0.000767 348.14896 1400.25989
1653.0 0.000605 348.21539 1712.94922
2018.0 0.000496 348.28183 2007.26086
1876.0 0.000533 348.34845 1835.08191
1299.0 0.000770 348.41513 1231.23853
794.0 0.001259 348.48184 791.13269
576.0 0.001736 348.54861 594.89392
506.0 0.001976 348.61551 518.41779
465.0 0.002151 348.68243 483.52994
461.0 0.002169 348.74945 465.75156
482.0 0.002075 348.81656 460.85953
506.0 0.001976 348.88373 465.18198
529.0 0.001890 348.95099 486.79922
568.0 0.001761 349.01825 535.09674
646.0 0.001548 349.08563 618.05231
810.0 0.001235 349.15305 753.83246
1055.0 0.000948 349.22052 948.15845
1289.0 0.000776 349.28812 1149.80566
1309.0 0.000764 349.35562 1165.88477
1017.0 0.000983 349.42337 914.23492
729.0 0.001372 349.49106 698.98743
619.0 0.001616 349.55887 634.67383
672.0 0.001488 349.62668 671.96185
847.0 0.001181 349.69458 762.02606
932.0 0.001073 349.76251 829.41956
860.0 0.001163 349.83047 763.72937
678.0 0.001475 349.89850 618.06628
566.0 0.001767 349.96661 537.76825
554.0 0.001805 350.03467 522.55103
618.0 0.001618 350.10287 551.89447
713.0 0.001403 350.17105 633.21802
872.0 0.001147 350.23938 797.95007
1041.0 0.000961 350.30765 1074.30725
1453.0 0.000688 350.37598 1525.83569
2130.0 0.000469 350.44437 2185.72314
2915.0 0.0003431 350.51282 2968.25464
3366.0 0.0002971 350.58127 3287.93848
2585.0 0.000387 350.64975 2553.63721
1578.0 0.000634 350.71823 1675.19226
1208.0 0.000828 350.78680 1336.00256
1303.0 0.000767 350.85541 1438.36011
1576.0 0.000635 350.92404 1763.21863
1947.0 0.000514 350.99268 2039.21130
1906.0 0.000525 351.06131 1873.23462
1363.0 0.000734 351.13007 1290.58179
847.0 0.001181 351.19870 849.14594
613.0 0.001631 351.26749 660.67621
577.0 0.001733 351.33624 607.20624
567.0 0.001764 351.40506 590.10950
538.0 0.001859 351.47385 555.34027
536.0 0.001866 351.54266 523.50110
509.0 0.001965 351.61154 526.49689
531.0 0.001883 351.68039 561.29126
592.0 0.001689 351.74921 606.11584
578.0 0.001730 351.81812 602.62726
523.0 0.001912 351.88702 531.03442
465.0 0.002151 351.95599 469.92035
432.0 0.002315 352.02490 448.90399
427.0 0.002342 352.09381 455.63202
453.0 0.002208 352.16278 477.01965
489.0 0.002045 352.23175 495.32138
464.0 0.002155 352.30066 480.68973
436.0 0.002294 352.36960 441.45755
406.0 0.002463 352.43860 415.83182
409.0 0.002445 352.50757 407.73978
418.0 0.002392 352.57654 410.81537
439.0 0.002278 352.64548 416.52982
468.0 0.002137 352.71439 437.13443
484.0 0.002066 352.78336 469.04028
531.0 0.001883 352.85229 509.28198
552.0 0.001812 352.92126 535.73584
515.0 0.001942 352.99023 516.19873
492.0 0.002033 353.05914 482.01758
516.0 0.001938 353.12802 473.55295
539.0 0.001855 353.19690 501.86481
605.0 0.001653 353.26584 569.54431
727.0 0.001376 353.33472 689.27368
879.0 0.001138 353.40363 857.09186
1150.0 0.000870 353.47247 1110.19495
1560.0 0.000641 353.54132 1474.80188
2055.0 0.000487 353.61011 1876.39343
2095.0 0.000477 353.67892 1954.74121
1623.0 0.000616 353.74768 1569.01794
1244.0 0.000804 353.81638 1295.42883
1224.0 0.000817 353.88522 1327.80750
1446.0 0.000692 353.95395 1530.54895
1630.0 0.000613 354.02261 1610.62170
1592.0 0.000628 354.09125 1532.78125
1343.0 0.000745 354.15988 1324.39185
1077.0 0.000929 354.22842 1049.87415
977.0 0.001024 354.29709 944.40338
950.0 0.001053 354.36557 1017.41821
1062.0 0.000942 354.43414 1155.99963
1203.0 0.000831 354.50256 1201.35754
1130.0 0.000885 354.57101 1088.52795
884.0 0.001131 354.63947 838.39459
601.0 0.001664 354.70786 643.75684
555.0 0.001802 354.77618 568.83795
534.0 0.001873 354.84448 576.37860
601.0 0.001664 354.91269 624.36115
690.0 0.001449 354.98093 675.19720
663.0 0.001508 355.04913 652.02850
526.0 0.001901 355.11728 548.75476
430.0 0.002326 355.18533 466.27554
422.0 0.002370 355.25339 426.89917
381.0 0.002625 355.32129 411.01166
374.0 0.002674 355.38928 403.87018
392.0 0.002551 355.45724 400.03265
412.0 0.002427 355.52505 398.31091
375.0 0.002667 355.59286 398.07364
406.0 0.002463 355.66064 399.15683
419.0 0.002387 355.72833 398.81461
413.0 0.002421 355.79599 403.05115
393.0 0.002545 355.86349 409.38245
418.0 0.002392 355.93100 419.99820
446.0 0.002242 355.99847 435.75113
466.0 0.002146 356.06592 462.94608
560.0 0.001786 356.13327 513.93781
666.0 0.001502 356.20053 602.20667
831.0 0.001203 356.26776 749.29358
1080.0 0.000926 356.33493 978.16736
1367.0 0.000732 356.40207 1268.75867
1568.0 0.000638 356.46906 1496.94617
1628.0 0.000614 356.53598 1542.73950
1661.0 0.000602 356.60294 1600.41602
1774.0 0.000564 356.66974 1708.58765
1828.0 0.000547 356.73648 1798.83057
1663.0 0.000601 356.80313 1617.29150
1394.0 0.000717 356.86975 1333.65210
1203.0 0.000831 356.93634 1168.88354
1101.0 0.000908 357.00281 1065.24939
1013.0 0.000987 357.06921 1037.12427
1011.0 0.000989 357.13553 1046.77283
1050.0 0.000952 357.20172 1026.51746
899.0 0.001112 357.26791 851.51379
675.0 0.001481 357.33398 642.97577
561.0 0.001783 357.39999 525.65961
488.0 0.002049 357.46588 478.77115
481.0 0.002079 357.53171 459.29221
484.0 0.002066 357.59747 446.70157
504.0 0.001984 357.66315 444.40045
534.0 0.001873 357.72870 460.07037
533.0 0.001876 357.79422 500.66577
596.0 0.001678 357.85965 571.18542
661.0 0.001513 357.92496 689.86890
795.0 0.001258 357.99017 839.27283
867.0 0.001153 358.05536 954.29041
856.0 0.001168 358.12033 883.34503
671.0 0.001490 358.18527 684.21356
520.0 0.001923 358.25024 557.09601
503.0 0.001988 358.31494 526.15051
518.0 0.001931 358.37964 563.65442
558.0 0.001792 358.44418 625.97711
628.0 0.001592 358.50858 671.27655
606.0 0.001650 358.57294 622.11584
457.0 0.002188 358.63727 519.10394
410.0 0.002439 358.70142 446.59485
379.0 0.002639 358.76550 412.19937
414.0 0.002415 358.82944 401.32745
390.0 0.002564 358.89334 395.46936
417.0 0.002398 358.95712 391.72998
370.0 0.002703 359.02072 389.82037
365.0 0.002740 359.08432 391.29312
371.0 0.002695 359.14774 391.62500
363.0 0.002755 359.21103 391.62964
363.0 0.002755 359.27426 393.28644
372.0 0.002688 359.33740 395.55792
405.0 0.002469 359.40033 398.49908
422.0 0.002370 359.46320 402.17932
427.0 0.002342 359.52597 406.83221
428.0 0.002336 359.58865 412.65814
423.0 0.002364 359.65118 420.00693
442.0 0.002262 359.71356 429.39688
482.0 0.002075 359.77585 441.62982
516.0 0.001938 359.83801 458.00357
532.0 0.001880 359.90005 480.85599
563.0 0.001776 359.96204 515.57928
634.0 0.001577 360.02383 574.33618
775.0 0.001290 360.08554 686.48035
975.0 0.001026 360.14709 890.00000
1340.0 0.000746 360.20856 1224.68152
1889.0 0.000529 360.26984 1790.46509
2558.0 0.000391 360.33105 2535.93750
3131.0 0.0003194 360.39209 3209.36719
3259.0 0.0003068 360.45306 3307.45752
3113.0 0.0003212 360.51389 3127.81665
3054.0 0.0003274 360.57462 3152.54175
2804.0 0.000357 360.63513 2873.24805
2257.0 0.000443 360.69553 2290.81958
1973.0 0.000507 360.75589 2039.77380
1915.0 0.000522 360.81601 2080.87500
1873.0 0.000534 360.87604 2006.23633
1748.0 0.000572 360.93588 1831.78906
1645.0 0.000608 360.99561 1762.23608
1475.0 0.000678 361.05527 1536.41077
1109.0 0.000902 361.11478 1099.72644
769.0 0.001300 361.17404 773.83929
571.0 0.001751 361.23322 615.47076
497.0 0.002012 361.29224 552.03864
475.0 0.002105 361.35120 520.32172
464.0 0.002155 361.40997 503.11206
453.0 0.002208 361.46857 494.22729
456.0 0.002193 361.52707 491.51285
489.0 0.002045 361.58542 494.27747
489.0 0.002045 361.64359 502.81461
524.0 0.001908 361.70160 518.83337
514.0 0.001946 361.75952 546.97522
635.0 0.001575 361.81723 592.46429
752.0 0.001330 361.87482 679.77362
899.0 0.001112 361.93222 855.04205
1173.0 0.000853 361.98956 1181.19629
1714.0 0.000583 362.04672 1716.11304
2396.0 0.000417 362.10370 2570.48389
3388.0 0.0002952 362.16049 3573.57227
4138.0 0.0002417 362.21719 4133.95264
3246.0 0.0003081 362.27374 3383.11328
2006.0 0.000499 362.33008 2148.00122
1304.0 0.000767 362.38629 1481.36523
1228.0 0.000814 362.44229 1376.92102
1461.0 0.000684 362.49817 1641.23315
1921.0 0.000521 362.55392 2071.37231
2147.0 0.000466 362.60956 2365.33447
1967.0 0.000508 362.66495 2042.08630
1340.0 0.000746 362.72015 1380.12097
948.0 0.001055 362.77527 953.43799
810.0 0.001235 362.83017 804.07751
819.0 0.001221 362.88495 836.00848
963.0 0.001038 362.93951 1005.52887
1286.0 0.000778 362.99399 1326.93677
1700.0 0.000588 363.04819 1833.80188
2180.0 0.000459 363.10233 2372.61328
2398.0 0.000417 363.15631 2505.53906
1898.0 0.000527 363.20999 1915.35852
1249.0 0.000801 363.26352 1280.82190
940.0 0.001064 363.31696 1010.27051
915.0 0.001093 363.37021 1034.67993
1120.0 0.000893 363.42325 1256.43958
1372.0 0.000729 363.47614 1550.93933
1576.0 0.000635 363.52881 1687.78564
1409.0 0.000710 363.58139 1389.77527
972.0 0.001029 363.63376 954.73212
686.0 0.001458 363.68597 696.13196
534.0 0.001873 363.73795 595.41266
517.0 0.001934 363.78986 573.83228
563.0 0.001776 363.84152 582.03082
631.0 0.001585 363.89297 618.65033
663.0 0.001508 363.94431 662.27979
714.0 0.001401 363.99536 734.34253
892.0 0.001121 364.04633 889.75110
1179.0 0.000848 364.09708 1145.49695
1427.0 0.000701 364.14764 1403.57642
1487.0 0.000672 364.19806 1415.94836
1187.0 0.000842 364.24829 1083.88074
801.0 0.001248 364.29828 780.13251
610.0 0.001639 364.34814 656.84253
609.0 0.001642 364.39774 667.72998
727.0 0.001376 364.44720 763.68756
882.0 0.001134 364.49646 885.01141
909.0 0.001100 364.54559 922.89099
804.0 0.001244 364.59448 775.83655
599.0 0.001669 364.64319 592.89490
465.0 0.002151 364.69171 482.52115
426.0 0.002347 364.74002 436.90854
390.0 0.002564 364.78812 417.90015
375.0 0.002667 364.83603 409.04382
361.0 0.002770 364.88379 406.10431
391.0 0.002558 364.93134 406.01620
422.0 0.002370 364.97870 407.65619
412.0 0.002427 365.02585 406.99179
447.0 0.002237 365.07285 401.80569
390.0 0.002564 365.11963 402.51913
355.0 0.002817 365.16617 410.94418
425.0 0.002353 365.21252 428.03308
475.0 0.002105 365.25867 448.69501
511.0 0.001957 365.30463 457.38968
472.0 0.002119 365.35040 441.84561
439.0 0.002278 365.39603 416.85535
416.0 0.002404 365.44135 403.12503
349.0 0.002865 365.48651 400.94888
394.0 0.002538 365.53149 406.59357
404.0 0.002475 365.57626 416.15115
404.0 0.002475 365.62076 421.43112
434.0 0.002304 365.66510 418.87396
411.0 0.002433 365.70920 410.23618
406.0 0.002463 365.75323 408.91034
398.0 0.002513 365.79697 418.65726
402.0 0.002488 365.84042 443.37973
434.0 0.002304 365.88379 485.24765
472.0 0.002119 365.92691 546.50684
516.0 0.001938 365.96979 621.87036
624.0 0.001603 366.01245 672.92700
693.0 0.001443 366.05490 671.51440
621.0 0.001610 366.09720 607.76776
555.0 0.001802 366.13928 550.74133
565.0 0.001770 366.18109 553.28094
601.0 0.001664 366.22272 617.13086
712.0 0.001404 366.26410 735.55353
846.0 0.001182 366.30530 872.59216
942.0 0.001062 366.34631 947.21149
907.0 0.001103 366.38708 855.35791
742.0 0.001348 366.42764 690.22253
620.0 0.001613 366.46805 603.32690
608.0 0.001645 366.50815 614.53595
731.0 0.001368 366.54800 715.07831
916.0 0.001092 366.58765 906.52551
1123.0 0.000890 366.62711 1190.08191
1456.0 0.000687 366.66641 1496.56580
1610.0 0.000621 366.70541 1674.40088
1459.0 0.000685 366.74426 1496.50928
1081.0 0.000925 366.78287 1079.66785
790.0 0.001266 366.82120 800.81030
639.0 0.001565 366.85938 720.68347
705.0 0.001418 366.89728 777.93127
817.0 0.001224 366.93494 935.83435
1078.0 0.000928 366.97244 1142.37451
1208.0 0.000828 367.00967 1283.14978
1304.0 0.000767 367.04672 1304.20422
1299.0 0.000770 367.08350 1354.16748
1331.0 0.000751 367.12006 1391.34741
1182.0 0.000846 367.15637 1219.17896
965.0 0.001036 367.19254 1003.73431
963.0 0.001038 367.22845 965.41168
1104.0 0.000906 367.26410 1081.81763
1245.0 0.000803 367.29956 1218.11926
1254.0 0.000797 367.33478 1208.05310
1177.0 0.000850 367.36978 1100.29224
976.0 0.001025 367.40454 953.90881
777.0 0.001287 367.43900 779.67981
663.0 0.001508 367.47330 685.22217
683.0 0.001464 367.50735 687.68506
695.0 0.001439 367.54117 724.06970
769.0 0.001300 367.57486 704.68732
629.0 0.001590 367.60822 607.53052
538.0 0.001859 367.64127 522.85211
471.0 0.002123 367.67419 486.05222
462.0 0.002165 367.70685 487.79019
505.0 0.001980 367.73929 521.26422
555.0 0.001802 367.77142 590.15680
665.0 0.001504 367.80341 697.63269
755.0 0.001325 367.83521 817.99072
843.0 0.001186 367.86667 858.74170
740.0 0.001351 367.89789 751.32367
641.0 0.001560 367.92899 633.58258
642.0 0.001558 367.95963 607.22034
696.0 0.001437 367.99020 673.47986
870.0 0.001149 368.02051 819.82880
1098.0 0.000911 368.05054 1004.00800
1181.0 0.000847 368.08041 1102.08276
1035.0 0.000966 368.10995 963.71204
813.0 0.001230 368.13931 727.22937
613.0 0.001631 368.16837 583.74329
554.0 0.001805 368.19727 540.74652
566.0 0.001767 368.22586 559.99347
638.0 0.001567 368.25424 613.99585
707.0 0.001414 368.28238 665.32678
714.0 0.001401 368.31024 658.09979
650.0 0.001538 368.33789 592.18774
587.0 0.001704 368.36530 558.50043
570.0 0.001754 368.39246 587.04456
638.0 0.001567 368.41946 674.36786
772.0 0.001295 368.44604 821.54681
909.0 0.001100 368.47244 963.08575
954.0 0.001048 368.49860 1019.70642
1035.0 0.000966 368.52454 1050.85266
1104.0 0.000906 368.55023 1117.54065
1017.0 0.000983 368.57562 1088.51331
787.0 0.001271 368.60089 905.15692
688.0 0.001453 368.62579 765.14795
691.0 0.001447 368.65054 736.87231
693.0 0.001443 368.67493 746.84149
693.0 0.001443 368.69913 736.49292
682.0 0.001466 368.72308 749.81628
704.0 0.001420 368.74677 759.57428
631.0 0.001585 368.77026 689.31915
581.0 0.001721 368.79343 571.44336
505.0 0.001980 368.81641 493.92169
450.0 0.002222 368.83914 463.55826
427.0 0.002342 368.86160 463.44876
434.0 0.002304 368.88370 481.38321
513.0 0.001949 368.90570 518.36029
543.0 0.001842 368.92734 566.05835
580.0 0.001724 368.94888 587.93878
527.0 0.001898 368.97000 564.58038
540.0 0.001852 368.99094 547.59802
558.0 0.001792 369.01166 588.55853
687.0 0.001456 369.03201 698.24597
835.0 0.001198 369.05222 879.50317
1109.0 0.000902 369.07220 1100.41821
1275.0 0.000784 369.09186 1186.18274
1042.0 0.000960 369.11124 1007.11609
777.0 0.001287 369.13037 749.41052
561.0 0.001783 369.14929 603.05432
515.0 0.001942 369.16794 568.58606
603.0 0.001658 369.18631 604.24603
682.0 0.001466 369.20447 687.51953
719.0 0.001391 369.22235 766.32874
781.0 0.001280 369.23996 758.83679
669.0 0.001495 369.25732 647.85724
576.0 0.001736 369.27441 558.28351
548.0 0.001825 369.29126 539.49390
571.0 0.001751 369.30789 588.29669
686.0 0.001458 369.32419 696.26483
838.0 0.001193 369.34024 865.49084
996.0 0.001004 369.35608 1034.42822
993.0 0.001007 369.37170 1043.19861
851.0 0.001175 369.38690 840.31946
621.0 0.001610 369.40198 643.08899
518.0 0.001931 369.41672 552.46289
520.0 0.001923 369.43124 546.90405
557.0 0.001795 369.44556 592.85516
661.0 0.001513 369.45947 675.57294
724.0 0.001381 369.47327 736.55048
678.0 0.001475 369.48666 698.64777
577.0 0.001733 369.49991 581.67279
505.0 0.001980 369.51291 491.66321
451.0 0.002217 369.52554 452.17200
410.0 0.002439 369.53799 435.36795
418.0 0.002392 369.55020 429.66190
410.0 0.002439 369.56210 427.15988
398.0 0.002513 369.57373 429.85281
408.0 0.002451 369.58517 437.07874
426.0 0.002347 369.59619 447.26950
464.0 0.002155 369.60709 463.92346
529.0 0.001890 369.61774 495.66708
616.0 0.001623 369.62805 554.05353
699.0 0.001431 369.63803 671.14856
856.0 0.001168 369.64786 883.21948
1162.0 0.000861 369.65735 1212.77844
1606.0 0.000623 369.66669 1658.63574
1990.0 0.000503 369.67569 1954.49854
1873.0 0.000534 369.68439 1760.35815
1342.0 0.000745 369.69290 1241.71985
890.0 0.001124 369.70108 881.93573
743.0 0.001346 369.70908 759.72589
790.0 0.001266 369.71671 801.05817
915.0 0.001093 369.72418 945.75378
1077.0 0.000929 369.73129 1150.11890
1216.0 0.000822 369.73819 1243.11487
1123.0 0.000890 369.74481 1081.97803
913.0 0.001095 369.75116 828.63684
717.0 0.001395 369.75726 675.05273
605.0 0.001653 369.76309 627.38135
680.0 0.001471 369.76859 653.43713
769.0 0.001300 369.77386 755.72711
1026.0 0.000975 369.77893 978.41711
1329.0 0.000752 369.78366 1362.28284
1872.0 0.000534 369.78818 1939.20715
2737.0 0.000365 369.79242 2561.69092
2881.0 0.0003471 369.79633 2716.54102
2271.0 0.000440 369.80002 2166.46875
1524.0 0.000656 369.80350 1582.07593
1362.0 0.000734 369.80664 1387.07727
1501.0 0.000666 369.80945 1518.85010
1787.0 0.000560 369.81213 1730.09033
1901.0 0.000526 369.81442 1870.95508
2010.0 0.000498 369.81653 1976.18091
2012.0 0.000497 369.81836 1947.35254
1820.0 0.000549 369.81989 1746.74597
1722.0 0.000581 369.82114 1704.45874
1801.0 0.000555 369.82224 1833.72107
1811.0 0.000552 369.82294 1821.92407
1509.0 0.000663 369.82339 1489.69189
1087.0 0.000920 369.82358 1097.28040
849.0 0.001178 369.82352 857.24731
800.0 0.001250 369.82318 793.10358
891.0 0.001122 369.82254 854.37823
1046.0 0.000956 369.82169 1013.51459
1215.0 0.000823 369.82056 1206.69482
1373.0 0.000728 369.81912 1329.25208
1473.0 0.000679 369.81744 1396.87683
1549.0 0.000646 369.81549 1486.68225
1414.0 0.000707 369.81326 1428.17749
1181.0 0.000847 369.81082 1153.36035
1001.0 0.000999 369.80801 933.85297
997.0 0.001003 369.80502 912.85095
1198.0 0.000835 369.80170 1105.81274
1589.0 0.000629 369.79810 1498.86877
2122.0 0.000471 369.79428 2079.62036
2609.0 0.000383 369.79022 2567.50146
2464.0 0.000406 369.78583 2454.95435
1809.0 0.000553 369.78116 1770.46985
1195.0 0.000837 369.77628 1211.14063
959.0 0.001043 369.77109 979.42548
917.0 0.001091 369.76559 960.29474
984.0 0.001016 369.75989 1041.97766
1146.0 0.000873 369.75388 1203.74390
1277.0 0.000783 369.74762 1333.69226
1251.0 0.000799 369.74100 1231.84412
994.0 0.001006 369.73428 937.13104
712.0 0.001404 369.72717 710.44940
610.0 0.001639 369.71982 599.85651
563.0 0.001776 369.71222 548.30042
468.0 0.002137 369.70441 505.57816
428.0 0.002336 369.69611 468.73315
420.0 0.002381 369.68771 448.47311
412.0 0.002427 369.67905 435.45151
459.0 0.002179 369.67010 428.19113
403.0 0.002481 369.66089 423.95856
423.0 0.002364 369.65137 420.57547
405.0 0.002469 369.64157 420.18384
385.0 0.002597 369.63153 420.99313
432.0 0.002315 369.62125 421.49625
424.0 0.002358 369.61066 427.60690
446.0 0.002242 369.59985 434.74707
462.0 0.002165 369.58865 445.93527
445.0 0.002247 369.57730 464.74161
531.0 0.001883 369.56561 500.24072
587.0 0.001704 369.55365 572.64429
708.0 0.001412 369.54147 710.51276
975.0 0.001026 369.52899 932.76422
1313.0 0.000762 369.51627 1250.11987
1724.0 0.000580 369.50323 1525.33057
1701.0 0.000588 369.49005 1489.01624
1288.0 0.000776 369.47644 1146.89050
910.0 0.001099 369.46262 847.48615
725.0 0.001379 369.44852 702.66351
669.0 0.001495 369.43417 686.32245
769.0 0.001300 369.41953 761.63135
896.0 0.001116 369.40469 906.57373
1054.0 0.000949 369.38950 1046.24060
1183.0 0.000845 369.37405 1046.67468
1071.0 0.000934 369.35837 918.20782
915.0 0.001093 369.34235 856.45605
977.0 0.001024 369.32617 958.61212
1223.0 0.000818 369.30966 1236.84558
1644.0 0.000608 369.29288 1668.76575
2098.0 0.000477 369.27585 2050.64404
2076.0 0.000482 369.25854 1985.49780
1564.0 0.000639 369.24094 1478.94080
1065.0 0.000939 369.22308 1054.35938
867.0 0.001153 369.20496 887.77655
919.0 0.001088 369.18658 918.41870
1069.0 0.000935 369.16797 1048.67236
1208.0 0.000828 369.14908 1221.24524
1365.0 0.000733 369.12991 1375.63135
1397.0 0.000716 369.11041 1350.31177
1211.0 0.000826 369.09070 1143.83899
1045.0 0.000957 369.07071 1015.12799
1057.0 0.000946 369.05042 1056.18201
1123.0 0.000890 369.02997 1160.90955
1170.0 0.000855 369.00916 1205.97717
1217.0 0.000822 368.98807 1208.19641
1215.0 0.000823 368.96680 1154.52075
1031.0 0.000970 368.94516 972.00812
804.0 0.001244 368.92331 783.19476
711.0 0.001406 368.90118 701.26343
693.0 0.001443 368.87885 717.10504
704.0 0.001420 368.85623 766.85736
750.0 0.001333 368.83328 796.91522
828.0 0.001208 368.81012 826.28210
843.0 0.001186 368.78665 861.43713
824.0 0.001214 368.76294 860.51630
825.0 0.001212 368.73895 867.43359
846.0 0.001182 368.71472 894.60083
805.0 0.001242 368.69025 840.48871
646.0 0.001548 368.66550 691.84149
550.0 0.001818 368.64041 569.10089
481.0 0.002079 368.61511 507.80386
482.0 0.002075 368.58957 500.72308
529.0 0.001890 368.56375 527.59650
553.0 0.001808 368.53763 578.75958
563.0 0.001776 368.51123 632.41779
608.0 0.001645 368.48471 638.21277
603.0 0.001658 368.45779 588.84906
581.0 0.001721 368.43066 555.31952
592.0 0.001689 368.40326 580.44318
691.0 0.001447 368.37555 687.81287
879.0 0.001138 368.34766 880.57996
1096.0 0.000912 368.31952 1142.31897
1296.0 0.000772 368.29099 1330.43567
1201.0 0.000833 368.26227 1230.26599
893.0 0.001120 368.23328 926.61884
667.0 0.001499 368.20407 696.94507
568.0 0.001761 368.17459 600.22113
560.0 0.001786 368.14484 599.19763
601.0 0.001664 368.11481 658.83276
697.0 0.001435 368.08456 766.91901
797.0 0.001255 368.05399 865.38330
849.0 0.001178 368.02322 839.03448
716.0 0.001397 367.99213 687.91724
524.0 0.001908 367.96078 552.44366
454.0 0.002203 367.92914 478.96667
429.0 0.002331 367.89740 445.76083
398.0 0.002513 367.86533 427.23358
398.0 0.002513 367.83292 415.45889
399.0 0.002506 367.80035 409.34702
383.0 0.002611 367.76746 406.14819
401.0 0.002494 367.73428 404.89178
394.0 0.002538 367.70093 405.21616
384.0 0.002604 367.66727 407.23514
406.0 0.002463 367.63339 411.71005
404.0 0.002475 367.59918 420.80347
429.0 0.002331 367.56482 438.87878
482.0 0.002075 367.53009 475.03015
514.0 0.001946 367.49518 536.17078
600.0 0.001667 367.45999 620.49121
710.0 0.001408 367.42456 698.70239
736.0 0.001359 367.38882 710.82764
672.0 0.001488 367.35291 659.17810
620.0 0.001613 367.31671 625.34418
599.0 0.001669 367.28027 636.47540
603.0 0.001658 367.24353 643.80292
609.0 0.001642 367.20657 616.79907
620.0 0.001613 367.16931 594.46326
613.0 0.001631 367.13190 600.61505
625.0 0.001600 367.09418 603.59924
574.0 0.001742 367.05618 581.06439
523.0 0.001912 367.01791 562.40942
562.0 0.001779 366.97943 571.28986
545.0 0.001835 366.94070 590.88855
539.0 0.001855 366.90170 602.24829
617.0 0.001621 366.86252 628.22827
753.0 0.001328 366.82294 724.33246
997.0 0.001003 366.78329 956.92181
1359.0 0.000736 366.74329 1380.70569
2038.0 0.000491 366.70297 1996.84241
2738.0 0.000365 366.66251 2622.07715
2850.0 0.000351 366.62177 2706.51807
2084.0 0.000480 366.58078 2056.14136
1311.0 0.000763 366.53952 1345.27600
845.0 0.001183 366.49805 954.61029
783.0 0.001277 366.45630 849.04932
891.0 0.001122 366.41425 941.84521
1113.0 0.000898 366.37204 1173.52637
1380.0 0.000725 366.32956 1478.06946
1571.0 0.000637 366.28690 1620.39600
1363.0 0.000734 366.24390 1380.45972
968.0 0.001033 366.20068 981.69672
668.0 0.001497 366.15720 707.56842
509.0 0.001965 366.11346 573.04333
479.0 0.002088 366.06949 516.13763
468.0 0.002137 366.02527 492.61670
434.0 0.002304 365.98087 488.48813
484.0 0.002066 365.93622 503.68289
534.0 0.001873 365.89127 542.10126
587.0 0.001704 365.84601 601.70752
656.0 0.001524 365.80060 661.29865
664.0 0.001506 365.75497 670.35394
614.0 0.001629 365.70908 630.47986
591.0 0.001692 365.66284 613.72620
655.0 0.001527 365.61652 643.35516
677.0 0.001477 365.56985 680.43152
643.0 0.001555 365.52298 667.55280
598.0 0.001672 365.47589 622.92169
574.0 0.001742 365.42847 602.25690
556.0 0.001799 365.38089 595.22815
571.0 0.001751 365.33307 576.13672
573.0 0.001745 365.28497 558.49249
586.0 0.001706 365.23669 575.66809
602.0 0.001661 365.18811 614.21350
646.0 0.001548 365.13928 648.82477
730.0 0.001370 365.09030 683.44867
835.0 0.001198 365.04095 785.84595
1080.0 0.000926 364.99149 1041.98022
1601.0 0.000625 364.94177 1520.38416
2343.0 0.000427 364.89178 2201.99805
3046.0 0.0003283 364.84155 2851.23730
3004.0 0.0003329 364.79111 2861.22437
2105.0 0.000475 364.74042 2118.88452
1286.0 0.000778 364.68954 1373.50354
890.0 0.001124 364.63831 973.73584
839.0 0.001192 364.58694 868.06641
949.0 0.001054 364.53531 967.48273
1212.0 0.000825 364.48352 1218.41455
1487.0 0.000672 364.43137 1548.61597
1668.0 0.000600 364.37909 1712.79297
1486.0 0.000673 364.32648 1465.86633
1035.0 0.000966 364.27365 1033.54797
700.0 0.001429 364.22070 727.72443
543.0 0.001842 364.16739 572.61353
458.0 0.002183 364.11404 502.83026
440.0 0.002273 364.06024 470.47440
429.0 0.002331 364.00629 449.44928
401.0 0.002494 363.95215 435.88736
432.0 0.002315 363.89774 426.61450
397.0 0.002519 363.84314 420.38690
423.0 0.002364 363.78824 416.34964
385.0 0.002597 363.73318 414.93640
409.0 0.002445 363.67792 418.28873
438.0 0.002283 363.62238 425.27722
447.0 0.002237 363.56659 444.11819
445.0 0.002247 363.51059 481.54144
524.0 0.001908 363.45435 545.74451
661.0 0.001513 363.39798 630.21729
734.0 0.001362 363.34131 691.65625
676.0 0.001479 363.28439 661.62146
552.0 0.001812 363.22726 565.89972
476.0 0.002101 363.16995 483.40210
439.0 0.002278 363.11240 447.36768
447.0 0.002237 363.05466 442.35361
473.0 0.002114 362.99664 459.65891
491.0 0.002037 362.93842 493.70322
559.0 0.001789 362.88000 533.69250
549.0 0.001821 362.82135 545.98761
529.0 0.001890 362.76245 510.49289
475.0 0.002105 362.70334 461.22882
417.0 0.002398 362.64401 432.85474
413.0 0.002421 362.58450 422.44662
423.0 0.002364 362.52475 423.84064
430.0 0.002326 362.46481 434.71078
441.0 0.002268 362.40457 455.69333
465.0 0.002151 362.34418 485.41327
485.0 0.002062 362.28354 512.84503
477.0 0.002096 362.22269 516.74359
488.0 0.002049 362.16159 498.64063
493.0 0.002028 362.10034 486.81201
520.0 0.001923 362.03891 493.06799
561.0 0.001783 361.97717 519.45636
625.0 0.001600 361.91525 574.10461
751.0 0.001332 361.85315 681.29932
942.0 0.001062 361.79083 887.21625
1270.0 0.000787 361.72824 1236.58936
1703.0 0.000587 361.66550 1713.47412
2145.0 0.000466 361.60251 2165.05859
2176.0 0.000460 361.53934 2202.87402
1750.0 0.000571 361.47595 1756.41589
1386.0 0.000722 361.41229 1351.74438
1339.0 0.000747 361.34851 1274.29102
1607.0 0.000622 361.28445 1511.61755
2066.0 0.000484 361.22034 1945.30151
2357.0 0.000424 361.15582 2293.35938
2251.0 0.000444 361.09116 2278.36157
2046.0 0.000489 361.02634 2021.71387
1661.0 0.000602 360.96127 1647.48340
1282.0 0.000780 360.89600 1288.86597
1119.0 0.000894 360.83054 1163.66553
1240.0 0.000806 360.76486 1321.47034
1587.0 0.000630 360.69901 1668.36829
1970.0 0.000508 360.63293 2036.68799
2144.0 0.000466 360.56665 2109.20020
1724.0 0.000580 360.50009 1653.21350
1148.0 0.000871 360.43335 1165.15588
902.0 0.001109 360.36652 904.64996
868.0 0.001152 360.29950 848.94666
863.0 0.001159 360.23218 919.57745
983.0 0.001017 360.16473 1051.72656
1123.0 0.000890 360.09698 1128.53259
1152.0 0.000868 360.02914 1117.34045
1026.0 0.000975 359.96100 1005.51733
832.0 0.001202 359.89270 803.19183
636.0 0.001572 359.82419 650.25800
555.0 0.001802 359.75552 581.54248
544.0 0.001838 359.68665 572.96570
577.0 0.001733 359.61758 590.26886
621.0 0.001610 359.54834 601.33057
603.0 0.001658 359.47888 562.85327
500.0 0.002000 359.40918 506.11203
465.0 0.002151 359.33929 467.35718
437.0 0.002288 359.26932 451.78354
445.0 0.002247 359.19910 452.65036
494.0 0.002024 359.12860 471.32288
524.0 0.001908 359.05795 518.67505
564.0 0.001773 358.98718 608.98712
668.0 0.001497 358.91620 732.65173
809.0 0.001236 358.84500 848.70319
832.0 0.001202 358.77359 873.32471
706.0 0.001416 358.70197 738.91052
595.0 0.001681 358.63031 592.96814
506.0 0.001976 358.55829 509.74716
482.0 0.002075 358.48615 483.29544
493.0 0.002028 358.41385 497.30496
527.0 0.001898 358.34134 545.13806
592.0 0.001689 358.26862 614.11804
646.0 0.001548 358.19577 689.92975
703.0 0.001422 358.12268 725.98566
704.0 0.001420 358.04941 711.19409
718.0 0.001393 357.97595 700.28204
721.0 0.001387 357.90244 671.26202
627.0 0.001595 357.82861 592.75684
539.0 0.001855 357.75458 513.21576
485.0 0.002062 357.68039 467.46103
465.0 0.002151 357.60611 453.06442
453.0 0.002208 357.53156 460.65488
467.0 0.002141 357.45691 485.84891
512.0 0.001953 357.38199 522.21582
577.0 0.001733 357.30688 558.48199
672.0 0.001488 357.23163 572.99591
625.0 0.001600 357.15619 572.72180
657.0 0.001522 357.08072 607.97235
782.0 0.001279 357.00488 725.34784
1041.0 0.000961 356.92889 941.46271
1323.0 0.000756 356.85281 1202.60242
1646.0 0.000608 356.77652 1410.25159
1603.0 0.000624 356.70004 1351.93872
1288.0 0.000776 356.62341 1126.15637
1129.0 0.000886 356.54663 1044.53113
1236.0 0.000809 356.46967 1180.64941
1342.0 0.000745 356.39249 1440.28479
1530.0 0.000654 356.31516 1675.74170
1547.0 0.000646 356.23764 1626.74500
1379.0 0.000725 356.15991 1404.92615
1252.0 0.000799 356.08206 1228.68835
1161.0 0.000861 356.00409 1038.23950
966.0 0.001035 355.92593 878.06934
869.0 0.001151 355.84753 853.37762
937.0 0.001067 355.76904 961.67773
1091.0 0.000917 355.69040 1120.81018
1205.0 0.000830 355.61148 1203.79102
1071.0 0.000934 355.53253 1041.16394
796.0 0.001256 355.45337 788.64514
638.0 0.001567 355.37402 613.82935
492.0 0.002033 355.29456 530.41571
492.0 0.002033 355.21484 508.61795
497.0 0.002012 355.13498 523.30438
569.0 0.001757 355.05502 555.07703
626.0 0.001597 354.97482 579.69159
590.0 0.001695 354.89459 566.17230
536.0 0.001866 354.81409 512.07910
437.0 0.002288 354.73349 460.19901
430.0 0.002326 354.65268 429.87189
424.0 0.002358 354.57169 417.49493
439.0 0.002278 354.49054 416.31277
438.0 0.002283 354.40936 421.21124
428.0 0.002336 354.32791 427.64658
410.0 0.002439 354.24637 430.11346
428.0 0.002336 354.16455 423.15128
433.0 0.002309 354.08270 416.60303
434.0 0.002304 354.00070 416.04086
430.0 0.002326 353.91849 422.21518
430.0 0.002326 353.83618 438.20407
481.0 0.002079 353.75363 469.98370
553.0 0.001808 353.67099 534.16742
666.0 0.001502 353.58823 645.68585
840.0 0.001190 353.50531 793.49426
979.0 0.001021 353.42215 925.23615
981.0 0.001019 353.33896 934.79230
864.0 0.001157 353.25546 795.98126
723.0 0.001383 353.17200 676.71246
678.0 0.001475 353.08829 657.41046
769.0 0.001300 353.00443 759.64362
940.0 0.001064 352.92044 988.36139
1251.0 0.000799 352.83633 1295.54236
1579.0 0.000633 352.75208 1562.93311
1517.0 0.000659 352.66760 1548.25391
1260.0 0.000794 352.58307 1243.34912
935.0 0.001070 352.49835 919.92755
747.0 0.001339 352.41354 733.23566
680.0 0.001471 352.32852 690.71057
732.0 0.001366 352.24338 754.80353
937.0 0.001067 352.15814 886.11267
1032.0 0.000969 352.07272 1013.73230
988.0 0.001012 351.98712 1064.57617
962.0 0.001040 351.90146 981.60345
810.0 0.001235 351.81567 795.09192
698.0 0.001433 351.72968 640.45984
577.0 0.001733 351.64362 564.57837
570.0 0.001754 351.55734 558.39020
609.0 0.001642 351.47095 604.72870
669.0 0.001495 351.38446 683.69000
808.0 0.001238 351.29776 755.29517
857.0 0.001167 351.21100 776.35327
801.0 0.001248 351.12415 726.51202
699.0 0.001431 351.03711 673.95416
716.0 0.001397 350.94986 689.39240
769.0 0.001300 350.86258 787.71417
866.0 0.001155 350.77515 923.93829
1007.0 0.000993 350.68756 1019.36603
944.0 0.001059 350.59991 965.02704
830.0 0.001205 350.51208 858.74408
818.0 0.001222 350.42413 825.16229
900.0 0.001111 350.33609 877.08350
921.0 0.001086 350.24780 1016.65533
1130.0 0.000885 350.15948 1201.25610
1294.0 0.000773 350.07104 1311.76282
1188.0 0.000842 349.98248 1202.08362
1017.0 0.000983 349.89380 1012.87860
794.0 0.001259 349.80493 822.91803
644.0 0.001553 349.71600 675.70020
575.0 0.001739 349.62695 610.59943
571.0 0.001751 349.53766 624.98212
625.0 0.001600 349.44836 701.58643
801.0 0.001248 349.35895 803.82391
858.0 0.001166 349.26938 883.89539
884.0 0.001131 349.17972 894.14221
955.0 0.001047 349.08987 936.64026
1015.0 0.000985 349.00003 1079.01318
1221.0 0.000819 348.90994 1244.78418
1284.0 0.000779 348.81982 1260.60339
1094.0 0.000914 348.72961 1030.89343
860.0 0.001163 348.63919 789.34241
667.0 0.001499 348.54871 663.00494
631.0 0.001585 348.45804 636.79352
657.0 0.001522 348.36737 667.69073
670.0 0.001493 348.27655 713.63000
720.0 0.001389 348.18558 767.58142
812.0 0.001232 348.09451 828.95587
818.0 0.001222 348.00336 838.18365
748.0 0.001337 347.91208 726.96881
625.0 0.001600 347.82065 593.83081
489.0 0.002045 347.72919 514.17151
430.0 0.002326 347.63751 483.88928
444.0 0.002252 347.54578 477.41827
474.0 0.002110 347.45407 466.27878
435.0 0.002299 347.36209 439.97098
399.0 0.002506 347.27008 416.59558
423.0 0.002364 347.17792 404.71683
421.0 0.002375 347.08566 405.20413
405.0 0.002469 346.99335 418.50128
450.0 0.002222 346.90094 448.66055
457.0 0.002188 346.80832 489.10275
541.0 0.001848 346.71570 521.36591
513.0 0.001949 346.62292 513.52460
494.0 0.002024 346.53009 465.99997
401.0 0.002494 346.43710 421.84573
382.0 0.002618 346.34409 397.88837
382.0 0.002618 346.25092 389.52988
354.0 0.002825 346.15759 391.71725
391.0 0.002558 346.06433 403.87662
442.0 0.002262 345.97092 423.39890
436.0 0.002294 345.87738 441.73816
457.0 0.002188 345.78372 444.71332
458.0 0.002183 345.69000 424.85614
420.0 0.002381 345.59616 402.94257
371.0 0.002695 345.50226 390.77588
364.0 0.002747 345.40820 387.22852
369.0 0.002710 345.31412 389.31375
393.0 0.002545 345.21988 396.12589
400.0 0.002500 345.12564 407.05447
470.0 0.002128 345.03125 430.89606
476.0 0.002101 344.93680 480.05542
572.0 0.001748 344.84219 576.74426
744.0 0.001344 344.74759 731.82751
916.0 0.001092 344.65286 907.75500
997.0 0.001003 344.55811 1018.63171
939.0 0.001065 344.46317 938.90710
747.0 0.001339 344.36816 761.73492
675.0 0.001481 344.27307 645.26666
628.0 0.001592 344.17792 615.48340
605.0 0.001653 344.08276 636.66718
648.0 0.001543 343.98740 664.26300
647.0 0.001546 343.89197 683.55359
656.0 0.001524 343.79645 721.27368
731.0 0.001368 343.70093 763.45093
698.0 0.001433 343.60526 740.14734
607.0 0.001647 343.50952 641.82172
534.0 0.001873 343.41373 558.36816
508.0 0.001969 343.31781 525.96100
517.0 0.001934 343.22189 535.81976
532.0 0.001880 343.12582 568.73059
557.0 0.001795 343.02975 616.70892
634.0 0.001577 342.93353 689.91766
759.0 0.001318 342.83719 769.58185
745.0 0.001342 342.74094 789.47144
647.0 0.001546 342.64456 690.38708
560.0 0.001786 342.54803 566.19263
456.0 0.002193 342.45148 484.79907
432.0 0.002315 342.35477 448.68817
451.0 0.002217 342.25809 444.55066
453.0 0.002208 342.16135 464.94400
467.0 0.002141 342.06445 509.20267
523.0 0.001912 341.96756 564.01038
592.0 0.001689 341.87061 605.48962
583.0 0.001715 341.77356 599.30475
559.0 0.001789 341.67642 576.18842
577.0 0.001733 341.57919 587.20074
630.0 0.001587 341.48193 631.37866
721.0 0.001387 341.38464 683.52130
745.0 0.001342 341.28729 720.12781
769.0 0.001300 341.18985 766.02637
828.0 0.001208 341.09235 817.89490
852.0 0.001174 340.99475 832.17145
891.0 0.001122 340.89713 850.67474
868.0 0.001152 340.79935 916.89825
942.0 0.001062 340.70163 978.26031
912.0 0.001096 340.60379 926.68488
782.0 0.001279 340.50595 806.79761
724.0 0.001381 340.40802 717.61707
625.0 0.001600 340.31006 685.93585
697.0 0.001435 340.21191 700.70880
699.0 0.001431 340.11386 720.35590
703.0 0.001422 340.01566 722.95453
775.0 0.001290 339.91742 747.13049
859.0 0.001164 339.81921 811.69617
1021.0 0.000979 339.72089 896.76636
1137.0 0.000880 339.62247 1006.03943
1262.0 0.000792 339.52405 1176.57788
1461.0 0.000684 339.42554 1355.38782
1471.0 0.000680 339.32703 1392.12854
1331.0 0.000751 339.22845 1283.97510
1183.0 0.000845 339.12976 1142.41052
1021.0 0.000979 339.03107 940.99957
796.0 0.001256 338.93231 757.77765
670.0 0.001493 338.83353 667.62225
685.0 0.001460 338.73474 677.86670
748.0 0.001337 338.63583 769.39886
934.0 0.001071 338.53690 900.05908
1060.0 0.000943 338.43787 1006.68646
1040.0 0.000962 338.33890 1031.79688
1009.0 0.000991 338.23987 1030.00854
965.0 0.001036 338.14072 1017.19391
909.0 0.001100 338.04156 993.09558
839.0 0.001192 337.94235 958.54077
780.0 0.001282 337.84308 869.48755
762.0 0.001312 337.74380 796.80249
778.0 0.001285 337.64453 799.21698
826.0 0.001211 337.54510 844.58057
843.0 0.001186 337.44577 877.64178
813.0 0.001230 337.34634 854.81622
731.0 0.001368 337.24686 785.25049
672.0 0.001488 337.14734 744.60236
703.0 0.001422 337.04776 746.67877
740.0 0.001351 336.94818 756.21851
782.0 0.001279 336.84860 781.60834
903.0 0.001107 336.74890 902.02258
1139.0 0.000878 336.64920 1170.05444
1480.0 0.000676 336.54947 1554.15173
1843.0 0.000543 336.44971 1909.56848
1857.0 0.000539 336.34988 1981.59729
1624.0 0.000616 336.25012 1674.63733
1259.0 0.000794 336.15018 1267.23145
908.0 0.001101 336.05038 929.55072
714.0 0.001401 335.95044 730.46545
637.0 0.001570 335.85052 659.67365
663.0 0.001508 335.75046 692.63287
693.0 0.001443 335.65048 816.86536
846.0 0.001182 335.55048 991.21088
1083.0 0.000923 335.45044 1125.06580
1044.0 0.000958 335.35034 1089.97815
912.0 0.001096 335.25024 916.21808
746.0 0.001340 335.15015 730.18671
637.0 0.001570 335.04993 590.09479
510.0 0.001961 334.94968 512.01147
488.0 0.002049 334.84958 483.19806
506.0 0.001976 334.74939 492.34219
522.0 0.001916 334.64905 540.92767
621.0 0.001610 334.54877 627.88214
709.0 0.001410 334.44846 722.21057
717.0 0.001395 334.34818 761.56427
712.0 0.001404 334.24789 687.87994
566.0 0.001767 334.14749 574.48737
475.0 0.002105 334.04724 495.76471
490.0 0.002041 333.94672 462.04807
478.0 0.002092 333.84641 464.65552
520.0 0.001923 333.74597 506.05884
612.0 0.001634 333.64560 599.95740
737.0 0.001357 333.54507 751.03131
905.0 0.001105 333.44464 914.37543
1060.0 0.000943 333.34421 989.14923
908.0 0.001101 333.24371 882.25391
707.0 0.001414 333.14325 691.19922
538.0 0.001859 333.04263 547.17181
474.0 0.002110 332.94217 469.93036
438.0 0.002283 332.84167 440.74176
462.0 0.002165 332.74109 442.34601
461.0 0.002169 332.64053 470.57004
525.0 0.001905 332.53998 522.51447
583.0 0.001715 332.43942 576.32587
614.0 0.001629 332.33884 596.50140
591.0 0.001692 332.23828 552.18738
495.0 0.002020 332.13763 494.96997
470.0 0.002128 332.03705 471.62833
507.0 0.001972 331.93643 495.28232
528.0 0.001894 331.83591 562.21545
602.0 0.001661 331.73529 642.26672
695.0 0.001439 331.63470 681.17834
613.0 0.001631 331.53412 623.77264
507.0 0.001972 331.43347 523.42920
459.0 0.002179 331.33276 449.23663
415.0 0.002410 331.23224 410.19052
393.0 0.002545 331.13162 397.07025
399.0 0.002506 331.03098 402.60861
398.0 0.002513 330.93042 425.87161
413.0 0.002421 330.82980 464.41092
474.0 0.002110 330.72919 502.19528
513.0 0.001949 330.62854 510.58325
479.0 0.002088 330.52798 471.89725
450.0 0.002222 330.42737 423.74695
374.0 0.002674 330.32675 391.20468
354.0 0.002825 330.22626 373.99814
367.0 0.002725 330.12564 367.00970
386.0 0.002591 330.02509 364.66721
397.0 0.002519 329.92447 364.68362
397.0 0.002519 329.82394 366.39426
405.0 0.002469 329.72345 369.78888
368.0 0.002717 329.62286 375.43552
383.0 0.002611 329.52234 383.87982
431.0 0.002320 329.42178 397.49713
433.0 0.002309 329.32129 421.47327
455.0 0.002198 329.22079 468.05212
592.0 0.001689 329.12033 559.58179
691.0 0.001447 329.01987 715.33563
901.0 0.001110 328.91940 921.00336
1099.0 0.000910 328.81900 1100.59521
1065.0 0.000939 328.71854 1145.88196
993.0 0.001007 328.61810 1047.88037
847.0 0.001181 328.51770 924.50616
773.0 0.001294 328.41733 789.55975
650.0 0.001538 328.31693 651.06323
545.0 0.001835 328.21667 566.30304
536.0 0.001866 328.11633 551.63245
587.0 0.001704 328.01602 600.18134
660.0 0.001515 327.91568 685.19800
712.0 0.001404 327.81546 756.68506
706.0 0.001416 327.71521 756.89532
649.0 0.001541 327.61493 695.85474
626.0 0.001597 327.51480 629.71899
551.0 0.001815 327.41455 555.16394
463.0 0.002160 327.31436 481.00232
430.0 0.002326 327.21426 429.63196
400.0 0.002500 327.11414 401.15356
403.0 0.002481 327.01404 387.89990
390.0 0.002564 326.91400 383.60678
389.0 0.002571 326.81396 386.97470
422.0 0.002370 326.71396 399.68903
432.0 0.002315 326.61392 429.10632
436.0 0.002294 326.51398 483.00558
540.0 0.001852 326.41403 553.15723
604.0 0.001656 326.31421 606.28101
586.0 0.001706 326.21432 592.99701
510.0 0.001961 326.11453 520.59027
452.0 0.002212 326.01465 453.67551
441.0 0.002268 325.91486 415.34424
421.0 0.002375 325.81509 401.22726
393.0 0.002545 325.71539 404.80063
412.0 0.002427 325.61569 418.00427
468.0 0.002137 325.51602 443.73462
478.0 0.002092 325.41638 478.39420
491.0 0.002037 325.31686 505.07980
473.0 0.002114 325.21732 499.77954
512.0 0.001953 325.11780 470.72632
455.0 0.002198 325.01831 450.68985
458.0 0.002183 324.91885 453.63785
500.0 0.002000 324.81946 487.41748
549.0 0.001821 324.72009 568.67218
661.0 0.001513 324.62073 719.90643
843.0 0.001186 324.52145 937.05688
1054.0 0.000949 324.42221 1141.73145
1084.0 0.000923 324.32300 1187.14258
942.0 0.001062 324.22379 1011.70746
772.0 0.001295 324.12463 806.48022
726.0 0.001377 324.02554 694.47131
744.0 0.001344 323.92651 693.75311
826.0 0.001211 323.82764 805.02209
983.0 0.001017 323.72858 1034.58508
1331.0 0.000751 323.62964 1330.40417
1452.0 0.000689 323.53079 1547.02490
1457.0 0.000686 323.43195 1511.87097
1158.0 0.000864 323.33316 1293.33386
1006.0 0.000994 323.23444 1031.93530
785.0 0.001274 323.13577 823.88995
739.0 0.001353 323.03714 691.59900
648.0 0.001543 322.93848 632.35236
625.0 0.001600 322.83997 645.85437
684.0 0.001462 322.74149 727.45624
819.0 0.001221 322.64301 841.42938
835.0 0.001198 322.54456 912.05396
853.0 0.001172 322.44620 863.65363
750.0 0.001333 322.34796 751.70929
693.0 0.001443 322.24973 657.60791
620.0 0.001613 322.15155 603.33563
628.0 0.001592 322.05338 586.66772
631.0 0.001585 321.95529 620.61987
746.0 0.001340 321.85727 738.76788
930.0 0.001075 321.75931 979.28967
1212.0 0.000825 321.66135 1330.57971
1519.0 0.000658 321.56351 1654.48413
1644.0 0.000608 321.46558 1704.85864
1357.0 0.000737 321.36792 1396.04456
993.0 0.001007 321.27020 1016.90100
732.0 0.001366 321.17255 758.52740
666.0 0.001502 321.07495 633.95917
621.0 0.001610 320.97739 607.19159
642.0 0.001558 320.88000 658.81079
756.0 0.001323 320.78250 791.24994
914.0 0.001094 320.68521 987.54846
1108.0 0.000903 320.58786 1162.50659
1183.0 0.000845 320.49066 1179.04724
1041.0 0.000961 320.39349 1004.48804
850.0 0.001176 320.29642 801.67413
694.0 0.001441 320.19931 682.43024
660.0 0.001515 320.10229 661.44275
729.0 0.001372 320.00543 729.28186
890.0 0.001124 319.90854 865.54950
1031.0 0.000970 319.81177 1019.44922
1160.0 0.000862 319.71506 1111.04065
1194.0 0.000838 319.61838 1121.73560
1233.0 0.000811 319.52176 1205.95691
1574.0 0.000635 319.42526 1525.71838
2140.0 0.000467 319.32883 2130.26416
2670.0 0.000375 319.23236 2816.54126
3038.0 0.0003292 319.13599 3127.40845
2732.0 0.000366 319.03979 2695.57495
1995.0 0.000501 318.94357 1986.70898
1475.0 0.000678 318.84750 1471.88452
1182.0 0.000846 318.75146 1173.68774
981.0 0.001019 318.65540 991.44385
927.0 0.001079 318.55951 923.83594
1041.0 0.000961 318.46368 1009.80695
1213.0 0.000824 318.36792 1258.02747
1462.0 0.000684 318.27225 1577.47705
1675.0 0.000597 318.17657 1751.16992
1602.0 0.000624 318.08099 1557.03857
1254.0 0.000797 317.98557 1164.12109
859.0 0.001164 317.89017 842.72833
648.0 0.001543 317.79483 648.01404
592.0 0.001689 317.69955 540.91449
517.0 0.001934 317.60431 479.38037
392.0 0.002551 317.50925 444.79419
426.0 0.002347 317.41428 422.69040
400.0 0.002500 317.31937 407.07861
406.0 0.002463 317.22446 395.75568
403.0 0.002481 317.12967 387.71365
390.0 0.002564 317.03494 382.96497
379.0 0.002639 316.94034 379.24170
379.0 0.002639 316.84579 376.93622
412.0 0.002427 316.75125 376.03052
389.0 0.002571 316.65686 375.36899
431.0 0.002320 316.56256 378.01794
418.0 0.002392 316.46835 383.25192
404.0 0.002475 316.37418 392.91776
445.0 0.002247 316.28012 411.57251
505.0 0.001980 316.18619 448.97540
599.0 0.001669 316.09229 520.37408
734.0 0.001362 315.99844 636.82849
888.0 0.001126 315.90466 779.12714
960.0 0.001042 315.81104 880.63947
930.0 0.001075 315.71741 862.76843
819.0 0.001221 315.62393 741.19440
709.0 0.001410 315.53064 626.14960
604.0 0.001656 315.43729 572.90271
604.0 0.001656 315.34412 572.59424
621.0 0.001610 315.25095 589.40570
640.0 0.001563 315.15790 611.58728
699.0 0.001431 315.06497 648.15588
783.0 0.001277 314.97205 720.23016
873.0 0.001145 314.87927 826.78906
976.0 0.001025 314.78662 921.55493
997.0 0.001003 314.69403 949.88263
930.0 0.001075 314.60150 892.23181
859.0 0.001164 314.50906 785.60431
789.0 0.001267 314.41672 726.09021
811.0 0.001233 314.32443 761.16870
939.0 0.001065 314.23239 909.88086
1116.0 0.000896 314.14035 1159.96033
1323.0 0.000756 314.04831 1418.76611
1399.0 0.000715 313.95651 1504.49353
1263.0 0.000792 313.86472 1313.28662
989.0 0.001011 313.77301 1043.94910
786.0 0.001272 313.68146 833.32928
659.0 0.001517 313.59000 678.16492
614.0 0.001629 313.49860 581.72797
585.0 0.001709 313.40726 550.46106
578.0 0.001730 313.31607 586.84589
632.0 0.001582 313.22501 687.36084
776.0 0.001289 313.13400 817.63293
829.0 0.001206 313.04309 891.52008
779.0 0.001284 312.95224 819.82056
693.0 0.001443 312.86160 662.33948
562.0 0.001779 312.77100 530.87311
473.0 0.002114 312.68048 453.93097
440.0 0.002273 312.59003 413.70294
379.0 0.002639 312.49966 390.49515
398.0 0.002513 312.40948 374.45401
390.0 0.002564 312.31934 363.12631
412.0 0.002427 312.22937 355.67316
375.0 0.002667 312.13947 350.59009
387.0 0.002584 312.04968 347.99072
335.0 0.002985 311.95996 347.88177
374.0 0.002674 311.87036 350.71646
400.0 0.002500 311.78088 359.22385
379.0 0.002639 311.69144 373.73898
404.0 0.002475 311.60217 390.01471
408.0 0.002451 311.51303 400.84726
397.0 0.002519 311.42395 396.71405
422.0 0.002370 311.33496 378.76019
397.0 0.002519 311.24606 360.13470
398.0 0.002513 311.15732 348.13953
369.0 0.002710 311.06866 342.09506
366.0 0.002732 310.98019 340.47592
393.0 0.002545 310.89169 341.63464
396.0 0.002525 310.80334 346.94482
408.0 0.002451 310.71512 355.84488
402.0 0.002488 310.62704 365.42728
385.0 0.002597 310.53906 370.10553
380.0 0.002632 310.45114 366.82117
389.0 0.002571 310.36328 358.57227
386.0 0.002591 310.27563 355.26746
408.0 0.002451 310.18808 357.11505
412.0 0.002427 310.10062 364.92728
396.0 0.002525 310.01321 377.96045
397.0 0.002519 309.92596 402.64719
457.0 0.002188 309.83887 446.09024
539.0 0.001855 309.75192 521.44397
612.0 0.001634 309.66501 637.09277
686.0 0.001458 309.57816 760.50818
757.0 0.001321 309.49155 788.90192
727.0 0.001376 309.40497 701.64301
648.0 0.001543 309.31851 614.84778
617.0 0.001621 309.23218 598.95105
675.0 0.001481 309.14594 685.67419
810.0 0.001235 309.05984 885.61414
998.0 0.001002 308.97391 1156.81274
1196.0 0.000836 308.88800 1317.43518
1203.0 0.000831 308.80228 1208.24756
1058.0 0.000945 308.71655 1004.16516
842.0 0.001188 308.63110 841.92010
718.0 0.001393 308.54565 705.00183
623.0 0.001605 308.46039 596.21277
577.0 0.001733 308.37524 539.14172
547.0 0.001828 308.29016 539.93573
588.0 0.001701 308.20517 604.04022
711.0 0.001406 308.12042 729.56549
753.0 0.001328 308.03574 872.57568
913.0 0.001095 307.95114 926.45197
902.0 0.001109 307.86673 871.41498
909.0 0.001100 307.78235 786.40808
819.0 0.001221 307.69812 710.23529
710.0 0.001408 307.61414 693.98645
747.0 0.001339 307.53012 738.87317
740.0 0.001351 307.44623 784.16907
804.0 0.001244 307.36243 761.67749
786.0 0.001272 307.27887 672.66547
623.0 0.001605 307.19540 581.26208
571.0 0.001751 307.11206 532.20673
559.0 0.001789 307.02884 528.96313
562.0 0.001779 306.94568 549.79858
553.0 0.001808 306.86267 568.61206
651.0 0.001536 306.77988 599.85016
656.0 0.001524 306.69714 683.21954
805.0 0.001242 306.61444 841.02313
953.0 0.001049 306.53198 1062.74524
1258.0 0.000795 306.44958 1298.34717
1492.0 0.000670 306.36737 1417.62720
1508.0 0.000663 306.28528 1359.53564
1312.0 0.000762 306.20319 1212.60315
1058.0 0.000945 306.12140 998.39148
836.0 0.001196 306.03961 790.13324
663.0 0.001508 305.95807 647.11902
619.0 0.001616 305.87653 578.45386
620.0 0.001613 305.79514 575.07965
621.0 0.001610 305.71396 631.81702
705.0 0.001418 305.63284 743.20447
826.0 0.001211 305.55188 872.57373
912.0 0.001096 305.47110 937.66760
969.0 0.001032 305.39032 941.17352
1004.0 0.000996 305.30978 931.21051
986.0 0.001014 305.22925 954.97638
1068.0 0.000936 305.14899 1091.77234
1216.0 0.000822 305.06876 1355.49194
1367.0 0.000732 304.98874 1594.84338
1463.0 0.000684 304.90875 1541.51343
1322.0 0.000756 304.82898 1287.06775
1118.0 0.000894 304.74930 1120.64819
1103.0 0.000907 304.66980 1181.94702
1305.0 0.000766 304.59036 1509.16589
1797.0 0.000556 304.51108 2018.84131
2203.0 0.000454 304.43195 2372.79761
2275.0 0.000440 304.35294 2201.69043
1971.0 0.000507 304.27411 1793.65527
1520.0 0.000658 304.19534 1509.71521
1309.0 0.000764 304.11670 1340.36584
1172.0 0.000853 304.03821 1146.61926
1013.0 0.000987 303.95987 977.86188
937.0 0.001067 303.88165 936.88324
1053.0 0.000950 303.80365 1081.33862
1298.0 0.000770 303.72568 1422.59277
1637.0 0.000611 303.64792 1850.41479
1954.0 0.000512 303.57022 2008.58032
1941.0 0.000515 303.49271 1681.99585
1520.0 0.000658 303.41522 1212.13171
1058.0 0.000945 303.33798 859.98370
735.0 0.001361 303.26086 661.83807
619.0 0.001616 303.18390 574.31830
636.0 0.001572 303.10712 557.30829
706.0 0.001416 303.03030 586.47089
679.0 0.001473 302.95380 651.96021
791.0 0.001264 302.87732 740.09186
847.0 0.001181 302.80103 835.21362
907.0 0.001103 302.72491 872.33832
906.0 0.001104 302.64883 812.59906
785.0 0.001274 302.57297 692.39819
687.0 0.001456 302.49725 567.17029
562.0 0.001779 302.42160 479.72900
468.0 0.002137 302.34616 432.47717
425.0 0.002353 302.27078 414.91061
440.0 0.002273 302.19559 413.80167
448.0 0.002232 302.12057 416.16785
461.0 0.002169 302.04562 414.13962
441.0 0.002268 301.97089 417.44476
472.0 0.002119 301.89630 430.70947
459.0 0.002179 301.82181 436.99011
444.0 0.002252 301.74750 420.20190
445.0 0.002247 301.67325 390.47568
394.0 0.002538 301.59918 365.90836
358.0 0.002793 301.52530 350.68802
359.0 0.002786 301.45148 342.70612
370.0 0.002703 301.37784 335.80164
342.0 0.002924 301.30438 333.93265
337.0 0.002967 301.23102 333.68671
338.0 0.002959 301.15781 334.34189
359.0 0.002786 301.08469 335.98743
393.0 0.002545 301.01181 337.92337
390.0 0.002564 300.93906 342.81497
388.0 0.002577 300.86639 351.52271
408.0 0.002451 300.79391 367.96207
430.0 0.002326 300.72153 397.70911
464.0 0.002155 300.64932 443.85867
509.0 0.001965 300.57733 495.14594
546.0 0.001832 300.50534 520.69965
548.0 0.001825 300.43359 501.29669
519.0 0.001927 300.36194 480.31293
547.0 0.001828 300.29047 493.15619
613.0 0.001631 300.21915 559.94843
709.0 0.001410 300.14795 692.20685
868.0 0.001152 300.07693 870.74664
1013.0 0.000987 300.00595 1028.50623
1126.0 0.000888 299.93521 1135.92761
1250.0 0.000800 299.86475 1174.58728
1213.0 0.000824 299.79422 1068.07446
1072.0 0.000933 299.72391 892.43451
850.0 0.001176 299.65372 739.75311
696.0 0.001437 299.58368 627.11713
624.0 0.001603 299.51382 556.20380
569.0 0.001757 299.44409 537.42694
588.0 0.001701 299.37445 571.59113
608.0 0.001645 299.30508 641.17450
679.0 0.001473 299.23578 707.38672
762.0 0.001312 299.16666 755.58447
860.0 0.001163 299.09769 774.63092
856.0 0.001168 299.02881 727.80060
778.0 0.001285 298.96014 649.24414
705.0 0.001418 298.89160 567.29474
565.0 0.001770 298.82321 490.35910
471.0 0.002123 298.75491 429.30609
449.0 0.002227 298.68686 389.25345
374.0 0.002674 298.61890 366.47702
371.0 0.002695 298.55109 355.24310
365.0 0.002740 298.48349 351.59982
371.0 0.002695 298.41599 353.57852
407.0 0.002457 298.34863 359.91498
400.0 0.002500 298.28140 369.07642
365.0 0.002740 298.21436 374.62790
417.0 0.002398 298.14749 368.20981
376.0 0.002660 298.08069 355.78342
365.0 0.002740 298.01413 346.09351
367.0 0.002725 297.94766 341.48398
352.0 0.002841 297.88135 341.38083
366.0 0.002732 297.81522 344.87308
351.0 0.002849 297.74930 351.28674
383.0 0.002611 297.68338 362.04306
388.0 0.002577 297.61768 380.93295
443.0 0.002257 297.55215 415.15033
483.0 0.002070 297.48679 484.55487
577.0 0.001733 297.42154 612.68652
727.0 0.001376 297.35645 806.38068
857.0 0.001167 297.29147 1006.59509
966.0 0.001035 297.22665 1048.67444
857.0 0.001167 297.16202 885.22119
706.0 0.001416 297.09760 683.78314
541.0 0.001848 297.03323 541.01331
468.0 0.002137 296.96909 471.00543
473.0 0.002114 296.90506 456.15518
505.0 0.001980 296.84122 477.81787
521.0 0.001919 296.77747 519.98230
582.0 0.001718 296.71384 567.07159
632.0 0.001582 296.65048 628.07336
647.0 0.001546 296.58719 699.16046
688.0 0.001453 296.52414 709.17810
670.0 0.001493 296.46115 622.56421
556.0 0.001799 296.39835 513.95331
468.0 0.002137 296.33575 434.14148
410.0 0.002439 296.27319 391.22278
383.0 0.002611 296.21088 375.45142
401.0 0.002494 296.14868 375.82678
429.0 0.002331 296.08664 380.24179
407.0 0.002457 296.02478 374.72794
402.0 0.002488 295.96307 359.37018
377.0 0.002653 295.90146 344.22586
366.0 0.002732 295.84003 334.04221
351.0 0.002849 295.77872 328.57773
334.0 0.002994 295.71771 326.32333
340.0 0.002941 295.65674 325.94727
338.0 0.002959 295.59592 327.02710
322.0 0.003106 295.53531 329.44159
324.0 0.003086 295.47479 333.53287
333.0 0.003003 295.41446 340.04596
384.0 0.002604 295.35431 350.89902
369.0 0.002710 295.29428 369.01700
411.0 0.002433 295.23441 401.25037
449.0 0.002227 295.17471 458.48706
530.0 0.001887 295.11508 554.58020
643.0 0.001555 295.05569 700.46765
816.0 0.001225 294.99646 872.46069
892.0 0.001121 294.93732 954.34735
862.0 0.001160 294.87836 850.28729
754.0 0.001326 294.81961 671.53058
562.0 0.001779 294.76096 527.92218
453.0 0.002208 294.70255 442.15479
455.0 0.002198 294.64423 402.94962
428.0 0.002336 294.58603 393.22061
414.0 0.002415 294.52802 405.29443
418.0 0.002392 294.47009 439.89471
476.0 0.002101 294.41245 500.87735
553.0 0.001808 294.35492 581.72510
606.0 0.001650 294.29749 635.82471
651.0 0.001536 294.24026 600.70221
571.0 0.001751 294.18323 511.92056
462.0 0.002165 294.12628 432.89066
442.0 0.002262 294.06955 382.35406
378.0 0.002646 294.01294 356.80655
368.0 0.002717 293.95648 346.41971
369.0 0.002710 293.90021 343.09174
366.0 0.002732 293.84402 340.80240
326.0 0.003067 293.78809 337.66354
324.0 0.003086 293.73221 336.72543
338.0 0.002959 293.67657 341.81586
362.0 0.002762 293.62106 357.25409
389.0 0.002571 293.56573 387.10562
462.0 0.002165 293.51047 430.79977
533.0 0.001876 293.45541 471.52704
533.0 0.001876 293.40051 473.79150
498.0 0.002008 293.34583 437.83514
442.0 0.002262 293.29123 399.89438
426.0 0.002347 293.23679 376.77789
416.0 0.002404 293.18256 369.17053
408.0 0.002451 293.12845 374.43906
414.0 0.002415 293.07449 392.06656
426.0 0.002347 293.02069 420.24402
462.0 0.002165 292.96707 457.98581
512.0 0.001953 292.91364 496.83267
539.0 0.001855 292.86020 509.76312
521.0 0.001919 292.80707 486.99478
496.0 0.002016 292.75406 444.05972
462.0 0.002165 292.70123 405.37552
430.0 0.002326 292.64847 386.89322
431.0 0.002320 292.59592 390.41821
447.0 0.002237 292.54358 420.00089
487.0 0.002053 292.49130 483.94217
569.0 0.001757 292.43927 586.90778
617.0 0.001621 292.38730 708.98840
677.0 0.001477 292.33554 774.99701
691.0 0.001447 292.28397 714.77112
632.0 0.001582 292.23248 590.61145
514.0 0.001946 292.18118 484.80090
431.0 0.002320 292.13004 418.44534
386.0 0.002591 292.07916 384.22644
372.0 0.002688 292.02826 372.94620
375.0 0.002667 291.97763 378.12292
431.0 0.002320 291.92706 401.45203
408.0 0.002451 291.87671 447.15469
423.0 0.002364 291.82651 512.16821
526.0 0.001901 291.77646 568.40570
556.0 0.001799 291.72656 568.06683
538.0 0.001859 291.67682 524.03729
498.0 0.002008 291.62726 487.52878
473.0 0.002114 291.57785 476.65082
502.0 0.001992 291.52850 484.38379
491.0 0.002037 291.47943 484.65366
490.0 0.002041 291.43054 476.30267
505.0 0.001980 291.38168 458.04193
460.0 0.002174 291.33304 431.48093
394.0 0.002538 291.28461 412.32651
414.0 0.002415 291.23624 406.79471
410.0 0.002439 291.18814 413.59134
436.0 0.002294 291.14008 434.72791
507.0 0.001972 291.09219 481.58105
575.0 0.001739 291.04446 567.18250
682.0 0.001466 290.99698 691.82446
790.0 0.001266 290.94962 816.37610
816.0 0.001225 290.90234 867.30444
836.0 0.001196 290.85526 840.59174
754.0 0.001326 290.80832 762.43939
726.0 0.001377 290.76151 648.69153
614.0 0.001629 290.71490 548.29395
518.0 0.001931 290.66849 486.68372
468.0 0.002137 290.62219 463.27454
454.0 0.002203 290.57596 473.34949
500.0 0.002000 290.53000 516.21460
615.0 0.001626 290.48416 593.06647
707.0 0.001414 290.43842 695.66260
795.0 0.001258 290.39291 791.09009
896.0 0.001116 290.34750 869.14966
1023.0 0.000978 290.30231 991.61322
1217.0 0.000822 290.25726 1206.98059
1495.0 0.000669 290.21234 1513.91272
1750.0 0.000571 290.16754 1780.40247
1804.0 0.000554 290.12296 1812.89539
1614.0 0.000620 290.07849 1613.96680
1322.0 0.000756 290.03418 1276.45923
994.0 0.001006 289.99008 961.83667
756.0 0.001323 289.94611 757.39001
651.0 0.001536 289.90222 654.52551
641.0 0.001560 289.85855 619.76099
655.0 0.001527 289.81503 642.79901
728.0 0.001374 289.77161 737.54181
876.0 0.001142 289.72842 919.78033
1074.0 0.000931 289.68536 1170.90674
1323.0 0.000756 289.64246 1402.11523
1561.0 0.000641 289.59970 1542.79480
1577.0 0.000634 289.55716 1535.80005
1398.0 0.000715 289.51459 1318.04468
1052.0 0.000951 289.47229 1009.94751
823.0 0.001215 289.43015 761.53540
638.0 0.001567 289.38818 611.15375
504.0 0.001984 289.34637 541.22504
513.0 0.001949 289.30463 522.87543
541.0 0.001848 289.26312 532.53406
582.0 0.001718 289.22174 562.78046
598.0 0.001672 289.18048 634.03357
678.0 0.001475 289.13943 763.12146
849.0 0.001178 289.09848 922.49670
920.0 0.001087 289.05774 996.62671
902.0 0.001109 289.01718 895.61560
743.0 0.001346 288.97665 718.16943
612.0 0.001634 288.93634 569.52869
521.0 0.001919 288.89612 478.00372
437.0 0.002288 288.85614 433.72830
424.0 0.002358 288.81631 417.51633
388.0 0.002577 288.77652 412.71942
408.0 0.002451 288.73706 414.27634
418.0 0.002392 288.69763 429.57303
469.0 0.002132 288.65836 460.89697
467.0 0.002141 288.61923 496.74982
499.0 0.002004 288.58029 504.30862
491.0 0.002037 288.54141 474.08185
458.0 0.002183 288.50281 438.51181
423.0 0.002364 288.46429 420.27643
432.0 0.002315 288.42596 435.54245
466.0 0.002146 288.38776 488.58929
544.0 0.001838 288.34967 580.42560
604.0 0.001656 288.31177 682.37476
630.0 0.001587 288.27402 718.37738
622.0 0.001608 288.23645 651.31360
556.0 0.001799 288.19897 545.55731
480.0 0.002083 288.16168 458.28250
428.0 0.002336 288.12454 404.00122
410.0 0.002439 288.08746 377.20651
402.0 0.002488 288.05060 369.20120
433.0 0.002309 288.01392 375.36325
451.0 0.002217 287.97736 397.92191
463.0 0.002160 287.94101 443.49280
530.0 0.001887 287.90463 506.02179
596.0 0.001678 287.86862 558.31610
594.0 0.001684 287.83258 557.96973
541.0 0.001848 287.79675 510.19498
471.0 0.002123 287.76108 455.84473
432.0 0.002315 287.72562 416.43161
420.0 0.002381 287.69025 398.22375
429.0 0.002331 287.65494 403.61423
469.0 0.002132 287.61990 434.24255
520.0 0.001923 287.58490 488.50867
551.0 0.001815 287.55017 551.29065
615.0 0.001626 287.51547 587.37219
637.0 0.001570 287.48105 587.84259
605.0 0.001653 287.44672 590.83191
624.0 0.001603 287.41248 615.69678
688.0 0.001453 287.37839 635.03693
649.0 0.001541 287.34451 601.53363
553.0 0.001808 287.31076 535.74268
488.0 0.002049 287.27713 486.09735
498.0 0.002008 287.24362 475.77158
537.0 0.001862 287.21033 511.88177
587.0 0.001704 287.17712 590.24304
703.0 0.001422 287.14410 681.36560
752.0 0.001330 287.11115 720.97534
748.0 0.001337 287.07846 682.49158
653.0 0.001531 287.04584 629.37292
595.0 0.001681 287.01343 610.07135
648.0 0.001543 286.98105 621.27258
607.0 0.001647 286.94888 645.03400
626.0 0.001597 286.91681 687.05615
760.0 0.001316 286.88495 737.72430
780.0 0.001282 286.85318 776.05682
771.0 0.001297 286.82159 809.23792
782.0 0.001279 286.79019 863.65729
855.0 0.001170 286.75888 942.56665
973.0 0.001028 286.72766 958.29169
917.0 0.001091 286.69666 843.59851
706.0 0.001416 286.66577 683.83563
581.0 0.001721 286.63501 561.43140
476.0 0.002101 286.60440 496.77090
491.0 0.002037 286.57391 482.16275
489.0 0.002045 286.54358 499.33896
518.0 0.001931 286.51346 523.35864
525.0 0.001905 286.48343 537.01300
506.0 0.001976 286.45349 542.75073
528.0 0.001894 286.42377 554.47650
526.0 0.001901 286.39407 575.93121
532.0 0.001880 286.36459 572.55267
567.0 0.001764 286.33536 521.44318
517.0 0.001934 286.30609 456.78558
444.0 0.002252 286.27707 407.84155
397.0 0.002519 286.24814 379.78848
376.0 0.002660 286.21939 370.42090
387.0 0.002584 286.19073 376.11792
404.0 0.002475 286.16220 395.76859
452.0 0.002212 286.13379 424.99786
465.0 0.002151 286.10568 454.92328
470.0 0.002128 286.07758 477.25909
500.0 0.002000 286.04962 493.27515
528.0 0.001894 286.02179 494.86087
533.0 0.001876 285.99411 487.92972
504.0 0.001984 285.96658 502.86584
539.0 0.001855 285.93918 558.91608
619.0 0.001616 285.91193 647.23431
679.0 0.001473 285.88480 718.09888
687.0 0.001456 285.85785 707.35980
641.0 0.001560 285.83099 640.16766
560.0 0.001786 285.80423 567.14526
481.0 0.002079 285.77768 507.30475
457.0 0.002188 285.75119 467.16809
433.0 0.002309 285.72491 444.39090
407.0 0.002457 285.69876 428.27539
413.0 0.002421 285.67273 416.18121
438.0 0.002283 285.64682 419.30539
462.0 0.002165 285.62100 445.96390
477.0 0.002096 285.59543 490.37146
521.0 0.001919 285.56992 528.66058
514.0 0.001946 285.54456 523.95618
471.0 0.002123 285.51932 482.66177
449.0 0.002227 285.49423 431.26636
373.0 0.002681 285.46921 386.41190
369.0 0.002710 285.44440 355.53091
333.0 0.003003 285.41968 337.31610
310.0 0.003226 285.39508 327.97400
294.0 0.003401 285.37067 323.96423
295.0 0.003390 285.34634 323.71326
345.0 0.002899 285.32224 325.35269
346.0 0.002890 285.29819 330.77991
324.0 0.003086 285.27426 340.44049
354.0 0.002825 285.25049 355.73752
346.0 0.002890 285.22681 379.15707
375.0 0.002667 285.20334 416.60910
456.0 0.002193 285.17987 471.34448
497.0 0.002012 285.15662 529.68829
541.0 0.001848 285.13354 553.72723
516.0 0.001938 285.11050 522.31964
427.0 0.002342 285.08765 470.82361
396.0 0.002525 285.06488 437.20505
403.0 0.002481 285.04233 434.37537
445.0 0.002247 285.01981 459.14624
468.0 0.002137 284.99747 493.18610
480.0 0.002083 284.97525 503.96527
488.0 0.002049 284.95322 486.48428
444.0 0.002252 284.93115 469.15182
429.0 0.002331 284.90933 468.92139
416.0 0.002404 284.88760 486.22296
440.0 0.002273 284.86606 507.72205
476.0 0.002101 284.84460 521.01471
503.0 0.001988 284.82321 538.75891
544.0 0.001838 284.80200 568.58136
571.0 0.001751 284.78088 592.39264
575.0 0.001739 284.75989 606.18207
624.0 0.001603 284.73914 637.55151
660.0 0.001515 284.71835 692.32910
676.0 0.001479 284.69785 742.04199
678.0 0.001475 284.67734 732.39172
604.0 0.001656 284.65695 645.61072
509.0 0.001965 284.63681 543.33502
432.0 0.002315 284.61664 469.74002
393.0 0.002545 284.59671 434.24460
411.0 0.002433 284.57684 430.07172
415.0 0.002410 284.55710 444.07321
426.0 0.002347 284.53757 459.06784
425.0 0.002353 284.51807 468.38974
444.0 0.002252 284.49866 489.71222
487.0 0.002053 284.47943 539.96851
518.0 0.001931 284.46039 615.08478
605.0 0.001653 284.44135 685.71179
646.0 0.001548 284.42249 719.47760
668.0 0.001497 284.40378 697.47339
590.0 0.001695 284.38510 614.08234
463.0 0.002160 284.36661 514.66498
409.0 0.002445 284.34821 437.92355
347.0 0.002882 284.32993 390.60172
327.0 0.003058 284.31177 365.98404
333.0 0.003003 284.29373 357.36313
327.0 0.003058 284.27582 359.87164
353.0 0.002833 284.25809 373.06900
339.0 0.002950 284.24042 398.83368
393.0 0.002545 284.22278 439.92111
497.0 0.002012 284.20529 495.96283
522.0 0.001916 284.18805 547.78613
584.0 0.001712 284.17084 564.75421
530.0 0.001887 284.15372 541.65265
540.0 0.001852 284.13675 507.61969
456.0 0.002193 284.11990 489.47272
443.0 0.002257 284.10312 482.77808
437.0 0.002288 284.08649 464.10754
391.0 0.002558 284.07001 429.86075
368.0 0.002717 284.05356 394.86038
355.0 0.002817 284.03723 369.30212
391.0 0.002558 284.02112 357.84253
355.0 0.002817 284.00513 359.65659
382.0 0.002618 283.98914 371.84772
390.0 0.002564 283.97330 390.07327
389.0 0.002571 283.95758 405.73846
397.0 0.002519 283.94196 422.72653
435.0 0.002299 283.92648 455.68155
457.0 0.002188 283.91107 511.94098
495.0 0.002020 283.89587 578.34735
583.0 0.001715 283.88071 622.68323
607.0 0.001647 283.86566 604.13922
509.0 0.001965 283.85068 531.58551
448.0 0.002232 283.83588 456.59048
383.0 0.002611 283.82117 403.80185
353.0 0.002833 283.80658 372.66870
346.0 0.002890 283.79205 354.06604
341.0 0.002933 283.77765 342.62698
353.0 0.002833 283.76343 339.54141
347.0 0.002882 283.74921 345.42841
324.0 0.003086 283.73517 363.74802
361.0 0.002770 283.72119 393.37015
389.0 0.002571 283.70737 425.46521
418.0 0.002392 283.69366 437.52264
419.0 0.002387 283.68005 417.62445
393.0 0.002545 283.66647 386.59415
366.0 0.002732 283.65308 363.82278
367.0 0.002725 283.63977 355.41574
373.0 0.002681 283.62659 361.30811
383.0 0.002611 283.61349 380.45258
394.0 0.002538 283.60043 409.85117
428.0 0.002336 283.58759 435.00616
413.0 0.002421 283.57480 433.79404
373.0 0.002681 283.56207 408.43857
357.0 0.002801 283.54959 379.94220
344.0 0.002907 283.53708 357.02200
306.0 0.003268 283.52472 339.81384
298.0 0.003356 283.51242 329.25412
296.0 0.003378 283.50031 323.87076
296.0 0.003378 283.48822 321.14499
312.0 0.003205 283.47629 321.79898
300.0 0.003333 283.46442 328.31381
322.0 0.003106 283.45273 341.05603
352.0 0.002841 283.44104 356.05441
350.0 0.002857 283.42947 362.52783
340.0 0.002941 283.41803 354.12659
299.0 0.003344 283.40668 339.63300
321.0 0.003115 283.39542 326.78818
319.0 0.003135 283.38431 316.59338
280.0 0.00357 283.37323 309.47293
282.0 0.00355 283.36224 305.02365
290.0 0.003448 283.35147 301.29559
271.0 0.00369 283.34064 298.47369
313.0 0.003195 283.33002 296.21335
284.0 0.00352 283.31943 294.82904
257.0 0.00389 283.30902 294.30664
321.0 0.003115 283.29861 294.84766
292.0 0.003425 283.28836 296.77420
291.0 0.003436 283.27820 300.71799
310.0 0.003226 283.26816 307.16879
337.0 0.002967 283.25818 315.52530
325.0 0.003077 283.24829 322.40567
353.0 0.002833 283.23846 322.41132
282.0 0.00355 283.22879 315.53137
291.0 0.003436 283.21918 308.17355
304.0 0.003289 283.20963 302.99921
304.0 0.003289 283.20026 300.44165
297.0 0.003367 283.19098 300.00528
265.0 0.00377 283.18173 301.19223
291.0 0.003436 283.17258 303.89835
271.0 0.00369 283.16351 308.54477
329.0 0.003040 283.15457 316.30948
347.0 0.002882 283.14575 329.10855
352.0 0.002841 283.13696 349.45389
391.0 0.002558 283.12830 379.18521
452.0 0.002212 283.11972 420.87216
454.0 0.002203 283.11121 473.82181
522.0 0.001916 283.10278 524.59821
553.0 0.001808 283.09445 556.64545
524.0 0.001908 283.08624 561.10535
504.0 0.001984 283.07816 522.69580
457.0 0.002188 283.07007 458.59219
411.0 0.002433 283.06207 400.92502
377.0 0.002653 283.05426 361.93707
340.0 0.002941 283.04651 340.51340
325.0 0.003077 283.03879 332.52393
343.0 0.002915 283.03116 334.84781
363.0 0.002755 283.02362 346.96429
384.0 0.002604 283.01620 368.45950
383.0 0.002611 283.00888 395.32874
379.0 0.002639 283.00162 417.75842
390.0 0.002564 282.99442 429.58316
404.0 0.002475 282.98730 425.39819
407.0 0.002457 282.98029 401.28055
373.0 0.002681 282.97336 372.24164
357.0 0.002801 282.96652 350.72394
335.0 0.002985 282.95975 337.82098
318.0 0.003145 282.95313 328.34338
296.0 0.003378 282.94647 319.37662
292.0 0.003425 282.94000 312.34579
287.0 0.003484 282.93353 308.34460
322.0 0.003106 282.92725 307.11041
299.0 0.003344 282.92093 307.56918
295.0 0.003390 282.91476 307.36096
301.0 0.003322 282.90863 305.32959
302.0 0.003311 282.90265 303.14182
308.0 0.003247 282.89667 302.29523
299.0 0.003344 282.89078 303.11761
275.0 0.00364 282.88507 305.38754
323.0 0.003096 282.87936 307.79367
302.0 0.003311 282.87372 308.90225
320.0 0.003125 282.86816 309.82047
324.0 0.003086 282.86267 313.45248
305.0 0.003279 282.85733 322.62219
342.0 0.002924 282.85199 339.48624
356.0 0.002809 282.84674 364.13541
419.0 0.002387 282.84155 390.48218
402.0 0.002488 282.83640 403.95471
395.0 0.002532 282.83145 393.45822
395.0 0.002532 282.82657 372.25522
351.0 0.002849 282.82166 356.46283
328.0 0.003049 282.81683 352.51349
341.0 0.002933 282.81219 358.87601
335.0 0.002985 282.80756 367.49915
349.0 0.002865 282.80298 367.08197
349.0 0.002865 282.79846 357.39282
326.0 0.003067 282.79407 348.83511
323.0 0.003096 282.78967 348.47131
370.0 0.002703 282.78537 357.89441
366.0 0.002732 282.78119 373.69510
375.0 0.002667 282.77707 387.34979
379.0 0.002639 282.77304 393.68677
387.0 0.002584 282.76904 397.78943
386.0 0.002591 282.76514 404.72040
401.0 0.002494 282.76126 423.37567
449.0 0.002227 282.75745 455.54346
473.0 0.002114 282.75375 490.39685
483.0 0.002070 282.75021 508.29654
480.0 0.002083 282.74661 499.04184
433.0 0.002309 282.74307 470.44162
414.0 0.002415 282.73962 438.77570
397.0 0.002519 282.73627 415.97244
389.0 0.002571 282.73294 406.21985
395.0 0.002532 282.72964 411.30499
413.0 0.002421 282.72650 432.44971
428.0 0.002336 282.72345 466.86145
460.0 0.002174 282.72040 501.07553
489.0 0.002045 282.71741 512.38171
500.0 0.002000 282.71448 495.24835
457.0 0.002188 282.71164 469.85760
436.0 0.002294 282.70889 445.62735
409.0 0.002445 282.70621 421.66354
366.0 0.002732 282.70349 398.17624
373.0 0.002681 282.70102 378.98721
373.0 0.002681 282.69843 366.53955
344.0 0.002907 282.69595 361.79153
355.0 0.002817 282.69354 366.05487
350.0 0.002857 282.69119 381.67670
386.0 0.002591 282.68893 409.84219
460.0 0.002174 282.68674 444.83389
474.0 0.002110 282.68454 470.20206
431.0 0.002320 282.68243 473.62717
431.0 0.002320 282.68042 451.88016
405.0 0.002469 282.67841 417.54541
413.0 0.002421 282.67654 390.03906
378.0 0.002646 282.67465 378.16440
392.0 0.002551 282.67291 383.03525
378.0 0.002646 282.67114 401.83746
397.0 0.002519 282.66949 427.76868
440.0 0.002273 282.66788 453.33359
462.0 0.002165 282.66623 482.67987
478.0 0.002092 282.66476 523.63324
505.0 0.001980 282.66336 564.73535
527.0 0.001898 282.66190 579.89343
516.0 0.001938 282.66055 552.99890
488.0 0.002049 282.65924 498.72656
422.0 0.002370 282.65802 445.18198
394.0 0.002538 282.65689 409.25635
404.0 0.002475 282.65570 394.54822
393.0 0.002545 282.65463 398.05362
407.0 0.002457 282.65366 414.82068
452.0 0.002212 282.65268 441.25943
475.0 0.002105 282.65176 481.32199
511.0 0.001957 282.65088 545.59991
594.0 0.001684 282.65009 640.12848
707.0 0.001414 282.64938 742.01538
773.0 0.001294 282.64856 788.58679
697.0 0.001435 282.64795 731.15808
583.0 0.001715 282.64734 616.43402
479.0 0.002088 282.64685 510.45444
418.0 0.002392 282.64630 437.01019
407.0 0.002457 282.64587 395.31177
368.0 0.002717 282.64545 375.60245
370.0 0.002703 282.64511 368.67953
379.0 0.002639 282.64478 370.53735
389.0 0.002571 282.64456 383.82144
416.0 0.002404 282.64429 412.58524
451.0 0.002217 282.64417 457.69547
481.0 0.002079 282.64404 508.67865
480.0 0.002083 282.64395 535.96851
475.0 0.002105 282.64389 515.97821
455.0 0.002198 282.64389 468.45374
427.0 0.002342 282.64404 425.33148
405.0 0.002469 282.64413 401.33307
403.0 0.002481 282.64426 397.68246
444.0 0.002252 282.64447 409.27679
444.0 0.002252 282.64471 425.17862
461.0 0.002169 282.64502 434.29227
476.0 0.002101 282.64536 438.96063
476.0 0.002101 282.64572 453.64734
487.0 0.002053 282.64609 489.21094
517.0 0.001934 282.64655 540.66156
495.0 0.002020 282.64709 579.01282
473.0 0.002114 282.64764 566.48828
469.0 0.002132 282.64819 512.52148
420.0 0.002381 282.64880 456.29926
381.0 0.002625 282.64951 418.60632
385.0 0.002597 282.65021 403.90054
440.0 0.002273 282.65097 409.27975
438.0 0.002283 282.65173 430.44806
483.0 0.002070 282.65259 465.15228
512.0 0.001953 282.65338 518.54724
613.0 0.001631 282.65427 596.86804
717.0 0.001395 282.65521 688.28967
738.0 0.001355 282.65619 744.82556
760.0 0.001316 282.65726 723.36719
659.0 0.001517 282.65823 642.28284
514.0 0.001946 282.65936 545.52917
435.0 0.002299 282.66043 466.56592
411.0 0.002433 282.66156 415.77759
394.0 0.002538 282.66278 389.89658
360.0 0.002778 282.66400 383.29544
373.0 0.002681 282.66531 394.01218
418.0 0.002392 282.66653 425.85690
481.0 0.002079 282.66791 486.32220
576.0 0.001736 282.66925 579.34412
716.0 0.001397 282.67065 690.48651
760.0 0.001316 282.67203 768.78363
787.0 0.001271 282.67355 749.69965
683.0 0.001464 282.67496 651.17920
480.0 0.002083 282.67661 541.79248
446.0 0.002242 282.67807 455.91876
405.0 0.002469 282.67969 400.22238
352.0 0.002841 282.68130 368.94687
334.0 0.002994 282.68292 353.76001
350.0 0.002857 282.68460 349.14011
358.0 0.002793 282.68637 353.23312
378.0 0.002646 282.68805 367.24438
413.0 0.002421 282.68982 392.81503
425.0 0.002353 282.69162 427.66116
421.0 0.002375 282.69345 460.40857
449.0 0.002227 282.69531 469.31305
445.0 0.002247 282.69714 449.17786
407.0 0.002457 282.69910 422.62531
376.0 0.002660 282.70102 408.28241
398.0 0.002513 282.70294 415.73483
443.0 0.002257 282.70493 447.86267
479.0 0.002088 282.70697 499.10233
546.0 0.001832 282.70895 547.99042
566.0 0.001767 282.71103 557.59393
539.0 0.001855 282.71307 517.44757
472.0 0.002119 282.71518 463.36945
432.0 0.002315 282.71729 423.33554
406.0 0.002463 282.71945 407.59351
412.0 0.002427 282.72162 417.88278
439.0 0.002278 282.72388 450.77899
462.0 0.002165 282.72607 496.52606
516.0 0.001938 282.72836 529.83539
510.0 0.001961 282.73056 526.94574
488.0 0.002049 282.73285 501.76706
463.0 0.002160 282.73526 483.31369
478.0 0.002092 282.73752 477.74069
455.0 0.002198 282.73984 471.33508
446.0 0.002242 282.74228 448.27103
431.0 0.002320 282.74460 417.79507
397.0 0.002519 282.74707 394.92770
383.0 0.002611 282.74945 386.83487
385.0 0.002597 282.75189 398.55719
397.0 0.002519 282.75436 432.03229
516.0 0.001938 282.75684 486.29401
528.0 0.001894 282.75934 548.79083
638.0 0.001567 282.76187 590.24847
587.0 0.001704 282.76443 581.16180
555.0 0.001802 282.76700 529.40698
453.0 0.002208 282.76956 471.13330
392.0 0.002551 282.77213 431.11017
428.0 0.002336 282.77475 417.45798
413.0 0.002421 282.77731 430.77853
485.0 0.002062 282.77997 467.27744
485.0 0.002062 282.78262 514.98871
562.0 0.001779 282.78528 549.34442
572.0 0.001748 282.78790 543.74146
510.0 0.001961 282.79062 513.04846
485.0 0.002062 282.79330 488.32947
475.0 0.002105 282.79599 480.53006
476.0 0.002101 282.79877 481.68164
528.0 0.001894 282.80154 477.05704
500.0 0.002000 282.80420 470.05530
481.0 0.002079 282.80695 461.24451
478.0 0.002092 282.80975 452.16907
488.0 0.002049 282.81256 452.64240
505.0 0.001980 282.81534 473.21686
527.0 0.001898 282.81818 514.52789
582.0 0.001718 282.82095 563.40668
594.0 0.001684 282.82379 588.78821
595.0 0.001681 282.82669 570.71802
546.0 0.001832 282.82944 532.86652
516.0 0.001938 282.83234 509.73047
550.0 0.001818 282.83517 521.69171
634.0 0.001577 282.83801 578.82660
714.0 0.001401 282.84091 678.55951
809.0 0.001236 282.84378 799.73126
914.0 0.001094 282.84662 879.80237
927.0 0.001079 282.84952 857.85266
801.0 0.001248 282.85245 765.89496
679.0 0.001473 282.85532 680.28870
637.0 0.001570 282.85825 641.76642
649.0 0.001541 282.86121 662.53125
731.0 0.001368 282.86414 740.82239
868.0 0.001152 282.86703 872.46667
1037.0 0.000964 282.86990 1045.34192
1205.0 0.000830 282.87286 1199.37354
1238.0 0.000808 282.87576 1254.00952
1214.0 0.000824 282.87872 1222.60010
1089.0 0.000918 282.88168 1150.00940
1024.0 0.000977 282.88464 1042.58081
874.0 0.001144 282.88754 909.21362
759.0 0.001318 282.89050 764.61359
646.0 0.001548 282.89346 639.92059
552.0 0.001812 282.89639 556.12360
502.0 0.001992 282.89935 515.82947
488.0 0.002049 282.90228 516.85596
531.0 0.001883 282.90527 557.10260
605.0 0.001653 282.90826 629.03760
665.0 0.001504 282.91116 713.87445
746.0 0.001340 282.91412 767.29541
722.0 0.001385 282.91702 760.64105
754.0 0.001326 282.91998 715.25610
676.0 0.001479 282.92297 646.92792
585.0 0.001709 282.92593 569.91772
521.0 0.001919 282.92886 506.03098
484.0 0.002066 282.93179 464.62515
403.0 0.002481 282.93472 444.16226
407.0 0.002457 282.93765 441.93924
422.0 0.002370 282.94055 456.70883
509.0 0.001965 282.94351 493.15546
523.0 0.001912 282.94635 563.81097
652.0 0.001534 282.94937 686.38690
859.0 0.001164 282.95221 879.69775
1130.0 0.000885 282.95517 1142.34143
1513.0 0.000661 282.95807 1422.61560
1625.0 0.000615 282.96091 1622.32996
1611.0 0.000621 282.96381 1655.86682
1419.0 0.000705 282.96677 1483.13525
1179.0 0.000848 282.96957 1194.81995
850.0 0.001176 282.97244 928.61517
650.0 0.001538 282.97528 743.97699
603.0 0.001658 282.97818 641.52496
596.0 0.001678 282.98105 599.19318
584.0 0.001712 282.98386 590.49615
603.0 0.001658 282.98663 600.79596
601.0 0.001664 282.98953 639.46173
681.0 0.001468 282.99234 720.53723
825.0 0.001212 282.99512 841.04572
968.0 0.001033 282.99792 968.11548
1081.0 0.000925 283.00067 1053.95361
1058.0 0.000945 283.00348 1062.25415
991.0 0.001009 283.00620 991.05426
880.0 0.001136 283.00903 898.33490
828.0 0.001208 283.01169 834.76392
813.0 0.001230 283.01440 800.48248
779.0 0.001284 283.01715 759.35852
704.0 0.001420 283.01984 686.83832
605.0 0.001653 283.02252 600.74066
525.0 0.001905 283.02518 524.96222
450.0 0.002222 283.02792 469.63275
419.0 0.002387 283.03058 435.88873
428.0 0.002336 283.03314 419.93616
412.0 0.002427 283.03580 420.86243
441.0 0.002268 283.03842 437.48318
506.0 0.001976 283.04095 477.00879
590.0 0.001695 283.04358 548.36078
715.0 0.001399 283.04617 658.05743
802.0 0.001247 283.04871 799.84882
920.0 0.001087 283.05118 939.42249
925.0 0.001081 283.05371 1000.88391
878.0 0.001139 283.05624 938.99982
794.0 0.001259 283.05869 821.88086
702.0 0.001425 283.06122 731.61639
665.0 0.001504 283.06363 701.55597
734.0 0.001362 283.06601 724.89630
777.0 0.001287 283.06854 760.90387
735.0 0.001361 283.07086 755.61542
667.0 0.001499 283.07324 702.05969
631.0 0.001585 283.07565 636.16425
569.0 0.001757 283.07794 583.85474
525.0 0.001905 283.08026 563.66864
561.0 0.001783 283.08255 577.49615
587.0 0.001704 283.08487 607.42633
595.0 0.001681 283.08713 616.78076
546.0 0.001832 283.08939 584.67932
526.0 0.001901 283.09161 536.78052
491.0 0.002037 283.09375 503.08286
505.0 0.001980 283.09589 496.92697
472.0 0.002119 283.09811 510.94980
471.0 0.002123 283.10031 527.60846
510.0 0.001961 283.10239 519.81927
515.0 0.001942 283.10449 487.46951
431.0 0.002320 283.10648 446.90854
392.0 0.002551 283.10858 408.37143
427.0 0.002342 283.11063 378.72165
358.0 0.002793 283.11264 359.23203
344.0 0.002907 283.11456 348.17838
358.0 0.002793 283.11652 342.99994
374.0 0.002674 283.11844 342.16525
375.0 0.002667 283.12033 345.37488
375.0 0.002667 283.12222 352.88336
389.0 0.002571 283.12415 366.67804
385.0 0.002597 283.12592 385.77643
414.0 0.002415 283.12775 408.89832
446.0 0.002242 283.12961 427.30826
429.0 0.002331 283.13129 433.68146
436.0 0.002294 283.13303 435.17819
460.0 0.002174 283.13474 447.20505
488.0 0.002049 283.13641 480.22668
576.0 0.001736 283.13806 540.38269
670.0 0.001493 283.13971 627.08350
753.0 0.001328 283.14127 730.10779
862.0 0.001160 283.14288 840.78973
962.0 0.001040 283.14438 954.43164
1085.0 0.000922 283.14587 1049.02026
1144.0 0.000874 283.14737 1079.75659
1054.0 0.000949 283.14880 1012.89551
906.0 0.001104 283.15030 879.42883
775.0 0.001290 283.15164 743.53278
656.0 0.001524 283.15298 635.42786
574.0 0.001742 283.15430 558.90509
515.0 0.001942 283.15564 513.56860
505.0 0.001980 283.15692 497.74649
505.0 0.001980 283.15814 507.61008
552.0 0.001812 283.15936 541.45770
588.0 0.001701 283.16058 593.35291
685.0 0.001460 283.16171 661.35950
756.0 0.001323 283.16281 748.80981
864.0 0.001157 283.16388 851.93665
948.0 0.001055 283.16489 953.76715
1038.0 0.000963 283.16595 1029.59656
1055.0 0.000948 283.16702 1064.18542
990.0 0.001010 283.16791 1029.84290
817.0 0.001224 283.16891 908.15747
727.0 0.001376 283.16977 749.97949
580.0 0.001724 283.17059 610.24115
501.0 0.001996 283.17148 509.32349
419.0 0.002387 283.17224 444.87775
390.0 0.002564 283.17297 408.45352
389.0 0.002571 283.17374 390.81421
409.0 0.002445 283.17438 386.91168
410.0 0.002439 283.17508 396.10706
432.0 0.002315 283.17572 420.32248
474.0 0.002110 283.17624 462.30875
526.0 0.001901 283.17679 519.82385
563.0 0.001776 283.17737 580.74170
571.0 0.001751 283.17776 615.75256
608.0 0.001645 283.17825 599.73456
527.0 0.001898 283.17862 548.98004
476.0 0.002101 283.17908 489.52200
451.0 0.002217 283.17935 435.10944
410.0 0.002439 283.17963 394.47787
377.0 0.002653 283.17990 369.35504
368.0 0.002717 283.18011 357.02792
348.0 0.002874 283.18033 353.71579
386.0 0.002591 283.18045 356.42807
369.0 0.002710 283.18060 361.55777
358.0 0.002793 283.18057 364.85114
402.0 0.002488 283.18066 362.49844
397.0 0.002519 283.18063 357.47818
381.0 0.002625 283.18057 353.43399
367.0 0.002725 283.18051 352.16769
374.0 0.002674 283.18039 353.08353
374.0 0.002674 283.18018 353.96512
353.0 0.002833 283.18002 352.97556
356.0 0.002809 283.17981 351.83267
385.0 0.002597 283.17944 352.60864
382.0 0.002618 283.17914 359.32019
382.0 0.002618 283.17880 373.98450
407.0 0.002457 283.17838 393.73920
415.0 0.002410 283.17798 411.04483
416.0 0.002404 283.17740 412.22098
408.0 0.002451 283.17688 394.99634
369.0 0.002710 283.17630 370.79181
338.0 0.002959 283.17572 349.64725
370.0 0.002703 283.17508 334.83398
362.0 0.002762 283.17441 326.66714
341.0 0.002933 283.17361 323.88632
327.0 0.003058 283.17285 325.05292
312.0 0.003205 283.17203 328.98700
336.0 0.002976 283.17108 334.93582
349.0 0.002865 283.17029 344.16974
371.0 0.002695 283.16928 358.08835
376.0 0.002660 283.16827 376.78375
401.0 0.002494 283.16721 399.29965
432.0 0.002315 283.16614 423.68387
504.0 0.001984 283.16501 454.22003
553.0 0.001808 283.16385 494.61938
583.0 0.001715 283.16260 538.86139
575.0 0.001739 283.16135 564.02136
510.0 0.001961 283.16006 549.31415
510.0 0.001961 283.15866 505.81805
429.0 0.002331 283.15726 458.00058
414.0 0.002415 283.15582 422.83691
401.0 0.002494 283.15430 406.10727
445.0 0.002247 283.15280 405.63510
426.0 0.002347 283.15125 415.06335
455.0 0.002198 283.14957 429.09958
479.0 0.002088 283.14789 444.89166
482.0 0.002075 283.14621 456.16635
478.0 0.002092 283.14447 462.39078
509.0 0.001965 283.14264 470.80176
530.0 0.001887 283.14075 484.69980
503.0 0.001988 283.13876 495.19077
502.0 0.001992 283.13690 494.96600
511.0 0.001957 283.13492 486.63492
476.0 0.002101 283.13284 483.28644
497.0 0.002012 283.13074 494.44666
554.0 0.001805 283.12857 518.10419
540.0 0.001852 283.12634 540.85522
530.0 0.001887 283.12405 555.26990
595.0 0.001681 283.12186 572.11591
615.0 0.001626 283.11951 598.51324
640.0 0.001563 283.11713 618.85254
610.0 0.001639 283.11462 603.86566
561.0 0.001783 283.11221 552.40344
506.0 0.001976 283.10962 491.44876
444.0 0.002252 283.10709 439.20224
402.0 0.002488 283.10437 403.25122
369.0 0.002710 283.10172 384.29608
409.0 0.002445 283.09903 380.20871
398.0 0.002513 283.09619 387.73917
389.0 0.002571 283.09338 402.69974
382.0 0.002618 283.09045 418.78683
421.0 0.002375 283.08752 429.57031
431.0 0.002320 283.08447 437.90289
441.0 0.002268 283.08148 450.77478
454.0 0.002203 283.07846 468.11362
458.0 0.002183 283.07526 480.64648
483.0 0.002070 283.07211 481.28946
496.0 0.002016 283.06885 476.78796
497.0 0.002012 283.06561 474.14197
506.0 0.001976 283.06213 469.43851
486.0 0.002058 283.05884 459.12317
486.0 0.002058 283.05536 452.18292
507.0 0.001972 283.05188 460.00803
545.0 0.001835 283.04825 488.69614
622.0 0.001608 283.04465 539.28638
679.0 0.001473 283.04102 605.67560
724.0 0.001381 283.03729 676.79706
810.0 0.001235 283.03360 754.54584
850.0 0.001176 283.02972 849.08313
888.0 0.001126 283.02588 941.06781
947.0 0.001056 283.02191 970.16852
888.0 0.001126 283.01797 910.13275
760.0 0.001316 283.01392 806.66150
664.0 0.001506 283.00983 701.59668
597.0 0.001675 283.00571 612.10236
553.0 0.001808 283.00150 550.26971
553.0 0.001808 282.99734 521.83026
572.0 0.001748 282.99298 531.39532
639.0 0.001565 282.98865 581.27588
728.0 0.001374 282.98422 671.33325
816.0 0.001225 282.97980 790.50970
918.0 0.001089 282.97519 912.10645
988.0 0.001012 282.97064 992.09235
1004.0 0.000996 282.96606 999.76453
917.0 0.001091 282.96136 949.56592
790.0 0.001266 282.95663 858.90314
685.0 0.001460 282.95187 748.89886
577.0 0.001733 282.94699 645.38025
544.0 0.001838 282.94208 560.70709
489.0 0.002045 282.93716 500.80066
426.0 0.002347 282.93213 467.13654
436.0 0.002294 282.92706 452.79590
460.0 0.002174 282.92191 451.30371
467.0 0.002141 282.91678 460.33212
457.0 0.002188 282.91147 482.06894
493.0 0.002028 282.90625 514.43060
513.0 0.001949 282.90088 543.18744
565.0 0.001770 282.89551 543.36108
530.0 0.001887 282.89005 509.26630
451.0 0.002217 282.88449 462.90417
405.0 0.002469 282.87894 422.81143
400.0 0.002500 282.87329 393.66827
383.0 0.002611 282.86758 373.46143
390.0 0.002564 282.86188 360.12454
361.0 0.002770 282.85611 352.85992
353.0 0.002833 282.85028 349.56998
347.0 0.002882 282.84433 347.22302
343.0 0.002915 282.83835 343.38892
338.0 0.002959 282.83237 338.06503
333.0 0.003003 282.82623 333.09470
333.0 0.003003 282.82013 330.00589
330.0 0.003030 282.81393 328.89615
351.0 0.002849 282.80765 329.60648
345.0 0.002899 282.80133 331.82541
342.0 0.002924 282.79501 335.51126
368.0 0.002717 282.78854 341.54611
371.0 0.002695 282.78210 352.18784
394.0 0.002538 282.77548 369.06885
412.0 0.002427 282.76895 392.63876
419.0 0.002387 282.76227 418.30414
439.0 0.002278 282.75558 435.45197
446.0 0.002242 282.74878 435.60068
423.0 0.002364 282.74197 426.47067
420.0 0.002381 282.73508 421.35577
436.0 0.002294 282.72815 432.37732
483.0 0.002070 282.72110 465.95590
525.0 0.001905 282.71405 526.50507
603.0 0.001658 282.70691 614.29272
739.0 0.001353 282.69971 721.33539
886.0 0.001129 282.69247 831.98846
961.0 0.001041 282.68515 910.21777
919.0 0.001088 282.67780 908.63147
831.0 0.001203 282.67038 831.02197
739.0 0.001353 282.66290 732.80902
674.0 0.001484 282.65540 647.16510
574.0 0.001742 282.64774 574.86908
503.0 0.001988 282.64011 511.46695
457.0 0.002188 282.63242 463.62210
410.0 0.002439 282.62469 433.94141
415.0 0.002410 282.61679 424.20374
478.0 0.002092 282.60892 434.05606
451.0 0.002217 282.60095 462.30725
478.0 0.002092 282.59296 506.07318
580.0 0.001724 282.58490 559.06561
619.0 0.001616 282.57678 613.66125
676.0 0.001479 282.56851 653.01880
695.0 0.001439 282.56033 656.40375
663.0 0.001508 282.55197 628.14868
584.0 0.001712 282.54364 590.46960
554.0 0.001805 282.53525 551.04541
541.0 0.001848 282.52682 504.91107
474.0 0.002110 282.51816 456.16306
410.0 0.002439 282.50958 413.04230
379.0 0.002639 282.50095 381.56601
374.0 0.002674 282.49228 361.47147
363.0 0.002755 282.48337 350.65460
342.0 0.002924 282.47461 346.65729
377.0 0.002653 282.46570 347.24554
363.0 0.002755 282.45676 351.94965
367.0 0.002725 282.44766 362.70471
407.0 0.002457 282.43860 383.07086
448.0 0.002232 282.42947 415.42828
453.0 0.002208 282.42026 457.94644
515.0 0.001942 282.41101 500.71793
572.0 0.001748 282.40167 523.89117
567.0 0.001764 282.39227 511.38657
528.0 0.001894 282.38281 473.97922
472.0 0.002119 282.37332 431.99210
428.0 0.002336 282.36377 396.51620
397.0 0.002519 282.35413 371.57742
378.0 0.002646 282.34445 357.42737
374.0 0.002674 282.33472 354.24609
368.0 0.002717 282.32495 361.24536
385.0 0.002597 282.31500 379.58377
432.0 0.002315 282.30511 410.73398
473.0 0.002114 282.29517 452.78595
513.0 0.001949 282.28513 496.92639
567.0 0.001764 282.27499 525.56573
570.0 0.001754 282.26477 527.66785
507.0 0.001972 282.25458 506.39661
479.0 0.002088 282.24432 469.07965
450.0 0.002222 282.23398 427.60602
401.0 0.002494 282.22351 391.58859
363.0 0.002755 282.21307 366.24741
355.0 0.002817 282.20251 349.90906
370.0 0.002703 282.19202 341.60242
373.0 0.002681 282.18134 339.78174
349.0 0.002865 282.17059 344.77341
370.0 0.002703 282.15985 356.30865
403.0 0.002481 282.14902 375.12402
405.0 0.002469 282.13812 399.80435
448.0 0.002232 282.12720 425.75162
467.0 0.002141 282.11615 445.97818
523.0 0.001912 282.10507 457.59027
499.0 0.002004 282.09399 465.80392
514.0 0.001946 282.08276 471.87430
511.0 0.001957 282.07153 468.30612
445.0 0.002247 282.06021 450.61530
476.0 0.002101 282.04886 430.15652
437.0 0.002288 282.03745 419.35522
443.0 0.002257 282.02591 426.92093
485.0 0.002062 282.01437 458.53046
520.0 0.001923 282.00278 517.71350
597.0 0.001675 281.99115 600.78699
758.0 0.001319 281.97937 690.60303
766.0 0.001305 281.96759 748.50122
751.0 0.001332 281.95572 738.80212
679.0 0.001473 281.94382 672.01093
559.0 0.001789 281.93188 589.82904
505.0 0.001980 281.91980 522.12671
463.0 0.002160 281.90781 476.76233
462.0 0.002165 281.89560 447.01169
416.0 0.002404 281.88342 423.83096
393.0 0.002545 281.87109 405.84598
415.0 0.002410 281.85880 396.35944
397.0 0.002519 281.84637 398.62717
431.0 0.002320 281.83392 416.01410
497.0 0.002012 281.82141 451.03024
546.0 0.001832 281.80893 504.96579
592.0 0.001689 281.79626 572.75006
636.0 0.001572 281.78357 638.45612
679.0 0.001473 281.77081 681.44196
703.0 0.001422 281.75800 700.98645
722.0 0.001385 281.74515 717.97083
743.0 0.001346 281.73227 740.48175
739.0 0.001353 281.71933 750.83514
711.0 0.001406 281.70618 727.62988
649.0 0.001541 281.69315 665.64288
563.0 0.001776 281.67993 581.95001
480.0 0.002083 281.66678 502.37750
440.0 0.002273 281.65344 441.79495
396.0 0.002525 281.64008 401.94492
365.0 0.002740 281.62674 379.62390
356.0 0.002809 281.61331 371.14636
343.0 0.002915 281.59979 372.83270
403.0 0.002481 281.58621 382.89566
418.0 0.002392 281.57260 399.74103
421.0 0.002375 281.55893 422.40881
442.0 0.002262 281.54523 452.32846
471.0 0.002123 281.53137 488.41629
520.0 0.001923 281.51752 521.50031
544.0 0.001838 281.50366 542.04730
532.0 0.001880 281.48956 546.74860
538.0 0.001859 281.47559 542.10516
511.0 0.001957 281.46149 537.36072
520.0 0.001923 281.44742 530.17310
475.0 0.002105 281.43317 506.34299
440.0 0.002273 281.41891 465.16034
411.0 0.002433 281.40457 420.85300
364.0 0.002747 281.39017 384.42538
320.0 0.003125 281.37573 359.00952
337.0 0.002967 281.36121 343.80240
325.0 0.003077 281.34671 336.58899
318.0 0.003145 281.33209 334.81573
350.0 0.002857 281.31738 336.13196
368.0 0.002717 281.30267 337.82449
360.0 0.002778 281.28790 340.09406
360.0 0.002778 281.27307 345.38181
357.0 0.002801 281.25815 354.41202
365.0 0.002740 281.24326 368.49426
337.0 0.002967 281.22821 382.12900
450.0 0.002222 281.21313 386.91940
406.0 0.002463 281.19800 377.87634
390.0 0.002564 281.18283 360.54819
354.0 0.002825 281.16757 343.03598
346.0 0.002890 281.15234 329.78293
332.0 0.003012 281.13693 321.22086
344.0 0.002907 281.12158 316.88196
327.0 0.003058 281.10611 315.80127
325.0 0.003077 281.09061 316.65555
312.0 0.003205 281.07504 318.13638
329.0 0.003040 281.05939 319.53967
350.0 0.002857 281.04370 321.73483
362.0 0.002762 281.02802 326.18057
343.0 0.002915 281.01215 335.64108
375.0 0.002667 280.99637 351.37183
384.0 0.002604 280.98038 373.54077
440.0 0.002273 280.96445 399.07190
455.0 0.002198 280.94849 420.24039
438.0 0.002283 280.93240 426.19864
433.0 0.002309 280.91629 415.16977
453.0 0.002208 280.90005 399.68771
429.0 0.002331 280.88385 389.04410
413.0 0.002421 280.86758 388.35144
438.0 0.002283 280.85129 397.48090
460.0 0.002174 280.83490 412.45798
465.0 0.002151 280.81848 427.30051
477.0 0.002096 280.80182 441.66721
471.0 0.002123 280.78534 463.66940
489.0 0.002045 280.76877 501.77853
588.0 0.001701 280.75208 558.63263
665.0 0.001504 280.73544 626.28369
690.0 0.001449 280.71866 684.35303
669.0 0.001495 280.70175 714.68518
680.0 0.001471 280.68494 714.19635
669.0 0.001495 280.66797 688.19745
604.0 0.001656 280.65103 642.44702
518.0 0.001931 280.63400 589.19580
513.0 0.001949 280.61691 546.51508
549.0 0.001821 280.59973 524.46008
557.0 0.001795 280.58261 520.34167
584.0 0.001712 280.56534 518.22827
558.0 0.001792 280.54800 504.72266
524.0 0.001908 280.53070 484.24667
463.0 0.002160 280.51331 470.23273
484.0 0.002066 280.49594 470.62518
480.0 0.002083 280.47839 485.59937
514.0 0.001946 280.46078 506.50104
513.0 0.001949 280.44324 519.69580
530.0 0.001887 280.42560 518.42590
504.0 0.001984 280.40784 506.44873
465.0 0.002151 280.39008 488.74640
451.0 0.002217 280.37228 467.42410
431.0 0.002320 280.35443 448.30780
449.0 0.002227 280.33658 439.94052
464.0 0.002155 280.31857 447.71667
484.0 0.002066 280.30060 471.59714
509.0 0.001965 280.28247 506.81879
586.0 0.001706 280.26447 548.65472
609.0 0.001642 280.24628 590.82349
637.0 0.001570 280.22806 614.45721
613.0 0.001631 280.20984 598.12860
514.0 0.001946 280.19153 547.85547
429.0 0.002331 280.17319 489.05930
376.0 0.002660 280.15479 438.13702
384.0 0.002604 280.13635 400.58218
366.0 0.002732 280.11783 376.34027
338.0 0.002959 280.09930 363.25998
339.0 0.002950 280.08069 358.91605
372.0 0.002688 280.06210 362.28830
383.0 0.002611 280.04337 374.26230
407.0 0.002457 280.02469 398.79630
453.0 0.002208 280.00586 439.92429
510.0 0.001961 279.98709 500.93921
594.0 0.001684 279.96817 580.00433
686.0 0.001458 279.94928 662.88739
753.0 0.001328 279.93030 717.38342
731.0 0.001368 279.91122 711.63007
653.0 0.001531 279.89224 656.25146
573.0 0.001745 279.87308 590.93744
539.0 0.001855 279.85403 544.41644
532.0 0.001880 279.83478 527.60626
556.0 0.001799 279.81549 538.58997
581.0 0.001721 279.79626 566.00049
622.0 0.001608 279.77686 595.34979
633.0 0.001580 279.75754 613.79370
575.0 0.001739 279.73810 608.20837
546.0 0.001832 279.71860 577.51837
515.0 0.001942 279.69916 539.36578
500.0 0.002000 279.67960 512.96118
535.0 0.001869 279.65994 506.37695
553.0 0.001808 279.64029 517.95038
554.0 0.001805 279.62057 536.57739
570.0 0.001754 279.60089 550.79633
578.0 0.001730 279.58109 560.51575
606.0 0.001650 279.56131 570.22284
641.0 0.001560 279.54141 574.70532
599.0 0.001669 279.52151 564.78326
556.0 0.001799 279.50159 544.22095
541.0 0.001848 279.48157 523.43286
534.0 0.001873 279.46152 506.28207
480.0 0.002083 279.44150 489.86212
437.0 0.002288 279.42130 467.69073
420.0 0.002381 279.40118 437.79755
391.0 0.002558 279.38101 407.04147
373.0 0.002681 279.36075 382.33725
392.0 0.002551 279.34048 366.71326
389.0 0.002571 279.32013 360.84457
362.0 0.002762 279.29980 364.76062
387.0 0.002584 279.27933 374.71793
422.0 0.002370 279.25894 389.41824
434.0 0.002304 279.23843 405.08423
438.0 0.002283 279.21793 414.42944
462.0 0.002165 279.19736 411.74054
408.0 0.002451 279.17673 398.08313
409.0 0.002445 279.15613 378.62930
383.0 0.002611 279.13541 358.16931
361.0 0.002770 279.11462 340.80365
347.0 0.002882 279.09393 328.42407
323.0 0.003096 279.07318 320.87811
341.0 0.002933 279.05231 317.44543
347.0 0.002882 279.03143 317.56360
334.0 0.002994 279.01050 321.43970
332.0 0.003012 278.98962 328.50574
339.0 0.002950 278.96854 338.31232
352.0 0.002841 278.94757 346.87582
350.0 0.002857 278.92651 351.00552
356.0 0.002809 278.90540 347.58072
331.0 0.003021 278.88431 339.61084
326.0 0.003067 278.86310 332.17545
347.0 0.002882 278.84195 325.88858
351.0 0.002849 278.82062 320.08524
348.0 0.002874 278.79938 314.28146
322.0 0.003106 278.77805 309.37845
320.0 0.003125 278.75674 305.82687
297.0 0.003367 278.73535 303.88037
276.0 0.00362 278.71393 303.21820
298.0 0.003356 278.69241 303.58356
305.0 0.003279 278.67102 306.15347
309.0 0.003236 278.64948 310.39862
305.0 0.003279 278.62793 316.10358
306.0 0.003268 278.60632 322.22595
317.0 0.003155 278.58466 326.59753
324.0 0.003086 278.56308 328.08698
333.0 0.003003 278.54135 326.50485
340.0 0.002941 278.51974 324.63974
339.0 0.002950 278.49786 324.20514
335.0 0.002985 278.47604 325.68259
357.0 0.002801 278.45432 330.50342
343.0 0.002915 278.43246 337.31061
357.0 0.002801 278.41055 344.10196
362.0 0.002762 278.38870 348.62964
367.0 0.002725 278.36670 351.75516
361.0 0.002770 278.34476 356.90976
373.0 0.002681 278.32275 368.16428
408.0 0.002451 278.30072 388.47055
444.0 0.002252 278.27869 421.35574
511.0 0.001957 278.25656 469.21811
564.0 0.001773 278.23453 535.39911
646.0 0.001548 278.21231 622.04553
736.0 0.001359 278.19016 721.29919
801.0 0.001248 278.16788 812.15118
837.0 0.001195 278.14563 861.09808
806.0 0.001241 278.12338 840.41058
687.0 0.001456 278.10114 759.74921
572.0 0.001748 278.07883 657.54974
491.0 0.002037 278.05649 564.07721
437.0 0.002288 278.03406 492.34500
368.0 0.002717 278.01172 443.82300
393.0 0.002545 277.98932 415.89627
367.0 0.002725 277.96683 405.31433
400.0 0.002500 277.94434 409.63953
421.0 0.002375 277.92181 428.30164
480.0 0.002083 277.89935 461.30533
485.0 0.002062 277.87674 509.23438
546.0 0.001832 277.85419 570.93524
642.0 0.001558 277.83154 638.50842
671.0 0.001490 277.80893 701.77380
707.0 0.001414 277.78629 752.38458
786.0 0.001272 277.76355 783.38220
771.0 0.001297 277.74088 794.78845
825.0 0.001212 277.71820 791.64246
772.0 0.001295 277.69540 765.92218
692.0 0.001445 277.67270 709.74591
587.0 0.001704 277.64984 637.84894
501.0 0.001996 277.62704 572.18713
455.0 0.002198 277.60425 522.59955
459.0 0.002179 277.58136 486.78412
425.0 0.002353 277.55847 458.45575
397.0 0.002519 277.53558 436.34366
395.0 0.002532 277.51266 422.75061
387.0 0.002584 277.48972 418.12695
406.0 0.002463 277.46674 420.70837
419.0 0.002387 277.44376 428.84143
430.0 0.002326 277.42072 445.30020
462.0 0.002165 277.39771 475.46033
552.0 0.001812 277.37466 521.02936
649.0 0.001541 277.35159 575.57684
654.0 0.001529 277.32855 620.66589
656.0 0.001524 277.30545 632.52753
618.0 0.001618 277.28229 606.10278
557.0 0.001795 277.25912 561.54779
510.0 0.001961 277.23596 520.88873
495.0 0.002020 277.21286 493.81790
491.0 0.002037 277.18961 479.39508
468.0 0.002137 277.16638 473.40131
459.0 0.002179 277.14322 472.85172
452.0 0.002212 277.11996 478.95126
472.0 0.002119 277.09668 492.48569
474.0 0.002110 277.07343 508.90390
492.0 0.002033 277.05011 518.43311
509.0 0.001965 277.02673 518.83282
472.0 0.002119 277.00351 518.79840
510.0 0.001961 276.98013 521.75873
524.0 0.001908 276.95682 520.42096
494.0 0.002024 276.93341 504.67886
487.0 0.002053 276.91003 476.71341
418.0 0.002392 276.88666 443.39648
424.0 0.002358 276.86331 414.79507
414.0 0.002415 276.83987 396.15698
421.0 0.002375 276.81641 388.35782
390.0 0.002564 276.79297 389.46262
426.0 0.002347 276.76956 395.42551
393.0 0.002545 276.74615 403.39426
411.0 0.002433 276.72256 413.18405
420.0 0.002381 276.69910 424.96338
429.0 0.002331 276.67566 437.49255
446.0 0.002242 276.65210 448.80112
458.0 0.002183 276.62860 461.87704
488.0 0.002049 276.60507 478.39301
509.0 0.001965 276.58160 491.81360
536.0 0.001866 276.55795 488.17474
449.0 0.002227 276.53442 464.21707
438.0 0.002283 276.51086 429.55591
402.0 0.002488 276.48727 398.04742
359.0 0.002786 276.46371 375.44290
330.0 0.003030 276.44009 363.87524
414.0 0.002415 276.41647 363.54190
377.0 0.002653 276.39291 374.09235
418.0 0.002392 276.36929 394.25821
473.0 0.002114 276.34567 421.94049
472.0 0.002119 276.32205 452.26721
494.0 0.002024 276.29843 477.28467
521.0 0.001919 276.27469 486.66949
482.0 0.002075 276.25116 476.59598
432.0 0.002315 276.22748 455.95322
456.0 0.002193 276.20383 435.73059
437.0 0.002288 276.18008 418.22134
414.0 0.002415 276.15646 400.79788
392.0 0.002551 276.13281 383.34293
402.0 0.002488 276.10916 369.15891
372.0 0.002688 276.08539 361.90176
378.0 0.002646 276.06180 361.73682
375.0 0.002667 276.03815 367.69580
413.0 0.002421 276.01437 376.96808
426.0 0.002347 275.99081 387.36401
410.0 0.002439 275.96704 399.55331
392.0 0.002551 275.94339 414.77475
424.0 0.002358 275.91971 431.41528
467.0 0.002141 275.89594 442.09576
432.0 0.002315 275.87228 438.40210
399.0 0.002506 275.84863 420.58441
387.0 0.002584 275.82495 397.83722
352.0 0.002841 275.80118 376.73209
346.0 0.002890 275.77756 361.11243
360.0 0.002778 275.75388 352.05560
334.0 0.002994 275.73016 348.86694
350.0 0.002857 275.70648 351.39133
336.0 0.002976 275.68283 358.75287
347.0 0.002882 275.65915 371.94519
408.0 0.002451 275.63547 392.66074
458.0 0.002183 275.61179 422.21667
490.0 0.002041 275.58810 460.51608
540.0 0.001852 275.56445 505.85571
580.0 0.001724 275.54074 550.07794
590.0 0.001695 275.51715 577.72498
585.0 0.001709 275.49347 580.50244
528.0 0.001894 275.46982 567.41351
527.0 0.001898 275.44623 549.78156
493.0 0.002028 275.42252 530.42511
468.0 0.002137 275.39886 511.53076
459.0 0.002179 275.37524 501.71063
497.0 0.002012 275.35168 507.13107
490.0 0.002041 275.32809 526.34119
537.0 0.001862 275.30444 551.15411
581.0 0.001721 275.28079 571.51910
521.0 0.001919 275.25720 582.50018
522.0 0.001916 275.23364 581.22632
531.0 0.001883 275.21005 568.48157
504.0 0.001984 275.18646 555.08813
536.0 0.001866 275.16299 552.23120
561.0 0.001783 275.13937 560.82526
602.0 0.001661 275.11588 572.96167
672.0 0.001488 275.09232 581.13873
612.0 0.001634 275.06879 579.64160
559.0 0.001789 275.04523 561.26013
510.0 0.001961 275.02173 527.12524
462.0 0.002165 274.99829 489.14996
443.0 0.002257 274.97479 459.19919
395.0 0.002532 274.95139 442.45398
407.0 0.002457 274.92795 437.76291
407.0 0.002457 274.90454 439.51279
450.0 0.002222 274.88107 441.44107
443.0 0.002257 274.85767 439.68207
422.0 0.002370 274.83423 431.37909
385.0 0.002597 274.81082 416.94568
403.0 0.002481 274.78748 401.97675
409.0 0.002445 274.76413 393.17365
398.0 0.002513 274.74081 393.69894
433.0 0.002309 274.71750 403.84250
456.0 0.002193 274.69418 420.85675
495.0 0.002020 274.67084 437.82068
473.0 0.002114 274.64758 446.57755
468.0 0.002137 274.62436 442.92197
428.0 0.002336 274.60110 426.79605
364.0 0.002747 274.57785 403.83774
350.0 0.002857 274.55466 381.98859
344.0 0.002907 274.53146 366.45850
334.0 0.002994 274.50833 359.50830
349.0 0.002865 274.48517 362.21490
379.0 0.002639 274.46201 375.39948
421.0 0.002375 274.43893 400.05817
469.0 0.002132 274.41577 436.03284
503.0 0.001988 274.39270 480.46591
550.0 0.001818 274.36969 525.50037
625.0 0.001600 274.34668 560.32507
615.0 0.001626 274.32361 582.06244
632.0 0.001582 274.30063 594.39722
651.0 0.001536 274.27765 594.74969
608.0 0.001645 274.25470 580.00134
576.0 0.001736 274.23178 556.26758
536.0 0.001866 274.20892 531.30988
479.0 0.002088 274.18597 507.41492
486.0 0.002058 274.16321 481.45447
423.0 0.002364 274.14032 451.43539
394.0 0.002538 274.11749 422.51395
341.0 0.002933 274.09473 400.83661
370.0 0.002703 274.07193 389.06757
394.0 0.002538 274.04922 387.06635
401.0 0.002494 274.02652 393.62396
402.0 0.002488 274.00385 406.52032
433.0 0.002309 273.98120 421.39746
461.0 0.002169 273.95853 433.06177
419.0 0.002387 273.93600 439.12839
419.0 0.002387 273.91336 440.82468
461.0 0.002169 273.89087 437.33823
466.0 0.002146 273.86826 426.80893
436.0 0.002294 273.84583 412.89890
371.0 0.002695 273.82339 400.39301
391.0 0.002558 273.80090 390.48965
391.0 0.002558 273.77853 381.02600
354.0 0.002825 273.75613 370.29477
360.0 0.002778 273.73376 360.16827
353.0 0.002833 273.71152 353.51144
345.0 0.002899 273.68921 350.91776
344.0 0.002907 273.66693 350.09106
360.0 0.002778 273.64468 347.78464
343.0 0.002915 273.62250 342.42920
323.0 0.003096 273.60034 335.73853
308.0 0.003247 273.57825 330.21246
329.0 0.003040 273.55612 326.77539
316.0 0.003165 273.53409 324.02289
288.0 0.003472 273.51202 320.78830
300.0 0.003333 273.49005 317.22910
302.0 0.003311 273.46811 314.37869
300.0 0.003333 273.44614 313.29697
324.0 0.003086 273.42426 315.24680
323.0 0.003096 273.40240 321.20468
331.0 0.003021 273.38065 332.57968
362.0 0.002762 273.35876 349.96869
385.0 0.002597 273.33704 372.68210
390.0 0.002564 273.31534 397.36362
396.0 0.002525 273.29367 416.07465
379.0 0.002639 273.27197 420.72437
364.0 0.002747 273.25040 411.15805
375.0 0.002667 273.22879 394.33136
368.0 0.002717 273.20728 375.05008
356.0 0.002809 273.18579 356.52448
349.0 0.002865 273.16440 340.60703
319.0 0.003135 273.14297 327.87381
303.0 0.003300 273.12155 318.25266
307.0 0.003257 273.10025 312.11728
291.0 0.003436 273.07895 309.54089
303.0 0.003300 273.05774 310.79407
315.0 0.003175 273.03650 315.92130
323.0 0.003096 273.01538 325.31821
316.0 0.003165 272.99423 338.75940
333.0 0.003003 272.97314 354.59894
369.0 0.002710 272.95209 368.90308
390.0 0.002564 272.93112 376.20480
367.0 0.002725 272.91013 373.27008
354.0 0.002825 272.88922 362.50650
342.0 0.002924 272.86838 348.57803
333.0 0.003003 272.84750 334.88950
303.0 0.003300 272.82675 322.44476
307.0 0.003257 272.80603 312.33630
324.0 0.003086 272.78528 304.73315
297.0 0.003367 272.76465 299.94278
285.0 0.00351 272.74408 297.30521
328.0 0.003049 272.72351 296.82883
310.0 0.003226 272.70303 298.42004
303.0 0.003300 272.68246 302.26266
316.0 0.003165 272.66208 308.85236
332.0 0.003012 272.64172 318.69522
331.0 0.003021 272.62140 331.61093
358.0 0.002793 272.60114 346.25888
362.0 0.002762 272.58087 359.77365
362.0 0.002762 272.56073 368.43878
373.0 0.002681 272.54062 369.13336
344.0 0.002907 272.52051 363.36768
328.0 0.003049 272.50043 356.41364
319.0 0.003135 272.48053 353.30490
394.0 0.002538 272.46057 355.82590
376.0 0.002660 272.44077 362.49847
380.0 0.002632 272.42087 369.15607
403.0 0.002481 272.40109 369.20697
364.0 0.002747 272.38144 361.04022
322.0 0.003106 272.36172 348.67822
332.0 0.003012 272.34213 336.70963
310.0 0.003226 272.32254 327.44580
326.0 0.003067 272.30307 322.08282
316.0 0.003165 272.28354 320.40823
327.0 0.003058 272.26410 321.95953
347.0 0.002882 272.24481 325.88138
325.0 0.003077 272.22552 330.71780
343.0 0.002915 272.20627 334.44144
335.0 0.002985 272.18707 335.78400
332.0 0.003012 272.16794 336.92407
340.0 0.002941 272.14893 341.07526
346.0 0.002890 272.12985 350.97076
385.0 0.002597 272.11090 367.75064
437.0 0.002288 272.09198 390.61969
435.0 0.002299 272.07312 416.17993
421.0 0.002375 272.05435 438.31198
443.0 0.002257 272.03564 450.97708
431.0 0.002320 272.01697 449.58954
409.0 0.002445 271.99838 437.44217
407.0 0.002457 271.97980 424.21552
409.0 0.002445 271.96127 417.16608
428.0 0.002336 271.94284 417.28864
437.0 0.002288 271.92453 421.93512
417.0 0.002398 271.90613 426.33484
397.0 0.002519 271.88785 424.80124
405.0 0.002469 271.86972 413.19977
366.0 0.002732 271.85159 394.55466
327.0 0.003058 271.83350 376.30954
342.0 0.002924 271.81552 363.95383
361.0 0.002770 271.79752 360.11993
359.0 0.002786 271.77966 365.38089
366.0 0.002732 271.76184 378.65128
383.0 0.002611 271.74414 396.71609
416.0 0.002404 271.72638 413.07935
446.0 0.002242 271.70877 419.84717
405.0 0.002469 271.69119 414.39993
380.0 0.002632 271.67368 402.85477
356.0 0.002809 271.65628 393.18869
384.0 0.002604 271.63889 389.56903
376.0 0.002660 271.62158 391.89291
363.0 0.002755 271.60434 397.06992
390.0 0.002564 271.58713 400.64169
360.0 0.002778 271.56998 398.37875
385.0 0.002597 271.55298 390.10355
390.0 0.002564 271.53601 380.13644
376.0 0.002660 271.51917 373.06232
350.0 0.002857 271.50226 371.14777
345.0 0.002899 271.48557 375.02765
370.0 0.002703 271.46881 383.61450
391.0 0.002558 271.45218 394.00467
390.0 0.002564 271.43561 403.51288
411.0 0.002433 271.41919 411.24271
420.0 0.002381 271.40274 417.22299
412.0 0.002427 271.38638 423.83456
433.0 0.002309 271.37009 436.23431
449.0 0.002227 271.35385 458.50586
491.0 0.002037 271.33771 490.42392
532.0 0.001880 271.32166 524.81390
559.0 0.001789 271.30563 549.22632
565.0 0.001770 271.28970 554.31189
549.0 0.001821 271.27390 542.91699
523.0 0.001912 271.25812 526.12396
512.0 0.001953 271.24237 514.06659
564.0 0.001773 271.22681 509.60391
548.0 0.001825 271.21121 508.55798
536.0 0.001866 271.19571 504.79581
515.0 0.001942 271.18027 497.05344
492.0 0.002033 271.16495 490.62625
482.0 0.002075 271.14972 491.86722
524.0 0.001908 271.13452 503.10986
533.0 0.001876 271.11935 520.74750
554.0 0.001805 271.10440 535.30994
564.0 0.001773 271.08942 537.28265
505.0 0.001980 271.07452 527.19891
477.0 0.002096 271.05975 514.33759
487.0 0.002053 271.04507 504.50952
485.0 0.002062 271.03033 496.99039
484.0 0.002066 271.01578 490.53329
488.0 0.002049 271.00134 487.39911
502.0 0.001992 270.98688 491.18817
525.0 0.001905 270.97263 501.74792
534.0 0.001873 270.95822 512.49908
537.0 0.001862 270.94415 513.23541
500.0 0.002000 270.93005 499.13309
451.0 0.002217 270.91602 477.23306
439.0 0.002278 270.90201 458.26334
459.0 0.002179 270.88821 448.65506
448.0 0.002232 270.87445 448.78000
459.0 0.002179 270.86072 453.19534
498.0 0.002008 270.84714 453.38864
479.0 0.002088 270.83362 443.96307
429.0 0.002331 270.82019 426.67398
407.0 0.002457 270.80679 406.58774
394.0 0.002538 270.79355 386.79831
376.0 0.002660 270.78036 369.59842
394.0 0.002538 270.76727 357.33273
385.0 0.002597 270.75424 351.28891
306.0 0.003268 270.74127 351.02881
344.0 0.002907 270.72833 354.35751
348.0 0.002874 270.71567 357.55237
340.0 0.002941 270.70294 356.48203
354.0 0.002825 270.69031 350.12515
316.0 0.003165 270.67786 341.72247
330.0 0.003030 270.66537 334.72665
340.0 0.002941 270.65302 330.74863
324.0 0.003086 270.64078 329.71530
308.0 0.003247 270.62863 330.17343
350.0 0.002857 270.61655 330.48276
354.0 0.002825 270.60449 330.15475
314.0 0.003185 270.59259 329.87146
339.0 0.002950 270.58081 329.15216
333.0 0.003003 270.56903 327.53882
318.0 0.003145 270.55740 324.45139
323.0 0.003096 270.54581 319.62231
300.0 0.003333 270.53439 313.61719
313.0 0.003195 270.52301 307.57034
315.0 0.003175 270.51169 302.44803
297.0 0.003367 270.50052 298.93536
301.0 0.003322 270.48947 296.93365
291.0 0.003436 270.47845 296.49625
290.0 0.003448 270.46753 297.46066
306.0 0.003268 270.45660 299.82590
318.0 0.003145 270.44592 303.64273
310.0 0.003226 270.43521 308.96979
322.0 0.003106 270.42465 315.98129
336.0 0.002976 270.41422 324.48178
345.0 0.002899 270.40387 335.22214
366.0 0.002732 270.39359 349.45639
401.0 0.002494 270.38342 368.61835
399.0 0.002506 270.37329 393.06876
428.0 0.002336 270.36337 420.96402
468.0 0.002137 270.35339 446.84247
482.0 0.002075 270.34360 464.91223
485.0 0.002062 270.33392 475.12274
495.0 0.002020 270.32425 479.87036
485.0 0.002062 270.31470 478.87253
451.0 0.002217 270.30536 470.39151
451.0 0.002217 270.29599 457.14276
465.0 0.002151 270.28680 445.07950
473.0 0.002114 270.27759 436.76132
476.0 0.002101 270.26849 429.37833
477.0 0.002096 270.25961 417.69510
418.0 0.002392 270.25079 400.87057
387.0 0.002584 270.24200 382.93054
341.0 0.002933 270.23340 368.27399
348.0 0.002874 270.22485 359.06937
368.0 0.002717 270.21634 356.06998
373.0 0.002681 270.20807 358.92947
359.0 0.002786 270.19977 366.36133
358.0 0.002793 270.19165 376.08578
373.0 0.002681 270.18350 384.87506
389.0 0.002571 270.17563 391.65988
354.0 0.002825 270.16776 397.71198
403.0 0.002481 270.15994 403.37207
400.0 0.002500 270.15225 407.85852
404.0 0.002475 270.14481 412.04669
449.0 0.002227 270.13733 417.71927
419.0 0.002387 270.12997 424.38116
422.0 0.002370 270.12274 427.65552
403.0 0.002481 270.11560 422.32114
461.0 0.002169 270.10858 408.94754
402.0 0.002488 270.10153 392.27890
327.0 0.003058 270.09476 376.40317
376.0 0.002660 270.08798 362.19244
372.0 0.002688 270.08136 349.20923
310.0 0.003226 270.07483 337.93677
301.0 0.003322 270.06836 329.35214
330.0 0.003030 270.06207 324.26813
308.0 0.003247 270.05585 322.61108
325.0 0.003077 270.04974 324.01712
332.0 0.003012 270.04373 328.42346
376.0 0.002660 270.03784 336.40900
345.0 0.002899 270.03195 349.11771
363.0 0.002755 270.02637 367.05847
397.0 0.002519 270.02075 389.32507
381.0 0.002625 270.01526 412.75479
415.0 0.002410 270.00992 430.80042
429.0 0.002331 270.00461 435.56332
403.0 0.002481 269.99945 425.40771
363.0 0.002755 269.99435 407.43915
356.0 0.002809 269.98944 389.55066
381.0 0.002625 269.98462 375.60721
358.0 0.002793 269.97986 366.23703
343.0 0.002915 269.97522 360.55316
365.0 0.002740 269.97073 357.13400
367.0 0.002725 269.96634 354.93857
360.0 0.002778 269.96204 354.67801
377.0 0.002653 269.95786 358.19119
383.0 0.002611 269.95370 366.84451
387.0 0.002584 269.94983 380.99924
403.0 0.002481 269.94589 399.49283
413.0 0.002421 269.94220 418.78650
438.0 0.002283 269.93854 433.08249
415.0 0.002410 269.93500 440.47955
411.0 0.002433 269.93167 442.89609
417.0 0.002398 269.92831 444.56369
447.0 0.002237 269.92508 447.26297
443.0 0.002257 269.92200 453.31039
479.0 0.002088 269.91907 464.30872
514.0 0.001946 269.91617 475.79980
519.0 0.001927 269.91339 483.43643
508.0 0.001969 269.91080 484.27975
478.0 0.002092 269.90823 477.67606
449.0 0.002227 269.90585 463.43777
403.0 0.002481 269.90356 444.23401
391.0 0.002558 269.90140 423.58401
406.0 0.002463 269.89926 404.11960
346.0 0.002890 269.89731 388.25662
361.0 0.002770 269.89548 377.68323
335.0 0.002985 269.89380 371.88153
358.0 0.002793 269.89215 368.11877
356.0 0.002809 269.89066 363.43790
356.0 0.002809 269.88928 358.18375
349.0 0.002865 269.88794 354.49139
375.0 0.002667 269.88681 355.32373
372.0 0.002688 269.88577 361.61673
361.0 0.002770 269.88489 373.18079
371.0 0.002695 269.88409 387.62573
433.0 0.002309 269.88339 400.63611
430.0 0.002326 269.88278 408.14151
397.0 0.002519 269.88232 408.84317
415.0 0.002410 269.88196 404.08221
371.0 0.002695 269.88174 397.00836
379.0 0.002639 269.88162 391.04663
381.0 0.002625 269.88165 387.84366
396.0 0.002525 269.88181 387.88052
435.0 0.002299 269.88205 389.65363
419.0 0.002387 269.88242 389.47617
402.0 0.002488 269.88287 383.16025
389.0 0.002571 269.88342 370.90070
370.0 0.002703 269.88422 356.90198
331.0 0.003021 269.88501 345.09363
331.0 0.003021 269.88596 337.74631
304.0 0.003289 269.88702 335.73065
317.0 0.003155 269.88821 338.90335
344.0 0.002907 269.88953 346.51440
364.0 0.002747 269.89093 356.59573
394.0 0.002538 269.89252 366.41690
398.0 0.002513 269.89417 373.66071
372.0 0.002688 269.89597 377.52960
385.0 0.002597 269.89786 378.28094
378.0 0.002646 269.89999 377.36407
365.0 0.002740 269.90207 377.26205
382.0 0.002618 269.90439 380.51688
389.0 0.002571 269.90677 386.19644
407.0 0.002457 269.90921 390.72256
407.0 0.002457 269.91193 389.68982
407.0 0.002457 269.91470 382.01172
392.0 0.002551 269.91751 370.75067
343.0 0.002915 269.92056 360.41129
343.0 0.002915 269.92361 354.00656
372.0 0.002688 269.92691 353.33859
391.0 0.002558 269.93030 359.62103
402.0 0.002488 269.93378 373.98209
428.0 0.002336 269.93741 397.40656
447.0 0.002237 269.94110 430.72534
506.0 0.001976 269.94507 473.05322
576.0 0.001736 269.94901 522.76288
604.0 0.001656 269.95309 575.22595
623.0 0.001605 269.95734 622.68158
671.0 0.001490 269.96173 656.45337
692.0 0.001445 269.96622 672.34949
678.0 0.001475 269.97083 670.92938
627.0 0.001595 269.97556 657.17065
622.0 0.001608 269.98041 641.77820
646.0 0.001548 269.98535 632.93372
658.0 0.001520 269.99045 630.93567
643.0 0.001555 269.99570 625.99097
594.0 0.001684 270.00107 606.48236
522.0 0.001916 270.00656 571.26904
503.0 0.001988 270.01215 530.48792
488.0 0.002049 270.01797 493.26382
457.0 0.002188 270.02377 463.39023
434.0 0.002304 270.02975 442.73465
391.0 0.002558 270.03586 433.42996
466.0 0.002146 270.04208 435.99020
462.0 0.002165 270.04843 449.67957
465.0 0.002151 270.05496 470.75412
518.0 0.001931 270.06155 494.05609
505.0 0.001980 270.06830 513.06244
536.0 0.001866 270.07520 522.30682
507.0 0.001972 270.08215 518.72198
444.0 0.002252 270.08929 504.76047
460.0 0.002174 270.09656 488.13022
411.0 0.002433 270.10400 475.81299
472.0 0.002119 270.11148 468.49731
441.0 0.002268 270.11917 461.40753
446.0 0.002242 270.12689 448.17139
443.0 0.002257 270.13477 428.00311
420.0 0.002381 270.14282 405.42981
399.0 0.002506 270.15100 384.49951
392.0 0.002551 270.15918 366.54996
370.0 0.002703 270.16763 352.03342
347.0 0.002882 270.17621 341.88470
333.0 0.003003 270.18484 336.19333
324.0 0.003086 270.19363 334.47998
339.0 0.002950 270.20258 335.60007
354.0 0.002825 270.21161 337.93622
360.0 0.002778 270.22083 340.02380
360.0 0.002778 270.23013 341.06723
346.0 0.002890 270.23953 340.72757
333.0 0.003003 270.24911 339.39410
331.0 0.003021 270.25882 338.00214
332.0 0.003012 270.26871 336.95889
319.0 0.003135 270.27863 335.27179
320.0 0.003125 270.28876 331.87766
322.0 0.003106 270.29898 327.11810
304.0 0.003289 270.30936 322.70145
302.0 0.003311 270.31982 319.72040
303.0 0.003300 270.33044 318.65280
304.0 0.003289 270.34122 319.32416
316.0 0.003165 270.35202 321.99097
334.0 0.002994 270.36307 326.63138
335.0 0.002985 270.37424 333.39517
332.0 0.003012 270.38550 342.02612
360.0 0.002778 270.39685 351.84607
383.0 0.002611 270.40845 362.44147
393.0 0.002545 270.42007 374.89078
436.0 0.002294 270.43188 392.59927
440.0 0.002273 270.44376 419.52734
461.0 0.002169 270.45584 458.36694
533.0 0.001876 270.46808 508.79639
633.0 0.001580 270.48041 565.29797
688.0 0.001453 270.49289 615.05823
697.0 0.001435 270.50552 638.80164
615.0 0.001626 270.51816 625.50995
541.0 0.001848 270.53104 584.01862
475.0 0.002105 270.54407 533.95721
483.0 0.002070 270.55716 489.84027
455.0 0.002198 270.57043 457.41281
443.0 0.002257 270.58380 436.35596
405.0 0.002469 270.59732 422.22763
391.0 0.002558 270.61096 409.15005
399.0 0.002506 270.62469 395.61902
374.0 0.002674 270.63867 382.50894
344.0 0.002907 270.65274 371.94846
370.0 0.002703 270.66693 365.58667
369.0 0.002710 270.68118 365.11130
373.0 0.002681 270.69568 372.00443
373.0 0.002681 270.71027 387.00647
431.0 0.002320 270.72498 409.58008
437.0 0.002288 270.73987 436.93665
472.0 0.002119 270.75482 463.12030
506.0 0.001976 270.76996 478.85526
495.0 0.002020 270.78522 476.50235
422.0 0.002370 270.80057 457.47766
434.0 0.002304 270.81607 431.63947
402.0 0.002488 270.83176 407.51660
421.0 0.002375 270.84756 390.12973
403.0 0.002481 270.86346 380.68893
386.0 0.002591 270.87952 377.76996
390.0 0.002564 270.89578 378.13638
390.0 0.002564 270.91205 379.56976
402.0 0.002488 270.92850 380.30087
409.0 0.002445 270.94510 378.51071
383.0 0.002611 270.96179 371.72253
350.0 0.002857 270.97867 360.24823
329.0 0.003040 270.99573 346.69858
313.0 0.003195 271.01288 333.87250
312.0 0.003205 271.03009 323.46280
280.0 0.00357 271.04749 315.80612
269.0 0.00372 271.06503 310.29614
299.0 0.003344 271.08273 306.52994
317.0 0.003155 271.10049 303.24039
313.0 0.003195 271.11847 300.46225
300.0 0.003333 271.13651 298.30240
314.0 0.003185 271.15472 296.65009
319.0 0.003135 271.17316 296.03757
294.0 0.003401 271.19156 296.70569
289.0 0.003460 271.21017 298.77130
319.0 0.003135 271.22900 302.34738
333.0 0.003003 271.24783 307.13934
326.0 0.003067 271.26685 312.50662
354.0 0.002825 271.28601 317.23300
320.0 0.003125 271.30530 319.71106
313.0 0.003195 271.32471 318.74963
334.0 0.002994 271.34427 315.18878
300.0 0.003333 271.36398 310.74414
323.0 0.003096 271.38385 307.06256
315.0 0.003175 271.40384 305.23935
331.0 0.003021 271.42386 305.54626
315.0 0.003175 271.44412 307.97766
301.0 0.003322 271.46451 311.97678
312.0 0.003205 271.48505 316.18936
315.0 0.003175 271.50571 319.04266
313.0 0.003195 271.52643 319.66031
312.0 0.003205 271.54736 318.79971
305.0 0.003279 271.56842 318.77084
305.0 0.003279 271.58954 320.11530
340.0 0.002941 271.61090 324.41626
320.0 0.003125 271.63239 330.64508
349.0 0.002865 271.65396 338.19968
354.0 0.002825 271.67566 344.30402
330.0 0.003030 271.69757 346.66183
360.0 0.002778 271.71954 345.03806
295.0 0.003390 271.74164 341.17422
311.0 0.003215 271.76392 336.41486
350.0 0.002857 271.78638 331.34900
341.0 0.002933 271.80887 325.83252
326.0 0.003067 271.83154 320.57111
289.0 0.003460 271.85443 316.61377
312.0 0.003205 271.87732 314.44604
324.0 0.003086 271.90036 314.08762
312.0 0.003205 271.92361 315.02917
338.0 0.002959 271.94696 316.52820
322.0 0.003106 271.97043 318.52798
323.0 0.003096 271.99411 321.83258
356.0 0.002809 272.01785 327.45068
353.0 0.002833 272.04175 335.32117
397.0 0.002519 272.06573 345.18207
403.0 0.002481 272.08987 354.95303
398.0 0.002513 272.11420 361.88318
383.0 0.002611 272.13864 364.05136
368.0 0.002717 272.16318 361.36877
354.0 0.002825 272.18787 356.65094
325.0 0.003077 272.21271 352.75470
326.0 0.003067 272.23773 351.97119
348.0 0.002874 272.26282 355.14084
354.0 0.002825 272.28802 363.34515
357.0 0.002801 272.31342 377.70053
390.0 0.002564 272.33899 398.55429
461.0 0.002169 272.36462 425.15823
485.0 0.002062 272.39038 454.41013
486.0 0.002058 272.41632 480.96750
530.0 0.001887 272.44238 499.55725
555.0 0.001802 272.46860 510.25769
552.0 0.001812 272.49487 518.76575
543.0 0.001842 272.52133 530.05322
568.0 0.001761 272.54788 543.45154
553.0 0.001808 272.57474 552.93945
560.0 0.001786 272.60147 551.01642
555.0 0.001802 272.62854 533.57697
500.0 0.002000 272.65558 502.38998
450.0 0.002222 272.68289 465.13049
396.0 0.002525 272.71027 429.89621
377.0 0.002653 272.73779 401.61804
362.0 0.002762 272.76556 382.28372
379.0 0.002639 272.79324 372.11447
367.0 0.002725 272.82126 370.27148
382.0 0.002618 272.84930 375.73126
410.0 0.002439 272.87744 386.61725
421.0 0.002375 272.90579 401.35590
411.0 0.002433 272.93423 417.99704
432.0 0.002315 272.96289 433.95334
452.0 0.002212 272.99167 446.48831
454.0 0.002203 273.02048 454.92334
411.0 0.002433 273.04950 461.11554
463.0 0.002160 273.07861 467.59280
470.0 0.002128 273.10788 475.60547
522.0 0.001916 273.13733 484.25168
502.0 0.001992 273.16681 491.89264
528.0 0.001894 273.19650 498.05032
506.0 0.001976 273.22626 504.07788
534.0 0.001873 273.25623 510.11066
536.0 0.001866 273.28625 513.29053
501.0 0.001996 273.31647 507.00012
474.0 0.002110 273.34683 487.24103
423.0 0.002364 273.37729 458.37479
410.0 0.002439 273.40793 427.96008
364.0 0.002747 273.43863 401.40869
386.0 0.002591 273.46948 380.98730
344.0 0.002907 273.50049 367.26941
307.0 0.003257 273.53156 359.66388
350.0 0.002857 273.56290 357.58859
356.0 0.002809 273.59424 359.95459
353.0 0.002833 273.62576 365.16425
355.0 0.002817 273.65744 371.50632
343.0 0.002915 273.68924 377.90250
365.0 0.002740 273.72113 384.43848
400.0 0.002500 273.75320 392.82367
447.0 0.002237 273.78537 405.61261
445.0 0.002247 273.81766 424.79913
442.0 0.002262 273.85013 450.79944
496.0 0.002016 273.88275 482.28174
569.0 0.001757 273.91541 514.93439
569.0 0.001757 273.94824 542.44818
572.0 0.001748 273.98123 558.75134
560.0 0.001786 274.01428 561.96429
550.0 0.001818 274.04755 553.61261
537.0 0.001862 274.08087 536.54517
514.0 0.001946 274.11438 516.19073
515.0 0.001942 274.14804 499.02167
489.0 0.002045 274.18173 488.07278
497.0 0.002012 274.21564 482.69824
511.0 0.001957 274.24957 481.45471
509.0 0.001965 274.28372 483.39944
509.0 0.001965 274.31805 485.97946
484.0 0.002066 274.35248 483.82910
444.0 0.002252 274.38699 472.65411
463.0 0.002160 274.42160 454.98334
424.0 0.002358 274.45636 436.66534
410.0 0.002439 274.49127 422.95963
392.0 0.002551 274.52637 416.84045
424.0 0.002358 274.56152 419.70007
421.0 0.002375 274.59689 431.70789
468.0 0.002137 274.63220 452.51486
528.0 0.001894 274.66785 480.38156
551.0 0.001815 274.70346 512.63245
611.0 0.001637 274.73935 545.53943
684.0 0.001462 274.77521 573.15698
610.0 0.001639 274.81125 588.44073
620.0 0.001613 274.84750 585.56177
608.0 0.001645 274.88379 566.03021
558.0 0.001792 274.92032 537.91003
489.0 0.002045 274.95679 509.55618
439.0 0.002278 274.99350 485.70938
460.0 0.002174 275.03033 466.52786
471.0 0.002123 275.06729 448.89178
437.0 0.002288 275.10437 429.66144
385.0 0.002597 275.14163 408.40366
374.0 0.002674 275.17892 387.57040
350.0 0.002857 275.21637 369.62234
372.0 0.002688 275.25397 355.69873
353.0 0.002833 275.29169 346.61179
340.0 0.002941 275.32953 342.50845
333.0 0.003003 275.36746 343.44998
358.0 0.002793 275.40561 349.26828
363.0 0.002755 275.44376 359.64896
393.0 0.002545 275.48215 373.57254
408.0 0.002451 275.52060 388.97754
414.0 0.002415 275.55917 402.04361
421.0 0.002375 275.59790 409.07233
389.0 0.002571 275.63672 408.17728
372.0 0.002688 275.67575 402.62921
381.0 0.002625 275.71481 397.53281
390.0 0.002564 275.75400 396.33630
408.0 0.002451 275.79333 400.02466
448.0 0.002232 275.83276 407.37442
439.0 0.002278 275.87238 415.20657
432.0 0.002315 275.91208 419.49228
409.0 0.002445 275.95193 417.62613
398.0 0.002513 275.99185 411.10828
413.0 0.002421 276.03192 404.18182
395.0 0.002532 276.07211 400.26120
379.0 0.002639 276.11240 400.71588
393.0 0.002545 276.15280 404.68082
408.0 0.002451 276.19339 410.52548
424.0 0.002358 276.23404 417.16086
441.0 0.002268 276.27490 424.35480
446.0 0.002242 276.31583 431.16440
448.0 0.002232 276.35678 435.11780
450.0 0.002222 276.39801 433.47406
418.0 0.002392 276.43936 425.39716
406.0 0.002463 276.48068 414.34607
398.0 0.002513 276.52222 405.67239
406.0 0.002463 276.56381 402.59540
390.0 0.002564 276.60565 405.86606
419.0 0.002387 276.64749 414.71017
422.0 0.002370 276.68958 425.34296
424.0 0.002358 276.73166 432.08682
401.0 0.002494 276.77383 430.55304
392.0 0.002551 276.81625 420.57877
381.0 0.002625 276.85870 406.46454
375.0 0.002667 276.90134 393.73315
367.0 0.002725 276.94400 385.31818
402.0 0.002488 276.98691 382.33090
409.0 0.002445 277.02979 384.61948
396.0 0.002525 277.07291 391.60355
409.0 0.002445 277.11606 402.88287
419.0 0.002387 277.15945 417.59357
449.0 0.002227 277.20276 433.60638
452.0 0.002212 277.24637 446.76718
491.0 0.002037 277.28992 451.86273
440.0 0.002273 277.33371 446.46609
425.0 0.002353 277.37769 433.35724
369.0 0.002710 277.42154 417.81500
389.0 0.002571 277.46573 405.15051
372.0 0.002688 277.50998 397.55115
376.0 0.002660 277.55429 394.99585
382.0 0.002618 277.59882 395.56546
402.0 0.002488 277.64334 396.14191
357.0 0.002801 277.68799 392.87650
347.0 0.002882 277.73288 384.12952
329.0 0.003040 277.77783 371.19528
326.0 0.003067 277.82285 356.91254
345.0 0.002899 277.86786 344.03168
332.0 0.003012 277.91321 334.11572
292.0 0.003425 277.95859 327.94312
323.0 0.003096 278.00412 325.39844
343.0 0.002915 278.04968 326.23541
333.0 0.003003 278.09534 329.75153
322.0 0.003106 278.14124 334.82452
313.0 0.003195 278.18716 339.66656
332.0 0.003012 278.23318 342.27045
321.0 0.003115 278.27939 341.62613
327.0 0.003058 278.32559 338.18765
336.0 0.002976 278.37201 334.41653
307.0 0.003257 278.41846 331.90414
322.0 0.003106 278.46512 331.84235
329.0 0.003040 278.51187 334.78339
343.0 0.002915 278.55859 340.58698
360.0 0.002778 278.60559 348.24707
368.0 0.002717 278.65256 355.92783
386.0 0.002591 278.69980 361.01532
369.0 0.002710 278.74704 361.49307
360.0 0.002778 278.79437 356.55753
360.0 0.002778 278.84186 347.97235
327.0 0.003058 278.88947 338.00797
300.0 0.003333 278.93716 328.52310
306.0 0.003268 278.98492 320.59991
316.0 0.003165 279.03281 313.96802
311.0 0.003215 279.08087 309.13660
322.0 0.003106 279.12897 306.14771
324.0 0.003086 279.17725 305.08218
324.0 0.003086 279.22559 305.93561
292.0 0.003425 279.27390 308.79245
323.0 0.003096 279.32254 313.30182
331.0 0.003021 279.37115 319.77301
343.0 0.002915 279.41989 327.43533
359.0 0.002786 279.46881 335.08444
379.0 0.002639 279.51776 340.90253
328.0 0.003049 279.56683 343.34714
336.0 0.002976 279.61606 342.37045
323.0 0.003096 279.66528 339.40375
333.0 0.003003 279.71478 335.56122
327.0 0.003058 279.76416 330.79486
332.0 0.003012 279.81381 325.26880
332.0 0.003012 279.86346 319.12741
284.0 0.00352 279.91327 313.20197
330.0 0.003030 279.96323 308.07410
278.0 0.00360 280.01309 303.98248
293.0 0.003413 280.06332 300.69522
263.0 0.00380 280.11353 298.31116
286.0 0.003497 280.16385 296.81525
278.0 0.00360 280.21429 296.26666
263.0 0.00380 280.26471 296.62891
287.0 0.003484 280.31534 297.91815
285.0 0.00351 280.36603 300.06119
298.0 0.003356 280.41690 303.15286
344.0 0.002907 280.46780 306.35138
310.0 0.003226 280.51880 309.56479
319.0 0.003135 280.56992 311.66479
298.0 0.003356 280.62109 311.84244
299.0 0.003344 280.67242 310.10492
311.0 0.003215 280.72388 307.30743
283.0 0.00353 280.77530 304.46774
294.0 0.003401 280.82693 302.00839
318.0 0.003145 280.87860 300.53546
310.0 0.003226 280.93042 300.04816
335.0 0.002985 280.98233 300.52374
324.0 0.003086 281.03427 302.14954
303.0 0.003300 281.08640 304.72501
301.0 0.003322 281.13846 308.06870
306.0 0.003268 281.19083 311.89578
344.0 0.002907 281.24323 315.67548
353.0 0.002833 281.29565 319.04898
327.0 0.003058 281.34824 322.28900
312.0 0.003205 281.40085 326.39853
345.0 0.002899 281.45370 332.61838
366.0 0.002732 281.50656 341.85876
355.0 0.002817 281.55945 354.41379
371.0 0.002695 281.61249 369.69720
421.0 0.002375 281.66559 385.97247
428.0 0.002336 281.71881 400.12024
415.0 0.002410 281.77213 408.90744
397.0 0.002519 281.82553 411.23209
401.0 0.002494 281.87903 409.16330
390.0 0.002564 281.93262 404.53372
393.0 0.002545 281.98630 397.63904
398.0 0.002513 282.04004 388.98303
368.0 0.002717 282.09393 380.70776
364.0 0.002747 282.14786 375.30780
380.0 0.002632 282.20184 373.93735
378.0 0.002646 282.25601 376.40747
364.0 0.002747 282.31027 381.11096
372.0 0.002688 282.36453 385.27899
413.0 0.002421 282.41895 386.29761
384.0 0.002604 282.47339 383.43341
401.0 0.002494 282.52805 377.94183
374.0 0.002674 282.58270 371.78751
337.0 0.002967 282.63736 366.94650
368.0 0.002717 282.69223 364.93817
347.0 0.002882 282.74716 366.42957
393.0 0.002545 282.80222 371.06064
370.0 0.002703 282.85730 377.49030
368.0 0.002717 282.91238 384.05151
378.0 0.002646 282.96774 390.20337
414.0 0.002415 283.02301 396.89178
433.0 0.002309 283.07849 405.72235
396.0 0.002525 283.13403 417.12982
424.0 0.002358 283.18961 430.50211
467.0 0.002141 283.24536 444.64700
473.0 0.002114 283.30099 456.75140
454.0 0.002203 283.35693 462.46771
444.0 0.002252 283.41290 458.70273
453.0 0.002208 283.46887 446.84525
424.0 0.002358 283.52493 430.94720
402.0 0.002488 283.58118 413.88315
398.0 0.002513 283.63748 397.37933
355.0 0.002817 283.69385 382.54062
377.0 0.002653 283.75015 370.16064
345.0 0.002899 283.80670 361.00781
357.0 0.002801 283.86334 355.54932
342.0 0.002924 283.91998 353.98572
347.0 0.002882 283.97684 356.09134
369.0 0.002710 284.03357 361.23605
388.0 0.002577 284.09052 368.68420
420.0 0.002381 284.14746 377.61118
442.0 0.002262 284.20462 387.55399
426.0 0.002347 284.26175 397.51837
414.0 0.002415 284.31894 407.16223
429.0 0.002331 284.37622 416.70947
450.0 0.002222 284.43359 426.52444
443.0 0.002257 284.49112 436.10489
467.0 0.002141 284.54865 443.74615
446.0 0.002242 284.60623 448.03601
449.0 0.002227 284.66394 449.91656
465.0 0.002151 284.72168 452.28583
457.0 0.002188 284.77954 457.37524
475.0 0.002105 284.83743 464.93820
469.0 0.002132 284.89539 472.34088
455.0 0.002198 284.95352 475.32782
457.0 0.002188 285.01160 470.66824
440.0 0.002273 285.06992 458.75626
418.0 0.002392 285.12811 443.78711
425.0 0.002353 285.18640 430.30054
446.0 0.002242 285.24493 420.77545
449.0 0.002227 285.30338 415.34204
419.0 0.002387 285.36203 412.14603
396.0 0.002525 285.42062 408.50897
386.0 0.002591 285.47931 402.79428
382.0 0.002618 285.53815 394.82352
362.0 0.002762 285.59692 386.02173
356.0 0.002809 285.65591 377.74768
378.0 0.002646 285.71497 371.08594
387.0 0.002584 285.77393 366.46460
349.0 0.002865 285.83316 364.18616
358.0 0.002793 285.89230 364.65390
391.0 0.002558 285.95166 368.56790
374.0 0.002674 286.01099 376.42194
399.0 0.002506 286.07034 388.14322
436.0 0.002294 286.12985 403.08487
439.0 0.002278 286.18936 419.73993
441.0 0.002268 286.24899 436.03552
437.0 0.002288 286.30878 450.55939
460.0 0.002174 286.36841 463.04895
467.0 0.002141 286.42822 473.70435
486.0 0.002058 286.48813 480.99701
522.0 0.001916 286.54803 481.27213
491.0 0.002037 286.60812 471.76706
445.0 0.002247 286.66821 453.33682
402.0 0.002488 286.72833 430.06592
376.0 0.002660 286.78854 405.93781
395.0 0.002532 286.84882 383.79190
328.0 0.003049 286.90915 365.37784
309.0 0.003236 286.96951 351.30865
316.0 0.003165 287.03000 341.12741
321.0 0.003115 287.09045 334.11304
304.0 0.003289 287.15112 329.51999
325.0 0.003077 287.21173 326.68237
332.0 0.003012 287.27237 324.93280
344.0 0.002907 287.33316 324.48044
316.0 0.003165 287.39407 325.69009
309.0 0.003236 287.45490 328.58167
308.0 0.003247 287.51593 333.49585
327.0 0.003058 287.57675 340.52155
374.0 0.002674 287.63794 349.41818
365.0 0.002740 287.69904 359.57498
373.0 0.002681 287.76025 370.05087
382.0 0.002618 287.82153 379.15726
403.0 0.002481 287.88275 384.85330
415.0 0.002410 287.94412 386.30154
411.0 0.002433 288.00549 384.45660
399.0 0.002506 288.06699 382.31042
377.0 0.002653 288.12860 381.44659
382.0 0.002618 288.19012 382.75488
416.0 0.002404 288.25174 386.39813
436.0 0.002294 288.31345 391.54175
430.0 0.002326 288.37527 395.83929
430.0 0.002326 288.43704 396.49213
396.0 0.002525 288.49884 391.96164
399.0 0.002506 288.56079 383.64932
365.0 0.002740 288.62274 374.71375
343.0 0.002915 288.68484 367.68204
352.0 0.002841 288.74692 364.43506
354.0 0.002825 288.80896 365.45773
356.0 0.002809 288.87119 370.83807
387.0 0.002584 288.93341 379.71466
416.0 0.002404 288.99573 390.26123
387.0 0.002584 289.05811 399.39108
387.0 0.002584 289.12042 403.76639
358.0 0.002793 289.18292 401.87134
369.0 0.002710 289.24542 395.55942
364.0 0.002747 289.30792 388.25662
389.0 0.002571 289.37054 383.04596
362.0 0.002762 289.43307 381.34708
409.0 0.002445 289.49588 383.41266
385.0 0.002597 289.55859 388.50693
412.0 0.002427 289.62140 395.13486
411.0 0.002433 289.68427 401.12646
372.0 0.002688 289.74701 404.34448
383.0 0.002611 289.81000 403.60422
377.0 0.002653 289.87302 399.11691
393.0 0.002545 289.93610 391.73502
365.0 0.002740 289.99915 383.02988
327.0 0.003058 290.06219 374.78452
344.0 0.002907 290.12543 368.74338
360.0 0.002778 290.18860 366.25861
358.0 0.002793 290.25192 367.76425
385.0 0.002597 290.31525 373.31995
383.0 0.002611 290.37848 382.01245
418.0 0.002392 290.44193 391.81198
430.0 0.002326 290.50537 400.14148
414.0 0.002415 290.56888 404.57373
401.0 0.002494 290.63239 404.22632
391.0 0.002558 290.69592 400.34668
392.0 0.002551 290.75955 395.10220
379.0 0.002639 290.82315 389.94116
407.0 0.002457 290.88696 385.39478
380.0 0.002632 290.95062 381.60129
355.0 0.002817 291.01437 378.83655
396.0 0.002525 291.07825 377.33456
392.0 0.002551 291.14206 377.23737
381.0 0.002625 291.20602 378.87396
382.0 0.002618 291.27002 382.68561
382.0 0.002618 291.33389 388.38425
398.0 0.002513 291.39795 395.01627
407.0 0.002457 291.46201 401.21558
401.0 0.002494 291.52612 406.58386
391.0 0.002558 291.59027 410.97772
394.0 0.002538 291.65442 414.62335
392.0 0.002551 291.71860 417.08524
402.0 0.002488 291.78287 418.02481
410.0 0.002439 291.84717 418.49695
415.0 0.002410 291.91150 419.41797
418.0 0.002392 291.97583 421.67532
413.0 0.002421 292.04025 425.02222
421.0 0.002375 292.10464 429.12512
436.0 0.002294 292.16919 435.27765
457.0 0.002188 292.23373 445.35037
482.0 0.002075 292.29819 460.26709
518.0 0.001931 292.36279 479.70081
540.0 0.001852 292.42743 501.72461
572.0 0.001748 292.49210 523.07312
583.0 0.001715 292.55676 539.20337
549.0 0.001821 292.62140 545.94379
518.0 0.001931 292.68622 542.17474
504.0 0.001984 292.75098 530.73218
514.0 0.001946 292.81580 515.53168
518.0 0.001931 292.88071 498.68652
420.0 0.002381 292.94547 480.78165
426.0 0.002347 293.01044 462.25256
422.0 0.002370 293.07538 444.63318
408.0 0.002451 293.14032 428.93274
393.0 0.002545 293.20535 415.07251
367.0 0.002725 293.27029 402.85657
365.0 0.002740 293.33542 392.59396
358.0 0.002793 293.40048 384.68192
388.0 0.002577 293.46570 379.42874
356.0 0.002809 293.53085 376.71576
389.0 0.002571 293.59592 376.86163
377.0 0.002653 293.66122 380.32236
403.0 0.002481 293.72644 387.65973
415.0 0.002410 293.79175 398.90610
422.0 0.002370 293.85706 413.26086
470.0 0.002128 293.92227 429.03888
478.0 0.002092 293.98770 443.75513
457.0 0.002188 294.05310 454.47473
434.0 0.002304 294.11850 458.69995
478.0 0.002092 294.18399 455.58072
409.0 0.002445 294.24936 446.18958
447.0 0.002237 294.31485 432.64835
389.0 0.002571 294.38034 417.42371
392.0 0.002551 294.44589 402.02606
373.0 0.002681 294.51154 387.94058
315.0 0.003175 294.57706 375.88367
325.0 0.003077 294.64261 366.17413
338.0 0.002959 294.70831 358.42703
308.0 0.003247 294.77399 352.12823
318.0 0.003145 294.83966 347.15952
321.0 0.003115 294.90533 343.74057
349.0 0.002865 294.97110 342.23389
378.0 0.002646 295.03683 343.12134
351.0 0.002849 295.10269 346.71097
342.0 0.002924 295.16843 353.26407
355.0 0.002817 295.23425 362.81927
382.0 0.002618 295.30017 375.17801
415.0 0.002410 295.36597 389.37457
450.0 0.002222 295.43192 403.63773
459.0 0.002179 295.49777 415.16278
444.0 0.002252 295.56369 421.13162
421.0 0.002375 295.62964 420.51993
415.0 0.002410 295.69562 414.75400
428.0 0.002336 295.76163 406.68546
408.0 0.002451 295.82764 399.05420
388.0 0.002577 295.89365 393.74771
401.0 0.002494 295.95969 391.38611
399.0 0.002506 296.02570 391.61835
422.0 0.002370 296.09192 392.74731
437.0 0.002288 296.15799 392.63351
399.0 0.002506 296.22406 389.58591
367.0 0.002725 296.29022 383.46811
352.0 0.002841 296.35645 375.36780
349.0 0.002865 296.42261 367.39859
356.0 0.002809 296.48877 361.10706
356.0 0.002809 296.55493 357.49792
365.0 0.002740 296.62119 357.20166
356.0 0.002809 296.68744 360.81583
362.0 0.002762 296.75372 369.08273
388.0 0.002577 296.82010 381.46109
437.0 0.002288 296.88623 398.50031
463.0 0.002160 296.95264 419.18420
494.0 0.002024 297.01886 442.13623
497.0 0.002012 297.08533 465.66928
527.0 0.001898 297.15167 487.57413
600.0 0.001667 297.21799 505.48447
549.0 0.001821 297.28442 516.74585
510.0 0.001961 297.35080 519.34766
543.0 0.001842 297.41727 513.66846
491.0 0.002037 297.48364 502.16385
473.0 0.002114 297.55002 486.82355
474.0 0.002110 297.61652 469.00809
466.0 0.002146 297.68301 449.85806
424.0 0.002358 297.74951 430.89737
407.0 0.002457 297.81604 412.97336
385.0 0.002597 297.88245 396.75143
379.0 0.002639 297.94907 383.10324
359.0 0.002786 298.01550 372.00394
351.0 0.002849 298.08209 363.05923
334.0 0.002994 298.14862 356.40149
335.0 0.002985 298.21518 352.23996
351.0 0.002849 298.28177 350.65955
336.0 0.002976 298.34836 351.60815
361.0 0.002770 298.41507 355.28943
358.0 0.002793 298.48163 361.75043
393.0 0.002545 298.54819 370.50223
357.0 0.002801 298.61490 381.05838
395.0 0.002532 298.68149 392.04684
438.0 0.002283 298.74820 401.97064
431.0 0.002320 298.81485 408.96860
433.0 0.002309 298.88141 411.98428
429.0 0.002331 298.94812 410.69427
401.0 0.002494 299.01483 406.49814
386.0 0.002591 299.08160 400.75381
396.0 0.002525 299.14832 394.67502
404.0 0.002475 299.21494 389.34766
393.0 0.002545 299.28174 385.88721
381.0 0.002625 299.34839 384.44580
373.0 0.002681 299.41525 385.29980
377.0 0.002653 299.48193 388.14545
391.0 0.002558 299.54865 392.71869
409.0 0.002445 299.61548 398.51813
412.0 0.002427 299.68219 404.99023
437.0 0.002288 299.74908 411.20135
448.0 0.002232 299.81586 416.19559
427.0 0.002342 299.88260 418.75000
419.0 0.002387 299.94940 417.42871
439.0 0.002278 300.01627 411.34299
407.0 0.002457 300.08307 401.25229
389.0 0.002571 300.14990 389.12903
373.0 0.002681 300.21667 376.94620
344.0 0.002907 300.28357 365.90118
332.0 0.003012 300.35037 356.82291
312.0 0.003205 300.41721 349.99634
299.0 0.003344 300.48407 345.57016
324.0 0.003086 300.55093 343.13580
309.0 0.003236 300.61786 342.61148
352.0 0.002841 300.68472 343.83109
349.0 0.002865 300.75159 346.69101
356.0 0.002809 300.81845 351.16263
362.0 0.002762 300.88525 357.06641
379.0 0.002639 300.95221 364.51538
411.0 0.002433 301.01907 373.48410
435.0 0.002299 301.08600 383.90543
412.0 0.002427 301.15295 396.05835
443.0 0.002257 301.21979 409.75705
491.0 0.002037 301.28674 425.11197
493.0 0.002028 301.35358 441.74277
543.0 0.001842 301.42059 459.27042
504.0 0.001984 301.48749 476.64990
501.0 0.001996 301.55438 493.01938
565.0 0.001770 301.62137 508.00961
585.0 0.001709 301.68823 521.58966
606.0 0.001650 301.75531 534.41016
585.0 0.001709 301.82220 548.20276
625.0 0.001600 301.88907 565.93298
609.0 0.001642 301.95612 590.08051
699.0 0.001431 302.02304 620.35516
754.0 0.001326 302.09003 652.71863
775.0 0.001290 302.15701 679.17603
764.0 0.001309 302.22382 690.65479
730.0 0.001370 302.29086 682.06506
646.0 0.001548 302.35776 655.41174
648.0 0.001543 302.42480 617.87103
575.0 0.001739 302.49179 576.99603
529.0 0.001890 302.55872 538.59412
509.0 0.001965 302.62567 505.11786
474.0 0.002110 302.69272 478.62979
456.0 0.002193 302.75967 458.80338
418.0 0.002392 302.82669 444.67865
406.0 0.002463 302.89365 435.49155
431.0 0.002320 302.96063 430.32855
440.0 0.002273 303.02762 428.85281
443.0 0.002257 303.09460 430.90042
437.0 0.002288 303.16171 436.14954
441.0 0.002268 303.22861 444.31863
456.0 0.002193 303.29556 455.11124
458.0 0.002183 303.36255 468.66693
479.0 0.002088 303.42966 486.01227
540.0 0.001852 303.49664 508.53671
602.0 0.001661 303.56360 536.71063
643.0 0.001555 303.63065 569.16699
692.0 0.001445 303.69757 601.76410
688.0 0.001453 303.76471 628.57495
703.0 0.001422 303.83167 644.58447
723.0 0.001383 303.89862 649.16864
695.0 0.001439 303.96570 645.79584
690.0 0.001449 304.03268 638.84650
659.0 0.001517 304.09973 630.28625
639.0 0.001565 304.16672 619.74365
573.0 0.001745 304.23370 605.16736
538.0 0.001859 304.30069 584.16620
511.0 0.001957 304.36777 556.15021
472.0 0.002119 304.43478 523.44073
473.0 0.002114 304.50183 490.01004
449.0 0.002227 304.56879 459.37457
399.0 0.002506 304.63589 433.55148
405.0 0.002469 304.70288 413.42819
380.0 0.002632 304.76996 399.02792
360.0 0.002778 304.83698 389.77261
354.0 0.002825 304.90396 385.00018
383.0 0.002611 304.97107 383.95441
404.0 0.002475 305.03802 385.88693
373.0 0.002681 305.10516 390.27524
408.0 0.002451 305.17227 396.62781
408.0 0.002451 305.23920 404.59653
430.0 0.002326 305.30624 413.48056
386.0 0.002591 305.37326 422.16922
410.0 0.002439 305.44037 430.32648
470.0 0.002128 305.50748 437.19693
459.0 0.002179 305.57437 442.94641
500.0 0.002000 305.64148 447.79419
439.0 0.002278 305.70850 451.02191
451.0 0.002217 305.77560 452.02881
435.0 0.002299 305.84268 449.66531
442.0 0.002262 305.90973 443.13403
369.0 0.002710 305.97684 432.81158
392.0 0.002551 306.04382 420.56851
386.0 0.002591 306.11096 408.74976
376.0 0.002660 306.17798 399.20728
382.0 0.002618 306.24500 392.91940
389.0 0.002571 306.31213 390.14096
405.0 0.002469 306.37921 390.70126
395.0 0.002532 306.44635 393.80453
423.0 0.002364 306.51340 398.62833
439.0 0.002278 306.58044 404.46869
438.0 0.002283 306.64752 411.12698
436.0 0.002294 306.71463 418.66846
479.0 0.002088 306.78180 426.64218
466.0 0.002146 306.84885 434.02380
443.0 0.002257 306.91586 438.69327
434.0 0.002304 306.98309 439.82242
423.0 0.002364 307.05014 437.72076
420.0 0.002381 307.11734 433.81430
411.0 0.002433 307.18442 429.08810
419.0 0.002387 307.25146 425.21567
415.0 0.002410 307.31870 423.69116
408.0 0.002451 307.38577 425.91528
405.0 0.002469 307.45294 433.14432
450.0 0.002222 307.52005 445.56802
509.0 0.001965 307.58713 462.46353
508.0 0.001969 307.65442 481.54126
522.0 0.001916 307.72153 499.90112
544.0 0.001838 307.78867 512.44324
524.0 0.001908 307.85587 516.07532
505.0 0.001980 307.92297 509.75613
471.0 0.002123 307.99011 495.47430
425.0 0.002353 308.05734 476.89944
411.0 0.002433 308.12457 457.51370
406.0 0.002463 308.19183 439.90393
408.0 0.002451 308.25894 425.51047
416.0 0.002404 308.32614 414.80460
398.0 0.002513 308.39337 407.49243
418.0 0.002392 308.46063 402.52710
419.0 0.002387 308.52786 398.51468
408.0 0.002451 308.59497 394.28284
390.0 0.002564 308.66226 389.65845
378.0 0.002646 308.72949 385.05695
373.0 0.002681 308.79684 381.14075
389.0 0.002571 308.86411 378.29590
360.0 0.002778 308.93127 376.97125
382.0 0.002618 308.99869 377.76675
355.0 0.002817 309.06592 380.77850
340.0 0.002941 309.13321 386.16501
417.0 0.002398 309.20053 393.69797
388.0 0.002577 309.26779 402.76297
439.0 0.002278 309.33517 411.76340
405.0 0.002469 309.40253 418.35736
415.0 0.002410 309.46994 420.90543
378.0 0.002646 309.53726 418.43936
383.0 0.002611 309.60455 412.11221
395.0 0.002532 309.67200 403.56427
394.0 0.002538 309.73932 394.56552
396.0 0.002525 309.80676 386.67023
355.0 0.002817 309.87421 381.33942
349.0 0.002865 309.94156 378.93790
369.0 0.002710 310.00900 379.33533
389.0 0.002571 310.07642 382.41309
392.0 0.002551 310.14398 387.68155
393.0 0.002545 310.21140 394.28894
409.0 0.002445 310.27887 401.06076
419.0 0.002387 310.34637 406.81384
441.0 0.002268 310.41385 411.18417
435.0 0.002299 310.48148 415.21548
441.0 0.002268 310.54904 420.73849
431.0 0.002320 310.61652 429.41684
450.0 0.002222 310.68408 442.32672
472.0 0.002119 310.75168 459.41824
483.0 0.002070 310.81934 479.92938
538.0 0.001859 310.88693 501.28696
583.0 0.001715 310.95453 518.92609
574.0 0.001742 311.02216 527.37561
507.0 0.001972 311.08981 522.99292
496.0 0.002016 311.15759 506.74823
458.0 0.002183 311.22528 483.42111
404.0 0.002475 311.29297 458.15305
384.0 0.002604 311.36072 434.48349
366.0 0.002732 311.42844 414.44489
387.0 0.002584 311.49625 398.85141
384.0 0.002604 311.56406 387.95694
373.0 0.002681 311.63184 381.49622
377.0 0.002653 311.69968 379.00122
406.0 0.002463 311.76749 379.77353
380.0 0.002632 311.83545 383.26797
366.0 0.002732 311.90329 388.68698
368.0 0.002717 311.97113 395.19278
397.0 0.002519 312.03915 402.15576
445.0 0.002247 312.10709 409.48218
442.0 0.002262 312.17511 417.72998
444.0 0.002252 312.24304 427.39401
467.0 0.002141 312.31107 438.90173
446.0 0.002242 312.37918 451.46777
463.0 0.002160 312.44714 463.64996
493.0 0.002028 312.51532 474.15610
488.0 0.002049 312.58353 481.94800
495.0 0.002020 312.65161 486.19565
497.0 0.002012 312.71982 485.95358
480.0 0.002083 312.78796 481.42645
440.0 0.002273 312.85623 474.58795
439.0 0.002278 312.92450 468.17563
482.0 0.002075 312.99271 464.21579
434.0 0.002304 313.06110 463.50629
457.0 0.002188 313.12933 465.86673
516.0 0.001938 313.19772 470.55240
517.0 0.001934 313.26620 475.86673
515.0 0.001942 313.33450 479.75403
443.0 0.002257 313.40302 479.93219
485.0 0.002062 313.47147 476.36374
471.0 0.002123 313.54001 470.03372
443.0 0.002257 313.60861 463.23288
447.0 0.002237 313.67715 457.27554
442.0 0.002262 313.74573 452.47534
461.0 0.002169 313.81436 448.47879
437.0 0.002288 313.88312 444.85538
430.0 0.002326 313.95187 441.91315
451.0 0.002217 314.02048 440.15912
442.0 0.002262 314.08929 439.89590
431.0 0.002320 314.15811 441.15475
468.0 0.002137 314.22699 443.71100
464.0 0.002155 314.29590 447.37204
450.0 0.002222 314.36475 451.57892
483.0 0.002070 314.43378 455.06082
473.0 0.002114 314.50275 456.66714
463.0 0.002160 314.57175 456.33838
458.0 0.002183 314.64090 455.43869
434.0 0.002304 314.70996 455.74026
425.0 0.002353 314.77911 458.72702
469.0 0.002132 314.84830 465.39310
522.0 0.001916 314.91760 476.29910
549.0 0.001821 314.98691 491.28610
586.0 0.001706 315.05612 509.28711
614.0 0.001629 315.12555 528.86011
629.0 0.001590 315.19492 547.81403
625.0 0.001600 315.26443 563.95050
631.0 0.001585 315.33389 574.35284
627.0 0.001595 315.40335 576.45551
623.0 0.001605 315.47299 569.07324
591.0 0.001692 315.54263 553.31940
523.0 0.001912 315.61237 531.73871
487.0 0.002053 315.68207 507.33597
473.0 0.002114 315.75180 482.99353
438.0 0.002283 315.82169 460.82880
393.0 0.002545 315.89151 442.77457
409.0 0.002445 315.96149 429.30719
405.0 0.002469 316.03143 420.22031
409.0 0.002445 316.10144 414.61279
422.0 0.002370 316.17154 411.15060
408.0 0.002451 316.24161 408.65027
421.0 0.002375 316.31189 406.66275
410.0 0.002439 316.38217 405.58746
428.0 0.002336 316.45230 406.30002
450.0 0.002222 316.52274 409.45654
413.0 0.002421 316.59308 416.03085
435.0 0.002299 316.66357 426.18887
456.0 0.002193 316.73410 439.68375
479.0 0.002088 316.80463 456.53882
505.0 0.001980 316.87531 475.46204
563.0 0.001776 316.94598 494.23047
563.0 0.001776 317.01672 509.38315
642.0 0.001558 317.08759 517.05402
517.0 0.001934 317.15833 515.08356
476.0 0.002101 317.22934 504.14786
509.0 0.001965 317.30032 486.97351
473.0 0.002114 317.37137 466.73618
437.0 0.002288 317.44254 446.02249
440.0 0.002273 317.51364 426.45523
397.0 0.002519 317.58499 409.15323
376.0 0.002660 317.65625 394.49493
363.0 0.002755 317.72769 382.50461
352.0 0.002841 317.79916 373.01917
347.0 0.002882 317.87057 365.76364
350.0 0.002857 317.94220 360.39743
354.0 0.002825 318.01382 356.50067
332.0 0.003012 318.08563 354.08340
329.0 0.003040 318.15741 352.83557
340.0 0.002941 318.22922 352.75296
346.0 0.002890 318.30121 353.76068
357.0 0.002801 318.37317 356.02911
366.0 0.002732 318.44531 359.43677
395.0 0.002532 318.51746 363.69934
376.0 0.002660 318.58960 368.88141
387.0 0.002584 318.66196 374.62659
406.0 0.002463 318.73434 380.49017
408.0 0.002451 318.80688 385.66232
402.0 0.002488 318.87946 388.79044
405.0 0.002469 318.95200 389.49432
385.0 0.002597 319.02481 388.08676
378.0 0.002646 319.09750 385.19034
368.0 0.002717 319.17047 381.39734
370.0 0.002703 319.24344 377.03705
354.0 0.002825 319.31635 372.43317
331.0 0.003021 319.38959 368.07669
328.0 0.003049 319.46268 364.42786
337.0 0.002967 319.53604 361.77725
336.0 0.002976 319.60950 360.37305
343.0 0.002915 319.68289 360.15240
376.0 0.002660 319.75647 361.17963
376.0 0.002660 319.83014 362.76624
355.0 0.002817 319.90387 364.75217
382.0 0.002618 319.97775 366.54523
382.0 0.002618 320.05157 367.81564
364.0 0.002747 320.12564 368.53122
352.0 0.002841 320.19968 368.90857
339.0 0.002950 320.27396 368.98117
373.0 0.002681 320.34827 368.44186
363.0 0.002755 320.42261 367.27216
348.0 0.002874 320.49722 365.37561
336.0 0.002976 320.57178 363.24850
305.0 0.003279 320.64642 361.32935
364.0 0.002747 320.72125 359.87717
335.0 0.002985 320.79611 358.83405
353.0 0.002833 320.87119 358.01764
371.0 0.002695 320.94620 357.07846
357.0 0.002801 321.02151 355.68127
317.0 0.003155 321.09680 353.85098
342.0 0.002924 321.17212 351.96298
329.0 0.003040 321.24771 349.94989
317.0 0.003155 321.32333 348.17651
350.0 0.002857 321.39914 346.65384
338.0 0.002959 321.47498 345.81705
344.0 0.002907 321.55087 345.63065
362.0 0.002762 321.62695 346.10287
330.0 0.003030 321.70313 347.23297
375.0 0.002667 321.77945 348.83844
351.0 0.002849 321.85587 350.69485
347.0 0.002882 321.93231 352.65952
319.0 0.003135 322.00906 354.75302
342.0 0.002924 322.08578 357.07407
364.0 0.002747 322.16275 359.83939
358.0 0.002793 322.23975 363.16284
358.0 0.002793 322.31683 367.19620
376.0 0.002660 322.39401 371.88199
388.0 0.002577 322.47141 377.26941
398.0 0.002513 322.54898 383.48047
421.0 0.002375 322.62662 390.25513
461.0 0.002169 322.70425 396.87158
453.0 0.002208 322.78220 402.23615
427.0 0.002342 322.86014 405.23886
405.0 0.002469 322.93826 405.30112
379.0 0.002639 323.01654 402.75934
376.0 0.002660 323.09488 398.41840
393.0 0.002545 323.17343 393.43661
381.0 0.002625 323.25211 388.16629
365.0 0.002740 323.33087 383.07266
363.0 0.002755 323.40988 378.44919
369.0 0.002710 323.48889 374.47614
351.0 0.002849 323.56808 371.30139
340.0 0.002941 323.64737 369.08640
359.0 0.002786 323.72690 368.00275
360.0 0.002778 323.80652 368.11871
347.0 0.002882 323.88620 369.28870
370.0 0.002703 323.96619 371.11813
375.0 0.002667 324.04617 372.97208
366.0 0.002732 324.12646 374.05652
380.0 0.002632 324.20676 373.92899
359.0 0.002786 324.28720 372.72830
332.0 0.003012 324.36786 371.08237
357.0 0.002801 324.44864 369.71710
375.0 0.002667 324.52963 369.19913
376.0 0.002660 324.61066 369.65448
382.0 0.002618 324.69186 371.03934
378.0 0.002646 324.77328 373.02179
390.0 0.002564 324.85480 375.16299
360.0 0.002778 324.93658 376.81241
351.0 0.002849 325.01843 377.93753
375.0 0.002667 325.10040 378.54620
361.0 0.002770 325.18262 379.04559
382.0 0.002618 325.26498 380.08664
384.0 0.002604 325.34750 381.91425
388.0 0.002577 325.43018 384.89441
383.0 0.002611 325.51297 388.91458
390.0 0.002564 325.59604 393.97858
416.0 0.002404 325.67911 399.68948
425.0 0.002353 325.76260 405.43219
382.0 0.002618 325.84610 410.43802
425.0 0.002353 325.92966 414.16681
440.0 0.002273 326.01361 416.64319
395.0 0.002532 326.09756 418.34250
438.0 0.002283 326.18185 419.90891
454.0 0.002203 326.26630 421.68695
411.0 0.002433 326.35068 423.59613
444.0 0.002252 326.43549 425.28073
460.0 0.002174 326.52042 426.17462
460.0 0.002174 326.60553 425.36926
447.0 0.002237 326.69083 422.59308
421.0 0.002375 326.77625 418.48312
413.0 0.002421 326.86191 414.34644
416.0 0.002404 326.94775 411.62436
446.0 0.002242 327.03378 411.31982
434.0 0.002304 327.12003 413.97849
483.0 0.002070 327.20642 419.51309
483.0 0.002070 327.29303 427.48352
493.0 0.002028 327.37979 436.66467
486.0 0.002058 327.46686 445.51590
517.0 0.001934 327.55405 452.48956
512.0 0.001953 327.64127 456.78238
473.0 0.002114 327.72888 458.41425
494.0 0.002024 327.81674 457.28482
479.0 0.002088 327.90469 453.49408
471.0 0.002123 327.99292 447.37668
454.0 0.002203 328.08118 439.70663
434.0 0.002304 328.16983 431.34912
411.0 0.002433 328.25854 423.08475
399.0 0.002506 328.34766 415.53607
402.0 0.002488 328.43689 409.20724
407.0 0.002457 328.52618 404.50711
404.0 0.002475 328.61588 401.59702
399.0 0.002506 328.70569 400.37311
414.0 0.002415 328.79584 400.41888
413.0 0.002421 328.88611 401.10654
424.0 0.002358 328.97650 401.91461
416.0 0.002404 329.06729 402.82483
407.0 0.002457 329.15817 404.30325
400.0 0.002500 329.24939 406.99463
410.0 0.002439 329.34076 411.39932
430.0 0.002326 329.43225 417.50720
437.0 0.002288 329.52420 424.85168
429.0 0.002331 329.61621 432.58099
446.0 0.002242 329.70859 439.55090
435.0 0.002299 329.80115 445.01859
478.0 0.002092 329.89377 448.63309
439.0 0.002278 329.98676 450.26093
479.0 0.002088 330.07999 449.92841
458.0 0.002183 330.17343 447.34958
430.0 0.002326 330.26709 442.78922
418.0 0.002392 330.36102 436.02853
419.0 0.002387 330.45523 428.06970
395.0 0.002532 330.54959 419.68103
414.0 0.002415 330.64429 411.34372
387.0 0.002584 330.73917 403.38104
378.0 0.002646 330.83429 396.14743
378.0 0.002646 330.92972 389.97437
376.0 0.002660 331.02533 385.34549
385.0 0.002597 331.12128 382.40948
401.0 0.002494 331.21735 381.23093
372.0 0.002688 331.31369 381.66183
354.0 0.002825 331.41040 383.57919
411.0 0.002433 331.50726 386.54587
386.0 0.002591 331.60452 389.97995
398.0 0.002513 331.70193 393.18634
408.0 0.002451 331.79953 395.53021
373.0 0.002681 331.89755 396.76089
369.0 0.002710 331.99570 397.04590
368.0 0.002717 332.09433 396.71454
387.0 0.002584 332.19305 395.97363
386.0 0.002591 332.29196 395.08884
370.0 0.002703 332.39130 394.27496
356.0 0.002809 332.49081 394.02155
353.0 0.002833 332.59073 394.57297
388.0 0.002577 332.69086 396.01718
391.0 0.002558 332.79108 398.32584
394.0 0.002538 332.89185 401.56842
376.0 0.002660 332.99274 405.83493
387.0 0.002584 333.09406 411.22995
394.0 0.002538 333.19553 418.17551
412.0 0.002427 333.29721 426.62247
412.0 0.002427 333.39944 436.60712
427.0 0.002342 333.50174 447.85214
453.0 0.002208 333.60443 459.69058
491.0 0.002037 333.70743 471.11420
506.0 0.001976 333.81061 481.16559
499.0 0.002004 333.91409 489.38800
510.0 0.001961 334.01791 495.97278
552.0 0.001812 334.12216 501.06079
546.0 0.001832 334.22656 504.18970
545.0 0.001835 334.33121 503.98004
535.0 0.001869 334.43625 498.90588
494.0 0.002024 334.54160 488.66519
491.0 0.002037 334.64728 474.65323
440.0 0.002273 334.75327 459.13522
406.0 0.002463 334.85934 444.37872
377.0 0.002653 334.96609 431.70218
397.0 0.002519 335.07288 421.95139
402.0 0.002488 335.18011 415.40970
394.0 0.002538 335.28769 412.14224
379.0 0.002639 335.39536 411.75629
410.0 0.002439 335.50363 413.71051
397.0 0.002519 335.61200 417.38715
401.0 0.002494 335.72083 422.03970
417.0 0.002398 335.83002 427.47250
431.0 0.002320 335.93936 432.95114
432.0 0.002315 336.04919 438.24103
424.0 0.002358 336.15921 442.68768
445.0 0.002247 336.26971 445.96136
424.0 0.002358 336.38046 448.19354
448.0 0.002232 336.49146 449.80368
413.0 0.002421 336.60303 451.17474
442.0 0.002262 336.71472 452.44672
435.0 0.002299 336.82687 453.71210
453.0 0.002208 336.93933 455.08563
420.0 0.002381 337.05197 456.49966
472.0 0.002119 337.16519 457.31439
442.0 0.002262 337.27859 456.59082
455.0 0.002198 337.39255 453.25961
408.0 0.002451 337.50671 446.79819
461.0 0.002169 337.62109 437.90915
411.0 0.002433 337.73615 427.94128
417.0 0.002398 337.85129 418.27924
401.0 0.002494 337.96698 409.86429
360.0 0.002778 338.08301 403.24719
380.0 0.002632 338.19913 398.62842
385.0 0.002597 338.31589 396.01981
386.0 0.002591 338.43286 395.26205
396.0 0.002525 338.55032 395.98373
377.0 0.002653 338.66815 397.82608
372.0 0.002688 338.78622 400.60751
414.0 0.002415 338.90475 404.12253
425.0 0.002353 339.02362 408.37860
415.0 0.002410 339.14291 413.02264
405.0 0.002469 339.26263 417.97610
403.0 0.002481 339.38248 423.03293
397.0 0.002519 339.50290 428.05365
403.0 0.002481 339.62372 433.16339
426.0 0.002347 339.74490 438.66452
434.0 0.002304 339.86646 444.67874
455.0 0.002198 339.98831 451.62607
454.0 0.002203 340.11075 460.26813
485.0 0.002062 340.23337 471.31750
539.0 0.001855 340.35660 484.96570
564.0 0.001773 340.47995 500.91788
592.0 0.001689 340.60385 517.74414
617.0 0.001621 340.72821 533.44513
646.0 0.001548 340.85281 545.75482
638.0 0.001567 340.97806 552.40204
570.0 0.001754 341.10349 551.51984
567.0 0.001764 341.22931 542.35760
528.0 0.001894 341.35571 526.15686
475.0 0.002105 341.48236 505.78091
453.0 0.002208 341.60953 484.25781
418.0 0.002392 341.73706 463.95282
396.0 0.002525 341.86496 446.28024
387.0 0.002584 341.99347 431.95486
411.0 0.002433 342.12210 421.04166
379.0 0.002639 342.25146 413.58362
375.0 0.002667 342.38104 409.40909
385.0 0.002597 342.51096 408.29382
404.0 0.002475 342.64157 409.88007
397.0 0.002519 342.77240 413.86386
393.0 0.002545 342.90390 420.09927
435.0 0.002299 343.03571 428.06900
451.0 0.002217 343.16766 437.48114
434.0 0.002304 343.30042 448.02100
488.0 0.002049 343.43347 459.62173
495.0 0.002020 343.56705 472.49854
530.0 0.001887 343.70108 486.85855
563.0 0.001776 343.83533 502.67245
557.0 0.001795 343.97025 519.23108
587.0 0.001704 344.10547 535.41437
588.0 0.001701 344.24127 549.50806
634.0 0.001577 344.37747 559.34985
656.0 0.001524 344.51401 562.93817
602.0 0.001661 344.65115 559.14044
541.0 0.001848 344.78867 548.10071
532.0 0.001880 344.92670 531.30939
465.0 0.002151 345.06522 511.36508
458.0 0.002183 345.20404 490.97598
463.0 0.002160 345.34351 471.93286
462.0 0.002165 345.48328 455.52481
434.0 0.002304 345.62378 442.38263
412.0 0.002427 345.76453 432.38770
398.0 0.002513 345.90561 425.08557
420.0 0.002381 346.04752 419.93671
426.0 0.002347 346.18964 416.31693
380.0 0.002632 346.33246 413.82315
392.0 0.002551 346.47556 412.23795
415.0 0.002410 346.61905 411.76688
413.0 0.002421 346.76334 412.35150
411.0 0.002433 346.90787 414.01184
425.0 0.002353 347.05310 416.82114
411.0 0.002433 347.19867 420.92368
399.0 0.002506 347.34467 426.51959
409.0 0.002445 347.49133 433.76083
448.0 0.002232 347.63824 442.61624
501.0 0.001996 347.78595 452.76672
508.0 0.001969 347.93402 463.74585
547.0 0.001828 348.08243 474.66046
537.0 0.001862 348.23160 484.89328
552.0 0.001812 348.38110 493.63446
594.0 0.001684 348.53128 500.42017
579.0 0.001727 348.68185 504.62476
555.0 0.001802 348.83273 505.88986
566.0 0.001767 348.98456 504.18243
552.0 0.001812 349.13654 499.58228
517.0 0.001934 349.28931 492.39453
507.0 0.001972 349.44254 483.18448
498.0 0.002008 349.59601 472.84033
484.0 0.002066 349.75027 462.37543
451.0 0.002217 349.90488 452.62704
423.0 0.002364 350.06030 444.17410
415.0 0.002410 350.21609 437.18378
428.0 0.002336 350.37222 431.68988
429.0 0.002331 350.52911 427.58496
383.0 0.002611 350.68646 424.96661
394.0 0.002538 350.84445 423.27725
426.0 0.002347 351.00296 422.31165
422.0 0.002370 351.16171 421.87155
408.0 0.002451 351.32135 421.94724
402.0 0.002488 351.48129 422.78201
422.0 0.002370 351.64197 424.63882
435.0 0.002299 351.80316 427.61194
425.0 0.002353 351.96472 431.78217
432.0 0.002315 352.12714 437.28201
433.0 0.002309 352.28979 444.28076
456.0 0.002193 352.45331 452.95392
489.0 0.002045 352.61716 463.18881
464.0 0.002155 352.78159 474.61505
554.0 0.001805 352.94662 486.51511
562.0 0.001779 353.11218 497.37384
572.0 0.001748 353.27844 505.30096
544.0 0.001838 353.44522 508.53427
549.0 0.001821 353.61230 506.46457
510.0 0.001961 353.78033 499.29984
523.0 0.001912 353.94870 488.64227
425.0 0.002353 354.11774 476.45151
447.0 0.002237 354.28732 464.22931
439.0 0.002278 354.45734 453.23111
439.0 0.002278 354.62823 444.20660
402.0 0.002488 354.79941 437.49203
459.0 0.002179 354.97156 433.36163
421.0 0.002375 355.14398 431.31927
428.0 0.002336 355.31699 431.60303
412.0 0.002427 355.49075 433.49744
436.0 0.002294 355.66489 436.31006
440.0 0.002273 355.83990 439.80307
431.0 0.002320 356.01547 444.03894
458.0 0.002183 356.19125 448.77667
474.0 0.002110 356.36804 454.14349
479.0 0.002088 356.54520 459.89807
465.0 0.002151 356.72321 465.62735
470.0 0.002128 356.90170 470.62589
481.0 0.002079 357.08066 474.20831
483.0 0.002070 357.26035 475.99088
498.0 0.002008 357.44067 476.21606
474.0 0.002110 357.62161 475.66754
456.0 0.002193 357.80319 475.17328
477.0 0.002096 357.98523 475.15466
472.0 0.002119 358.16803 475.51727
472.0 0.002119 358.35144 475.83200
477.0 0.002096 358.53546 475.63556
459.0 0.002179 358.72018 474.84229
440.0 0.002273 358.90524 473.18289
446.0 0.002242 359.09128 470.76230
459.0 0.002179 359.27768 467.30774
438.0 0.002283 359.46503 462.77271
442.0 0.002262 359.65271 457.33582
460.0 0.002174 359.84100 451.72482
439.0 0.002278 360.03024 446.79407
453.0 0.002208 360.21979 443.28210
444.0 0.002252 360.41034 441.78967
430.0 0.002326 360.60129 442.23291
447.0 0.002237 360.79272 444.67020
444.0 0.002252 360.98517 448.81314
451.0 0.002217 361.17801 454.34326
492.0 . . .
loop_
_refln_index_h
_refln_index_k
_refln_index_l
_pd_refln_wavelength_id
_refln_observed_status
_refln_F_squared_meas
_refln_F_squared_calc
_refln_phase_calc
_refln_d_spacing
_gsas_i100_meas
0 2 0 1 o 40680.78 36920.43 0.00 6.67192 13.36
0 2 0 2 o 40851.30 36920.43 0.00 6.67192 6.68
1 1 1 1 o 20531.494 19948.641 0.00 6.05513 18.65
1 1 1 2 o 20102.174 19948.641 0.00 6.05513 9.07
2 0 0 1 o 1179.186 1768.467 180.00 4.82598 0.00
2 0 0 2 o 1179.186 1768.467 180.00 4.82598 0.00
0 0 2 1 o 38109.74 42193.20 0.00 4.78388 3.86
0 0 2 2 o 39311.38 42193.20 0.00 4.78388 2.01
1 2 1 1 o 4661.574 4882.814 0.00 4.76068 1.38
1 2 1 2 o 4508.745 4882.814 0.00 4.76068 0.64
2 1 0 1 o 165815.23 165380.45 180.00 4.53829 38.06
2 1 0 2 o 163001.13 165380.45 180.00 4.53829 18.55
1 0 2 1 o 232617.09 235388.38 0.00 4.28629 47.43
1 0 2 2 o 231290.64 235388.38 0.00 4.28629 23.44
2 1 1 1 o 121158.23 114398.34 0.00 4.10040 46.68
2 1 1 2 o 118527.70 114398.34 0.00 4.10040 22.65
1 1 2 1 o 119939.88 117285.80 0.00 4.08092 45.39
1 1 2 2 o 118584.20 117285.80 0.00 4.08092 22.29
0 3 1 1 o 464136.0 476189.6 180.00 4.03340 100.00
0 3 1 2 o 471724.2 476189.6 180.00 4.03340 50.69
2 2 0 1 o 86490.16 83354.59 180.00 3.91027 15.64
2 2 0 2 o 82653.13 83354.59 180.00 3.91027 7.38
0 2 2 1 o 50605.34 51263.92 0.00 3.88778 8.95
0 2 2 2 o 50968.06 51263.92 0.00 3.88778 4.49
1 3 1 1 o 83500.31 79383.08 180.00 3.72153 30.33
1 3 1 2 o 82662.65 79383.08 180.00 3.72153 14.91
2 2 1 1 o 195080.47 188197.63 180.00 3.61964 60.19
2 2 1 2 o 192632.81 188197.63 180.00 3.61964 29.51
1 2 2 1 o 338.589 340.465 0.00 3.60622 0.11
1 2 2 2 o 583.237 340.465 0.00 3.60622 0.10
2 0 2 1 o 159506.19 148363.61 180.00 3.39750 21.63
2 0 2 2 o 155885.70 148363.61 180.00 3.39750 10.50
0 4 0 1 o 142935.56 133286.45 180.00 3.33596 11.84
0 4 0 2 o 141021.70 133286.45 180.00 3.33596 5.80
2 1 2 1 o 15665.800 15865.174 180.00 3.29246 3.92
2 1 2 2 o 15209.916 15865.174 180.00 3.29246 1.89
2 3 0 1 o 40614.07 43750.56 180.00 3.27066 5.11
2 3 0 2 o 37395.75 43750.56 180.00 3.27066 2.30
0 1 3 1 o 149443.34 149889.34 180.00 3.10189 15.70
2 3 1 1 o 46317.52 46517.69 0.00 3.09483 10.63
0 1 3 2 o 149411.66 149889.34 180.00 3.10189 7.81
2 3 1 2 o 47513.68 46517.69 0.00 3.09483 5.45
1 3 2 1 o 27478.688 26854.941 0.00 3.08643 6.28
1 3 2 2 o 26894.668 26854.941 0.00 3.08643 3.05
2 2 2 1 o 60305.27 59734.21 180.00 3.02757 12.36
2 2 2 2 o 58481.11 59734.21 180.00 3.02757 5.93
1 4 1 1 o 17199.051 18116.072 180.00 2.99454 4.07
1 4 1 2 o 18009.113 18116.072 180.00 2.99454 2.13
3 1 1 1 o 63362.75 63178.75 0.00 2.97288 12.51
3 1 1 2 o 61087.83 63178.75 0.00 2.97288 5.97
1 1 3 1 o 800.928 1523.249 0.00 2.95314 0.10
1 1 3 2 o 364.747 1523.249 0.00 2.95314 0.00
3 2 1 1 o 33660.082 33309.547 180.00 2.77354 5.90
3 2 1 2 o 33315.371 33309.547 180.00 2.77354 2.90
1 2 3 1 o 120198.16 128313.72 0.00 2.75749 20.37
1 2 3 2 o 120164.70 128313.72 0.00 2.75749 10.13
2 4 0 1 o 97029.48 100046.48 180.00 2.74416 9.10
2 4 0 2 o 94214.91 100046.48 180.00 2.74416 4.37
0 4 2 1 o 26312.063 28264.820 0.00 2.73635 2.56
0 4 2 2 o 24321.773 28264.820 0.00 2.73635 1.16
2 3 2 1 o 3689.416 4302.630 180.00 2.69997 0.65
2 3 2 2 o 3705.631 4302.630 180.00 2.69997 0.33
3 0 2 1 o 94723.72 88212.08 0.00 2.66972 7.09
3 0 2 2 o 90605.99 88212.08 0.00 2.66972 3.35
2 4 1 1 o 25667.533 25908.385 0.00 2.63781 4.24
1 4 2 1 o 29321.684 29815.344 180.00 2.63260 4.75
2 4 1 2 o 25579.787 25908.385 0.00 2.63781 2.10
1 4 2 2 o 29434.861 29815.344 180.00 2.63260 2.37
3 1 2 1 o 30885.488 30818.264 180.00 2.61784 4.31
3 1 2 2 o 30689.023 30818.264 180.00 2.61784 2.13
2 1 3 1 o 30643.541 30717.959 0.00 2.60937 4.31
2 1 3 2 o 30383.066 30717.959 0.00 2.60937 2.12
0 3 3 1 o 12.580 13.956 180.00 2.59185 0.00
0 3 3 2 o 16.407 13.956 180.00 2.59185 0.00
0 5 1 1 o 60109.91 59511.52 180.00 2.57064 4.87
0 5 1 2 o 60087.29 59511.52 180.00 2.57064 2.42
3 3 1 1 o 27004.754 24844.381 180.00 2.51516 3.79
3 3 1 2 o 25669.658 24844.381 180.00 2.51516 1.78
1 3 3 1 o 130408.52 131260.31 180.00 2.50317 17.96
1 3 3 2 o 126960.98 131260.31 180.00 2.50317 8.65
1 5 1 1 o 5525.438 5606.749 180.00 2.48405 0.86
3 2 2 1 o 14567.245 14601.410 180.00 2.47865 1.76
1 5 1 2 o 5590.637 5606.749 180.00 2.48405 0.43
3 2 2 2 o 14689.233 14601.410 180.00 2.47865 0.89
2 2 3 1 o 24204.576 23981.932 0.00 2.47146 2.99
2 2 3 2 o 23720.871 23981.932 0.00 2.47146 1.45
4 0 0 1 o 28550.125 26290.627 180.00 2.41299 0.80
4 0 0 2 o 30885.863 26290.627 180.00 2.41299 0.44
0 0 4 1 o 57876.68 55433.21 180.00 2.39194 1.67
0 0 4 2 o 56546.85 55433.21 180.00 2.39194 0.81
2 4 2 1 o 29771.125 29795.393 180.00 2.38034 3.54
4 1 0 1 o 12734.947 12730.158 180.00 2.37448 0.75
2 4 2 2 o 29805.324 29795.393 180.00 2.38034 1.76
4 1 0 2 o 12082.308 12730.158 180.00 2.37448 0.35
2 5 0 1 o 165402.89 149009.58 0.00 2.33545 10.85
2 5 0 2 o 160445.11 149009.58 0.00 2.33545 5.20
1 0 4 1 o 37956.29 33780.563 0.00 2.32171 1.96
1 0 4 2 o 41472.08 33780.563 0.00 2.32171 1.09
4 1 1 1 o 177433.89 167650.72 180.00 2.30457 19.31
4 1 1 2 o 171203.78 167650.72 180.00 2.30457 9.20
3 3 2 1 o 33751.531 31525.109 180.00 2.28905 4.17
1 1 4 1 o 3783.687 3644.666 0.00 2.28735 0.34
3 3 2 2 o 33796.371 31525.109 180.00 2.28905 2.08
2 3 3 1 o 30417.031 28619.082 0.00 2.28338 3.27
1 1 4 2 o 3845.407 3644.666 0.00 2.28735 0.18
2 3 3 2 o 32434.068 28619.082 0.00 2.28338 1.76
4 2 0 1 o 69203.50 69017.27 0.00 2.26915 3.54
2 5 1 1 o 38628.83 38711.95 0.00 2.26884 4.68
1 5 2 1 o 51867.63 53249.82 180.00 2.26552 5.84
4 2 0 2 o 66918.18 69017.27 0.00 2.26915 1.69
2 5 1 2 o 37464.80 38711.95 0.00 2.26884 2.24
1 5 2 2 o 51847.25 53249.82 180.00 2.26552 2.90
0 2 4 1 o 66104.82 64296.59 0.00 2.25162 3.48
3 4 1 1 o 5314.024 5173.955 0.00 2.25080 0.60
0 2 4 2 o 65967.16 64296.59 0.00 2.25162 1.72
3 4 1 2 o 5321.826 5173.955 0.00 2.25080 0.30
1 4 3 1 o 19870.195 19525.764 180.00 2.24220 2.24
1 4 3 2 o 19481.568 19525.764 180.00 2.24220 1.09
3 1 3 1 o 54583.03 53996.38 0.00 2.23306 5.11
3 1 3 2 o 58461.80 53996.38 0.00 2.23306 2.78
0 6 0 1 o 240648.84 208493.80 0.00 2.22397 7.61
0 6 0 2 o 240645.02 208493.80 0.00 2.22397 3.78
4 2 1 1 o 14337.586 13791.452 180.00 2.20790 1.53
4 2 1 2 o 14540.895 13791.452 180.00 2.20790 0.77
1 2 4 1 o 9556.061 9788.771 0.00 2.19274 0.92
1 2 4 2 o 9746.991 9788.771 0.00 2.19274 0.47
4 0 2 1 o 3.616 58.645 180.00 2.15444 0.02
4 0 2 2 o 218.535 58.645 180.00 2.15444 0.02
3 2 3 1 o 5792.206 5132.870 180.00 2.14478 0.37
2 0 4 1 o 10655.095 9882.563 180.00 2.14314 0.38
3 2 3 2 o 5304.485 5132.870 180.00 2.14478 0.16
2 0 4 2 o 10247.232 9882.563 180.00 2.14314 0.18
4 1 2 1 o 6065.060 5737.506 180.00 2.12690 0.66
4 1 2 2 o 6651.165 5737.506 180.00 2.12690 0.36
4 3 0 1 o 1144.208 1046.569 180.00 2.12099 0.05
2 1 4 1 o 116509.76 114372.58 0.00 2.11603 10.79
4 3 0 2 o 1062.045 1046.569 180.00 2.12099 0.02
1 6 1 1 o 83.686 85.067 180.00 2.11364 0.01
2 1 4 2 o 114113.49 114372.58 0.00 2.11603 5.24
1 6 1 2 o 84.895 85.067 180.00 2.11364 0.00
2 5 2 1 o 27337.424 24011.473 0.00 2.09871 3.06
2 5 2 2 o 27424.578 24011.473 0.00 2.09871 1.53
3 4 2 1 o 105632.79 105911.31 180.00 2.08441 9.61
2 4 3 1 o 7152.833 7556.569 180.00 2.08013 0.67
3 4 2 2 o 102342.27 105911.31 180.00 2.08441 4.60
2 4 3 2 o 7116.189 7556.569 180.00 2.08013 0.33
4 3 1 1 o 7292.838 7786.984 0.00 2.07072 0.65
4 3 1 2 o 7099.262 7786.984 0.00 2.07072 0.32
1 3 4 1 o 5389.596 4895.178 0.00 2.05820 0.50
1 3 4 2 o 5338.829 4895.178 0.00 2.05820 0.25
4 2 2 1 o 61097.89 57941.18 0.00 2.05020 5.35
0 5 3 1 o 43911.76 44513.93 180.00 2.04671 2.22
4 2 2 2 o 58265.65 57941.18 0.00 2.05020 2.52
0 5 3 2 o 43463.21 44513.93 180.00 2.04671 1.09
2 2 4 1 o 21777.695 22013.869 180.00 2.04046 1.83
2 2 4 2 o 20864.033 22013.869 180.00 2.04046 0.86
2 6 0 1 o 49560.54 45456.42 180.00 2.01982 2.55
3 3 3 1 o 15747.511 14963.776 180.00 2.01838 1.21
0 6 2 1 o 77072.91 73963.52 0.00 2.01670 3.83
2 6 0 2 o 47229.27 45456.42 180.00 2.01982 1.20
3 3 3 2 o 15294.184 14963.776 180.00 2.01838 0.58
0 6 2 2 o 76859.26 73963.52 0.00 2.01670 1.90
3 5 1 1 o 634.176 517.188 180.00 2.00831 0.07
3 5 1 2 o 537.062 517.188 180.00 2.00831 0.03
1 5 3 1 o 21067.076 21807.307 180.00 2.00219 1.85
1 5 3 2 o 18616.740 21807.307 180.00 2.00219 0.79
2 6 1 1 o 79611.16 77921.11 0.00 1.97626 7.56
1 6 2 1 o 75173.52 76199.41 0.00 1.97407 7.06
2 6 1 2 o 74316.39 77921.11 0.00 1.97626 3.47
1 6 2 2 o 72259.54 76199.41 0.00 1.97407 3.35
4 4 0 1 o 300414.00 311613.50 0.00 1.95514 12.00
4 4 0 2 o 290547.84 311613.50 0.00 1.95514 5.73
0 4 4 1 o 175315.22 184468.89 0.00 1.94389 6.65
4 3 2 1 o 6370.723 6943.574 180.00 1.93896 0.61
0 4 4 2 o 171920.27 184468.89 0.00 1.94389 3.22
4 3 2 2 o 6561.429 6943.574 180.00 1.93896 0.31
2 3 4 1 o 44866.85 44054.80 0.00 1.93071 3.65
2 3 4 2 o 42077.86 44054.80 0.00 1.93071 1.69
3 0 4 1 o 1142.387 1154.540 180.00 1.91956 0.06
4 4 1 1 o 3330.824 2980.983 0.00 1.91555 0.28
3 0 4 2 o 1377.951 1154.540 180.00 1.91956 0.03
4 4 1 2 o 2525.683 2980.983 0.00 1.91555 0.10
1 4 4 1 o 3060.872 3965.530 0.00 1.90562 0.26
4 1 3 1 o 8640.706 9651.989 180.00 1.90458 0.64
1 4 4 2 o 3875.459 3965.530 0.00 1.90562 0.16
3 1 4 1 o 17225.719 17164.510 180.00 1.90001 1.34
4 1 3 2 o 9725.288 9651.989 180.00 1.90458 0.37
3 1 4 2 o 16744.920 17164.510 180.00 1.90001 0.64
0 1 5 1 o 111235.73 114841.60 180.00 1.89418 3.81
0 1 5 2 o 106571.40 114841.60 180.00 1.89418 1.79
3 5 2 1 o 35908.66 37362.13 0.00 1.88744 2.70
2 5 3 1 o 25957.305 25586.818 0.00 1.88426 1.97
3 5 2 2 o 38237.37 37362.13 0.00 1.88744 1.45
2 5 3 2 o 26001.666 25586.818 0.00 1.88426 0.98
5 1 1 1 o 159.431 159.817 180.00 1.87352 0.00
3 4 3 1 o 18272.059 19172.947 0.00 1.87389 1.44
5 1 1 2 o 161.125 159.817 180.00 1.87352 0.00
3 4 3 2 o 21110.242 19172.947 0.00 1.87389 0.84
0 7 1 1 o 39314.83 35800.14 0.00 1.86952 1.83
0 7 1 2 o 39557.44 35800.14 0.00 1.86952 0.92
2 6 2 1 o 18016.924 18965.000 180.00 1.86076 1.30
1 1 5 1 o 30496.594 32825.406 180.00 1.85872 1.99
2 6 2 2 o 17026.678 18965.000 180.00 1.86076 0.60
1 1 5 2 o 29579.156 32825.406 180.00 1.85872 0.95
4 2 3 1 o 6529.063 7330.117 0.00 1.84892 0.48
3 2 4 1 o 35674.39 35858.21 180.00 1.84473 2.47
4 2 3 2 o 7318.248 7330.117 0.00 1.84892 0.27
3 2 4 2 o 35133.84 35858.21 180.00 1.84473 1.21
1 7 1 1 o 26028.293 27256.248 0.00 1.83540 2.20
1 7 1 2 o 25661.404 27256.248 0.00 1.83540 1.08
5 2 1 1 o 78931.53 77827.99 180.00 1.82046 5.47
5 2 1 2 o 77853.95 77827.99 180.00 1.82046 2.68
4 4 2 1 o 111698.84 108885.88 0.00 1.80982 8.02
1 2 5 1 o 30009.910 29647.879 180.00 1.80688 2.25
4 4 2 2 o 111241.33 108885.88 0.00 1.80982 3.97
2 4 4 1 o 46626.32 46266.74 180.00 1.80311 3.54
1 2 5 2 o 29823.297 29647.879 180.00 1.80688 1.11
2 4 4 2 o 47923.95 46266.74 180.00 1.80311 1.82
3 6 1 1 o 39597.36 38093.75 0.00 1.79688 3.23
3 6 1 2 o 38963.87 38093.75 0.00 1.79688 1.58
1 6 3 1 o 79176.27 77426.84 180.00 1.79250 6.15
5 0 2 1 o 7131.738 7326.505 180.00 1.79014 0.21
4 5 0 1 o 7186.813 7413.143 0.00 1.78986 0.23
1 6 3 2 o 75727.12 77426.84 180.00 1.79250 2.91
5 0 2 2 o 7063.414 7326.505 180.00 1.79014 0.10
4 5 0 2 o 6991.604 7413.143 0.00 1.78986 0.11
5 1 2 1 o 71605.89 65566.86 180.00 1.77425 4.40
2 7 0 1 o 4130.458 3746.162 180.00 1.77296 0.18
5 1 2 2 o 69883.87 65566.86 180.00 1.77425 2.13
2 7 0 2 o 4116.646 3746.162 180.00 1.77296 0.09
4 3 3 1 o 95938.11 93468.40 180.00 1.76609 5.95
2 1 5 1 o 8324.926 8259.914 0.00 1.76322 0.50
3 3 4 1 o 1663.840 1647.737 180.00 1.76244 0.10
4 3 3 2 o 95042.74 93468.40 180.00 1.76609 2.93
4 5 1 1 o 20400.447 20361.568 180.00 1.75934 1.36
2 1 5 2 o 8269.645 8259.914 0.00 1.76322 0.25
3 3 4 2 o 1669.494 1647.737 180.00 1.76244 0.05
0 3 5 1 o 64829.03 63586.10 0.00 1.75779 2.06
4 5 1 2 o 19430.883 20361.568 180.00 1.75934 0.64
0 3 5 2 o 60459.53 63586.10 0.00 1.75779 0.94
1 5 4 1 o 20419.941 22017.242 180.00 1.75164 1.36
1 5 4 2 o 20423.918 22017.242 180.00 1.75164 0.68
2 7 1 1 o 45508.23 47357.23 0.00 1.74328 3.15
5 3 1 1 o 1330.967 1443.794 0.00 1.74124 0.06
1 7 2 1 o 32.526 34.749 0.00 1.74178 0.00
2 7 1 2 o 43309.15 47357.23 0.00 1.74328 1.47
5 3 1 2 o 1250.239 1443.794 0.00 1.74124 0.03
1 7 2 2 o 31.290 34.749 0.00 1.74178 0.00
1 3 5 1 o 6047.198 6224.456 180.00 1.72934 0.34
5 2 2 1 o 11638.534 11876.581 0.00 1.72899 0.68
3 5 3 1 o 8592.188 9059.064 0.00 1.72689 0.62
1 3 5 2 o 6212.385 6224.456 180.00 1.72934 0.18
5 2 2 2 o 11760.007 11876.581 0.00 1.72899 0.34
2 2 5 1 o 144416.50 144123.09 0.00 1.71878 8.39
3 5 3 2 o 8124.250 9059.064 0.00 1.72689 0.29
2 2 5 2 o 135517.67 144123.09 0.00 1.71878 3.87
3 6 2 1 o 12535.936 13176.070 0.00 1.70875 0.76
2 6 3 1 o 12158.906 12652.043 180.00 1.70639 0.75
3 6 2 2 o 12484.649 13176.070 0.00 1.70875 0.38
2 6 3 2 o 12841.888 12652.043 180.00 1.70639 0.40
4 0 4 1 o 325326.69 318009.94 0.00 1.69875 9.38
4 0 4 2 o 307030.38 318009.94 0.00 1.69875 4.36
4 1 4 1 o 17718.170 17671.836 0.00 1.68515 1.09
4 1 4 2 o 18377.619 17671.836 0.00 1.68515 0.56
4 5 2 1 o 4290.859 4791.946 0.00 1.67637 0.30
4 5 2 2 o 5101.530 4791.946 0.00 1.67637 0.18
2 5 4 1 o 109996.24 108376.00 180.00 1.67103 6.42
0 8 0 1 o 278230.63 271065.00 0.00 1.66798 4.93
4 4 3 1 o 120.698 120.238 180.00 1.66685 0.01
2 5 4 2 o 108984.87 108376.00 180.00 1.67103 3.16
3 4 4 1 o 62834.67 63557.35 180.00 1.66378 3.52
0 8 0 2 o 267326.88 271065.00 0.00 1.66798 2.34
4 4 3 2 o 119.937 120.238 180.00 1.66685 0.00
2 7 2 1 o 784.615 789.333 0.00 1.66246 0.07
5 3 2 1 o 21160.064 21606.049 180.00 1.66069 1.16
3 4 4 2 o 63443.44 63557.35 180.00 1.66378 1.77
2 7 2 2 o 764.365 789.333 0.00 1.66246 0.03
5 3 2 2 o 21657.576 21606.049 180.00 1.66069 0.59
2 3 5 1 o 30441.828 32351.102 0.00 1.65164 1.64
2 3 5 2 o 31182.678 32351.102 0.00 1.65164 0.84
4 2 4 1 o 9055.346 8685.708 0.00 1.64623 0.51
5 4 1 1 o 8159.911 7721.037 0.00 1.64591 0.44
4 2 4 2 o 9557.551 8685.708 0.00 1.64623 0.27
5 4 1 2 o 8644.151 7721.037 0.00 1.64591 0.23
5 1 3 1 o 72639.99 63309.80 180.00 1.63893 4.06
0 7 3 1 o 126108.18 126213.80 180.00 1.63625 3.86
1 4 5 1 o 289.448 289.966 0.00 1.63585 0.01
4 6 0 1 o 2042.407 2016.398 180.00 1.63533 0.06
5 1 3 2 o 65532.72 63309.80 180.00 1.63893 1.80
3 1 5 1 o 15994.353 15829.536 0.00 1.63229 0.87
0 7 3 2 o 127465.14 126213.80 180.00 1.63625 1.95
1 4 5 2 o 292.202 289.966 0.00 1.63585 0.01
4 6 0 2 o 2024.531 2016.398 180.00 1.63533 0.03
0 6 4 1 o 8202.533 7909.833 180.00 1.62873 0.24
3 1 5 2 o 16654.459 15829.536 0.00 1.63229 0.45
0 6 4 2 o 8323.172 7909.833 180.00 1.62873 0.12
1 8 1 1 o 32432.670 30108.021 0.00 1.61989 2.13
3 7 1 1 o 60037.90 59985.22 0.00 1.61643 3.58
1 8 1 2 o 30267.846 30108.021 0.00 1.61989 0.98
1 7 3 1 o 12462.536 12381.979 0.00 1.61324 0.70
3 7 1 2 o 60340.38 59985.22 0.00 1.61643 1.79
4 6 1 1 o 3499.890 3432.727 0.00 1.61196 0.20
6 0 0 1 o 83300.23 77837.49 180.00 1.60866 0.99
1 7 3 2 o 13034.350 12381.979 0.00 1.61324 0.37
4 6 1 2 o 3668.094 3432.727 0.00 1.61196 0.10
1 6 4 1 o 35002.262 35639.67 0.00 1.60603 1.92
6 0 0 2 o 76056.11 77837.49 180.00 1.60866 0.44
5 2 3 1 o 56212.56 58160.39 180.00 1.60306 2.59
1 6 4 2 o 34287.668 35639.67 0.00 1.60603 0.93
5 2 3 2 o 55557.74 58160.39 180.00 1.60306 1.27
6 1 0 1 o 118938.49 118751.60 0.00 1.59710 3.06
3 2 5 1 o 1425.902 1401.262 180.00 1.59684 0.12
0 0 6 1 o 38032.90 39380.43 180.00 1.59463 0.50
6 1 0 2 o 114849.64 118751.60 0.00 1.59710 1.46
3 2 5 2 o 1337.258 1401.262 180.00 1.59684 0.06
0 0 6 2 o 35723.65 39380.43 180.00 1.59463 0.23
4 3 4 1 o 7399.626 7612.053 0.00 1.58695 0.42
3 6 3 1 o 3823.885 3888.211 0.00 1.58689 0.14
4 3 4 2 o 7719.832 7612.053 0.00 1.58695 0.22
3 6 3 2 o 3934.466 3888.211 0.00 1.58689 0.07
5 4 2 1 o 46822.04 47172.39 0.00 1.57738 2.34
2 8 0 1 o 2103.704 2109.803 180.00 1.57647 0.03
6 1 1 1 o 4289.062 4424.478 0.00 1.57530 0.17
0 8 2 1 o 19043.182 19867.268 0.00 1.57499 0.46
5 4 2 2 o 43220.14 47172.39 0.00 1.57738 1.06
1 0 6 1 o 4042.195 4464.055 180.00 1.57330 0.11
2 8 0 2 o 2022.962 2109.803 180.00 1.57647 0.01
6 1 1 2 o 4045.794 4424.478 0.00 1.57530 0.08
0 8 2 2 o 18105.705 19867.268 0.00 1.57499 0.21
2 4 5 1 o 26700.818 29208.295 180.00 1.56962 1.30
1 0 6 2 o 4045.555 4464.055 180.00 1.57330 0.05
2 4 5 2 o 27034.686 29208.295 180.00 1.56962 0.66
6 2 0 1 o 27349.486 27211.482 180.00 1.56385 0.65
1 1 6 1 o 25436.633 25101.445 180.00 1.56248 1.16
4 5 3 1 o 35394.79 36107.98 180.00 1.56085 1.75
6 2 0 2 o 26441.541 27211.482 180.00 1.56385 0.31
1 1 6 2 o 24591.453 25101.445 180.00 1.56248 0.55
3 5 4 1 o 4216.751 4254.568 0.00 1.55833 0.19
4 5 3 2 o 38719.27 36107.98 180.00 1.56085 0.97
2 8 1 1 o 53317.84 49834.63 180.00 1.55550 3.00
0 5 5 1 o 1586.072 1499.018 180.00 1.55511 0.04
3 5 4 2 o 4468.793 4254.568 0.00 1.55833 0.10
1 8 2 1 o 32917.820 31293.053 0.00 1.55443 1.80
2 8 1 2 o 50299.72 49834.63 180.00 1.55550 1.39
0 5 5 2 o 1497.537 1499.018 180.00 1.55511 0.02
3 7 2 1 o 35.552 35.427 0.00 1.55138 0.00
0 2 6 1 o 15823.072 16069.357 0.00 1.55095 0.35
1 8 2 2 o 30261.061 31293.053 0.00 1.55443 0.81
2 7 3 1 o 23928.512 26066.014 0.00 1.54961 1.28
5 3 3 1 o 6989.565 7504.799 0.00 1.54817 0.37
4 6 2 1 o 19490.420 20825.424 0.00 1.54742 1.01
3 7 2 2 o 31.935 35.427 0.00 1.55138 0.00
0 2 6 2 o 15031.127 16069.357 0.00 1.55095 0.16
2 7 3 2 o 24468.523 26066.014 0.00 1.54961 0.66
5 3 3 2 o 7217.120 7504.799 0.00 1.54817 0.19
5 5 1 1 o 2578.235 2707.763 180.00 1.54362 0.16
6 2 1 1 o 64585.61 67206.41 0.00 1.54337 2.92
4 6 2 2 o 19995.908 20825.424 0.00 1.54742 0.52
2 6 4 1 o 30211.680 31453.328 180.00 1.54322 1.53
3 3 5 1 o 25274.186 26160.092 0.00 1.54257 1.08
5 5 1 2 o 2444.495 2707.763 180.00 1.54362 0.07
6 2 1 2 o 62846.27 67206.41 0.00 1.54337 1.41
2 6 4 2 o 29670.561 31453.328 180.00 1.54322 0.74
3 3 5 2 o 25826.895 26160.092 0.00 1.54257 0.55
1 5 5 1 o 27572.514 28054.313 180.00 1.53531 1.39
1 5 5 2 o 28806.191 28054.313 180.00 1.53531 0.73
1 2 6 1 o 39239.38 38232.45 0.00 1.53130 1.75
1 2 6 2 o 39515.36 38232.45 0.00 1.53130 0.88
6 0 2 1 o 52332.48 53728.31 180.00 1.52476 1.19
6 0 2 2 o 50899.67 53728.31 180.00 1.52476 0.57
6 1 2 1 o 95.759 95.507 0.00 1.51490 0.00
2 0 6 1 o 28978.516 29346.629 180.00 1.51411 0.69
4 4 4 1 o 39320.63 40372.35 180.00 1.51378 1.92
6 3 0 1 o 45529.49 47674.67 0.00 1.51276 1.10
6 1 2 2 o 95.095 95.507 0.00 1.51490 0.00
2 0 6 2 o 27594.543 29346.629 180.00 1.51411 0.32
4 4 4 2 o 37899.30 40372.35 180.00 1.51378 0.91
6 3 0 2 o 45630.73 47674.67 0.00 1.51276 0.55
2 1 6 1 o 23535.320 23904.729 0.00 1.50446 0.97
5 0 4 1 o 1587.405 1539.662 0.00 1.50221 0.03
2 1 6 2 o 24080.336 23904.729 0.00 1.50446 0.50
5 0 4 2 o 1486.144 1539.662 0.00 1.50221 0.01
2 8 2 1 o 52061.09 55933.85 180.00 1.49727 2.85
4 7 0 1 o 3285.132 3267.995 180.00 1.49581 0.10
6 3 1 1 o 74423.88 76787.32 0.00 1.49420 3.19
2 8 2 2 o 53549.00 55933.85 180.00 1.49727 1.46
5 1 4 1 o 9072.529 9265.718 180.00 1.49278 0.37
4 7 0 2 o 3229.963 3267.995 180.00 1.49581 0.05
6 3 1 2 o 74447.00 76787.32 0.00 1.49420 1.59
4 1 5 1 o 6736.096 6780.303 0.00 1.48995 0.27
5 1 4 2 o 9524.422 9265.718 180.00 1.49278 0.20
5 5 2 1 o 94419.17 98215.06 0.00 1.48666 4.18
6 2 2 1 o 17022.990 17618.297 180.00 1.48644 0.68
4 1 5 2 o 6567.677 6780.303 0.00 1.48995 0.13
1 3 6 1 o 10737.675 10959.063 180.00 1.48325 0.47
5 5 2 2 o 97200.63 98215.06 0.00 1.48666 2.16
6 2 2 2 o 17609.150 17618.297 180.00 1.48644 0.35
5 4 3 1 o 18358.002 17826.748 0.00 1.48002 0.80
2 5 5 1 o 23353.580 22687.141 0.00 1.48016 1.08
1 3 6 2 o 11301.815 10959.063 180.00 1.48325 0.25
4 7 1 1 o 216337.89 216495.39 180.00 1.47786 10.27
2 2 6 1 o 6222.618 6192.959 180.00 1.47657 0.26
5 4 3 2 o 17913.373 17826.748 0.00 1.48002 0.39
2 5 5 2 o 22801.072 22687.141 0.00 1.48016 0.52
3 4 5 1 o 575.532 577.136 180.00 1.47512 0.03
4 7 1 2 o 217364.45 216495.39 180.00 1.47786 5.14
2 2 6 2 o 6486.604 6192.959 180.00 1.47657 0.13
1 7 4 1 o 85.183 81.559 0.00 1.47329 0.00
3 4 5 2 o 585.695 577.136 180.00 1.47512 0.01
1 7 4 2 o 93.609 81.559 0.00 1.47329 0.00
5 2 4 1 o 18816.486 15956.445 0.00 1.46552 0.79
0 9 1 1 o 68007.57 58623.99 180.00 1.46516 1.76
3 8 1 1 o 8372.152 7551.804 180.00 1.46338 0.39
4 2 5 1 o 6858.679 6216.562 0.00 1.46284 0.28
5 2 4 2 o 17433.605 15956.445 0.00 1.46552 0.36
0 9 1 2 o 63685.02 58623.99 180.00 1.46516 0.81
1 8 3 1 o 32327.938 29940.652 0.00 1.46101 1.52
3 8 1 2 o 8001.528 7551.804 180.00 1.46338 0.19
4 2 5 2 o 6371.370 6216.562 0.00 1.46284 0.13
3 7 3 1 o 93761.89 95046.66 0.00 1.45847 4.10
1 8 3 2 o 29670.908 29940.652 0.00 1.46101 0.68
4 6 3 1 o 198.127 198.581 180.00 1.45518 0.01
3 7 3 2 o 95818.58 95046.66 0.00 1.45847 2.10
3 6 4 1 o 1570.832 1331.245 180.00 1.45314 0.07
4 6 3 2 o 272.818 198.581 180.00 1.45518 0.01
3 6 4 2 o 1747.222 1331.245 180.00 1.45314 0.04
6 4 0 1 o 6804.254 5234.149 180.00 1.44899 0.16
1 9 1 1 o 4333.732 3287.993 180.00 1.44857 0.21
6 4 0 2 o 8505.629 5234.149 180.00 1.44899 0.10
1 9 1 2 o 4752.615 3287.993 180.00 1.44857 0.12
6 3 2 1 o 780.293 641.000 180.00 1.44237 0.05
5 6 1 1 o 35831.45 35008.016 0.00 1.44119 1.63
6 3 2 2 o 610.752 641.000 180.00 1.44237 0.02
0 4 6 1 o 151183.69 155066.58 0.00 1.43871 3.29
5 6 1 2 o 36119.25 35008.016 0.00 1.44119 0.82
0 4 6 2 o 155990.39 155066.58 0.00 1.43871 1.70
1 6 5 1 o 14908.933 13727.113 0.00 1.43442 0.75
2 3 6 1 o 2719.229 2592.093 0.00 1.43334 0.09
4 5 4 1 o 16982.168 15927.129 180.00 1.43306 0.77
6 4 1 1 o 19314.555 17843.262 180.00 1.43265 0.81
1 6 5 2 o 14527.048 13727.113 0.00 1.43442 0.36
2 3 6 2 o 2585.828 2592.093 0.00 1.43334 0.04
4 5 4 2 o 15762.757 15927.129 180.00 1.43306 0.35
6 4 1 2 o 17854.430 17843.262 180.00 1.43265 0.37
3 0 6 1 o 141627.42 138376.88 180.00 1.42876 2.71
6 1 3 1 o 42236.92 39903.68 0.00 1.42804 1.66
4 7 2 1 o 5040.283 4671.185 0.00 1.42765 0.28
3 0 6 2 o 137539.64 138376.88 180.00 1.42876 1.30
6 1 3 2 o 40305.17 39903.68 0.00 1.42804 0.78
2 7 4 1 o 147.541 145.368 180.00 1.42435 0.01
4 7 2 2 o 4685.826 4671.185 0.00 1.42765 0.13
5 3 4 1 o 149.877 153.468 180.00 1.42323 0.00
1 4 6 1 o 100869.63 105544.56 0.00 1.42299 3.98
4 3 5 1 o 162269.75 166303.64 180.00 1.42078 6.25
3 1 6 1 o 16406.367 16662.285 0.00 1.42064 0.63
2 7 4 2 o 138.506 145.368 180.00 1.42435 0.01
5 3 4 2 o 154.727 153.468 180.00 1.42323 0.00
1 4 6 2 o 107156.01 105544.56 0.00 1.42299 2.13
4 3 5 2 o 174333.67 166303.64 180.00 1.42078 3.39
3 1 6 2 o 17811.025 16662.285 0.00 1.42064 0.35
2 9 0 1 o 119297.14 113630.88 180.00 1.41727 2.81
3 8 2 1 o 8883.874 7773.276 0.00 1.41459 0.39
2 9 0 2 o 128637.28 113630.88 180.00 1.41727 1.53
2 8 3 1 o 19094.082 16191.351 0.00 1.41324 0.88
3 8 2 2 o 9437.999 7773.276 0.00 1.41459 0.21
2 8 3 2 o 20250.371 16191.351 0.00 1.41324 0.47
5 5 3 1 o 16.240 0.148 0.00 1.40431 0.00
6 2 3 1 o 20335.502 17167.984 180.00 1.40413 0.78
2 9 1 1 o 32795.691 30337.043 0.00 1.40197 1.53
5 5 3 2 o 11.432 0.148 0.00 1.40431 0.00
6 2 3 2 o 19768.152 17167.984 180.00 1.40413 0.38
1 9 2 1 o 58955.16 53122.69 0.00 1.40119 2.69
3 5 5 1 o 12663.606 11039.883 0.00 1.40013 0.46
2 9 1 2 o 32631.572 30337.043 0.00 1.40197 0.76
1 9 2 2 o 61358.13 53122.69 0.00 1.40119 1.41
3 2 6 1 o 11737.817 9373.099 180.00 1.39709 0.45
3 5 5 2 o 13841.507 11039.883 0.00 1.40013 0.26
5 6 2 1 o 682.276 541.123 180.00 1.39451 0.03
3 2 6 2 o 12064.979 9373.099 180.00 1.39709 0.23
5 6 2 2 o 608.584 541.123 180.00 1.39451 0.01
2 6 5 1 o 70628.65 72977.52 180.00 1.38913 2.81
6 4 2 1 o 11803.606 11312.586 180.00 1.38677 0.41
2 6 5 2 o 77047.20 72977.52 180.00 1.38913 1.55
6 4 2 2 o 14827.124 11312.586 180.00 1.38677 0.27
2 4 6 1 o 1555.748 1535.781 0.00 1.37874 0.10
6 5 0 1 o 131494.22 129386.60 180.00 1.37773 2.59
2 4 6 2 o 1690.379 1535.781 0.00 1.37874 0.05
6 5 0 2 o 139298.33 129386.60 180.00 1.37773 1.38
4 8 0 1 o 2071.132 1612.348 0.00 1.37208 0.06
5 4 4 1 o 22978.486 18896.545 0.00 1.36974 0.84
4 8 0 2 o 2359.519 1612.348 0.00 1.37208 0.03
0 8 4 1 o 1188.040 773.563 0.00 1.36817 0.04
4 4 5 1 o 3022.474 2564.918 180.00 1.36755 0.12
6 3 3 1 o 14371.174 12546.630 0.00 1.36680 0.54
5 4 4 2 o 22069.162 18896.545 0.00 1.36974 0.40
0 8 4 2 o 981.024 773.563 0.00 1.36817 0.02
4 4 5 2 o 2615.986 2564.918 180.00 1.36755 0.05
6 5 1 1 o 42284.06 42790.37 0.00 1.36366 1.59
6 3 3 2 o 12532.969 12546.630 0.00 1.36680 0.23
3 3 6 1 o 3860.551 4077.955 0.00 1.36031 0.14
6 5 1 2 o 40480.87 42790.37 0.00 1.36366 0.75
0 1 7 1 o 2519.120 2520.789 180.00 1.35971 0.04
2 9 2 1 o 8541.879 8185.143 180.00 1.35889 0.38
4 8 1 1 o 7657.997 7132.785 180.00 1.35818 0.34
7 1 1 1 o 546.914 537.647 180.00 1.35767 0.01
3 3 6 2 o 4178.659 4077.955 0.00 1.36031 0.07
0 1 7 2 o 2580.301 2520.789 180.00 1.35971 0.02
1 5 6 1 o 37754.07 37687.44 0.00 1.35532 1.37
2 9 2 2 o 8211.763 8185.143 180.00 1.35889 0.18
4 8 1 2 o 7289.453 7132.785 180.00 1.35818 0.16
7 1 1 2 o 548.243 537.647 180.00 1.35767 0.00
1 8 4 1 o 23987.709 23167.455 0.00 1.35463 0.95
4 7 3 1 o 124.043 114.167 0.00 1.35426 0.01
3 7 4 1 o 229.076 225.553 0.00 1.35261 0.01
5 1 5 1 o 9813.691 9651.295 180.00 1.35201 0.32
1 5 6 2 o 38355.25 37687.44 0.00 1.35532 0.70
1 8 4 2 o 23496.271 23167.455 0.00 1.35463 0.46
4 7 3 2 o 115.441 114.167 0.00 1.35426 0.00
0 7 5 1 o 203436.56 202521.38 180.00 1.35050 3.93
4 6 4 1 o 76117.04 75508.96 0.00 1.34998 2.72
3 7 4 2 o 229.441 225.553 0.00 1.35261 0.01
5 1 5 2 o 9738.785 9651.295 180.00 1.35201 0.16
0 7 5 2 o 198875.42 202521.38 180.00 1.35050 1.90
4 6 4 2 o 75874.87 75508.96 0.00 1.34998 1.35
1 1 7 1 o 80255.60 78955.84 180.00 1.34641 2.72
0 9 3 1 o 11440.497 11598.453 180.00 1.34447 0.23
1 1 7 2 o 76880.41 78955.84 180.00 1.34641 1.28
5 7 1 1 o 8234.560 8349.372 180.00 1.34295 0.28
3 8 3 1 o 25283.084 25981.779 180.00 1.34309 1.03
0 9 3 2 o 11467.746 11598.453 180.00 1.34447 0.12
5 7 1 2 o 8349.089 8349.372 180.00 1.34295 0.14
3 8 3 2 o 25816.379 25981.779 180.00 1.34309 0.53
7 2 1 1 o 2801.585 2774.599 0.00 1.33707 0.09
1 7 5 1 o 39796.93 41422.48 180.00 1.33747 1.52
6 0 4 1 o 10.590 5.672 0.00 1.33486 0.00
7 2 1 2 o 3076.845 2774.599 0.00 1.33707 0.05
1 7 5 2 o 46855.20 41422.48 180.00 1.33747 0.92
0 10 0 1 o 19750.498 17395.504 180.00 1.33438 0.21
3 9 1 1 o 1150.023 980.060 0.00 1.33340 0.07
5 2 5 1 o 2436.331 2263.067 0.00 1.33166 0.07
6 0 4 2 o 7.901 5.672 0.00 1.33486 0.00
1 9 3 1 o 21230.367 19512.738 180.00 1.33161 0.87
0 10 0 2 o 18712.559 17395.504 180.00 1.33438 0.10
4 0 6 1 o 70621.80 65796.51 0.00 1.33037 1.16
3 9 1 2 o 1087.813 980.060 0.00 1.33340 0.03
5 2 5 2 o 2363.019 2263.067 0.00 1.33166 0.03
6 1 4 1 o 34995.172 33398.383 180.00 1.32823 1.11
1 9 3 2 o 20517.000 19512.738 180.00 1.33161 0.42
4 0 6 2 o 66018.90 65796.51 0.00 1.33037 0.53
1 2 7 1 o 23346.785 23754.098 180.00 1.32631 0.65
5 6 3 1 o 21688.318 22204.916 0.00 1.32587 0.69
6 1 4 2 o 33144.508 33398.383 180.00 1.32823 0.51
7 0 2 1 o 114046.75 114626.26 180.00 1.32492 1.85
6 5 2 1 o 363.322 362.442 180.00 1.32392 0.01
4 1 6 1 o 85.720 85.676 0.00 1.32381 0.00
1 2 7 2 o 23326.391 23754.098 180.00 1.32631 0.32
5 6 3 2 o 21497.568 22204.916 0.00 1.32587 0.34
3 6 5 1 o 58.996 67.668 0.00 1.32235 0.01
7 0 2 2 o 115927.84 114626.26 180.00 1.32492 0.94
6 5 2 2 o 379.792 362.442 180.00 1.32392 0.00
4 1 6 2 o 87.829 85.676 0.00 1.32381 0.00
6 4 3 1 o 7577.711 7117.132 0.00 1.31922 0.28
3 6 5 2 o 80.331 67.668 0.00 1.32235 0.00
4 8 2 1 o 2573.367 2487.061 0.00 1.31890 0.07
7 1 2 1 o 14303.935 13566.767 0.00 1.31843 0.51
2 5 6 1 o 42563.72 43818.06 180.00 1.31693 1.47
6 4 3 2 o 6811.554 7117.132 0.00 1.31922 0.12
2 8 4 1 o 8321.628 8564.015 180.00 1.31630 0.25
4 8 2 2 o 2414.256 2487.061 0.00 1.31890 0.03
7 1 2 2 o 13030.005 13566.767 0.00 1.31843 0.23
2 5 6 2 o 42870.18 43818.06 180.00 1.31693 0.74
3 4 6 1 o 3304.532 3397.883 0.00 1.31337 0.11
2 8 4 2 o 8348.073 8564.015 180.00 1.31630 0.13
3 4 6 2 o 2986.571 3397.883 0.00 1.31337 0.05
5 5 4 1 o 7316.109 8139.888 0.00 1.30907 0.22
6 2 4 1 o 19540.918 21904.832 180.00 1.30892 0.61
1 10 1 1 o 667.257 724.026 0.00 1.30937 0.02
2 1 7 1 o 1485.446 1655.134 0.00 1.30876 0.04
4 5 5 1 o 18324.227 20424.141 180.00 1.30716 0.58
0 3 7 1 o 3566.027 4102.413 180.00 1.30653 0.06
5 5 4 2 o 6943.364 8139.888 0.00 1.30907 0.10
6 2 4 2 o 18478.777 21904.832 180.00 1.30892 0.28
1 10 1 2 o 652.254 724.026 0.00 1.30937 0.01
2 1 7 2 o 1425.019 1655.134 0.00 1.30876 0.02
7 3 1 1 o 20199.418 22166.311 0.00 1.30472 0.57
5 7 2 1 o 1837.015 2115.901 180.00 1.30494 0.08
4 2 6 1 o 179.757 192.559 0.00 1.30469 0.00
4 5 5 2 o 18609.254 20424.141 180.00 1.30716 0.29
6 6 0 1 o 74589.91 83892.59 180.00 1.30342 1.30
0 3 7 2 o 3636.160 4102.413 180.00 1.30653 0.03
7 3 1 2 o 18994.936 22166.311 0.00 1.30472 0.26
5 7 2 2 o 1722.715 2115.901 180.00 1.30494 0.04
4 2 6 2 o 171.563 192.559 0.00 1.30469 0.00
2 7 5 1 o 2557.740 3057.688 0.00 1.30054 0.08
6 6 0 2 o 69943.05 83892.59 180.00 1.30342 0.60
5 3 5 1 o 29389.748 34750.590 180.00 1.29969 0.97
7 2 2 1 o 33.960 38.168 0.00 1.29954 0.00
2 7 5 2 o 2425.829 3057.688 0.00 1.30054 0.04
5 3 5 2 o 31448.527 34750.590 180.00 1.29969 0.52
7 2 2 2 o 36.025 38.168 0.00 1.29954 0.00
3 9 2 1 o 13369.920 14212.014 180.00 1.29618 0.44
0 6 6 1 o 250.382 258.739 180.00 1.29593 0.00
2 9 3 1 o 12809.723 14224.788 0.00 1.29515 0.44
1 3 7 1 o 2160.665 2430.820 0.00 1.29472 0.07
3 9 2 2 o 13400.899 14212.014 180.00 1.29618 0.22
0 6 6 2 o 246.860 258.739 180.00 1.29593 0.00
2 9 3 2 o 12625.988 14224.788 0.00 1.29515 0.22
1 3 7 2 o 2172.635 2430.820 0.00 1.29472 0.04
6 6 1 1 o 30852.920 34284.152 180.00 1.29149 1.03
2 2 7 1 o 1674.226 1885.664 0.00 1.29027 0.07
6 6 1 2 o 30879.189 34284.152 180.00 1.29149 0.51
2 2 7 2 o 1855.370 1885.664 0.00 1.29027 0.04
2 10 0 1 o 27387.107 31064.289 180.00 1.28612 0.49
0 10 2 1 o 3962.157 5218.117 0.00 1.28532 0.06
1 6 6 1 o 795.890 1317.477 0.00 1.28440 0.02
2 10 0 2 o 23348.533 31064.289 180.00 1.28612 0.19
0 10 2 2 o 3562.599 5218.117 0.00 1.28532 0.03
1 6 6 2 o 616.497 1317.477 0.00 1.28440 0.01
6 3 4 1 o 5201.966 5413.971 180.00 1.27853 0.13
6 3 4 2 o 5360.339 5413.971 180.00 1.27853 0.07
4 3 6 1 o -0.528 0.243 180.00 1.27458 0.00
4 3 6 2 o -1.643 0.243 180.00 1.27458 0.00
2 10 1 1 o 12762.101 13123.946 180.00 1.27466 0.50
2 10 1 2 o 12268.208 13123.946 180.00 1.27466 0.24
1 10 2 1 o 22111.734 22935.539 180.00 1.27407 0.85
1 10 2 2 o 20918.490 22935.539 180.00 1.27407 0.40
7 3 2 1 o 2229.821 2716.533 0.00 1.26978 0.07
4 7 4 1 o 815.529 1058.721 180.00 1.26824 0.04
7 3 2 2 o 2493.345 2716.533 0.00 1.26978 0.04
4 7 4 2 o 1048.698 1058.721 180.00 1.26824 0.02
6 5 3 1 o 14588.774 14652.350 0.00 1.26476 0.46
7 4 1 1 o 3351.834 4114.501 180.00 1.26314 0.12
4 9 0 1 o 5996.841 7143.614 180.00 1.26324 0.10
6 5 3 2 o 13285.728 14652.350 0.00 1.26476 0.20
2 3 7 1 o 4133.362 4596.409 0.00 1.26113 0.13
4 8 3 1 o 2037.943 2264.015 0.00 1.26039 0.08
7 1 3 1 o 11099.870 12348.779 180.00 1.25998 0.36
7 4 1 2 o 3678.905 4114.501 180.00 1.26314 0.06
4 9 0 2 o 6491.364 7143.614 180.00 1.26324 0.06
3 5 6 1 o 10349.095 11449.591 180.00 1.25961 0.30
3 8 4 1 o 2378.353 2701.844 180.00 1.25906 0.09
5 4 5 1 o 1983.903 2261.759 180.00 1.25857 0.07
2 3 7 2 o 4068.029 4596.409 0.00 1.26113 0.06
6 6 2 1 o 20648.965 22711.045 180.00 1.25758 0.63
4 8 3 2 o 2063.606 2264.015 0.00 1.26039 0.04
7 1 3 2 o 11310.097 12348.779 180.00 1.25998 0.18
3 5 6 2 o 10531.539 11449.591 180.00 1.25961 0.15
3 8 4 2 o 2442.832 2701.844 180.00 1.25906 0.04
5 4 5 2 o 2010.091 2261.759 180.00 1.25857 0.03
6 6 2 2 o 21126.451 22711.045 180.00 1.25758 0.32
1 4 7 1 o 13867.253 14798.642 0.00 1.25406 0.43
3 1 7 1 o 506.139 561.974 180.00 1.25245 0.02
4 9 1 1 o 7762.068 8504.768 180.00 1.25237 0.27
2 6 6 1 o 8707.375 9760.977 180.00 1.25159 0.27
5 8 1 1 o 19372.092 21588.162 180.00 1.25126 0.63
1 4 7 2 o 13413.230 14798.642 0.00 1.25406 0.21
3 1 7 2 o 536.441 561.974 180.00 1.25245 0.01
1 9 4 1 o 2810.177 2894.947 0.00 1.24958 0.08
4 9 1 2 o 8165.530 8504.768 180.00 1.25237 0.14
2 6 6 2 o 9190.571 9760.977 180.00 1.25159 0.14
5 7 3 1 o 47266.12 50264.67 180.00 1.24819 1.56
5 8 1 2 o 20335.885 21588.162 180.00 1.25126 0.34
1 8 5 1 o 594.421 603.320 180.00 1.24682 0.02
1 9 4 2 o 2877.640 2894.947 0.00 1.24958 0.04
3 7 5 1 o 4011.487 4254.944 0.00 1.24524 0.13
5 7 3 2 o 47312.86 50264.67 180.00 1.24819 0.78
5 6 4 1 o 1428.612 1488.716 0.00 1.24484 0.04
7 2 3 1 o 9125.085 8507.588 0.00 1.24346 0.28
1 8 5 2 o 631.375 603.320 180.00 1.24682 0.01
4 6 5 1 o 4875.125 4570.881 180.00 1.24319 0.16
3 7 5 2 o 3904.095 4254.944 0.00 1.24524 0.06
5 6 4 2 o 1343.029 1488.716 0.00 1.24484 0.02
2 10 2 1 o 26743.814 29786.822 180.00 1.24202 0.96
7 2 3 2 o 8547.646 8507.588 0.00 1.24346 0.13
3 9 3 1 o 327.539 328.720 180.00 1.24051 0.02
4 6 5 2 o 4625.772 4570.881 180.00 1.24319 0.07
6 4 4 1 o 50565.96 50343.55 180.00 1.23933 1.54
2 10 2 2 o 29442.141 29786.822 180.00 1.24202 0.54
3 9 3 2 o 296.635 328.720 180.00 1.24051 0.01
6 4 4 2 o 49787.23 50343.55 180.00 1.23933 0.75
3 2 7 1 o 43376.84 43905.69 0.00 1.23622 1.35
4 4 6 1 o 2350.663 2407.185 180.00 1.23573 0.05
3 2 7 2 o 41469.91 43905.69 0.00 1.23622 0.64
4 4 6 2 o 2276.250 2407.185 180.00 1.23573 0.02
7 4 2 1 o 37908.01 38362.40 0.00 1.23135 1.11
5 0 6 1 o 58351.99 61336.61 0.00 1.22941 0.83
6 7 0 1 o 1301.220 1399.597 180.00 1.22941 0.03
7 4 2 2 o 37427.86 38362.40 0.00 1.23135 0.54
5 0 6 2 o 61409.87 61336.61 0.00 1.22941 0.44
6 7 0 2 o 1402.245 1399.597 180.00 1.22941 0.02
6 1 5 1 o 30293.467 30203.953 0.00 1.22615 0.87
5 1 6 1 o 34456.691 34159.586 0.00 1.22423 1.00
2 4 7 1 o 208.573 201.178 0.00 1.22346 0.01
6 1 5 2 o 31791.021 30203.953 0.00 1.22615 0.46
3 10 1 1 o 8181.742 7400.982 180.00 1.22247 0.33
5 1 6 2 o 36187.84 34159.586 0.00 1.22423 0.53
4 9 2 1 o 539.762 503.721 180.00 1.22137 0.02
1 10 3 1 o 16234.570 15279.978 0.00 1.22109 0.63
2 4 7 2 o 215.856 201.178 0.00 1.22346 0.00
5 8 2 1 o 109.405 104.806 180.00 1.22034 0.00
6 7 1 1 o 2989.303 2856.907 0.00 1.21938 0.09
3 10 1 2 o 7833.698 7400.982 180.00 1.22247 0.16
2 9 4 1 o 69891.28 66863.25 0.00 1.21931 2.32
4 9 2 2 o 506.750 503.721 180.00 1.22137 0.01
1 10 3 2 o 15246.344 15279.978 0.00 1.22109 0.29
7 3 3 1 o 104123.69 105183.31 0.00 1.21731 3.02
5 8 2 2 o 104.081 104.806 180.00 1.22034 0.00
2 8 5 1 o 47112.08 48003.70 0.00 1.21674 1.45
0 5 7 1 o 2289.712 2337.995 180.00 1.21655 0.03
6 7 1 2 o 2796.681 2856.907 0.00 1.21938 0.04
2 9 4 2 o 65412.16 66863.25 0.00 1.21931 1.06
7 5 1 1 o 52.846 52.938 0.00 1.21509 0.00
7 3 3 2 o 101798.02 105183.31 0.00 1.21731 1.46
2 8 5 2 o 47929.27 48003.70 0.00 1.21674 0.74
0 5 7 2 o 2341.235 2337.995 180.00 1.21655 0.02
1 7 6 1 o 110.087 110.209 180.00 1.21340 0.00
7 5 1 2 o 52.819 52.938 0.00 1.21509 0.00
5 5 5 1 o 22344.152 22844.541 180.00 1.21103 0.69
6 2 5 1 o 64983.11 66320.59 180.00 1.21090 1.81
3 3 7 1 o 148585.73 153238.42 0.00 1.21052 4.25
1 7 6 2 o 106.045 110.209 180.00 1.21340 0.00
5 2 6 1 o 12775.192 13321.560 0.00 1.20906 0.36
5 5 5 2 o 22368.521 22844.541 180.00 1.21103 0.35
6 2 5 2 o 65284.57 66320.59 180.00 1.21090 0.90
3 3 7 2 o 151998.98 153238.42 0.00 1.21052 2.18
1 5 7 1 o 7158.058 7176.264 180.00 1.20700 0.19
8 0 0 1 o 147832.48 147369.13 0.00 1.20650 1.01
6 6 3 1 o 10712.677 10679.948 0.00 1.20655 0.32
5 2 6 2 o 13296.668 13321.560 0.00 1.20906 0.19
1 5 7 2 o 7336.375 7176.264 180.00 1.20700 0.10
8 0 0 2 o 145163.86 147369.13 0.00 1.20650 0.49
6 6 3 2 o 10553.370 10679.948 0.00 1.20655 0.16
0 11 1 1 o 134329.58 137166.02 180.00 1.20344 2.34
3 6 6 1 o 54606.62 55983.38 180.00 1.20207 1.56
8 1 0 1 o 21989.877 22838.250 0.00 1.20159 0.32
0 11 1 2 o 130706.14 137166.02 180.00 1.20344 1.13
3 6 6 2 o 54400.54 55983.38 180.00 1.20207 0.77
8 1 0 2 o 23168.561 22838.250 0.00 1.20159 0.17
0 0 8 1 o 57895.78 54187.34 0.00 1.19597 0.42
7 0 4 1 o 50230.80 47688.26 180.00 1.19458 0.69
6 5 4 1 o 45173.22 43410.65 0.00 1.19385 1.23
1 11 1 1 o 16806.961 16086.558 180.00 1.19419 0.57
3 10 2 1 o 66859.49 64169.50 180.00 1.19359 2.16
0 0 8 2 o 56379.82 54187.34 0.00 1.19597 0.20
2 10 3 1 o 5146.773 4961.228 0.00 1.19279 0.18
8 1 1 1 o 888.806 867.944 180.00 1.19223 0.03
7 0 4 2 o 48474.22 47688.26 180.00 1.19458 0.33
6 5 4 2 o 43631.82 43410.65 0.00 1.19385 0.59
1 11 1 2 o 16294.973 16086.558 180.00 1.19419 0.27
6 7 2 1 o 2399.902 2403.344 0.00 1.19071 0.09
4 5 6 1 o 716.062 718.310 180.00 1.19063 0.02
3 10 2 2 o 63968.51 64169.50 180.00 1.19359 1.02
4 8 4 1 o 78745.30 80789.72 0.00 1.19017 2.44
7 1 4 1 o 450.624 465.445 0.00 1.18982 0.01
2 10 3 2 o 4772.814 4961.228 0.00 1.19279 0.08
8 1 1 2 o 835.435 867.944 180.00 1.19223 0.01
6 7 2 2 o 2479.968 2403.344 0.00 1.19071 0.05
4 5 6 2 o 729.178 718.310 180.00 1.19063 0.01
8 2 0 1 o 4243.850 4232.895 0.00 1.18724 0.05
4 8 4 2 o 81029.98 80789.72 0.00 1.19017 1.26
7 1 4 2 o 469.788 465.445 0.00 1.18982 0.01
1 0 8 1 o 681.610 671.978 0.00 1.18689 0.01
6 3 5 1 o 528.210 515.215 180.00 1.18672 0.02
7 5 2 1 o 8429.281 8254.266 180.00 1.18672 0.24
2 7 6 1 o 832.178 736.465 0.00 1.18562 0.03
5 3 6 1 o 8494.337 7286.477 0.00 1.18498 0.24
4 1 7 1 o 1296.218 1097.526 180.00 1.18459 0.03
8 2 0 2 o 5044.516 4232.895 0.00 1.18724 0.03
1 0 8 2 o 843.117 671.978 0.00 1.18689 0.01
6 3 5 2 o 623.199 515.215 180.00 1.18672 0.01
7 5 2 2 o 9708.341 8254.266 180.00 1.18672 0.14
7 4 3 1 o 2853.760 2450.152 180.00 1.18333 0.09
2 7 6 2 o 853.613 736.465 0.00 1.18562 0.02
1 1 8 1 o 18257.850 16654.176 180.00 1.18223 0.50
5 3 6 2 o 7990.924 7286.477 0.00 1.18498 0.11
4 1 7 2 o 1219.539 1097.526 180.00 1.18459 0.01
7 4 3 2 o 2650.468 2450.152 180.00 1.18333 0.04
5 7 4 1 o 45.496 41.507 0.00 1.17988 0.00
2 5 7 1 o 2391.406 2238.492 0.00 1.17965 0.07
1 1 8 2 o 18040.314 16654.176 180.00 1.18223 0.24
8 2 1 1 o 12200.106 11862.920 0.00 1.17820 0.33
4 7 5 1 o 34883.703 33050.375 0.00 1.17848 1.02
0 2 8 1 o 86.296 81.989 180.00 1.17721 0.00
3 4 7 1 o 6112.537 5638.277 180.00 1.17709 0.17
5 7 4 2 o 47.309 41.507 0.00 1.17988 0.00
2 5 7 2 o 2463.545 2238.492 0.00 1.17965 0.03
2 11 0 1 o 25875.113 23360.135 0.00 1.17648 0.45
7 2 4 1 o 5019.153 4601.168 180.00 1.17588 0.14
8 2 1 2 o 12539.192 11862.920 0.00 1.17820 0.17
4 7 5 2 o 35462.40 33050.375 0.00 1.17848 0.52
0 2 8 2 o 83.713 81.989 180.00 1.17721 0.00
4 9 3 1 o 23158.137 22447.768 180.00 1.17446 0.70
3 4 7 2 o 5802.304 5638.277 180.00 1.17709 0.08
5 8 3 1 o 34282.344 33265.570 180.00 1.17355 1.01
2 11 0 2 o 24101.539 23360.135 0.00 1.17648 0.21
3 9 4 1 o 5043.393 4896.052 180.00 1.17339 0.16
7 2 4 2 o 4716.000 4601.168 180.00 1.17588 0.06
0 9 5 1 o 123.000 123.076 180.00 1.17201 0.00
4 9 3 2 o 21806.377 22447.768 180.00 1.17446 0.32
3 8 5 1 o 966.983 993.055 0.00 1.17110 0.03
4 2 7 1 o 141.682 143.614 180.00 1.17083 0.00
5 8 3 2 o 33353.902 33265.570 180.00 1.17355 0.49
3 9 4 2 o 4990.126 4896.052 180.00 1.17339 0.08
8 0 2 1 o 36803.62 33686.531 0.00 1.16986 0.49
0 9 5 2 o 138.903 123.076 180.00 1.17201 0.00
1 2 8 1 o 33116.008 30014.469 0.00 1.16855 0.89
3 8 5 2 o 1057.242 993.055 0.00 1.17110 0.02
4 2 7 2 o 148.678 143.614 180.00 1.17083 0.00
4 10 0 1 o 154158.86 152811.97 0.00 1.16773 2.40
2 11 1 1 o 12100.855 12028.489 0.00 1.16768 0.39
8 0 2 2 o 33843.660 33686.531 0.00 1.16986 0.22
5 9 1 1 o 1087.027 1086.522 0.00 1.16707 0.05
1 11 2 1 o 10153.232 10200.225 180.00 1.16723 0.33
1 2 8 2 o 31073.215 30014.469 0.00 1.16855 0.41
8 1 2 1 o 1.467 1.229 0.00 1.16539 0.00
0 10 4 1 o 137662.81 137024.89 0.00 1.16532 2.18
8 3 0 1 o 12433.809 13329.135 0.00 1.16442 0.19
4 10 0 2 o 147511.83 152811.97 0.00 1.16773 1.13
2 11 1 2 o 11577.789 12028.489 0.00 1.16768 0.18
5 9 1 2 o 992.709 1086.522 0.00 1.16707 0.02
1 11 2 2 o 9597.772 10200.225 180.00 1.16723 0.15
7 6 1 1 o 2039.359 2106.706 180.00 1.16320 0.06
1 9 5 1 o 5970.072 6207.334 180.00 1.16347 0.16
8 1 2 2 o 0.967 1.229 0.00 1.16539 0.00
0 10 4 2 o 135808.92 137024.89 0.00 1.16532 1.07
8 3 0 2 o 14042.688 13329.135 0.00 1.16442 0.11
2 0 8 1 o 807.050 740.406 0.00 1.16086 0.02
7 6 1 2 o 2210.176 2106.706 180.00 1.16320 0.03
1 9 5 2 o 6501.785 6207.334 180.00 1.16347 0.09
5 6 5 1 o 747.357 688.508 180.00 1.15963 0.02
4 10 1 1 o 1306.082 1113.983 180.00 1.15912 0.04
2 0 8 2 o 820.614 740.406 0.00 1.16086 0.01
6 8 0 1 o 40311.52 37941.41 180.00 1.15790 0.58
5 6 5 2 o 703.872 688.508 180.00 1.15963 0.01
1 10 4 1 o 350.325 340.092 0.00 1.15691 0.01
2 1 8 1 o 14501.296 14095.227 180.00 1.15649 0.36
8 3 1 1 o 97980.46 95118.27 180.00 1.15589 2.57
1 6 7 1 o 14877.028 14460.622 0.00 1.15610 0.36
4 10 1 2 o 1153.474 1113.983 180.00 1.15912 0.02
6 4 5 1 o 13363.740 13201.191 0.00 1.15517 0.35
6 8 0 2 o 38246.42 37941.41 180.00 1.15790 0.27
7 3 4 1 o 1539.958 1505.476 0.00 1.15370 0.05
1 10 4 2 o 344.613 340.092 0.00 1.15691 0.01
2 1 8 2 o 14379.068 14095.227 180.00 1.15649 0.18
5 4 6 1 o 1736.238 1694.838 0.00 1.15357 0.05
8 3 1 2 o 99099.06 95118.27 180.00 1.15589 1.30
1 6 7 2 o 14908.536 14460.622 0.00 1.15610 0.18
8 2 2 1 o 17592.307 16670.826 0.00 1.15229 0.47
0 8 6 1 o 8226.241 7761.524 180.00 1.15263 0.14
6 4 5 2 o 13906.258 13201.191 0.00 1.15517 0.19
7 3 4 2 o 1709.976 1505.476 0.00 1.15370 0.03
5 4 6 2 o 1908.192 1694.838 0.00 1.15357 0.03
8 2 2 2 o 19143.848 16670.826 0.00 1.15229 0.26
0 8 6 2 o 8938.260 7761.524 180.00 1.15263 0.08
3 10 3 1 o 691.965 639.206 180.00 1.14970 0.01
6 8 1 1 o 32534.629 28485.127 0.00 1.14951 0.96
4 3 7 1 o 3390.845 2867.389 180.00 1.14892 0.09
6 7 3 1 o 30920.162 28088.207 0.00 1.14713 0.87
1 3 8 1 o 5231.307 4779.032 180.00 1.14677 0.14
6 8 1 2 o 31153.059 28485.127 0.00 1.14951 0.45
3 10 3 2 o 678.506 639.206 180.00 1.14970 0.01
4 3 7 2 o 3197.483 2867.389 180.00 1.14892 0.04
6 6 4 1 o 1205.232 1062.832 180.00 1.14453 0.03
1 8 6 1 o 2091.079 1819.729 0.00 1.14450 0.06
6 7 3 2 o 32146.662 28088.207 0.00 1.14713 0.46
1 3 8 2 o 5477.439 4779.032 180.00 1.14677 0.07
2 2 8 1 o 311.894 280.463 180.00 1.14367 0.01
7 5 3 1 o 23531.818 20623.381 0.00 1.14355 0.68
3 7 6 1 o 12.545 10.271 180.00 1.14328 0.00
2 11 2 1 o 183.289 175.861 0.00 1.14244 0.00
6 6 4 2 o 1090.882 1062.832 180.00 1.14453 0.01
5 9 2 1 o 52898.46 50994.30 180.00 1.14186 1.53
4 6 6 1 o 31859.637 31012.916 0.00 1.14169 0.86
1 8 6 2 o 1870.156 1819.729 0.00 1.14450 0.03
2 2 8 2 o 281.315 280.463 180.00 1.14367 0.00
7 5 3 2 o 20774.758 20623.381 0.00 1.14355 0.29
3 7 6 2 o 10.617 10.271 180.00 1.14328 0.00
2 11 2 2 o 182.692 175.861 0.00 1.14244 0.00
5 9 2 2 o 52679.75 50994.30 180.00 1.14186 0.76
4 6 6 2 o 31702.057 31012.916 0.00 1.14169 0.43
2 9 5 1 o 10153.359 9916.226 0.00 1.13891 0.29
7 6 2 1 o 38430.70 38722.71 180.00 1.13824 1.00
3 5 7 1 o 40661.05 41564.43 0.00 1.13792 1.11
2 9 5 2 o 9776.974 9916.226 0.00 1.13891 0.14
7 6 2 2 o 37909.93 38722.71 180.00 1.13824 0.49
3 5 7 2 o 40304.45 41564.43 0.00 1.13792 0.55
8 4 0 1 o 3659.434 3851.114 180.00 1.13457 0.04
4 10 2 1 o 27361.363 29109.068 0.00 1.13442 0.77
0 11 3 1 o 14.256 15.079 180.00 1.13383 0.00
6 0 6 1 o 441.305 386.898 180.00 1.13250 0.01
2 10 4 1 o 3663.407 3425.977 180.00 1.13276 0.10
2 6 7 1 o 142.373 125.331 180.00 1.13199 0.01
8 4 0 2 o 4274.293 3851.114 180.00 1.13457 0.03
8 3 2 1 o 649.541 503.917 180.00 1.13139 0.03
4 10 2 2 o 33038.547 29109.068 0.00 1.13442 0.49
0 11 3 2 o 16.978 15.079 180.00 1.13383 0.00
6 0 6 2 o 515.946 386.898 180.00 1.13250 0.00
2 10 4 2 o 4142.874 3425.977 180.00 1.13276 0.06
2 6 7 2 o 166.490 125.331 180.00 1.13199 0.00
8 3 2 2 o 665.645 503.917 180.00 1.13139 0.01
6 1 6 1 o 27837.139 23116.605 180.00 1.12844 0.76
3 11 1 1 o 13313.604 11412.331 180.00 1.12717 0.43
8 4 1 1 o 2192.919 2014.400 180.00 1.12668 0.06
0 4 8 1 o 36242.87 36205.78 180.00 1.12581 0.51
6 1 6 2 o 22910.885 23116.605 180.00 1.12844 0.30
1 11 3 1 o 35710.07 34836.051 180.00 1.12608 1.05
6 8 2 1 o 27491.637 27957.104 180.00 1.12540 0.79
7 4 4 1 o 0.383 0.285 0.00 1.12465 0.00
8 1 3 1 o 26874.260 25127.125 180.00 1.12443 0.65
3 11 1 2 o 12275.844 11412.331 180.00 1.12717 0.19
8 4 1 2 o 2120.742 2014.400 180.00 1.12668 0.03
2 3 8 1 o 4033.772 3994.049 180.00 1.12323 0.10
0 4 8 2 o 36287.05 36205.78 180.00 1.12581 0.25
1 11 3 2 o 35323.48 34836.051 180.00 1.12608 0.52
6 8 2 2 o 27674.881 27957.104 180.00 1.12540 0.40
7 4 4 2 o 0.317 0.285 0.00 1.12465 0.00
8 1 3 2 o 25639.627 25127.125 180.00 1.12443 0.31
3 0 8 1 o 85037.95 86879.84 180.00 1.12102 1.03
2 8 6 1 o 13977.646 14166.411 180.00 1.12110 0.43
2 3 8 2 o 3640.864 3994.049 180.00 1.12323 0.04
4 4 7 1 o 32.246 37.080 180.00 1.12022 0.00
3 0 8 2 o 88853.64 86879.84 180.00 1.12102 0.54
1 4 8 1 o 57312.20 56098.50 0.00 1.11823 1.42
2 8 6 2 o 14556.598 14166.411 180.00 1.12110 0.22
6 5 5 1 o 2596.122 2553.137 0.00 1.11808 0.06
4 4 7 2 o 37.828 37.080 180.00 1.12022 0.00
3 1 8 1 o 9803.503 9621.968 0.00 1.11709 0.25
4 9 4 1 o 7582.543 7436.681 0.00 1.11703 0.23
5 5 6 1 o 35317.11 35127.21 180.00 1.11663 0.90
6 2 6 1 o 10451.642 10420.252 180.00 1.11653 0.27
5 8 4 1 o 2306.831 2295.174 0.00 1.11624 0.06
1 4 8 2 o 59128.12 56098.50 0.00 1.11823 0.74
6 5 5 2 o 2697.208 2553.137 0.00 1.11808 0.03
4 8 5 1 o 3382.236 3161.552 0.00 1.11506 0.09
7 1 5 1 o 35721.52 33217.555 0.00 1.11477 0.96
3 1 8 2 o 10092.503 9621.968 0.00 1.11709 0.13
4 9 4 2 o 7793.963 7436.681 0.00 1.11703 0.12
5 5 6 2 o 35680.13 35127.21 180.00 1.11663 0.46
6 2 6 2 o 10562.059 10420.252 180.00 1.11653 0.14
5 8 4 2 o 2345.877 2295.174 0.00 1.11624 0.03
8 2 3 1 o 2822.250 2523.332 180.00 1.11265 0.07
4 8 5 2 o 3640.619 3161.552 0.00 1.11506 0.05
7 1 5 2 o 39273.14 33217.555 0.00 1.11477 0.53
5 1 7 1 o 7239.960 5964.592 180.00 1.11163 0.20
0 12 0 1 o 4107.144 3607.480 0.00 1.11199 0.03
0 7 7 1 o 1582.824 1293.349 180.00 1.11079 0.02
8 2 3 2 o 2812.899 2523.332 180.00 1.11265 0.03
7 7 1 1 o 11835.357 10833.308 180.00 1.10968 0.29
5 1 7 2 o 7335.665 5964.592 180.00 1.11163 0.10
0 12 0 2 o 4008.477 3607.480 0.00 1.11199 0.01
0 7 7 2 o 1274.101 1293.349 180.00 1.11079 0.01
7 7 1 2 o 10516.962 10833.308 180.00 1.10968 0.12
5 7 5 1 o 2181.531 2084.738 180.00 1.10658 0.05
3 2 8 1 o 7396.959 6595.433 180.00 1.10553 0.18
3 11 2 1 o 5252.890 4908.101 0.00 1.10441 0.16
8 4 2 1 o 6028.491 5912.998 0.00 1.10395 0.15
5 7 5 2 o 2096.447 2084.738 180.00 1.10658 0.02
2 11 3 1 o 17842.549 17943.365 0.00 1.10377 0.53
7 2 5 1 o 634.829 696.233 180.00 1.10328 0.02
1 7 7 1 o 84652.05 88642.34 180.00 1.10351 2.17
5 9 3 1 o 7296.574 8111.268 180.00 1.10325 0.24
3 2 8 2 o 5743.016 6595.433 180.00 1.10553 0.06
3 11 2 2 o 4620.108 4908.101 0.00 1.10441 0.07
8 4 2 2 o 5653.137 5912.998 0.00 1.10395 0.07
3 9 5 1 o 15310.245 16054.299 0.00 1.10122 0.43
2 11 3 2 o 17173.863 17943.365 0.00 1.10377 0.25
7 2 5 2 o 666.147 696.233 180.00 1.10328 0.01
1 7 7 2 o 85164.33 88642.34 180.00 1.10351 1.09
5 9 3 2 o 7727.833 8111.268 180.00 1.10325 0.13
5 2 7 1 o 59894.77 63342.66 0.00 1.10024 1.48
7 6 3 1 o 4957.347 5394.418 180.00 1.09998 0.13
8 5 0 1 o 24073.730 27511.832 180.00 1.09937 0.31
3 9 5 2 o 14883.595 16054.299 0.00 1.10122 0.21
5 2 7 2 o 64796.13 63342.66 0.00 1.10024 0.81
6 3 6 1 o 10103.153 9861.288 180.00 1.09749 0.28
7 6 3 2 o 5478.034 5394.418 180.00 1.09998 0.07
1 12 1 1 o 19266.891 18890.908 180.00 1.09739 0.61
8 5 0 2 o 27081.232 27511.832 180.00 1.09937 0.18
2 4 8 1 o 9600.713 9978.191 180.00 1.09637 0.28
4 10 3 1 o 211.822 216.825 0.00 1.09654 0.01
3 10 4 1 o 26210.980 27752.191 180.00 1.09566 0.71
3 6 7 1 o 20144.840 20734.400 180.00 1.09497 0.55
6 3 6 2 o 9711.211 9861.288 180.00 1.09749 0.13
1 12 1 2 o 18763.543 18890.908 180.00 1.09739 0.29
8 3 3 1 o 227.667 219.051 180.00 1.09380 0.00
2 4 8 2 o 10474.906 9978.191 180.00 1.09637 0.15
4 10 3 2 o 227.667 216.825 0.00 1.09654 0.00
6 7 4 1 o 3101.845 2998.158 180.00 1.09343 0.10
3 10 4 2 o 28038.055 27752.191 180.00 1.09566 0.39
7 5 4 1 o 1414.076 1307.303 180.00 1.09034 0.04
5 10 1 1 o 5324.887 4852.728 180.00 1.09051 0.16
8 5 1 1 o 27950.545 27166.631 180.00 1.09219 0.70
6 9 0 1 o 62539.06 58115.54 0.00 1.09022 0.87
3 6 7 2 o 21380.723 20734.400 180.00 1.09497 0.29
8 5 1 2 o 29397.658 27166.631 180.00 1.09219 0.37
8 3 3 2 o 232.383 219.051 180.00 1.09380 0.00
4 7 6 1 o 144.146 126.509 0.00 1.09096 0.01
6 7 4 2 o 3368.361 2998.158 180.00 1.09343 0.06
6 8 3 1 o 9365.211 8533.445 180.00 1.08839 0.25
4 7 6 2 o 144.071 126.509 0.00 1.09096 0.00
7 7 2 1 o 106.953 101.469 180.00 1.08795 0.00
7 5 4 2 o 1309.595 1307.303 180.00 1.09034 0.02
5 10 1 2 o 4970.196 4852.728 180.00 1.09051 0.07
6 9 0 2 o 57462.80 58115.54 0.00 1.09022 0.39
1 10 5 1 o 7326.244 7398.693 180.00 1.08757 0.26
3 3 8 1 o 2052.087 2166.344 0.00 1.08703 0.05
4 5 7 1 o 2192.144 2303.066 180.00 1.08630 0.06
6 8 3 2 o 8691.734 8533.445 180.00 1.08839 0.12
7 7 2 2 o 104.734 101.469 180.00 1.08795 0.00
7 3 5 1 o 139.849 140.334 0.00 1.08490 0.00
3 8 6 1 o 44164.44 43830.26 180.00 1.08510 1.15
1 10 5 2 o 7247.263 7398.693 180.00 1.08757 0.13
1 5 8 1 o 22152.432 23539.381 0.00 1.08448 0.54
3 3 8 2 o 2024.757 2166.344 0.00 1.08703 0.02
4 5 7 2 o 2141.309 2303.066 180.00 1.08630 0.03
4 11 0 1 o 3250.742 3539.699 0.00 1.08382 0.05
2 12 0 1 o 33049.070 35708.89 180.00 1.08359 0.53
6 9 1 1 o 19188.418 20573.314 0.00 1.08321 0.50
0 12 2 1 o 21237.119 22877.893 0.00 1.08311 0.34
2 7 7 1 o 1283.458 1295.809 0.00 1.08249 0.03
7 3 5 2 o 140.502 140.334 0.00 1.08490 0.00
3 8 6 2 o 43637.30 43830.26 180.00 1.08510 0.56
5 3 7 1 o 35732.85 35826.02 180.00 1.08200 0.80
1 5 8 2 o 23040.131 23539.381 0.00 1.08448 0.28
4 11 0 2 o 3258.753 3539.699 0.00 1.08382 0.03
2 12 0 2 o 33421.852 35708.89 180.00 1.08359 0.27
6 9 1 2 o 19952.293 20573.314 0.00 1.08321 0.26
0 12 2 2 o 22319.047 22877.893 0.00 1.08311 0.18
2 7 7 2 o 1358.206 1295.809 0.00 1.08249 0.02
5 3 7 2 o 37893.82 35826.02 180.00 1.08200 0.43
1 9 6 1 o 18000.066 17812.002 180.00 1.07902 0.46
8 0 4 1 o 10888.924 10217.793 180.00 1.07722 0.13
6 6 5 1 o 32137.672 30175.701 0.00 1.07726 0.81
4 11 1 1 o 2720.430 2554.600 0.00 1.07694 0.08
2 12 1 1 o 34900.035 33296.840 0.00 1.07671 1.01
1 9 6 2 o 18029.340 17812.002 180.00 1.07902 0.23
1 12 2 1 o 815.925 805.462 0.00 1.07635 0.03
5 6 6 1 o 23187.184 24153.322 0.00 1.07595 0.55
1 11 4 1 o 2151.074 2256.583 180.00 1.07516 0.06
8 0 4 2 o 10247.450 10217.793 180.00 1.07722 0.06
6 6 5 2 o 30220.561 30175.701 0.00 1.07726 0.37
4 11 1 2 o 2581.618 2554.600 0.00 1.07694 0.04
8 1 4 1 o 2431.794 2419.064 180.00 1.07373 0.04
2 12 1 2 o 33788.250 33296.840 0.00 1.07671 0.48
1 12 2 2 o 810.902 805.462 0.00 1.07635 0.01
5 6 6 2 o 23765.705 24153.322 0.00 1.07595 0.28
6 4 6 1 o 9171.828 9669.071 180.00 1.07239 0.20
1 11 4 2 o 2148.411 2256.583 180.00 1.07516 0.03
4 0 8 1 o 9475.485 11005.395 180.00 1.07157 0.09
8 5 2 1 o 10.709 11.212 180.00 1.07144 0.00
8 1 4 2 o 2189.026 2419.064 180.00 1.07373 0.02
6 4 6 2 o 8843.288 9669.071 180.00 1.07239 0.10
5 10 2 1 o 20380.207 22232.117 0.00 1.06986 0.54
3 11 3 1 o 5913.846 6475.594 180.00 1.06936 0.15
8 4 3 1 o 84.024 89.825 0.00 1.06895 0.00
4 0 8 2 o 10020.719 11005.395 180.00 1.07157 0.05
8 5 2 2 o 10.871 11.212 180.00 1.07144 0.00
4 1 8 1 o 4.398 16.950 0.00 1.06813 0.00
2 10 5 1 o 8071.103 8634.020 0.00 1.06743 0.21
5 10 2 2 o 21062.357 22232.117 0.00 1.06986 0.28
3 11 3 2 o 6299.288 6475.594 180.00 1.06936 0.08
8 4 3 2 o 91.810 89.825 0.00 1.06895 0.00
4 1 8 2 o 30.816 16.950 0.00 1.06813 0.00
2 10 5 2 o 8925.796 8634.020 0.00 1.06743 0.12
2 5 8 1 o 16785.252 16897.018 0.00 1.06451 0.38
8 2 4 1 o 19594.939 19206.680 0.00 1.06345 0.46
6 9 2 1 o 1220.108 1240.117 0.00 1.06297 0.03
3 4 8 1 o 453.639 457.615 0.00 1.06263 0.01
9 1 1 1 o 455.423 446.472 0.00 1.06238 0.02
2 5 8 2 o 17291.322 16897.018 0.00 1.06451 0.20
8 2 4 2 o 19542.648 19206.680 0.00 1.06345 0.23
7 4 5 1 o 608.757 611.518 0.00 1.06063 0.02
8 6 0 1 o 58173.55 59233.23 0.00 1.06049 0.68
6 9 2 2 o 1208.960 1240.117 0.00 1.06297 0.01
3 4 8 2 o 439.676 457.615 0.00 1.06263 0.01
9 1 1 2 o 416.768 446.472 0.00 1.06238 0.01
0 1 9 1 o 16519.992 17266.416 0.00 1.05973 0.18
2 9 6 1 o 20707.555 22463.357 0.00 1.05934 0.52
7 4 5 2 o 569.927 611.518 0.00 1.06063 0.01
4 2 8 1 o 3709.682 3940.694 0.00 1.05801 0.09
5 4 7 1 o 9443.147 10012.198 180.00 1.05793 0.22
8 6 0 2 o 55851.96 59233.23 0.00 1.06049 0.32
0 1 9 2 o 15700.971 17266.416 0.00 1.05973 0.08
4 11 2 1 o 554.860 648.425 180.00 1.05703 0.02
2 9 6 2 o 20524.195 22463.357 0.00 1.05934 0.26
2 12 2 1 o 5931.315 6412.709 180.00 1.05682 0.13
7 8 1 1 o 1679.096 1810.619 0.00 1.05625 0.04
4 2 8 2 o 3773.014 3940.694 0.00 1.05801 0.04
2 11 4 1 o 8146.675 8618.824 180.00 1.05569 0.20
5 4 7 2 o 9650.699 10012.198 180.00 1.05793 0.11
5 9 4 1 o 7382.302 7621.664 180.00 1.05524 0.19
7 7 3 1 o 28675.158 28457.367 180.00 1.05440 0.74
4 11 2 2 o 653.937 648.425 180.00 1.05703 0.01
8 6 1 1 o 5852.915 5714.804 180.00 1.05404 0.14
4 9 5 1 o 18149.018 17891.594 180.00 1.05424 0.46
2 12 2 2 o 6495.573 6412.709 180.00 1.05682 0.08
7 8 1 2 o 1892.182 1810.619 0.00 1.05625 0.02
5 8 5 1 o 5375.807 5107.313 0.00 1.05357 0.15
1 1 9 1 o 22048.760 21054.547 180.00 1.05340 0.51
0 6 8 1 o 12942.330 12390.638 0.00 1.05332 0.15
2 11 4 2 o 8925.956 8618.824 180.00 1.05569 0.12
9 2 1 1 o 24498.801 24232.393 0.00 1.05242 0.58
5 9 4 2 o 7781.061 7621.664 180.00 1.05524 0.10
7 6 4 1 o 18444.830 18301.086 180.00 1.05238 0.44
7 7 3 2 o 28175.211 28457.367 180.00 1.05440 0.36
8 6 1 2 o 5750.509 5714.804 180.00 1.05404 0.07
4 9 5 2 o 17823.199 17891.594 180.00 1.05424 0.22
5 8 5 2 o 5214.608 5107.313 0.00 1.05357 0.07
1 1 9 2 o 21375.695 21054.547 180.00 1.05340 0.25
1 8 7 1 o 27582.094 27086.471 180.00 1.05092 0.71
0 6 8 2 o 12554.670 12390.638 0.00 1.05332 0.07
9 2 1 2 o 25427.912 24232.393 0.00 1.05242 0.30
3 7 7 1 o 10737.229 10295.703 180.00 1.04998 0.28
7 6 4 2 o 19197.977 18301.086 180.00 1.05238 0.23
4 10 4 1 o 8135.752 7758.327 180.00 1.04935 0.20
4 6 7 1 o 32.724 32.836 180.00 1.04875 0.00
1 8 7 2 o 25792.598 27086.471 180.00 1.05092 0.33
3 7 7 2 o 10329.028 10295.703 180.00 1.04998 0.13
8 3 4 1 o 18.251 17.982 180.00 1.04695 0.00
1 6 8 1 o 1810.431 1770.349 0.00 1.04711 0.04
9 0 2 1 o 9321.756 9147.327 0.00 1.04647 0.11
4 10 4 2 o 7920.573 7758.327 180.00 1.04935 0.10
4 6 7 2 o 34.041 32.836 180.00 1.04875 0.00
8 3 4 2 o 19.115 17.982 180.00 1.04695 0.00
1 6 8 2 o 1957.953 1770.349 0.00 1.04711 0.02
3 12 1 1 o 3152.511 2907.141 0.00 1.04470 0.08
9 0 2 2 o 9831.166 9147.327 0.00 1.04647 0.06
1 2 9 1 o 7428.496 6917.363 180.00 1.04369 0.21
1 12 3 1 o 19362.502 18188.813 180.00 1.04383 0.51
9 1 2 1 o 31775.510 30300.361 0.00 1.04326 0.72
7 0 6 1 o 5876.918 5546.758 0.00 1.04301 0.07
6 5 6 1 o 24528.061 22682.813 0.00 1.04252 0.61
6 8 4 1 o 342.829 333.644 180.00 1.04221 0.01
4 3 8 1 o 701.605 700.143 0.00 1.04177 0.03
3 12 1 2 o 2992.816 2907.141 0.00 1.04470 0.03
1 2 9 2 o 6582.236 6917.363 180.00 1.04369 0.09
1 12 3 2 o 17617.451 18188.813 180.00 1.04383 0.22
9 1 2 2 o 29369.965 30300.361 0.00 1.04326 0.33
7 0 6 2 o 5467.321 5546.758 0.00 1.04301 0.03
6 5 6 2 o 22640.711 22682.813 0.00 1.04252 0.28
4 8 6 1 o 15564.910 15595.084 0.00 1.04006 0.36
7 1 6 1 o 2349.555 2358.135 180.00 1.03983 0.05
6 8 4 2 o 331.085 333.644 180.00 1.04221 0.00
8 5 3 1 o 7056.200 7297.657 180.00 1.03935 0.16
4 3 8 2 o 650.287 700.143 0.00 1.04177 0.01
6 1 7 1 o 2392.584 2405.466 0.00 1.03845 0.06
5 10 3 1 o 1696.598 1713.109 180.00 1.03791 0.03
4 8 6 2 o 14784.631 15595.084 0.00 1.04006 0.17
7 8 2 1 o 25657.939 27265.217 180.00 1.03745 0.61
7 1 6 2 o 2193.774 2358.135 180.00 1.03983 0.02
8 5 3 2 o 6951.734 7297.657 180.00 1.03935 0.08
9 3 1 1 o 6352.600 6365.504 180.00 1.03643 0.17
3 10 5 1 o 518.819 502.054 180.00 1.03622 0.02
6 1 7 2 o 2474.555 2405.466 0.00 1.03845 0.03
8 6 2 1 o 23658.779 24003.965 0.00 1.03536 0.57
5 10 3 2 o 1694.884 1713.109 180.00 1.03791 0.02
2 1 9 1 o 80.178 81.829 0.00 1.03507 0.00
7 8 2 2 o 26626.570 27265.217 180.00 1.03745 0.32
6 7 5 1 o 24612.479 24459.297 0.00 1.03433 0.58
9 3 1 2 o 6121.523 6365.504 180.00 1.03643 0.08
0 3 9 1 o 41238.16 42152.04 180.00 1.03396 0.46
9 2 2 1 o 997.964 1040.430 0.00 1.03383 0.02
3 5 8 1 o 9750.299 10537.081 180.00 1.03354 0.22
3 10 5 2 o 450.989 502.054 180.00 1.03622 0.01
5 7 6 1 o -0.076 0.028 0.00 1.03318 0.00
8 6 2 2 o 22425.104 24003.965 0.00 1.03536 0.27
2 8 7 1 o 38.117 40.765 180.00 1.03272 0.00
2 1 9 2 o 80.162 81.829 0.00 1.03507 0.00
7 5 5 1 o 993.656 987.438 0.00 1.03171 0.01
6 7 5 2 o 24746.223 24459.297 0.00 1.03433 0.29
6 9 3 1 o 7057.043 6979.795 0.00 1.03161 0.17
0 3 9 2 o 42506.22 42152.04 180.00 1.03396 0.24
9 2 2 2 o 1049.547 1040.430 0.00 1.03383 0.01
3 5 8 2 o 10798.172 10537.081 180.00 1.03354 0.13
7 2 6 1 o 22779.398 21610.508 180.00 1.03049 0.52
5 7 6 2 o 0.091 0.028 0.00 1.03318 0.00
2 8 7 2 o 41.681 40.765 180.00 1.03272 0.00
5 5 7 1 o 8434.613 8327.267 180.00 1.02922 0.17
6 2 7 1 o 30.408 29.600 0.00 1.02914 0.00
7 5 5 2 o 997.457 987.438 0.00 1.03171 0.01
2 6 8 1 o 287.635 279.032 180.00 1.02910 0.01
6 9 3 2 o 7157.404 6979.795 0.00 1.03161 0.09
3 9 6 1 o 10377.424 10071.894 0.00 1.02881 0.26
1 3 9 1 o 12190.495 11534.853 180.00 1.02808 0.30
7 2 6 2 o 22911.771 21610.508 180.00 1.03049 0.26
6 10 0 1 o 551.019 507.237 180.00 1.02704 0.01
5 5 7 2 o 8985.220 8327.267 180.00 1.02922 0.09
6 2 7 2 o 32.860 29.600 0.00 1.02914 0.00
2 6 8 2 o 308.265 279.032 180.00 1.02910 0.00
3 12 2 1 o 5059.025 4692.399 180.00 1.02650 0.14
3 9 6 2 o 10650.268 10071.894 0.00 1.02881 0.14
4 11 3 1 o 34794.316 33209.520 180.00 1.02619 0.92
2 2 9 1 o 47550.14 46561.39 180.00 1.02585 1.07
2 12 3 1 o 7769.315 7543.188 180.00 1.02599 0.20
1 3 9 2 o 11622.254 11534.853 180.00 1.02808 0.14
3 11 4 1 o 901.401 897.346 0.00 1.02547 0.02
8 4 4 1 o 64392.19 65109.80 0.00 1.02510 1.47
6 10 0 2 o 496.796 507.237 180.00 1.02704 0.00
0 11 5 1 o 17204.186 17654.707 0.00 1.02455 0.23
3 12 2 2 o 4658.855 4692.399 180.00 1.02650 0.06
4 11 3 2 o 32845.051 33209.520 180.00 1.02619 0.43
2 2 9 2 o 45025.67 46561.39 180.00 1.02585 0.50
2 12 3 2 o 7378.578 7543.188 180.00 1.02599 0.10
0 10 6 1 o 24516.207 25246.764 0.00 1.02336 0.29
3 11 4 2 o 858.005 897.346 0.00 1.02547 0.01
8 4 4 2 o 64601.55 65109.80 0.00 1.02510 0.74
0 11 5 2 o 18560.639 17654.707 0.00 1.02455 0.13
5 11 1 1 o 319.659 309.869 0.00 1.02124 0.01
6 10 1 1 o 4487.852 4285.632 0.00 1.02117 0.12
0 10 6 2 o 25750.605 25246.764 0.00 1.02336 0.15
4 4 8 1 o 9239.510 9927.724 0.00 1.02023 0.17
0 13 1 1 o 44.369 45.228 0.00 1.02059 0.00
8 7 0 1 o 2044.495 2331.136 180.00 1.01946 0.04
9 3 2 1 o 5478.305 5208.404 0.00 1.01865 0.12
1 11 5 1 o 2735.946 2653.155 180.00 1.01883 0.07
5 11 1 2 o 319.618 309.869 0.00 1.02124 0.00
6 10 1 2 o 4527.971 4285.632 0.00 1.02117 0.06
4 4 8 2 o 10288.706 9927.724 0.00 1.02023 0.10
8 1 5 1 o 42307.14 41128.97 180.00 1.01760 0.96
0 13 1 2 o 48.202 45.228 0.00 1.02059 0.00
1 10 6 1 o 49757.82 48081.46 0.00 1.01765 1.29
8 7 0 2 o 2247.790 2331.136 180.00 1.01946 0.02
5 0 8 1 o 38172.21 39382.29 0.00 1.01666 0.43
9 3 2 2 o 5104.108 5208.404 0.00 1.01865 0.05
1 11 5 2 o 2580.341 2653.155 180.00 1.01883 0.03
7 3 6 1 o 1447.424 1422.601 180.00 1.01546 0.04
9 4 1 1 o 3829.785 3746.918 180.00 1.01522 0.09
8 1 5 2 o 42147.06 41128.97 180.00 1.01760 0.48
1 10 6 2 o 49240.91 48081.46 0.00 1.01765 0.63
1 13 1 1 o 1499.742 1461.012 0.00 1.01493 0.04
6 3 7 1 o 886.795 842.269 0.00 1.01417 0.02
5 0 8 2 o 41703.20 39382.29 0.00 1.01666 0.24
5 1 8 1 o 13396.602 13257.293 0.00 1.01373 0.29
8 7 1 1 o 1381.918 1367.774 0.00 1.01373 0.03
9 1 3 1 o 4391.909 4534.051 180.00 1.01357 0.12
7 3 6 2 o 1248.119 1422.601 180.00 1.01546 0.02
9 4 1 2 o 3617.517 3746.918 180.00 1.01522 0.04
7 7 4 1 o 56.047 47.297 0.00 1.01225 0.00
1 13 1 2 o 1578.668 1461.012 0.00 1.01493 0.02
6 3 7 2 o 994.934 842.269 0.00 1.01417 0.01
5 1 8 2 o 15589.487 13257.293 0.00 1.01373 0.18
8 7 1 2 o 1605.885 1367.774 0.00 1.01373 0.02
9 1 3 2 o 5418.818 4534.051 180.00 1.01357 0.07
2 3 9 1 o 1196.690 1030.203 180.00 1.01102 0.03
7 7 4 2 o 45.695 47.297 0.00 1.01225 0.00
4 12 0 1 o 16033.589 16134.673 0.00 1.00991 0.20
6 6 6 1 o 309.247 316.399 180.00 1.00919 0.01
8 2 5 1 o 13324.205 13690.470 180.00 1.00884 0.30
4 7 7 1 o 1127.825 1151.563 180.00 1.00902 0.03
2 3 9 2 o 994.278 1030.203 180.00 1.01102 0.01
7 8 3 1 o 4284.986 4356.676 0.00 1.00824 0.11
0 12 4 1 o 4560.116 4645.602 0.00 1.00835 0.04
1 7 8 1 o 0.183 0.169 180.00 1.00756 0.00
1 4 9 1 o 63.732 59.625 0.00 1.00737 0.00
4 12 0 2 o 17594.279 16134.673 0.00 1.00991 0.11
6 6 6 2 o 369.857 316.399 180.00 1.00919 0.00
3 1 9 1 o 12532.755 10786.188 0.00 1.00653 0.30
8 2 5 2 o 15159.310 13690.470 180.00 1.00884 0.18
4 7 7 2 o 1318.269 1151.563 180.00 1.00902 0.02
8 6 3 1 o 1123.480 1033.589 0.00 1.00632 0.03
7 8 3 2 o 4272.703 4356.676 0.00 1.00824 0.05
0 12 4 2 o 4602.500 4645.602 0.00 1.00835 0.02
5 2 8 1 o 9240.147 8862.788 0.00 1.00506 0.21
9 2 3 1 o 37973.73 36167.77 0.00 1.00491 0.85
1 7 8 2 o 0.178 0.169 180.00 1.00756 0.00
1 4 9 2 o 61.558 59.625 0.00 1.00737 0.00
0 9 7 1 o 1533.341 1461.935 180.00 1.00495 0.02
3 8 7 1 o 9261.548 8966.171 0.00 1.00437 0.22
3 1 9 2 o 10860.849 10786.188 0.00 1.00653 0.13
4 12 1 1 o 3181.822 3081.211 0.00 1.00433 0.09
7 9 1 1 o 10564.102 10407.848 0.00 1.00412 0.30
5 11 2 1 o 11169.563 10922.936 0.00 1.00422 0.30
6 10 2 1 o 7418.511 7303.119 180.00 1.00416 0.19
8 6 3 2 o 1020.723 1033.589 0.00 1.00632 0.01
2 13 0 1 o 31461.316 31451.807 0.00 1.00399 0.44
5 2 8 2 o 8924.768 8862.788 0.00 1.00506 0.10
1 12 4 1 o 3417.094 3380.125 0.00 1.00289 0.09
9 2 3 2 o 36189.24 36167.77 0.00 1.00491 0.40
0 9 7 2 o 1464.864 1461.935 180.00 1.00495 0.01
2 11 5 1 o 8274.404 8318.026 0.00 1.00221 0.21
3 8 7 2 o 8994.006 8966.171 0.00 1.00437 0.10
5 9 5 1 o 3345.244 3328.246 180.00 1.00182 0.06
4 12 1 2 o 3097.408 3081.211 0.00 1.00433 0.04
7 9 1 2 o 10551.563 10407.848 0.00 1.00412 0.15
5 11 2 2 o 11026.571 10922.936 0.00 1.00422 0.15
6 10 2 2 o 7384.539 7303.119 180.00 1.00416 0.09
2 13 0 2 o 31820.158 31451.807 0.00 1.00399 0.22
3 6 8 1 o 44039.34 45299.95 180.00 1.00104 1.02
2 10 6 1 o 2306.428 2359.524 180.00 1.00110 0.06
1 12 4 2 o 3051.855 3380.125 0.00 1.00289 0.04
2 11 5 2 o 7663.190 8318.026 0.00 1.00221 0.09
7 6 5 1 o 613.096 631.834 0.00 0.99937 0.02
1 9 7 1 o 5988.501 6348.578 180.00 0.99954 0.15
5 9 5 2 o 3269.606 3328.246 180.00 1.00182 0.03
8 5 4 1 o 6175.613 6021.234 0.00 0.99891 0.13
9 4 2 1 o 2.036 1.925 180.00 0.99849 0.00
3 6 8 2 o 46832.87 45299.95 180.00 1.00104 0.55
2 10 6 2 o 2447.801 2359.524 180.00 1.00110 0.03
2 13 1 1 o 17029.541 16504.086 0.00 0.99851 0.47
3 2 9 1 o 142.203 133.903 180.00 0.99805 0.01
3 12 3 1 o 17549.158 17118.521 0.00 0.99818 0.50
1 13 2 1 o 12119.363 11840.578 180.00 0.99822 0.32
5 10 4 1 o 15733.209 15260.797 0.00 0.99763 0.41
5 6 7 1 o 31821.342 31412.473 180.00 0.99711 0.78
8 7 2 1 o 1182.658 1165.441 0.00 0.99708 0.04
7 6 5 2 o 633.183 631.834 0.00 0.99937 0.01
1 9 7 2 o 6421.293 6348.578 180.00 0.99954 0.08
4 10 5 1 o 292.728 293.193 0.00 0.99679 0.01
8 5 4 2 o 6080.078 6021.234 0.00 0.99891 0.06
9 4 2 2 o 2.142 1.925 180.00 0.99849 0.00
2 13 1 2 o 17494.373 16504.086 0.00 0.99851 0.25
3 2 9 2 o 159.944 133.903 180.00 0.99805 0.00
7 4 6 1 o 63899.25 59974.49 180.00 0.99548 1.46
3 12 3 2 o 18544.697 17118.521 0.00 0.99818 0.26
1 13 2 2 o 12741.949 11840.578 180.00 0.99822 0.17
5 10 4 2 o 15737.296 15260.797 0.00 0.99763 0.20
8 3 5 1 o 8827.383 8872.138 0.00 0.99473 0.19
5 6 7 2 o 31159.977 31412.473 180.00 0.99711 0.38
8 7 2 2 o 1151.114 1165.441 0.00 0.99708 0.02
4 5 8 1 o 718.769 725.940 0.00 0.99441 0.01
6 4 7 1 o 143.583 145.287 180.00 0.99427 0.00
4 10 5 2 o 290.328 293.193 0.00 0.99679 0.00
7 4 6 2 o 60654.96 59974.49 180.00 0.99548 0.68
8 3 5 2 o 9043.449 8872.138 0.00 0.99473 0.10
4 5 8 2 o 732.687 725.940 0.00 0.99441 0.01
6 9 4 1 o 26231.820 25857.686 180.00 0.99204 0.62
6 4 7 2 o 145.822 145.287 180.00 0.99427 0.00
2 7 8 1 o 210.140 212.519 180.00 0.99148 0.01
2 4 9 1 o 11656.605 11714.572 0.00 0.99130 0.27
5 3 8 1 o 2979.285 2968.556 0.00 0.99110 0.06
9 3 3 1 o 4816.212 4779.745 180.00 0.99096 0.09
6 8 5 1 o 28378.859 28241.020 180.00 0.99065 0.69
4 9 6 1 o 64.355 64.681 0.00 0.99019 0.00
9 5 1 1 o 3578.901 3794.010 180.00 0.98976 0.10
5 8 6 1 o 17406.615 18332.088 0.00 0.98964 0.40
6 9 4 2 o 24552.256 25857.686 180.00 0.99204 0.28
2 7 8 2 o 206.717 212.519 180.00 0.99148 0.00
2 4 9 2 o 11676.403 11714.572 0.00 0.99130 0.14
5 3 8 2 o 2984.896 2968.556 0.00 0.99110 0.03
9 3 3 2 o 4801.556 4779.745 180.00 0.99096 0.05
6 8 5 2 o 27805.234 28241.020 180.00 0.99065 0.33
4 12 2 1 o 18648.678 19173.564 0.00 0.98813 0.53
7 9 2 1 o 3753.200 3963.781 0.00 0.98793 0.09
4 9 6 2 o 63.489 64.681 0.00 0.99019 0.00
0 5 9 1 o 1809.975 2003.292 180.00 0.98761 0.02
9 5 1 2 o 3229.160 3794.010 180.00 0.98976 0.05
5 8 6 2 o 15981.484 18332.088 0.00 0.98964 0.18
4 11 4 1 o 9.557 24.974 0.00 0.98721 0.00
2 12 4 1 o 10227.049 12165.954 180.00 0.98703 0.29
3 3 9 1 o 16130.053 15979.258 0.00 0.98438 0.34
2 12 4 2 o 12297.671 12165.954 180.00 0.98703 0.18
4 12 2 2 o 16779.820 19173.564 0.00 0.98813 0.23
7 9 2 2 o 3526.904 3963.781 0.00 0.98793 0.04
2 9 7 1 o 1649.019 1628.306 0.00 0.98384 0.04
0 5 9 2 o 1840.806 2003.292 180.00 0.98761 0.01
4 11 4 2 o 23.952 24.974 0.00 0.98721 0.00
1 5 9 1 o 11336.206 10858.956 180.00 0.98248 0.26
2 13 2 1 o 2902.830 2699.818 0.00 0.98258 0.09
3 3 9 2 o 14678.255 15979.258 0.00 0.98438 0.15
2 9 7 2 o 1085.780 1628.306 0.00 0.98384 0.01
1 5 9 2 o 10253.240 10858.956 180.00 0.98248 0.12
2 13 2 2 o 2473.643 2699.818 0.00 0.98258 0.04
9 0 4 1 o 12175.256 10269.936 0.00 0.97858 0.14
8 8 0 1 o 50914.96 48385.53 0.00 0.97757 0.61
5 11 3 1 o 985.385 917.255 0.00 0.97766 0.03
6 10 3 1 o 729.333 693.616 180.00 0.97760 0.02
0 13 3 1 o 28350.449 28341.842 180.00 0.97709 0.39
9 0 4 2 o 10294.934 10269.936 0.00 0.97858 0.06
9 1 4 1 o 3973.194 3970.555 0.00 0.97596 0.08
3 11 5 1 o 14520.479 14508.797 0.00 0.97624 0.37
8 4 5 1 o 2655.940 2657.442 0.00 0.97593 0.06
8 8 0 2 o 48011.80 48385.53 0.00 0.97757 0.28
5 11 3 2 o 906.472 917.255 0.00 0.97766 0.01
6 10 3 2 o 688.160 693.616 180.00 0.97760 0.01
3 10 6 1 o 1260.847 1272.467 0.00 0.97521 0.03
0 13 3 2 o 28498.545 28341.842 180.00 0.97709 0.20
9 5 2 1 o 40307.02 40449.09 180.00 0.97425 0.91
9 1 4 2 o 3886.143 3970.555 0.00 0.97596 0.04
3 11 5 2 o 14210.340 14508.797 0.00 0.97624 0.18
6 7 6 1 o 1070.844 1109.699 0.00 0.97364 0.04
8 4 5 2 o 2600.656 2657.442 0.00 0.97593 0.03
3 10 6 2 o 1372.857 1272.467 0.00 0.97521 0.02
5 4 8 1 o 2075.063 1878.884 0.00 0.97250 0.05
3 13 1 1 o 4452.275 4179.299 0.00 0.97282 0.10
8 8 1 1 o 6082.947 5501.904 0.00 0.97250 0.15
9 4 3 1 o 6787.847 6204.597 180.00 0.97237 0.15
9 5 2 2 o 42267.02 40449.09 180.00 0.97425 0.48
0 8 8 1 o 14991.570 14149.200 0.00 0.97194 0.20
1 13 3 1 o 2004.508 1855.681 0.00 0.97212 0.06
7 5 6 1 o 2764.329 2732.710 0.00 0.97145 0.06
6 7 6 2 o 1106.546 1109.699 0.00 0.97364 0.02
7 8 4 1 o 13916.872 13975.828 180.00 0.97120 0.33
8 7 3 1 o 28850.701 29115.447 180.00 0.97106 0.67
6 5 7 1 o 651.795 659.315 0.00 0.97032 0.01
4 1 9 1 o 15758.735 16010.955 180.00 0.97028 0.35
5 4 8 2 o 1831.742 1878.884 0.00 0.97250 0.02
3 13 1 2 o 4154.650 4179.299 0.00 0.97282 0.05
8 8 1 2 o 5362.186 5501.904 0.00 0.97250 0.06
9 4 3 2 o 6039.829 6204.597 180.00 0.97237 0.07
8 6 4 1 o 359.165 357.754 180.00 0.96948 0.01
0 8 8 2 o 14124.246 14149.200 0.00 0.97194 0.09
1 13 3 2 o 1822.568 1855.681 0.00 0.97212 0.03
7 5 6 2 o 2815.831 2732.710 0.00 0.97145 0.03
7 8 4 2 o 14340.893 13975.828 180.00 0.97120 0.17
8 7 3 2 o 29639.799 29115.447 180.00 0.97106 0.35
6 11 0 1 o 6101.116 6045.896 180.00 0.96856 0.07
9 2 4 1 o 4912.617 4999.974 0.00 0.96822 0.11
4 8 7 1 o 3.793 3.822 0.00 0.96834 0.00
7 1 7 1 o 39426.95 40401.30 0.00 0.96816 0.82
6 5 7 2 o 622.256 659.315 0.00 0.97032 0.01
4 1 9 2 o 14844.640 16010.955 180.00 0.97028 0.16
2 5 9 1 o 33.453 38.301 180.00 0.96756 0.00
8 6 4 2 o 316.411 357.754 180.00 0.96948 0.00
1 8 8 1 o 1576.510 1804.411 0.00 0.96705 0.04
3 7 8 1 o 30.462 31.797 0.00 0.96632 0.00
3 4 9 1 o 317.769 318.781 180.00 0.96615 0.01
6 11 0 2 o 6004.439 6045.896 180.00 0.96856 0.03
9 2 4 2 o 5262.000 4999.974 0.00 0.96822 0.06
4 8 7 2 o 3.999 3.822 0.00 0.96834 0.00
7 1 7 2 o 42709.07 40401.30 0.00 0.96816 0.46
10 0 0 1 o 121.214 115.239 0.00 0.96520 0.00
4 6 8 1 o 4294.154 3944.463 180.00 0.96536 0.10
2 5 9 2 o 41.644 38.301 180.00 0.96756 0.00
7 7 5 1 o 24516.254 22860.928 0.00 0.96482 0.62
1 8 8 2 o 1881.202 1804.411 0.00 0.96705 0.02
3 7 8 2 o 30.050 31.797 0.00 0.96632 0.00
3 4 9 2 o 298.345 318.781 180.00 0.96615 0.00
6 11 1 1 o 24012.949 25660.475 0.00 0.96363 0.60
10 0 0 2 o 112.531 115.239 0.00 0.96520 0.00
4 6 8 2 o 3776.212 3944.463 180.00 0.96536 0.04
10 1 0 1 o 11497.464 12059.729 180.00 0.96268 0.11
5 7 7 1 o 348.091 369.520 180.00 0.96278 0.01
4 2 9 1 o 2433.274 2564.101 180.00 0.96267 0.05
4 12 3 1 o 500.094 522.710 180.00 0.96279 0.01
7 9 3 1 o 4701.185 4933.811 0.00 0.96261 0.09
7 7 5 2 o 21070.373 22860.928 0.00 0.96482 0.26
8 0 6 1 o 3206.436 3523.927 180.00 0.96214 0.03
3 12 4 1 o 4825.868 5286.928 180.00 0.96220 0.12
9 6 1 1 o 12232.942 12087.390 180.00 0.96111 0.29
6 11 1 2 o 25948.545 25660.475 0.00 0.96363 0.33
7 2 7 1 o 3048.817 3039.387 180.00 0.96060 0.06
10 1 0 2 o 12106.857 12059.729 180.00 0.96268 0.06
1 11 6 1 o 4634.257 4618.022 0.00 0.96067 0.12
5 7 7 2 o 371.532 369.520 180.00 0.96278 0.01
4 2 9 2 o 2575.069 2564.101 180.00 0.96267 0.03
4 12 3 2 o 524.807 522.710 180.00 0.96279 0.01
7 9 3 2 o 4948.769 4933.811 0.00 0.96261 0.05
8 0 6 2 o 3453.404 3523.927 180.00 0.96214 0.02
6 0 8 1 o 2610.955 2656.317 180.00 0.95978 0.03
8 1 6 1 o 9355.583 9697.129 180.00 0.95965 0.24
3 12 4 2 o 5205.454 5286.928 180.00 0.96220 0.07
3 9 7 1 o 16345.258 17126.832 0.00 0.95924 0.37
9 6 1 2 o 11884.340 12087.390 180.00 0.96111 0.14
5 12 1 1 o 9766.798 9879.946 0.00 0.95870 0.24
7 2 7 2 o 3129.810 3039.387 180.00 0.96060 0.03
1 11 6 2 o 4752.294 4618.022 0.00 0.96067 0.06
10 1 1 1 o 33290.184 32824.238 0.00 0.95784 0.76
3 13 2 1 o 7857.405 7605.431 0.00 0.95808 0.22
8 8 2 1 o 15504.216 15433.399 0.00 0.95777 0.37
6 0 8 2 o 2545.609 2656.317 180.00 0.95978 0.01
8 1 6 2 o 8945.938 9697.129 180.00 0.95965 0.12
6 1 8 1 o 15951.815 17137.760 0.00 0.95731 0.38
2 13 3 1 o 6880.937 6966.473 0.00 0.95766 0.19
0 0 10 1 o 13911.803 15150.554 0.00 0.95678 0.06
3 9 7 2 o 15569.196 17126.832 0.00 0.95924 0.17
1 12 5 1 o 161.010 167.821 0.00 0.95670 0.00
5 12 1 2 o 9459.075 9879.946 0.00 0.95870 0.11
9 3 4 1 o 1578.736 1549.851 0.00 0.95573 0.04
10 1 1 2 o 32705.156 32824.238 0.00 0.95784 0.37
3 13 2 2 o 7744.654 7605.431 0.00 0.95808 0.11
10 2 0 1 o 24316.875 25548.898 180.00 0.95525 0.28
8 8 2 2 o 15209.143 15433.399 0.00 0.95777 0.18
6 1 8 2 o 14965.972 17137.760 0.00 0.95731 0.18
2 13 3 2 o 6716.518 6966.473 0.00 0.95766 0.09
0 0 10 2 o 12812.832 15150.554 0.00 0.95678 0.03
1 6 9 1 o 2073.884 2674.996 0.00 0.95444 0.06
1 12 5 2 o 155.300 167.821 0.00 0.95670 0.00
7 10 1 1 o 174.555 191.962 0.00 0.95411 0.00
9 3 4 2 o 1663.256 1549.851 0.00 0.95573 0.02
8 5 5 1 o 1202.768 1112.586 180.00 0.95325 0.03
10 2 0 2 o 27533.938 25548.898 180.00 0.95525 0.16
0 14 0 1 o 98680.70 91346.62 0.00 0.95313 0.69
2 8 8 1 o 539.256 483.179 0.00 0.95281 0.02
8 2 6 1 o 5152.883 4899.415 0.00 0.95229 0.11
1 0 10 1 o 33147.078 31993.504 0.00 0.95211 0.38
1 6 9 2 o 2783.101 2674.996 0.00 0.95444 0.04
5 10 5 1 o 2.042 1.147 180.00 0.95214 0.00
7 10 1 2 o 192.685 191.962 0.00 0.95411 0.00
8 5 5 2 o 1233.303 1112.586 180.00 0.95325 0.01
10 2 1 1 o 14376.896 13160.773 180.00 0.95053 0.32
4 3 9 1 o 37712.23 35033.504 0.00 0.95039 0.87
0 14 0 2 o 101364.77 91346.62 0.00 0.95313 0.36
2 8 8 2 o 552.452 483.179 0.00 0.95281 0.01
5 5 8 1 o 18488.664 18034.814 180.00 0.95006 0.42
6 2 8 1 o 65.825 63.987 0.00 0.95000 0.00
8 2 6 2 o 4947.137 4899.415 0.00 0.95229 0.05
9 5 3 1 o 753.259 749.525 180.00 0.94993 0.01
1 10 7 1 o 138.373 138.066 180.00 0.95018 0.00
1 0 10 2 o 31572.008 31993.504 0.00 0.95211 0.18
1 1 10 1 o 3019.744 3088.387 0.00 0.94970 0.07
5 10 5 2 o 0.923 1.147 180.00 0.95214 0.00
6 11 2 1 o 2521.899 2747.429 180.00 0.94929 0.08
7 3 7 1 o 3089.687 3042.231 180.00 0.94839 0.06
10 2 1 2 o 13641.338 13160.773 180.00 0.95053 0.15
4 3 9 2 o 36496.46 35033.504 0.00 0.95039 0.42
5 5 8 2 o 18529.025 18034.814 180.00 0.95006 0.21
6 2 8 2 o 66.583 63.987 0.00 0.95000 0.00
9 5 3 2 o 759.032 749.525 180.00 0.94993 0.01
1 10 7 2 o 138.314 138.066 180.00 0.95018 0.00
1 1 10 2 o 3130.599 3088.387 0.00 0.94970 0.04
6 9 5 1 o 2704.899 2670.628 0.00 0.94727 0.07
0 2 10 1 o 4766.939 4689.398 180.00 0.94709 0.06
9 6 2 1 o 2362.573 2304.901 0.00 0.94688 0.05
6 11 2 2 o 2826.441 2747.429 180.00 0.94929 0.05
2 11 6 1 o 7216.158 6967.953 180.00 0.94671 0.20
10 0 2 1 o 2716.517 2870.006 180.00 0.94613 0.03
5 9 6 1 o 22055.633 21984.936 0.00 0.94638 0.55
7 3 7 2 o 2832.770 3042.231 180.00 0.94839 0.03
6 9 5 2 o 2912.214 2670.628 0.00 0.94727 0.04
0 2 10 2 o 5387.952 4689.398 180.00 0.94709 0.03
9 6 2 2 o 2690.660 2304.901 0.00 0.94688 0.03
5 12 2 1 o 3248.933 2751.464 0.00 0.94458 0.09
7 6 6 1 o 151.763 126.720 0.00 0.94431 0.00
4 13 0 1 o 447.224 396.932 0.00 0.94454 0.00
2 11 6 2 o 8430.304 6967.953 180.00 0.94671 0.12
3 5 9 1 o 8750.771 7524.742 0.00 0.94413 0.19
10 0 2 2 o 3269.636 2870.006 180.00 0.94613 0.02
5 9 6 2 o 25904.350 21984.936 0.00 0.94638 0.33
10 1 2 1 o 3413.994 2879.200 180.00 0.94376 0.09
5 11 4 1 o 2182.174 1880.234 0.00 0.94378 0.06
6 10 4 1 o 23649.570 20548.205 180.00 0.94372 0.61
1 14 1 1 o 3489.655 2858.811 0.00 0.94389 0.13
10 3 0 1 o 1768.057 1625.029 180.00 0.94324 0.02
6 6 7 1 o 47.371 40.860 180.00 0.94328 0.00
4 11 5 1 o 68954.04 62621.52 180.00 0.94306 1.84
2 12 5 1 o 43015.43 39869.36 180.00 0.94291 1.16
1 2 10 1 o 8653.300 8389.254 0.00 0.94256 0.20
5 12 2 2 o 2764.710 2751.464 0.00 0.94458 0.04
7 6 6 2 o 127.005 126.720 0.00 0.94431 0.00
4 10 6 1 o 6346.627 6342.220 180.00 0.94213 0.17
4 13 0 2 o 397.703 396.932 0.00 0.94454 0.00
3 5 9 2 o 7596.123 7524.742 0.00 0.94413 0.08
10 1 2 2 o 3007.048 2879.200 180.00 0.94376 0.04
5 11 4 2 o 1949.195 1880.234 0.00 0.94378 0.03
6 10 4 2 o 21388.074 20548.205 180.00 0.94372 0.27
1 14 1 2 o 2960.052 2858.811 0.00 0.94389 0.06
10 3 0 2 o 1731.083 1625.029 180.00 0.94324 0.01
6 6 7 2 o 45.493 40.860 180.00 0.94328 0.00
2 6 9 1 o 26765.311 24584.633 0.00 0.94074 0.64
4 11 5 2 o 68219.35 62621.52 180.00 0.94306 0.91
8 3 6 1 o 5165.111 4874.221 180.00 0.94039 0.15
2 12 5 2 o 42921.43 39869.36 180.00 0.94291 0.58
1 2 10 2 o 8559.878 8389.254 0.00 0.94256 0.10
7 10 2 1 o 17563.037 17413.375 0.00 0.94019 0.43
4 13 1 1 o 38096.97 39351.93 180.00 0.93997 1.01
4 10 6 2 o 5958.726 6342.220 180.00 0.94213 0.08
9 4 4 1 o 1665.712 1761.682 0.00 0.93901 0.03
10 3 1 1 o 1.572 1.643 0.00 0.93869 0.00
2 0 10 1 o 289.525 291.103 0.00 0.93851 0.00
1 13 4 1 o 2206.996 2282.312 180.00 0.93879 0.06
2 6 9 2 o 24396.775 24584.633 0.00 0.94074 0.29
6 3 8 1 o 7238.816 7252.945 0.00 0.93819 0.19
8 3 6 2 o 4843.326 4874.221 180.00 0.94039 0.07
8 7 4 1 o 1118.920 1165.797 180.00 0.93784 0.04
7 10 2 2 o 17002.139 17413.375 0.00 0.94019 0.21
4 13 1 2 o 37453.01 39351.93 180.00 0.93997 0.49
10 2 2 1 o 9649.621 9108.741 180.00 0.93676 0.22
6 8 6 1 o 794.724 771.674 180.00 0.93695 0.02
9 4 4 2 o 1872.484 1761.682 0.00 0.93901 0.02
10 3 1 2 o 1.841 1.643 0.00 0.93869 0.00
2 10 7 1 o 22.657 20.743 180.00 0.93666 0.00
2 0 10 2 o 296.633 291.103 0.00 0.93851 0.00
2 1 10 1 o 25563.934 24535.367 180.00 0.93620 0.60
1 13 4 2 o 2451.467 2282.312 180.00 0.93879 0.03
6 3 8 2 o 7202.912 7252.945 0.00 0.93819 0.10
8 9 0 1 o 14050.579 14226.837 0.00 0.93581 0.18
8 7 4 2 o 1144.594 1165.797 180.00 0.93784 0.02
2 14 0 1 o 10310.931 10297.708 180.00 0.93507 0.16
3 13 3 1 o 31268.340 31610.660 0.00 0.93493 0.89
8 8 3 1 o 880.335 917.511 180.00 0.93465 0.02
10 2 2 2 o 8645.823 9108.741 180.00 0.93676 0.09
6 8 6 2 o 733.959 771.674 180.00 0.93695 0.01
0 14 2 1 o 27401.697 28320.895 0.00 0.93476 0.41
2 10 7 2 o 19.442 20.743 180.00 0.93666 0.00
4 7 8 1 o 840.545 873.926 180.00 0.93410 0.03
4 4 9 1 o 406.029 412.509 0.00 0.93395 0.01
2 1 10 2 o 24154.945 24535.367 180.00 0.93620 0.28
8 9 0 2 o 13674.101 14226.837 0.00 0.93581 0.09
9 1 5 1 o 1708.794 1778.507 180.00 0.93324 0.02
2 14 0 2 o 9545.896 10297.708 180.00 0.93507 0.07
3 13 3 2 o 29281.189 31610.660 0.00 0.93493 0.41
8 8 3 2 o 852.955 917.511 180.00 0.93465 0.01
7 4 7 1 o 665.271 709.645 0.00 0.93206 0.01
0 14 2 2 o 26082.918 28320.895 0.00 0.93476 0.19
4 7 8 2 o 831.160 873.926 180.00 0.93410 0.01
4 4 9 2 o 408.995 412.509 0.00 0.93395 0.00
8 9 1 1 o 18021.203 17425.258 180.00 0.93136 0.44
9 1 5 2 o 1837.781 1778.507 180.00 0.93324 0.01
1 3 10 1 o 1634.631 1547.659 0.00 0.93102 0.04
3 8 8 1 o 29882.766 29939.492 180.00 0.93041 0.72
2 14 1 1 o 177.878 172.351 180.00 0.93063 0.01
9 7 1 1 o 703.961 738.668 0.00 0.93025 0.02
4 12 4 1 o 674.841 678.634 0.00 0.93038 0.01
7 9 4 1 o 797.390 833.242 0.00 0.93022 0.02
1 14 2 1 o 29567.035 29676.939 0.00 0.93041 0.84
7 4 7 2 o 660.078 709.645 0.00 0.93206 0.01
2 2 10 1 o 30.653 31.153 0.00 0.92936 0.00
7 8 5 1 o 89.390 89.084 180.00 0.92908 0.00
8 9 1 2 o 17496.814 17425.258 180.00 0.93136 0.21
5 1 9 1 o 3240.024 3194.566 180.00 0.92895 0.06
1 3 10 2 o 1604.599 1547.659 0.00 0.93102 0.02
0 7 9 1 o 38374.14 37296.34 0.00 0.92846 0.46
3 8 8 2 o 30213.857 29939.492 180.00 0.93041 0.36
2 14 1 2 o 176.344 172.351 180.00 0.93063 0.00
9 7 1 2 o 740.429 738.668 0.00 0.93025 0.01
4 12 4 2 o 681.970 678.634 0.00 0.93038 0.01
7 9 4 2 o 834.171 833.242 0.00 0.93022 0.01
1 14 2 2 o 29939.598 29676.939 0.00 0.93041 0.43
8 6 5 1 o 6305.159 6235.608 0.00 0.92757 0.15
4 9 7 1 o 1547.588 1540.436 180.00 0.92771 0.04
10 4 0 1 o 40742.88 40244.20 180.00 0.92717 0.46
5 8 7 1 o 17433.895 17173.436 0.00 0.92725 0.41
2 2 10 2 o 31.311 31.153 0.00 0.92936 0.00
7 8 5 2 o 89.172 89.084 180.00 0.92908 0.00
5 1 9 2 o 3200.931 3194.566 180.00 0.92895 0.03
6 11 3 1 o 4070.176 4065.570 0.00 0.92676 0.11
9 2 5 1 o 840.300 833.474 180.00 0.92647 0.02
1 9 8 1 o 11856.370 11794.193 180.00 0.92657 0.29
4 13 2 1 o 466.528 464.975 0.00 0.92665 0.02
0 7 9 2 o 38302.05 37296.34 0.00 0.92846 0.23
10 3 2 1 o 2632.937 2447.254 180.00 0.92543 0.08
2 13 4 1 o 21947.949 21001.381 180.00 0.92575 0.62
8 6 5 2 o 6719.729 6235.608 0.00 0.92757 0.08
4 9 7 2 o 1635.692 1540.436 180.00 0.92771 0.02
10 4 0 2 o 45097.91 40244.20 180.00 0.92717 0.26
5 8 7 2 o 19139.037 17173.436 0.00 0.92725 0.23
5 6 8 1 o 26310.688 23706.188 0.00 0.92463 0.65
9 6 3 1 o 17017.873 15673.237 180.00 0.92451 0.40
3 11 6 1 o 2363.324 2109.256 180.00 0.92473 0.06
8 4 6 1 o 22121.693 20535.818 0.00 0.92446 0.52
6 11 3 2 o 4408.536 4065.570 0.00 0.92676 0.06
9 2 5 2 o 847.480 833.474 180.00 0.92647 0.01
1 9 8 2 o 12279.652 11794.193 180.00 0.92657 0.15
1 7 9 1 o 12436.395 12180.842 180.00 0.92420 0.28
4 13 2 2 o 498.931 464.975 0.00 0.92665 0.01
10 3 2 2 o 2672.756 2447.254 180.00 0.92543 0.04
2 13 4 2 o 21556.504 21001.381 180.00 0.92575 0.31
10 4 1 1 o 4278.492 3899.417 0.00 0.92285 0.10
6 4 8 1 o 65.563 64.005 0.00 0.92237 0.00
5 6 8 2 o 25631.918 23706.188 0.00 0.92463 0.32
5 2 9 1 o 79.453 78.630 0.00 0.92227 0.00
9 6 3 2 o 16559.502 15673.237 180.00 0.92451 0.19
3 11 6 2 o 2306.152 2109.256 180.00 0.92473 0.03
8 4 6 2 o 21483.068 20535.818 0.00 0.92446 0.25
5 12 3 1 o 30634.395 28254.852 0.00 0.92238 0.85
1 7 9 2 o 11987.593 12180.842 180.00 0.92420 0.14
10 1 3 1 o 2297.638 2538.488 0.00 0.92161 0.05
3 12 5 1 o 700.353 828.590 180.00 0.92119 0.02
10 4 1 2 o 3953.832 3899.417 0.00 0.92285 0.05
6 4 8 2 o 64.158 64.005 0.00 0.92237 0.00
5 2 9 2 o 78.380 78.630 0.00 0.92227 0.00
5 12 3 2 o 28552.545 28254.852 0.00 0.92238 0.39
0 4 10 1 o 15120.852 17024.607 180.00 0.91970 0.14
10 1 3 2 o 2075.354 2538.488 0.00 0.92161 0.02
3 6 9 1 o 138.794 208.372 0.00 0.91916 0.01
0 4 10 2 o 13630.576 17024.607 180.00 0.91970 0.06
9 5 4 1 o 6641.291 7422.867 180.00 0.91876 0.15
2 14 2 1 o 3267.981 4088.292 180.00 0.91770 0.07
9 7 2 1 o 4.947 5.696 0.00 0.91733 0.00
3 12 5 2 o 728.015 828.590 180.00 0.92119 0.01
3 0 10 1 o 483.605 587.257 180.00 0.91708 0.01
8 9 2 1 o 47.028 49.886 0.00 0.91840 0.00
2 3 10 1 o 5587.910 6970.675 180.00 0.91829 0.13
3 6 9 2 o 153.122 208.372 0.00 0.91916 0.00
7 10 3 1 o 1022.807 1310.026 0.00 0.91828 0.03
9 5 4 2 o 6773.202 7422.867 180.00 0.91876 0.08
8 9 2 2 o 49.262 49.886 0.00 0.91840 0.00
2 3 10 2 o 6933.586 6970.675 180.00 0.91829 0.08
7 10 3 2 o 1307.438 1310.026 0.00 0.91828 0.02
9 3 5 1 o 10248.544 9621.482 180.00 0.91550 0.27
1 4 10 1 o 1330.478 1254.502 0.00 0.91555 0.03
10 2 3 1 o 3824.367 4080.031 0.00 0.91509 0.09
3 10 7 1 o 7073.502 6904.979 0.00 0.91536 0.22
2 14 2 2 o 4248.235 4088.292 180.00 0.91770 0.05
9 7 2 2 o 5.474 5.696 0.00 0.91733 0.00
7 7 6 1 o 118.278 133.278 180.00 0.91500 0.00
3 1 10 1 o 1599.255 1789.442 180.00 0.91493 0.04
3 0 10 2 o 514.184 587.257 180.00 0.91708 0.00
6 12 0 1 o 5776.556 6695.198 180.00 0.91472 0.07
6 7 7 1 o 1367.576 1557.504 0.00 0.91405 0.03
4 5 9 1 o 1186.530 1335.722 0.00 0.91402 0.03
2 9 8 1 o 7980.134 8896.348 180.00 0.91402 0.17
9 3 5 2 o 9117.979 9621.482 180.00 0.91550 0.12
1 4 10 2 o 1200.756 1254.502 0.00 0.91555 0.01
10 2 3 2 o 3952.264 4080.031 0.00 0.91509 0.04
3 10 7 2 o 6514.917 6904.979 0.00 0.91536 0.10
7 7 6 2 o 129.451 133.278 180.00 0.91500 0.00
3 1 10 2 o 1764.098 1789.442 180.00 0.91493 0.02
7 5 7 1 o 9093.451 8746.192 0.00 0.91224 0.25
6 12 0 2 o 6765.085 6695.198 180.00 0.91472 0.05
0 12 6 1 o 12742.590 12076.325 0.00 0.91212 0.20
6 7 7 2 o 1697.769 1557.504 0.00 0.91405 0.02
4 5 9 2 o 1454.662 1335.722 0.00 0.91402 0.02
2 7 9 1 o 658.470 602.710 0.00 0.91174 0.02
2 9 8 2 o 9618.500 8896.348 180.00 0.91402 0.11
5 3 9 1 o 22681.760 19968.201 180.00 0.91145 0.58
6 12 1 1 o 24639.016 20469.201 180.00 0.91057 0.70
10 4 2 1 o 21255.850 18537.635 180.00 0.91023 0.55
7 5 7 2 o 9622.598 8746.192 0.00 0.91224 0.13
0 12 6 2 o 12966.239 12076.325 0.00 0.91212 0.10
2 7 9 2 o 630.671 602.710 0.00 0.91174 0.01
3 14 1 1 o 1424.921 1328.898 0.00 0.90973 0.06
5 3 9 2 o 21121.857 19968.201 180.00 0.91145 0.27
1 14 3 1 o 670.658 616.298 180.00 0.90916 0.03
3 2 10 1 o 14373.445 14015.768 180.00 0.90854 0.34
6 12 1 2 o 20689.357 20469.201 180.00 0.91057 0.28
10 4 2 2 o 17994.852 18537.635 180.00 0.91023 0.22
1 12 6 1 o 9064.104 9218.707 0.00 0.90807 0.24
10 5 0 1 o 14564.260 15439.164 0.00 0.90766 0.16
3 14 1 2 o 1198.902 1328.898 0.00 0.90973 0.03
0 11 7 1 o 484.571 511.856 180.00 0.90728 0.01
1 14 3 2 o 548.031 616.298 180.00 0.90916 0.01
7 11 1 1 o 9737.595 10740.628 0.00 0.90668 0.23
3 2 10 2 o 11676.182 14015.768 180.00 0.90854 0.13
1 12 6 2 o 7657.695 9218.707 0.00 0.90807 0.10
10 5 0 2 o 13851.865 15439.164 0.00 0.90766 0.07
4 13 3 1 o 1488.320 1789.664 180.00 0.90566 0.04
8 5 6 1 o 7297.661 7645.407 0.00 0.90512 0.20
3 13 4 1 o 437.390 457.164 0.00 0.90516 0.01
8 8 4 1 o 174.866 175.240 180.00 0.90491 0.00
0 11 7 2 o 500.233 511.856 180.00 0.90728 0.00
5 11 5 1 o 11221.978 11385.298 180.00 0.90498 0.31
6 10 5 1 o 6059.594 6093.967 180.00 0.90493 0.16
10 3 3 1 o 19793.443 19978.521 0.00 0.90451 0.48
7 11 1 2 o 10514.368 10740.628 0.00 0.90668 0.13
0 13 5 1 o 32598.549 32789.289 180.00 0.90453 0.45
5 10 6 1 o 444.374 488.076 0.00 0.90416 0.01
10 5 1 1 o 4350.641 4937.799 0.00 0.90360 0.10
7 0 8 1 o 2669.338 3034.447 0.00 0.90347 0.03
2 4 10 1 o 924.236 1108.520 0.00 0.90344 0.03
4 13 3 2 o 1568.058 1789.664 180.00 0.90566 0.02
6 5 8 1 o 13750.309 15329.186 180.00 0.90315 0.34
1 11 7 1 o 393.531 440.533 0.00 0.90330 0.01
8 5 6 2 o 6838.175 7645.407 0.00 0.90512 0.09
3 13 4 2 o 421.181 457.164 0.00 0.90516 0.00
8 8 4 2 o 160.023 175.240 180.00 0.90491 0.00
5 11 5 2 o 10290.590 11385.298 180.00 0.90498 0.14
6 10 5 2 o 5518.250 6093.967 180.00 0.90493 0.07
8 1 7 1 o 1414.675 1557.493 180.00 0.90245 0.03
10 3 3 2 o 18183.512 19978.521 0.00 0.90451 0.21
0 13 5 2 o 29964.699 32789.289 180.00 0.90453 0.20
5 13 1 1 o 5898.070 6572.875 180.00 0.90225 0.19
5 10 6 2 o 435.201 488.076 0.00 0.90416 0.01
4 8 8 1 o 579.185 621.529 180.00 0.90156 0.01
7 1 8 1 o 1034.178 1150.981 180.00 0.90141 0.02
10 5 1 2 o 4447.187 4937.799 0.00 0.90360 0.05
7 0 8 2 o 2742.511 3034.447 0.00 0.90347 0.02
2 4 10 2 o 962.408 1108.520 0.00 0.90344 0.02
6 5 8 2 o 14185.677 15329.186 180.00 0.90315 0.18
1 11 7 2 o 404.437 440.533 0.00 0.90330 0.01
9 4 5 1 o 517.810 550.620 0.00 0.90078 0.01
1 13 5 1 o 10256.625 10456.643 180.00 0.90059 0.30
8 1 7 2 o 1673.244 1557.493 180.00 0.90245 0.02
6 9 6 1 o 17583.227 16155.727 180.00 0.89999 0.49
5 13 1 2 o 7219.683 6572.875 180.00 0.90225 0.12
8 7 5 1 o 54844.12 53259.36 180.00 0.89974 1.39
4 8 8 2 o 582.467 621.529 180.00 0.90156 0.00
7 1 8 2 o 1003.563 1150.981 180.00 0.90141 0.01
9 4 5 2 o 529.587 550.620 0.00 0.90078 0.01
6 12 2 1 o 5369.571 5360.251 180.00 0.89844 0.14
3 3 10 1 o 163.948 155.688 180.00 0.89819 0.00
1 13 5 2 o 10705.722 10456.643 180.00 0.90059 0.16
9 8 1 1 o 6343.647 5900.881 0.00 0.89809 0.15
8 9 3 1 o 5606.748 5127.810 180.00 0.89795 0.15
6 9 6 2 o 17542.254 16155.727 180.00 0.89999 0.24
6 11 4 1 o 16600.041 15246.454 0.00 0.89775 0.52
8 7 5 2 o 55197.54 53259.36 180.00 0.89974 0.70
3 14 2 1 o 14991.990 14156.379 0.00 0.89764 0.44
5 7 8 1 o 14.173 14.767 0.00 0.89706 0.00
2 14 3 1 o 60.521 61.260 0.00 0.89730 0.00
9 7 3 1 o 591.799 629.663 180.00 0.89695 0.02
5 4 9 1 o 74.179 77.425 180.00 0.89692 0.00
1 5 10 1 o 5681.472 6018.677 180.00 0.89675 0.15
8 2 7 1 o 1.154 1.174 0.00 0.89632 0.00
4 11 6 1 o 1619.880 1662.384 180.00 0.89638 0.06
6 12 2 2 o 5388.375 5360.251 180.00 0.89844 0.07
2 12 6 1 o 136.247 136.189 180.00 0.89625 0.00
3 3 10 2 o 164.706 155.688 180.00 0.89819 0.00
9 8 1 2 o 6469.510 5900.881 0.00 0.89809 0.08
9 6 4 1 o 7728.210 6668.303 0.00 0.89571 0.20
8 9 3 2 o 5899.333 5127.810 180.00 0.89795 0.08
6 11 4 2 o 18386.568 15246.454 0.00 0.89775 0.29
7 2 8 1 o 18651.234 15929.079 180.00 0.89530 0.47
10 0 4 1 o 42849.23 37995.76 180.00 0.89507 0.54
3 14 2 2 o 16719.904 14156.379 0.00 0.89764 0.25
8 10 0 1 o 4237.060 3908.664 180.00 0.89493 0.06
5 7 8 2 o 15.579 14.767 0.00 0.89706 0.00
2 14 3 2 o 69.509 61.260 0.00 0.89730 0.00
9 7 3 2 o 649.290 629.663 180.00 0.89695 0.01
5 4 9 2 o 78.570 77.425 180.00 0.89692 0.00
7 11 2 1 o 2311.807 2274.090 180.00 0.89470 0.07
1 5 10 2 o 5866.679 6018.677 180.00 0.89675 0.08
8 2 7 2 o 1.084 1.174 0.00 0.89632 0.00
3 9 8 1 o 6027.926 6362.502 0.00 0.89420 0.15
4 11 6 2 o 1552.342 1662.384 180.00 0.89638 0.03
2 12 6 2 o 135.104 136.189 180.00 0.89625 0.00
5 12 4 1 o 5271.998 5299.933 0.00 0.89376 0.15
9 6 4 2 o 6966.367 6668.303 0.00 0.89571 0.09
10 1 4 1 o 18413.064 17028.510 0.00 0.89306 0.48
7 2 8 2 o 17170.461 15929.079 180.00 0.89530 0.21
10 0 4 2 o 39737.60 37995.76 180.00 0.89507 0.25
4 12 5 1 o 3663.848 3374.892 180.00 0.89315 0.11
7 9 5 1 o 10880.696 10080.397 0.00 0.89301 0.33
8 10 0 2 o 3969.893 3908.664 180.00 0.89493 0.03
1 8 9 1 o 197.384 197.326 180.00 0.89264 0.00
7 11 2 2 o 2231.413 2274.090 180.00 0.89470 0.03
3 7 9 1 o 5676.857 5778.292 0.00 0.89206 0.15
3 9 8 2 o 6287.924 6362.502 0.00 0.89420 0.08
10 5 2 1 o 2540.938 2521.647 0.00 0.89175 0.07
2 11 7 1 o 1019.563 1008.834 0.00 0.89166 0.03
5 12 4 2 o 5366.691 5299.933 0.00 0.89376 0.08
5 9 7 1 o 19152.229 18984.025 180.00 0.89139 0.54
4 6 9 1 o 1676.083 1670.194 0.00 0.89131 0.04
10 1 4 2 o 16327.838 17028.510 0.00 0.89306 0.21
8 10 1 1 o 1090.885 1115.199 0.00 0.89104 0.03
4 12 5 2 o 3269.630 3374.892 180.00 0.89315 0.05
7 9 5 2 o 9571.107 10080.397 0.00 0.89301 0.14
0 10 8 1 o 6445.167 6802.650 180.00 0.89061 0.08
10 4 3 1 o 1039.733 1096.178 180.00 0.89031 0.03
1 8 9 2 o 189.435 197.326 180.00 0.89264 0.00
5 13 2 1 o 13322.822 14111.721 0.00 0.89045 0.37
9 0 6 1 o 2557.294 2637.621 0.00 0.88991 0.03
7 10 4 1 o 34.040 35.058 0.00 0.89003 0.00
3 7 9 2 o 5589.838 5778.292 0.00 0.89206 0.08
