#------------------------------------------------------------------------------
#$Date: 2016-03-21 01:21:50 +0200 (Mon, 21 Mar 2016) $
#$Revision: 178377 $
#$URL: svn://www.crystallography.net/cod/cif/4/00/12/4001205.cif $
#------------------------------------------------------------------------------
#
# This file is available in the Crystallography Open Database (COD),
# http://www.crystallography.net/
#
# All data on this site have been placed in the public domain by the
# contributors.
#
data_4001205
loop_
_publ_author_name
'Zhou, Yongkai'
'Adams, Stefan'
'Rao, R. Prasada'
'Edwards, Doreen D.'
'Neiman, Arkady'
'Pestereva, N.'
_publ_section_title
;
 Charge Transport by Polyatomic Anion Diffusion in Sc2(WO4)3
;
_journal_issue                   20
_journal_name_full               'Chemistry of Materials'
_journal_page_first              6335
_journal_paper_doi               10.1021/cm800466y
_journal_volume                  20
_journal_year                    2008
_chemical_formula_moiety         ' Sc2(WO4)3 '
_chemical_formula_sum            'O12 Sc2 W3'
_chemical_formula_weight         833.45
_chemical_melting_point          1913
_chemical_name_common            ' Scandium Tungstate '
_chemical_name_systematic        ' Scandium Tungstate '
_space_group_IT_number           60
_symmetry_cell_setting           orthorhombic
_symmetry_space_group_name_Hall  '-P 2a 2n'
_symmetry_space_group_name_H-M   'P n c a'
_audit_creation_date             2008-01-25T12:03
_audit_creation_method           'from EXP file using GSAS2CIF'
_audit_update_record
' 2008-01-25T12:03  Initial CIF as created by GSAS2CIF'
_cell_angle_alpha                90.0
_cell_angle_beta                 90.0
_cell_angle_gamma                90.0
_cell_formula_units_Z            4
_cell_length_a                   9.61988(6)
_cell_length_b                   13.35768(8)
_cell_length_c                   9.54671(6)
_cell_measurement_temperature    1200
_cell_volume                     1226.745(13)
_computing_structure_refinement  GSAS
_diffrn_radiation_polarisn_ratio 0.68
_diffrn_radiation_probe          x-ray
_exptl_absorpt_correction_T_max  1.00000
_exptl_absorpt_correction_T_min  1.00000
_exptl_absorpt_process_details
;   GSAS Absorption/surface roughness correction: function number 0
 No correction is applied.
;
_pd_block_id
2008-01-25T12:03|T11K|Zhou_Yongkai|Philips_Xpert
_pd_calc_method                  'Rietveld Refinement'
_pd_instr_location               ' ?'
_pd_meas_2theta_range_inc        0.017
_pd_meas_2theta_range_max        119.9874
_pd_meas_2theta_range_min        10.0144
_pd_meas_number_of_points        6470
_pd_proc_2theta_range_inc        0.017
_pd_proc_2theta_range_max        119.9874
_pd_proc_2theta_range_min        10.0144
_pd_proc_info_datetime           2008-01-25T12:32:34
_pd_proc_info_excluded_regions   ' ?'
_pd_proc_ls_background_function
;   GSAS Background function number 1 with 12 terms.
 Shifted Chebyshev function of 1st kind
      1:    394.168     2:   -15.3276     3:   -20.0095     4:    63.2503    
      5:   -7.75285     6:    11.7902     7:   -12.9446     8:    7.04698    
      9:    10.4651    10:   -24.3176    11:    22.3896    12:   -4.02711    
;
_pd_proc_ls_peak_cutoff          0.00250
_pd_proc_ls_pref_orient_corr
;   March-Dollase
 AXIS  1 Ratio=   0.95667  h= 0.000  k= 1.000  l= 0.000
 Prefered orientation correction range: Min=   0.93572, Max=   1.14210
;
_pd_proc_ls_profile_function
;
 CW Profile function number 3 with  19 terms
 Pseudovoigt profile coefficients as parameterized in
 P. Thompson, D.E. Cox & J.B. Hastings (1987). J. Appl. Cryst.,20,79-83.
 Asymmetry correction of L.W. Finger, D.E. Cox & A. P. Jephcoat (1994).
 J. Appl. Cryst.,27,892-900.
 Peak tails are ignored  where the intensity is below 0.0025 times the peak
   Aniso. broadening axis   0.0   0.0   1.0
;
_pd_proc_ls_prof_R_factor        0.0492
_pd_proc_ls_prof_wR_expected     0.0366
_pd_proc_ls_prof_wR_factor       0.0639
_pd_proc_number_of_points        6470
_pd_spec_mounting                ' ?'
_refine_ls_goodness_of_fit_all   1.85
_refine_ls_matrix_type           full
_refine_ls_number_parameters     51
_refine_ls_number_restraints     0
_refine_ls_R_Fsqd_factor         0.07653
_refine_ls_shift/su_max          0.03
_refine_ls_shift/su_mean         0.01
_reflns_d_resolution_high        0.890
_reflns_d_resolution_low         6.679
_reflns_limit_h_max              10
_reflns_limit_h_min              0
_reflns_limit_k_max              15
_reflns_limit_k_min              0
_reflns_limit_l_max              10
_reflns_limit_l_min              0
_reflns_number_total             1822
_cod_data_source_file            cm800466y_si_025.cif
_cod_data_source_block           T1200K
_cod_depositor_comments
;
The following automatic conversions were performed:

'_chemical_melting_point' value ' 1913K ' was changed to '1913' - the
value should be numeric and without a unit
designator.

'_geom_bond_publ_flag' value 'N' changed to 'n'
according to /home/saulius/struct/CIF-dictionaries/cif_core.dic
dictionary named 'cif_core.dic' version 2.4.1 from 2010-06-29 (26
times).

'_geom_angle_publ_flag' value 'N' changed to 'n' according
to /home/saulius/struct/CIF-dictionaries/cif_core.dic dictionary
named 'cif_core.dic' version 2.4.1 from 2010-06-29 (33 times).

Automatic conversion script
Id: cif_fix_values 1715 2011-07-08 13:25:40Z adriana 
;
_cod_original_cell_volume        1226.746(15)
_cod_database_code               4001205
#BEGIN Tags that were not found in dictionaries:
_gsas_exptl_extinct_corr_t_min   1.00000
_gsas_exptl_extinct_corr_t_max   1.00000
#END Tags that were not found in dictionaries
loop_
_symmetry_equiv_pos_site_id
_symmetry_equiv_pos_as_xyz
1 +x,+y,+z
2 -x+1/2,+y+1/2,+z+1/2
3 +x,-y+1/2,+z+1/2
4 -x+1/2,-y,+z
-1 -x,-y,-z
-2 +x+1/2,-y+1/2,-z+1/2
-3 -x,+y+1/2,-z+1/2
-4 +x+1/2,+y,-z
loop_
_atom_site_type_symbol
_atom_site_label
_atom_site_fract_x
_atom_site_fract_y
_atom_site_fract_z
_atom_site_occupancy
_atom_site_thermal_displace_type
_atom_site_U_iso_or_equiv
_atom_site_symmetry_multiplicity
Sc Sc1 0.4709(4) 0.38211(27) 0.2462(5) 1.0 Uiso 0.0284(13) 8
W W1 0.25 0.0 0.47095(17) 1.0 Uiso 0.0344(4) 4
W W2 0.11232(13) 0.35633(9) 0.39033(13) 1.0 Uiso 0.0344(4) 8
O O1 0.0943(14) 0.1283(10) 0.0664(15) 1.0 Uiso 0.0797(22) 8
O O2 0.1536(14) 0.0768(9) 0.3720(16) 1.0 Uiso 0.0797(22) 8
O O3 0.0026(14) 0.2641(11) 0.3141(14) 1.0 Uiso 0.0797(22) 8
O O4 0.3377(14) 0.4050(9) 0.0737(14) 1.0 Uiso 0.0797(22) 8
O O5 0.0520(13) 0.4731(11) 0.3215(14) 1.0 Uiso 0.0797(22) 8
O O6 0.2928(15) 0.3479(10) 0.3417(15) 1.0 Uiso 0.0797(22) 8
loop_
_atom_type_symbol
_atom_type_number_in_cell
_atom_type_scat_dispersion_real
_atom_type_scat_dispersion_imag
_atom_type_scat_Cromer_Mann_a1
_atom_type_scat_Cromer_Mann_a2
_atom_type_scat_Cromer_Mann_a3
_atom_type_scat_Cromer_Mann_a4
_atom_type_scat_Cromer_Mann_b1
_atom_type_scat_Cromer_Mann_b2
_atom_type_scat_Cromer_Mann_b3
_atom_type_scat_Cromer_Mann_b4
_atom_type_scat_Cromer_Mann_c
_atom_type_scat_source
Sc 8.0 0.000 0.000 9.18900 9.02130 7.36790 0.57290 1.64090 136.108 1.46800
51.3531 1.33290 International_Tables_Vol_C
W 12.0 0.000 0.000 29.0818 1.72029 15.4300 9.22590 14.4327 0.32170 5.11982
57.0560 9.88750 International_Tables_Vol_C
O 48.0 0.000 0.000 3.04850 13.2771 2.28680 5.70110 1.54630 0.32390 0.86700
32.9089 0.25080 International_Tables_Vol_C
loop_
_diffrn_radiation_wavelength
_diffrn_radiation_wavelength_wt
_diffrn_radiation_type
_diffrn_radiation_wavelength_id
1.540500 1.000 K\a~1~ 1
1.544300 0.000 K\a~2~ 2
loop_
_geom_angle_atom_site_label_1
_geom_angle_atom_site_label_2
_geom_angle_atom_site_label_3
_geom_angle
_geom_angle_site_symmetry_1
_geom_angle_site_symmetry_3
_geom_angle_publ_flag
O1 Sc1 O2 90.1(5) -2_666 -2_666 n
O1 Sc1 O3 95.1(5) -2_666 -2_666 n
O1 Sc1 O4 173.7(6) -2_666 1_555 n
O1 Sc1 O5 80.2(5) -2_666 4_565 n
O1 Sc1 O6 94.5(6) -2_666 1_555 n
O2 Sc1 O3 88.5(6) -2_666 -2_666 n
O2 Sc1 O4 92.9(6) -2_666 1_555 n
O2 Sc1 O5 91.8(5) -2_666 4_565 n
O2 Sc1 O6 175.2(6) -2_666 1_555 n
O3 Sc1 O4 90.5(5) -2_666 1_555 n
O3 Sc1 O5 175.4(6) -2_666 4_565 n
O3 Sc1 O6 92.2(5) -2_666 1_555 n
O4 Sc1 O5 94.1(5) 1_555 4_565 n
O4 Sc1 O6 82.4(5) 1_555 1_555 n
O5 Sc1 O6 87.9(6) 4_565 1_555 n
O2 W1 O2 111.3(10) 1_555 4_555 n
O2 W1 O4 118.5(7) 1_555 2_545 n
O2 W1 O4 97.7(6) 1_555 3_555 n
O2 W1 O4 97.7(6) 4_555 2_545 n
O2 W1 O4 118.5(7) 4_555 3_555 n
O4 W1 O4 114.5(8) 2_545 3_555 n
O1 W2 O3 115.3(6) 3_555 1_555 n
O1 W2 O5 102.9(6) 3_555 1_555 n
O1 W2 O6 111.1(6) 3_555 1_555 n
O3 W2 O5 105.2(7) 1_555 1_555 n
O3 W2 O6 115.1(7) 1_555 1_555 n
O5 W2 O6 105.8(6) 1_555 1_555 n
Sc1 O1 W2 152.3(8) -2_466 3_554 n
Sc1 O2 W1 154.3(8) -2_555 1_555 n
Sc1 O3 W2 149.3(8) -2_466 1_555 n
Sc1 O4 W1 143.8(8) 1_555 2_554 n
Sc1 O5 W2 167.0(8) 4_565 1_555 n
Sc1 O6 W2 158.8(8) 1_555 1_555 n
loop_
_geom_bond_atom_site_label_1
_geom_bond_atom_site_label_2
_geom_bond_distance
_geom_bond_site_symmetry_2
_geom_bond_publ_flag
Sc1 O1 2.152(14) -2_555 n
Sc1 O2 2.159(14) -2_555 n
Sc1 O3 2.059(14) -2_555 n
Sc1 O4 2.109(13) 1_555 n
Sc1 O5 2.075(14) 4_565 n
Sc1 O6 1.994(14) 1_555 n
W1 O2 1.675(14) 1_555 n
W1 O2 1.675(14) 4_555 n
W1 O4 1.812(12) 2_545 n
W1 O4 1.812(12) 3_555 n
W2 O1 1.702(14) 3_555 n
W2 O3 1.778(14) 1_555 n
W2 O5 1.790(14) 1_555 n
W2 O6 1.801(15) 1_555 n
O1 Sc1 2.152(14) -2_455 n
O1 W2 1.702(14) 3_554 n
O2 Sc1 2.159(14) -2_455 n
O2 W1 1.675(14) 1_555 n
O3 Sc1 2.059(14) -2_455 n
O3 W2 1.778(14) 1_555 n
O4 Sc1 2.109(13) 1_555 n
O4 W1 1.812(12) 2_554 n
O5 Sc1 2.075(14) 4_565 n
O5 W2 1.790(14) 1_555 n
O6 Sc1 1.994(14) 1_555 n
O6 W2 1.801(15) 1_555 n
loop_
_pd_meas_counts_total
_pd_proc_ls_weight
_pd_proc_intensity_bkg_calc
_pd_calc_intensity_total
270.0 0.0 600.79150 .
276.0 0.0 597.33759 .
289.0 0.0 593.91071 .
259.0 0.0 590.51062 .
282.0 0.0 587.13666 .
276.0 0.0 583.78992 .
277.0 0.0 580.46924 .
309.0 0.0 577.17462 .
311.0 0.0 573.90662 .
276.0 0.0 570.66382 .
269.0 0.0 567.44751 .
269.0 0.0 564.25659 .
284.0 0.0 561.09125 .
284.0 0.0 557.95154 .
291.0 0.0 554.83710 .
305.0 0.0 551.74786 .
304.0 0.0 548.68353 .
282.0 0.0 545.64404 .
295.0 0.0 542.62982 .
285.0 0.0 539.64020 .
274.0 0.0 536.67511 .
285.0 0.0 533.73425 .
278.0 0.0 530.81769 .
272.0 0.0 527.92554 .
280.0 0.0 525.05756 .
261.0 0.0 522.21338 .
265.0 0.0 519.39307 .
267.0 0.0 516.59631 .
271.0 0.0 513.82318 .
297.0 0.0 511.07385 .
299.0 0.0 508.34744 .
305.0 0.0 505.64441 .
317.0 0.0 502.96432 .
326.0 0.0 500.30753 .
325.0 0.0 497.67371 .
310.0 0.0 495.06223 .
307.0 0.0 492.47360 .
311.0 0.0 489.90720 .
294.0 0.0 487.36346 .
302.0 0.0 484.84219 .
293.0 0.0 482.34280 .
283.0 0.0 479.86548 .
317.0 0.0 477.40991 .
304.0 0.0 474.97647 .
285.0 0.0 472.56479 .
288.0 0.0 470.17453 .
293.0 0.0 467.80566 .
317.0 0.0 465.45804 .
297.0 0.0 463.13205 .
275.0 0.0 460.82706 .
267.0 0.0 458.54318 .
292.0 0.0 456.27991 .
313.0 0.0 454.03745 .
292.0 0.0 451.81586 .
298.0 0.0 449.61490 .
308.0 0.0 447.43439 .
272.0 0.0 445.27411 .
312.0 0.0 443.13397 .
298.0 0.0 441.01425 .
275.0 0.0 438.91455 .
299.0 0.0 436.83475 .
285.0 0.0 434.77451 .
286.0 0.0 432.73410 .
294.0 0.0 430.71335 .
301.0 0.0 428.71225 .
291.0 0.0 426.73053 .
266.0 0.0 424.76776 .
308.0 0.0 422.82437 .
288.0 0.0 420.90005 .
285.0 0.0 418.99478 .
299.0 0.0 417.10843 .
310.0 0.0 415.24054 .
306.0 0.0 413.39148 .
315.0 0.0 411.56104 .
295.0 0.0 409.74911 .
295.0 0.0 407.95547 .
306.0 0.0 406.17987 .
305.0 0.0 404.42267 .
314.0 0.0 402.68338 .
300.0 0.0 400.96204 .
292.0 0.0 399.25885 .
303.0 0.0 397.57309 .
302.0 0.0 395.90494 .
317.0 0.0 394.25443 .
305.0 0.0 392.62158 .
302.0 0.0 391.00592 .
315.0 0.0 389.40747 .
321.0 0.0 387.82617 .
327.0 0.0 386.26199 .
317.0 0.0 384.71478 .
313.0 0.0 383.18454 .
304.0 0.0 381.67087 .
298.0 0.0 380.17395 .
299.0 0.0 378.69363 .
272.0 0.0 377.22989 .
275.0 0.0 375.78253 .
301.0 0.0 374.35126 .
292.0 0.0 372.93634 .
290.0 0.0 371.53760 .
299.0 0.0 370.15482 .
324.0 0.0 368.78809 .
313.0 0.0 367.43698 .
278.0 0.0 366.10168 .
278.0 0.0 364.78207 .
293.0 0.0 363.47797 .
307.0 0.0 362.18948 .
288.0 0.0 360.91617 .
314.0 0.0 359.65826 .
296.0 0.0 358.41562 .
300.0 0.0 357.18790 .
309.0 0.0 355.97543 .
279.0 0.0 354.77777 .
255.0 0.0 353.59491 .
285.0 0.0 352.42694 .
310.0 0.0 351.27356 .
286.0 0.0 350.13477 .
297.0 0.0 349.01044 .
334.0 0.002994 347.90048 347.90692
307.0 0.003257 346.80502 346.81140
283.0 0.00353 345.72372 345.72992
312.0 0.003205 344.65652 344.66263
301.0 0.003322 343.60342 343.60944
328.0 0.003049 342.56418 342.57010
315.0 0.003175 341.53903 341.54486
304.0 0.003289 340.52768 340.53329
301.0 0.003322 339.52997 339.53552
310.0 0.003226 338.54584 338.55136
285.0 0.00351 337.57529 337.58072
294.0 0.003401 336.61841 336.62369
287.0 0.003484 335.67480 335.67999
282.0 0.00355 334.74454 334.74957
307.0 0.003257 333.82742 333.83234
322.0 0.003106 332.92346 332.92831
303.0 0.003300 332.03271 332.03741
311.0 0.003215 331.15488 331.15948
316.0 0.003165 330.29001 330.29453
292.0 0.003425 329.43787 329.44232
302.0 0.003311 328.59842 328.60278
315.0 0.003175 327.77176 327.77600
303.0 0.003300 326.95773 326.96188
311.0 0.003215 326.15613 326.16022
318.0 0.003145 325.36700 325.37100
337.0 0.002967 324.59015 324.59396
321.0 0.003115 323.82565 323.82944
310.0 0.003226 323.07330 323.07709
318.0 0.003145 322.33313 322.33679
315.0 0.003175 321.60501 321.60855
289.0 0.003460 320.88873 320.89218
288.0 0.003472 320.18457 320.18796
303.0 0.003300 319.49210 319.49536
314.0 0.003185 318.81131 318.81451
306.0 0.003268 318.14224 318.14539
291.0 0.003436 317.48465 317.48776
313.0 0.003195 316.83875 316.84174
324.0 0.003086 316.20428 316.20721
290.0 0.003448 315.58112 315.58392
300.0 0.003333 314.96924 314.97205
280.0 0.00357 314.36853 314.37128
304.0 0.003289 313.77908 313.78174
287.0 0.003484 313.20074 313.20325
300.0 0.003333 312.63330 312.63571
293.0 0.003413 312.07675 312.07916
287.0 0.003484 311.53104 311.53348
325.0 0.003077 310.99622 310.99850
331.0 0.003021 310.47211 310.47427
315.0 0.003175 309.95862 309.96075
331.0 0.003021 309.45569 309.45773
308.0 0.003247 308.96317 308.96524
330.0 0.003030 308.48126 311.89731
319.0 0.003135 308.00964 311.71951
296.0 0.003378 307.54825 313.30405
318.0 0.003145 307.09711 313.39581
353.0 0.002833 306.65616 313.59348
349.0 0.002865 306.22522 313.92740
351.0 0.002849 305.80441 314.44540
354.0 0.002825 305.39346 315.23862
326.0 0.003067 304.99240 316.61020
392.0 0.002551 304.60117 319.74887
390.0 0.002564 304.21970 327.23508
380.0 0.002632 303.84793 340.88135
379.0 0.002639 303.48572 360.30206
416.0 0.002404 303.13300 384.51505
423.0 0.002364 302.78983 412.30563
415.0 0.002410 302.45609 442.95343
459.0 0.002179 302.13168 476.45001
495.0 0.002020 301.81650 513.11725
530.0 0.001887 301.51062 553.41736
555.0 0.001802 301.21381 597.90356
586.0 0.001706 300.92615 647.31219
698.0 0.001433 300.64752 702.60498
747.0 0.001339 300.37781 764.97339
821.0 0.001218 300.11700 836.08746
874.0 0.001144 299.86502 918.12854
951.0 0.001052 299.62180 1014.21863
1105.0 0.000905 299.38733 1128.87817
1318.0 0.000759 299.16150 1269.07397
1566.0 0.000639 298.94415 1446.24756
1939.0 0.000516 298.73547 1681.54382
2425.0 0.000412 298.53516 2022.86255
3026.0 0.0003305 298.34326 2578.43042
3555.0 0.0002813 298.15970 3345.92920
3559.0 0.0002810 297.98444 3589.94824
2844.0 0.000352 297.81735 2767.47607
1874.0 0.000534 297.65845 1862.52771
1056.0 0.000947 297.50763 1023.30798
582.0 0.001718 297.36484 558.13177
430.0 0.002326 297.23001 417.26901
354.0 0.002825 297.10312 375.57291
354.0 0.002825 296.98404 354.69800
385.0 0.002597 296.87280 341.42175
369.0 0.002710 296.76929 332.32150
348.0 0.002874 296.67337 325.77557
326.0 0.003067 296.58527 320.89056
346.0 0.002890 296.50461 317.13693
356.0 0.002809 296.43149 314.18356
351.0 0.002849 296.36578 311.81400
330.0 0.003030 296.30743 309.88181
322.0 0.003106 296.25656 308.28482
335.0 0.002985 296.21286 306.94971
334.0 0.002994 296.17645 305.82278
347.0 0.002882 296.14713 304.86374
327.0 0.003058 296.12494 304.04196
342.0 0.002924 296.10983 303.33405
314.0 0.003185 296.10172 298.55432
338.0 0.002959 296.10052 296.10028
309.0 0.003236 296.10626 296.10602
348.0 0.002874 296.11880 296.11856
318.0 0.003145 296.13824 296.13794
311.0 0.003215 296.16428 296.16400
357.0 0.002801 296.19696 296.19666
339.0 0.002950 296.23633 296.23602
323.0 0.003096 296.28229 296.28198
328.0 0.003049 296.33478 296.33444
290.0 0.003448 296.39368 296.39328
345.0 0.002899 296.45898 296.45856
324.0 0.003086 296.53067 296.53027
306.0 0.003268 296.60867 296.60828
347.0 0.002882 296.69293 296.69257
333.0 0.003003 296.78336 296.78293
335.0 0.002985 296.87994 296.87955
344.0 0.002907 296.98264 296.98224
330.0 0.003030 297.09143 297.09100
331.0 0.003021 297.20621 297.20572
340.0 0.002941 297.32684 297.32642
336.0 0.002976 297.45349 297.45297
342.0 0.002924 297.58597 297.58545
335.0 0.002985 297.72415 297.72369
345.0 0.002899 297.86819 297.86771
330.0 0.003030 298.01788 298.01740
318.0 0.003145 298.17319 298.17273
326.0 0.003067 298.33417 298.33362
335.0 0.002985 298.50064 303.21579
362.0 0.002762 298.67270 303.77762
376.0 0.002660 298.85013 306.72070
371.0 0.002695 299.03305 307.60544
355.0 0.002817 299.22134 308.60541
387.0 0.002584 299.41486 309.74863
404.0 0.002475 299.61374 311.07529
379.0 0.002639 299.81769 312.64429
372.0 0.002688 300.02695 314.55145
395.0 0.002532 300.24130 316.99512
408.0 0.002451 300.46075 320.69360
405.0 0.002469 300.68530 328.19650
403.0 0.002481 300.91473 343.93500
429.0 0.002331 301.14914 369.79446
475.0 0.002105 301.38843 404.76852
520.0 0.001923 301.63263 447.78632
534.0 0.001873 301.88159 497.20364
544.0 0.001838 302.13535 552.10693
577.0 0.001733 302.39374 612.79901
644.0 0.001553 302.65686 680.13464
691.0 0.001447 302.92465 755.22650
802.0 0.001247 303.19708 839.60614
913.0 0.001095 303.47394 935.37323
982.0 0.001018 303.75537 1045.18774
1105.0 0.000905 304.04117 1172.90015
1245.0 0.000803 304.33142 1323.99951
1449.0 0.000690 304.62613 1506.65381
1683.0 0.000594 304.92511 1733.94995
2092.0 0.000478 305.22836 2028.76794
2608.0 0.000383 305.53586 2438.55371
3346.0 0.0002989 305.84760 3079.29712
4280.0 0.0002336 306.16345 4084.22021
4690.0 0.0002132 306.48349 4878.35352
3898.0 0.0002565 306.80746 4151.64502
2674.0 0.000374 307.13568 2954.57788
1707.0 0.000586 307.46774 1904.27332
856.0 0.001168 307.80383 958.15076
566.0 0.001767 308.14377 555.42749
429.0 0.002331 308.48761 445.94073
427.0 0.002342 308.83527 405.23224
378.0 0.002646 309.18680 381.82199
386.0 0.002591 309.54208 366.50797
353.0 0.002833 309.90100 355.91306
376.0 0.002660 310.26361 348.28500
370.0 0.002703 310.62985 342.62570
364.0 0.002747 310.99973 338.32892
365.0 0.002740 311.37326 335.00879
417.0 0.002398 311.75021 332.40833
373.0 0.002681 312.13058 330.35092
347.0 0.002882 312.51443 328.71191
353.0 0.002833 312.90176 327.40085
356.0 0.002809 313.29242 326.35110
351.0 0.002849 313.68640 325.51224
362.0 0.002762 314.08368 324.84586
350.0 0.002857 314.48422 318.18179
378.0 0.002646 314.88797 318.26389
349.0 0.002865 315.29495 315.29486
359.0 0.002786 315.70499 315.70490
349.0 0.002865 316.11819 316.11816
346.0 0.002890 316.53455 316.53439
328.0 0.003049 316.95380 316.95383
311.0 0.003215 317.37613 317.37610
314.0 0.003185 317.80142 317.80142
346.0 0.002890 318.22961 318.22968
335.0 0.002985 318.66071 318.66071
332.0 0.003012 319.09467 319.09476
338.0 0.002959 319.53149 319.53156
335.0 0.002985 319.97110 319.97122
321.0 0.003115 320.41339 320.41354
328.0 0.003049 320.85849 320.85861
336.0 0.002976 321.30627 321.30643
338.0 0.002959 321.75671 321.75684
324.0 0.003086 322.20975 322.20999
342.0 0.002924 322.66534 322.66559
353.0 0.002833 323.12350 323.12381
330.0 0.003030 323.58423 323.58444
337.0 0.002967 324.04736 324.04773
362.0 0.002762 324.51303 324.51334
357.0 0.002801 324.98105 324.98141
329.0 0.003040 325.45154 325.45187
345.0 0.002899 325.92432 325.92477
348.0 0.002874 326.39941 326.39984
319.0 0.003135 326.87692 326.87735
316.0 0.003165 327.35654 327.35703
329.0 0.003040 327.83844 327.83893
354.0 0.002825 328.32260 328.32306
330.0 0.003030 328.80884 328.80936
342.0 0.002924 329.29727 329.29785
334.0 0.002994 329.78778 329.78833
335.0 0.002985 330.28033 330.28094
324.0 0.003086 330.77499 330.77560
350.0 0.002857 331.27167 331.27228
350.0 0.002857 331.77026 331.77094
329.0 0.003040 332.27075 332.27151
356.0 0.002809 332.77325 332.77399
332.0 0.003012 333.27774 333.27850
354.0 0.002825 333.78394 333.78470
342.0 0.002924 334.29208 334.29285
329.0 0.003040 334.80185 334.80267
332.0 0.003012 335.31351 335.31433
329.0 0.003040 335.82697 335.82785
301.0 0.003322 336.34210 336.34299
321.0 0.003115 336.85886 336.85980
327.0 0.003058 337.37735 337.37820
331.0 0.003021 337.89746 337.89847
323.0 0.003096 338.41916 338.42010
353.0 0.002833 338.94238 338.94345
326.0 0.003067 339.46722 339.46823
335.0 0.002985 339.99353 339.99463
337.0 0.002967 340.52133 340.52243
349.0 0.002865 341.05060 341.05179
367.0 0.002725 341.58139 341.58258
338.0 0.002959 342.11343 342.11469
334.0 0.002994 342.64703 342.64825
330.0 0.003030 343.18188 343.18311
326.0 0.003067 343.71811 343.71939
329.0 0.003040 344.25562 344.25690
348.0 0.002874 344.79434 344.79575
339.0 0.002950 345.33432 345.33572
340.0 0.002941 345.87564 345.87701
367.0 0.002725 346.41803 346.41949
369.0 0.002710 346.96179 346.96320
363.0 0.002755 347.50647 347.50797
346.0 0.002890 348.05234 348.05389
335.0 0.002985 348.59930 348.60089
323.0 0.003096 349.14746 349.14899
306.0 0.003268 349.69659 349.69812
318.0 0.003145 350.24670 350.24832
333.0 0.003003 350.79770 350.79944
324.0 0.003086 351.34976 351.35156
311.0 0.003215 351.90289 351.90457
325.0 0.003077 352.45691 352.45865
357.0 0.002801 353.01178 353.01349
340.0 0.002941 353.56750 353.56931
331.0 0.003021 354.12399 354.12579
327.0 0.003058 354.68143 354.68335
367.0 0.002725 355.23972 355.24158
371.0 0.002695 355.79877 355.80063
338.0 0.002959 356.35849 356.36044
358.0 0.002793 356.91895 356.92093
332.0 0.003012 357.48016 357.48221
316.0 0.003165 358.04202 358.04410
333.0 0.003003 358.60458 358.60672
347.0 0.002882 359.16785 359.16992
333.0 0.003003 359.73157 359.73380
333.0 0.003003 360.29620 360.29831
345.0 0.002899 360.86108 360.86328
351.0 0.002849 361.42664 361.42892
381.0 0.002625 361.99271 361.99500
356.0 0.002809 362.55933 362.56161
307.0 0.003257 363.12643 363.12878
340.0 0.002941 363.69403 363.69638
328.0 0.003049 364.26205 364.26453
343.0 0.002915 364.83044 364.83295
369.0 0.002710 365.39923 365.40176
336.0 0.002976 365.96857 365.97104
351.0 0.002849 366.53818 366.54071
353.0 0.002833 367.10809 367.11066
354.0 0.002825 367.67831 367.68094
368.0 0.002717 368.24884 368.25146
359.0 0.002786 368.81976 368.82239
370.0 0.002703 369.39093 369.39359
372.0 0.002688 369.96225 369.96487
345.0 0.002899 370.53381 370.53653
340.0 0.002941 371.10544 371.10828
355.0 0.002817 371.67752 371.68033
326.0 0.003067 372.24963 372.25253
331.0 0.003021 372.82184 372.82480
336.0 0.002976 373.39426 373.39716
316.0 0.003165 373.96674 373.96970
327.0 0.003058 374.53937 374.54230
346.0 0.002890 375.11197 375.11499
357.0 0.002801 375.68472 375.68774
339.0 0.002950 376.25748 376.26056
333.0 0.003003 376.83014 376.83325
332.0 0.003012 377.40292 377.40604
350.0 0.002857 377.97562 377.97882
372.0 0.002688 378.54825 378.55148
363.0 0.002755 379.12091 379.12415
364.0 0.002747 379.69348 379.69672
370.0 0.002703 380.26590 380.26917
369.0 0.002710 380.83826 380.84152
334.0 0.002994 381.41043 381.41379
350.0 0.002857 381.98248 381.98593
356.0 0.002809 382.55438 382.55777
347.0 0.002882 383.12601 383.12946
341.0 0.002933 383.69766 383.70108
337.0 0.002967 384.26892 384.27234
358.0 0.002793 384.83987 384.84348
353.0 0.002833 385.41074 385.41434
347.0 0.002882 385.98129 385.98492
346.0 0.002890 386.55151 386.55518
370.0 0.002703 387.12146 387.12515
366.0 0.002732 387.69125 387.69485
337.0 0.002967 388.26044 388.26416
357.0 0.002801 388.82944 388.83316
331.0 0.003021 389.39807 389.40186
348.0 0.002874 389.96631 389.97009
362.0 0.002762 390.53415 390.53796
341.0 0.002933 391.10159 391.10541
349.0 0.002865 391.66849 391.67249
354.0 0.002825 392.23511 392.23907
358.0 0.002793 392.80127 392.80518
340.0 0.002941 393.36682 393.37082
321.0 0.003115 393.93201 393.93600
322.0 0.003106 394.49664 394.50076
361.0 0.002770 395.06085 395.06494
337.0 0.002967 395.62439 395.62851
350.0 0.002857 396.18744 396.19165
378.0 0.002646 396.75003 396.75424
352.0 0.002841 397.31198 397.31619
374.0 0.002674 397.87329 397.87756
345.0 0.002899 398.43408 398.43832
340.0 0.002941 398.99414 398.99850
402.0 0.002488 399.55362 399.55804
383.0 0.002611 400.11258 400.11694
343.0 0.002915 400.67087 400.67529
313.0 0.003195 401.22836 401.23273
354.0 0.002825 401.78522 401.78964
346.0 0.002890 402.34140 402.34592
367.0 0.002725 402.89679 402.90140
333.0 0.003003 403.45163 403.45618
369.0 0.002710 404.00565 404.01309
349.0 0.002865 404.55887 404.56650
370.0 0.002703 405.11133 405.11923
380.0 0.002632 405.66302 405.67270
352.0 0.002841 406.21405 406.22418
365.0 0.002740 406.76416 406.77478
354.0 0.002825 407.31348 407.32458
355.0 0.002817 407.86200 407.87375
349.0 0.002865 408.40970 409.43954
342.0 0.002924 408.95648 410.06055
346.0 0.002890 409.50250 410.68942
350.0 0.002857 410.04749 411.84363
374.0 0.002674 410.59171 413.13712
377.0 0.002653 411.13504 413.88528
348.0 0.002874 411.67752 414.65991
366.0 0.002732 412.21893 415.77451
373.0 0.002681 412.75952 416.64465
368.0 0.002717 413.29910 417.57132
365.0 0.002740 413.83783 418.56909
363.0 0.002755 414.37555 419.65311
366.0 0.002732 414.91232 420.84653
394.0 0.002538 415.44800 422.18420
402.0 0.002488 415.98270 423.72202
394.0 0.002538 416.51651 425.58450
426.0 0.002347 417.04932 428.21152
440.0 0.002273 417.58096 432.89359
454.0 0.002203 418.11163 441.22379
466.0 0.002146 418.64111 453.37424
460.0 0.002174 419.16977 469.29483
515.0 0.001942 419.69730 490.04767
552.0 0.001812 420.22375 516.42773
583.0 0.001715 420.74902 548.43005
590.0 0.001695 421.27316 586.32739
614.0 0.001629 421.79630 630.37073
611.0 0.001637 422.31830 681.52454
679.0 0.001473 422.83917 743.20221
787.0 0.001271 423.35889 818.70935
927.0 0.001079 423.87744 914.29865
994.0 0.001006 424.39496 1043.51953
1226.0 0.000816 424.91119 1237.13916
1553.0 0.000644 425.42624 1527.11938
1756.0 0.000569 425.94016 1751.99500
1632.0 0.000613 426.45282 1590.45251
1452.0 0.000689 426.96436 1442.49023
1532.0 0.000653 427.47464 1475.64795
1347.0 0.000742 427.98364 1325.54980
980.0 0.001020 428.49152 1003.86768
812.0 0.001232 428.99805 821.46454
667.0 0.001499 429.50354 729.82831
582.0 0.001718 430.00763 585.08783
489.0 0.002045 430.51047 496.96686
439.0 0.002278 431.01190 468.77017
422.0 0.002370 431.51224 458.74094
397.0 0.002519 432.01132 453.17902
393.0 0.002545 432.50897 449.57101
377.0 0.002653 433.00534 447.12009
405.0 0.002469 433.50052 445.40829
384.0 0.002604 433.99420 444.19522
406.0 0.002463 434.48669 443.33911
393.0 0.002545 434.97787 442.74158
412.0 0.002427 435.46765 442.33817
386.0 0.002591 435.95596 442.08344
408.0 0.002451 436.44302 441.94498
434.0 0.002304 436.92871 440.27518
427.0 0.002342 437.41309 440.43280
404.0 0.002475 437.89603 439.77457
395.0 0.002532 438.37756 440.08475
420.0 0.002381 438.85773 439.46814
450.0 0.002222 439.33652 439.89279
443.0 0.002257 439.81384 450.36075
436.0 0.002294 440.28979 451.60452
444.0 0.002252 440.76428 452.93610
426.0 0.002347 441.23743 459.66412
424.0 0.002358 441.70908 461.60681
454.0 0.002203 442.17929 463.73825
451.0 0.002217 442.64807 466.09436
458.0 0.002183 443.11539 468.72052
470.0 0.002128 443.58127 471.67487
441.0 0.002268 444.04572 475.03418
474.0 0.002110 444.50861 478.90005
509.0 0.001965 444.97006 483.41238
493.0 0.002028 445.42996 488.77155
519.0 0.001927 445.88843 495.27670
580.0 0.001724 446.34543 503.40939
598.0 0.001672 446.80093 514.11719
620.0 0.001613 447.25491 530.48474
651.0 0.001536 447.70746 563.11072
726.0 0.001377 448.15829 630.31506
777.0 0.001287 448.60773 739.01831
916.0 0.001092 449.05566 884.07758
1003.0 0.000997 449.50195 1067.73340
1210.0 0.000826 449.94681 1292.82910
1459.0 0.000685 450.39008 1558.30115
1683.0 0.000594 450.83179 1868.27722
2011.0 0.000497 451.27194 2233.76001
2520.0 0.000397 451.71057 2672.27588
3085.0 0.0003241 452.14764 3211.21924
3779.0 0.0002646 452.58307 3897.23535
4844.0 0.0002064 453.01697 4819.29541
6367.0 0.0001571 453.44931 6184.77734
8676.0 0.0001153 453.88000 8389.31934
11140.0 0.0000898 454.30914 10900.25000
10214.0 0.0000979 454.73676 10247.30859
6788.0 0.0001473 455.16272 7061.64209
5731.0 0.0001745 455.58707 5851.78418
4317.0 0.0002316 456.00983 4336.46484
1925.0 0.000519 456.43091 2124.59424
1002.0 0.000998 456.85046 1106.54810
781.0 0.001280 457.26834 820.36780
667.0 0.001499 457.68457 711.72363
637.0 0.001570 458.09927 649.20544
595.0 0.001681 458.51230 608.29071
535.0 0.001869 458.92365 579.87146
528.0 0.001894 459.33340 559.26898
559.0 0.001789 459.74152 543.83795
507.0 0.001972 460.14798 531.97949
541.0 0.001848 460.55280 522.67493
530.0 0.001887 460.95596 515.24951
489.0 0.002045 461.35742 509.23944
481.0 0.002079 461.75735 504.31812
440.0 0.002273 462.15546 500.24863
435.0 0.002299 462.55197 496.85538
464.0 0.002155 462.94684 494.00632
458.0 0.002183 463.34000 474.49097
444.0 0.002252 463.73145 473.84747
441.0 0.002268 464.12131 473.34119
445.0 0.002247 464.50934 464.51697
473.0 0.002114 464.89584 464.90341
485.0 0.002062 465.28055 465.28821
487.0 0.002053 465.66360 465.67123
468.0 0.002137 466.04489 466.05264
473.0 0.002114 466.42462 466.43231
497.0 0.002012 466.80255 466.81024
492.0 0.002033 467.17883 467.18652
496.0 0.002016 467.55341 467.56110
478.0 0.002092 467.92621 467.93399
455.0 0.002198 468.29733 468.30511
462.0 0.002165 468.66666 482.30002
480.0 0.002083 469.03448 483.64746
500.0 0.002000 469.40045 485.10504
500.0 0.002000 469.76465 493.45361
488.0 0.002049 470.12720 495.67502
480.0 0.002083 470.48798 498.12912
483.0 0.002070 470.84708 500.85901
470.0 0.002128 471.20453 503.91904
511.0 0.001957 471.56015 507.37506
498.0 0.002008 471.91400 511.31677
525.0 0.001905 472.26614 515.85712
562.0 0.001779 472.61652 521.15240
563.0 0.001776 472.96533 527.41748
581.0 0.001721 473.31223 534.95392
637.0 0.001570 473.65747 544.22766
672.0 0.001488 474.00082 555.97870
671.0 0.001490 474.34256 571.70068
756.0 0.001323 474.68262 596.24689
799.0 0.001252 475.02075 645.78271
915.0 0.001093 475.35727 747.08508
1117.0 0.000895 475.69196 908.37384
1219.0 0.000820 476.02490 1121.50586
1391.0 0.000719 476.35614 1392.07251
1555.0 0.000643 476.68555 1727.64917
1928.0 0.000519 477.01331 2129.55322
2352.0 0.000425 477.33914 2606.04712
2875.0 0.0003478 477.66327 3178.47583
3416.0 0.0002927 477.98584 3883.25415
4313.0 0.0002319 478.30646 4780.05029
5706.0 0.0001753 478.62537 5984.02148
7689.0 0.0001301 478.94244 7763.73730
10976.0 0.0000911 479.25790 10633.95605
13905.0 0.0000719 479.57153 13916.74902
12749.0 0.0000784 479.88330 13038.34570
8467.0 0.0001181 480.19339 8798.11719
6862.0 0.0001457 480.50159 7399.73975
5580.0 0.0001792 480.80820 5998.62695
2812.0 0.000356 481.11301 3045.24023
1259.0 0.000794 481.41599 1458.99854
881.0 0.001135 481.71729 996.39160
763.0 0.001311 482.01666 834.48102
728.0 0.001374 482.31433 745.05945
661.0 0.001513 482.61038 687.27155
611.0 0.001637 482.90451 647.43817
611.0 0.001637 483.19687 618.67743
611.0 0.001637 483.48743 597.18793
563.0 0.001776 483.77631 580.67731
552.0 0.001812 484.06339 567.70673
540.0 0.001852 484.34869 557.33685
569.0 0.001757 484.63217 548.91254
564.0 0.001773 484.91394 541.98370
582.0 0.001718 485.19391 536.21906
579.0 0.001727 485.47223 531.37646
586.0 0.001706 485.74860 527.27747
568.0 0.001761 486.02328 501.08554
587.0 0.001704 486.29611 499.94427
621.0 0.001610 486.56723 511.91888
592.0 0.001689 486.83667 500.68060
590.0 0.001695 487.10422 501.95840
626.0 0.001597 487.37003 509.70721
619.0 0.001616 487.63400 511.67838
610.0 0.001639 487.89630 513.85687
636.0 0.001572 488.15695 530.14764
666.0 0.001502 488.41553 533.85541
682.0 0.001466 488.67255 538.02362
719.0 0.001391 488.92767 549.55011
687.0 0.001456 489.18112 555.41846
734.0 0.001362 489.43286 562.15875
743.0 0.001346 489.68268 569.97357
758.0 0.001319 489.93094 579.14984
750.0 0.001333 490.17722 590.07654
810.0 0.001235 490.42172 603.33624
886.0 0.001129 490.66467 619.83813
966.0 0.001035 490.90576 641.26538
1054.0 0.000949 491.14511 701.31305
1144.0 0.000874 491.38263 761.54962
1261.0 0.000793 491.61841 877.16968
1495.0 0.000669 491.85251 1073.64282
1615.0 0.000619 492.08475 1316.71143
1869.0 0.000535 492.31528 1627.64087
2207.0 0.000453 492.54401 2028.39526
2620.0 0.000382 492.77106 2550.44678
3111.0 0.0003214 492.99643 3227.08765
3837.0 0.0002606 493.21988 4082.37793
4812.0 0.0002078 493.44162 5161.38770
6170.0 0.0001621 493.66162 6562.99951
8366.0 0.0001195 493.87988 8486.03613
11606.0 0.0000862 494.09653 11371.47656
15969.0 0.0000626 494.31119 15341.69531
17483.0 0.0000572 494.52420 17269.80469
14718.0 0.0000679 494.73550 14303.90039
13557.0 0.0000738 494.94504 13253.87988
15274.0 0.0000655 495.15286 14888.55469
16517.0 0.0000605 495.35901 15815.15723
16661.0 0.0000600 495.56329 16489.09570
13912.0 0.0000719 495.76587 13539.25488
10019.0 0.0000998 495.96677 10057.51660
9397.0 0.0001064 496.16599 9936.62793
8706.0 0.0001149 496.36331 9202.18555
6589.0 0.0001518 496.55905 7318.80127
6194.0 0.0001614 496.75296 7153.04004
7225.0 0.0001384 496.94516 8304.35938
9160.0 0.0001092 497.13571 10173.93848
12400.0 0.0000806 497.32446 12874.76758
17406.0 0.0000575 497.51160 17102.52148
23548.0 0.0000425 497.69693 23716.23047
26933.0 0.0000371 497.88058 28867.69531
22459.0 0.0000445 498.06253 22910.29297
15666.0 0.0000638 498.24271 15503.43750
13334.0 0.0000750 498.42126 14326.62500
10391.0 0.0000962 498.59805 11005.55762
5348.0 0.0001870 498.77307 5135.44824
2298.0 0.000435 498.94653 2361.64575
1504.0 0.000665 499.11819 1563.30676
1268.0 0.000789 499.28821 1243.86206
1116.0 0.000896 499.45645 1065.76721
1028.0 0.000973 499.62308 925.75366
975.0 0.001026 499.78802 845.23077
935.0 0.001070 499.95129 790.82916
896.0 0.001116 500.11276 735.31091
853.0 0.001172 500.27264 702.18298
806.0 0.001241 500.43076 678.20996
750.0 0.001333 500.58731 657.47180
707.0 0.001414 500.74207 640.69641
682.0 0.001466 500.89526 626.98486
668.0 0.001497 501.04666 618.48926
668.0 0.001497 501.19653 609.38165
657.0 0.001522 501.34467 601.92792
637.0 0.001570 501.49109 550.94769
628.0 0.001592 501.63589 549.99744
656.0 0.001524 501.77899 549.74780
640.0 0.001563 501.92047 526.67120
683.0 0.001464 502.06042 529.83655
679.0 0.001473 502.19855 533.66718
666.0 0.001502 502.33508 538.42035
665.0 0.001504 502.46988 544.53076
701.0 0.001427 502.60315 553.07263
733.0 0.001364 502.73477 567.82379
715.0 0.001399 502.86469 598.02081
836.0 0.001196 502.99304 651.41205
831.0 0.001203 503.11969 726.71680
940.0 0.001064 503.24478 823.01715
1029.0 0.000972 503.36819 945.84412
1141.0 0.000876 503.49002 1100.19775
1286.0 0.000778 503.61017 1292.30750
1503.0 0.000665 503.72873 1537.32300
1785.0 0.000560 503.84570 1858.01196
2330.0 0.000429 503.96109 2288.31958
3044.0 0.0003285 504.07480 2908.10034
4151.0 0.0002409 504.18683 3881.51050
5191.0 0.0001926 504.29739 5052.55664
5102.0 0.0001960 504.40631 5001.39160
3731.0 0.0002680 504.51367 3727.71191
3409.0 0.0002933 504.61942 3442.19141
3583.0 0.0002791 504.72348 3581.20923
3145.0 0.0003180 504.82605 3104.03125
2912.0 0.0003434 504.92703 3010.38208
3137.0 0.0003188 505.02646 3417.61401
2882.0 0.0003470 505.12424 3050.06641
2134.0 0.000469 505.22046 2143.34106
1752.0 0.000571 505.31509 1911.83740
1606.0 0.000623 505.40817 1783.13538
1196.0 0.000836 505.49976 1198.25964
782.0 0.001279 505.58975 791.54785
682.0 0.001466 505.67813 658.62555
644.0 0.001553 505.76489 613.37433
620.0 0.001613 505.85022 588.79950
624.0 0.001603 505.93405 572.61578
586.0 0.001706 506.01624 561.18152
553.0 0.001808 506.09686 552.71124
602.0 0.001661 506.17599 546.21954
592.0 0.001689 506.25354 541.10767
558.0 0.001792 506.32965 529.43634
572.0 0.001748 506.40417 526.69739
546.0 0.001832 506.47714 524.45502
553.0 0.001808 506.54865 518.71185
550.0 0.001818 506.61862 517.47931
574.0 0.001742 506.68704 516.44666
587.0 0.001704 506.75409 515.57440
582.0 0.001718 506.81943 510.08319
572.0 0.001748 506.88342 509.83618
575.0 0.001739 506.94580 509.63043
545.0 0.001835 507.00677 507.01489
520.0 0.001923 507.06625 507.07434
548.0 0.001825 507.12424 507.13226
521.0 0.001919 507.18069 515.95593
538.0 0.001859 507.23566 516.63757
546.0 0.001832 507.28922 517.38861
543.0 0.001842 507.34125 522.43561
541.0 0.001848 507.39185 523.65625
558.0 0.001792 507.44095 525.01953
509.0 0.001965 507.48859 526.55170
558.0 0.001792 507.53482 528.28430
537.0 0.001862 507.57950 530.25568
527.0 0.001898 507.62283 532.51721
550.0 0.001818 507.66464 535.13202
591.0 0.001692 507.70505 538.18573
601.0 0.001664 507.74402 541.79199
624.0 0.001603 507.78152 546.10284
619.0 0.001616 507.81763 551.34052
656.0 0.001524 507.85226 557.82483
653.0 0.001531 507.88556 566.06079
688.0 0.001453 507.91736 576.91486
769.0 0.001300 507.94775 592.41083
817.0 0.001224 507.97678 619.63898
878.0 0.001139 508.00433 677.24103
960.0 0.001042 508.03049 783.62000
1086.0 0.000921 508.05536 937.27472
1251.0 0.000799 508.07877 1134.23779
1483.0 0.000674 508.10068 1386.61218
1756.0 0.000569 508.12131 1708.00513
2061.0 0.000485 508.14053 2109.37012
2521.0 0.000397 508.15839 2614.51587
3134.0 0.0003191 508.17487 3273.75171
4266.0 0.0002344 508.18994 4196.43506
6092.0 0.0001641 508.20374 5637.46289
8258.0 0.0001211 508.21613 7760.12744
8946.0 0.0001118 508.22711 8848.39355
6784.0 0.0001474 508.23676 6434.48730
4809.0 0.0002079 508.24512 4554.96240
4533.0 0.0002206 508.25201 4543.11182
3829.0 0.0002612 508.25772 3787.64063
2185.0 0.000458 508.26190 1998.81299
1122.0 0.000891 508.26489 1092.88538
823.0 0.001215 508.26645 827.44812
771.0 0.001297 508.26675 728.73718
737.0 0.001357 508.26578 673.05859
677.0 0.001477 508.26343 653.45178
668.0 0.001497 508.25977 629.56885
638.0 0.001567 508.25482 612.68060
604.0 0.001656 508.24850 600.45349
592.0 0.001689 508.24097 599.93457
570.0 0.001754 508.23206 594.01752
585.0 0.001709 508.22195 589.96606
584.0 0.001712 508.21048 587.47601
606.0 0.001650 508.19778 586.32971
636.0 0.001572 508.18378 586.42889
615.0 0.001626 508.16846 587.67242
613.0 0.001631 508.15192 590.10138
619.0 0.001616 508.13416 579.60040
631.0 0.001585 508.11502 585.87500
709.0 0.001410 508.09470 593.70410
727.0 0.001376 508.07309 596.10449
740.0 0.001351 508.05032 609.10773
792.0 0.001263 508.02618 625.61169
839.0 0.001192 508.00098 647.26245
905.0 0.001105 507.97437 677.62836
1024.0 0.000977 507.94656 728.53046
1158.0 0.000864 507.91763 834.47516
1352.0 0.000740 507.88736 1039.49817
1623.0 0.000616 507.85593 1347.89160
1811.0 0.000552 507.82327 1747.33191
2178.0 0.000459 507.78937 2259.02417
2715.0 0.000368 507.75433 2918.58887
3425.0 0.0002920 507.71802 3755.25098
4296.0 0.0002328 507.68054 4819.74463
5815.0 0.0001720 507.64191 6228.07129
7940.0 0.0001259 507.60208 8243.04395
11834.0 0.0000845 507.56104 11442.22656
16718.0 0.0000598 507.51886 15729.01172
17121.0 0.0000584 507.47552 16405.41016
11083.0 0.0000902 507.43097 10865.70215
8060.0 0.0001241 507.38525 8160.92920
8717.0 0.0001147 507.33835 8504.40625
6982.0 0.0001432 507.29037 6641.02930
3254.0 0.0003073 507.24118 3193.42749
1447.0 0.000691 507.19089 1600.51416
1010.0 0.000990 507.13947 1137.15845
919.0 0.001088 507.08688 956.31085
810.0 0.001235 507.03317 842.73444
723.0 0.001383 506.97830 763.80170
694.0 0.001441 506.92230 711.83331
679.0 0.001473 506.86523 675.65063
622.0 0.001608 506.80701 648.72797
603.0 0.001658 506.74774 627.93707
562.0 0.001779 506.68738 611.49811
568.0 0.001761 506.62582 598.24017
554.0 0.001805 506.56314 587.37177
520.0 0.001923 506.49951 578.34503
559.0 0.001789 506.43469 570.75165
562.0 0.001779 506.36887 564.30048
535.0 0.001869 506.30188 528.24634
501.0 0.001996 506.23392 526.00720
525.0 0.001905 506.16483 524.07672
504.0 0.001984 506.09467 522.39703
494.0 0.002024 506.02347 506.20853
501.0 0.001996 505.95117 506.02487
521.0 0.001919 505.87793 505.94492
535.0 0.001869 505.80356 505.86484
526.0 0.001901 505.72815 505.78458
520.0 0.001923 505.65170 505.65814
524.0 0.001908 505.57428 505.58063
527.0 0.001898 505.49579 505.50211
523.0 0.001912 505.41626 505.42261
498.0 0.002008 505.33569 505.34204
474.0 0.002110 505.25418 505.26050
492.0 0.002033 505.17163 505.17795
466.0 0.002146 505.08810 505.09436
472.0 0.002119 505.00357 505.00980
475.0 0.002105 504.91800 504.92422
469.0 0.002132 504.83151 504.83774
481.0 0.002079 504.74399 504.75018
497.0 0.002012 504.65546 504.66171
493.0 0.002028 504.56610 504.57220
484.0 0.002066 504.47565 504.48172
480.0 0.002083 504.38416 504.39032
474.0 0.002110 504.29184 504.29794
473.0 0.002114 504.19849 504.20459
487.0 0.002053 504.10425 504.11035
440.0 0.002273 504.00906 504.01505
468.0 0.002137 503.91296 503.91888
485.0 0.002062 503.81586 503.82178
523.0 0.001912 503.71774 503.72372
471.0 0.002123 503.61880 503.62473
496.0 0.002016 503.51889 503.52487
488.0 0.002049 503.41815 503.42398
497.0 0.002012 503.31641 503.32230
506.0 0.001976 503.21381 503.21967
495.0 0.002020 503.11032 503.11609
517.0 0.001934 503.00586 503.01166
488.0 0.002049 502.90048 502.90628
514.0 0.001946 502.79431 502.80008
504.0 0.001984 502.68719 502.69293
511.0 0.001957 502.57919 502.58493
472.0 0.002119 502.47034 502.47607
485.0 0.002062 502.36063 508.50858
483.0 0.002070 502.24997 508.82431
474.0 0.002110 502.13852 509.18579
491.0 0.002037 502.02631 509.59967
518.0 0.001931 501.91309 513.15753
521.0 0.001919 501.79910 513.91876
522.0 0.001916 501.68420 514.78735
487.0 0.002053 501.56845 515.78278
506.0 0.001976 501.45197 516.92767
497.0 0.002012 501.33453 518.25201
509.0 0.001965 501.21640 519.79236
517.0 0.001934 501.09735 521.59662
545.0 0.001835 500.97754 523.72729
559.0 0.001789 500.85693 526.26459
553.0 0.001808 500.73544 529.32184
566.0 0.001767 500.61319 533.05243
539.0 0.001855 500.49020 537.68140
556.0 0.001799 500.36627 543.54694
561.0 0.001783 500.24164 551.18414
585.0 0.001709 500.11624 561.57953
657.0 0.001522 499.99005 577.35492
721.0 0.001387 499.86313 607.47137
804.0 0.001244 499.73538 670.42114
868.0 0.001152 499.60687 779.97205
983.0 0.001017 499.47757 927.72797
1132.0 0.000883 499.34763 1118.31885
1351.0 0.000740 499.21692 1366.31372
1654.0 0.000605 499.08536 1691.75891
2099.0 0.000476 498.95306 2115.23584
2694.0 0.000371 498.82010 2689.68140
3745.0 0.0002670 498.68637 3539.55200
5356.0 0.0001867 498.55191 4878.57324
6763.0 0.0001479 498.41669 6273.91699
5807.0 0.0001722 498.28085 5546.04150
3897.0 0.0002566 498.14426 3565.74365
3284.0 0.0003045 498.00693 3093.23657
3609.0 0.0002771 497.86887 3338.82617
2744.0 0.000364 497.73010 2576.51294
1510.0 0.000662 497.59082 1389.22449
907.0 0.001103 497.45071 882.97083
675.0 0.001481 497.30994 736.34296
672.0 0.001488 497.16843 677.85315
682.0 0.001466 497.02625 646.78302
615.0 0.001626 496.88345 631.28302
661.0 0.001513 496.73996 630.61938
677.0 0.001477 496.59586 652.70673
731.0 0.001368 496.45102 703.61511
834.0 0.001199 496.30557 782.70374
877.0 0.001140 496.15948 888.51978
1098.0 0.000911 496.01266 1028.69580
1109.0 0.000902 495.86530 1216.03625
1401.0 0.000714 495.71729 1464.12219
1852.0 0.000540 495.56857 1804.06226
2478.0 0.000404 495.41934 2311.00879
3345.0 0.0002990 495.26944 3098.11621
4336.0 0.0002306 495.11890 3893.81421
3662.0 0.0002731 494.96777 3390.43774
2311.0 0.000433 494.81604 2244.62305
2062.0 0.000485 494.66367 1994.35681
2271.0 0.000440 494.51077 2153.62549
1800.0 0.000556 494.35721 1720.42297
1056.0 0.000947 494.20306 1019.64423
688.0 0.001453 494.04834 717.43097
616.0 0.001623 493.89304 628.29065
597.0 0.001675 493.73712 591.55933
553.0 0.001808 493.58078 570.43823
550.0 0.001818 493.42374 557.03198
556.0 0.001799 493.26608 548.23163
505.0 0.001980 493.10803 542.51019
503.0 0.001988 492.94931 539.10980
518.0 0.001931 492.79010 537.85724
521.0 0.001919 492.63031 539.65869
523.0 0.001912 492.46994 547.39294
518.0 0.001931 492.30914 563.44812
553.0 0.001808 492.14771 588.46436
593.0 0.001686 491.98587 621.58209
622.0 0.001608 491.82339 664.95111
641.0 0.001560 491.66043 716.54718
741.0 0.001350 491.49698 795.63568
860.0 0.001163 491.33292 905.68842
1048.0 0.000954 491.16852 1074.46936
1325.0 0.000755 491.00357 1338.06091
1583.0 0.000632 490.83807 1590.75757
1445.0 0.000692 490.67215 1445.26074
1177.0 0.000850 490.50562 1191.11633
1166.0 0.000858 490.33871 1226.42126
1303.0 0.000767 490.17130 1389.89099
1328.0 0.000753 490.00339 1411.51123
1403.0 0.000713 489.83505 1434.69287
1696.0 0.000590 489.66620 1705.44043
2044.0 0.000489 489.49695 2097.89185
1849.0 0.000541 489.32724 1996.10034
1307.0 0.000765 489.15698 1406.07715
1114.0 0.000898 488.98636 1197.98267
1225.0 0.000816 488.81528 1279.45007
1064.0 0.000940 488.64383 1179.62097
738.0 0.001355 488.47183 822.15875
556.0 0.001799 488.29941 624.54120
531.0 0.001883 488.12662 563.50122
498.0 0.002008 487.95343 540.62268
461.0 0.002169 487.77979 527.71021
484.0 0.002066 487.60577 519.22852
479.0 0.002088 487.43121 513.25421
480.0 0.002083 487.25635 508.83575
459.0 0.002179 487.08109 503.54913
497.0 0.002012 486.90549 501.01553
465.0 0.002151 486.72940 498.96960
416.0 0.002404 486.55295 497.28192
432.0 0.002315 486.37613 494.92230
418.0 0.002392 486.19894 493.79056
422.0 0.002370 486.02139 492.81281
432.0 0.002315 485.84344 491.95663
426.0 0.002347 485.66504 488.01965
408.0 0.002451 485.48645 487.60529
392.0 0.002551 485.30734 487.22437
434.0 0.002304 485.12808 486.87085
450.0 0.002222 484.94830 484.95111
430.0 0.002326 484.76825 484.77100
427.0 0.002342 484.58783 484.59061
453.0 0.002208 484.40707 484.40979
447.0 0.002237 484.22598 484.22864
446.0 0.002242 484.04459 484.04733
435.0 0.002299 483.86282 483.86545
435.0 0.002299 483.68079 483.68347
448.0 0.002232 483.49844 483.50107
453.0 0.002208 483.31583 483.31836
479.0 0.002088 483.13275 483.13531
444.0 0.002252 482.94946 482.95200
443.0 0.002257 482.76590 482.76843
465.0 0.002151 482.58200 482.58447
447.0 0.002237 482.39786 482.40033
453.0 0.002208 482.21350 482.21588
467.0 0.002141 482.02863 482.03101
471.0 0.002123 481.84369 481.84604
469.0 0.002132 481.65829 481.66071
459.0 0.002179 481.47278 481.47519
453.0 0.002208 481.28702 481.28937
449.0 0.002227 481.10086 481.10315
439.0 0.002278 480.91455 480.91684
425.0 0.002353 480.72797 480.73016
405.0 0.002469 480.54114 480.54333
427.0 0.002342 480.35410 480.35629
443.0 0.002257 480.16669 480.16879
442.0 0.002262 479.97913 479.98129
431.0 0.002320 479.79132 479.79343
438.0 0.002283 479.60330 479.60541
480.0 0.002083 479.41504 479.41714
479.0 0.002088 479.22656 479.22858
495.0 0.002020 479.03787 479.03986
503.0 0.001988 478.84897 483.98340
486.0 0.002058 478.65985 484.14612
517.0 0.001934 478.47055 487.35056
507.0 0.001972 478.28098 487.79758
522.0 0.001916 478.09125 490.82724
523.0 0.001912 477.90137 491.59897
534.0 0.001873 477.71130 494.46170
464.0 0.002155 477.52100 497.18298
503.0 0.001988 477.33041 498.61685
502.0 0.001992 477.13983 500.26450
499.0 0.002004 476.94901 502.16757
464.0 0.002155 476.75803 505.40726
468.0 0.002137 476.56689 508.05838
456.0 0.002193 476.37546 511.17319
479.0 0.002088 476.18408 514.86053
528.0 0.001894 475.99240 519.27228
541.0 0.001848 475.80063 524.61121
526.0 0.001901 475.60870 531.16925
576.0 0.001736 475.41656 539.37524
599.0 0.001669 475.22443 549.88525
625.0 0.001600 475.03195 563.83350
656.0 0.001524 474.83954 583.75421
737.0 0.001357 474.64697 617.64117
820.0 0.001220 474.45419 684.09674
932.0 0.001073 474.26135 798.90015
1082.0 0.000924 474.06830 974.75934
1213.0 0.000824 473.87527 1219.93274
1506.0 0.000664 473.68201 1552.47217
1955.0 0.000512 473.48871 2001.05469
2492.0 0.000401 473.29535 2622.82227
3356.0 0.0002980 473.10178 3534.80811
4756.0 0.0002103 472.90826 4930.48096
6228.0 0.0001606 472.71460 6540.19189
6660.0 0.0001502 472.52072 6682.54688
6062.0 0.0001650 472.32690 5868.07568
5787.0 0.0001728 472.13293 5687.55225
5315.0 0.0001881 471.93896 5217.25488
5002.0 0.0001999 471.74487 4880.16895
4901.0 0.0002040 471.55063 4445.24658
4427.0 0.0002259 471.35645 4120.23438
3060.0 0.0003268 471.16211 2798.09741
1886.0 0.000530 470.96783 1756.68481
1661.0 0.000602 470.77341 1547.42102
1702.0 0.000588 470.57889 1569.49011
1377.0 0.000726 470.38440 1247.92993
917.0 0.001091 470.18985 849.06561
668.0 0.001497 469.99530 679.04517
587.0 0.001704 469.80066 620.77679
582.0 0.001718 469.60602 589.77618
596.0 0.001678 469.41138 569.47058
571.0 0.001751 469.21658 555.09174
552.0 0.001812 469.02191 544.49933
533.0 0.001876 468.82715 536.50696
543.0 0.001842 468.63232 530.41382
588.0 0.001701 468.43762 516.29736
549.0 0.001821 468.24277 513.64905
530.0 0.001887 468.04800 506.07147
531.0 0.001883 467.85321 505.69705
502.0 0.001992 467.65836 502.67465
522.0 0.001916 467.46362 504.43570
527.0 0.001898 467.26880 507.15347
537.0 0.001862 467.07407 504.76105
542.0 0.001845 466.87930 511.61157
562.0 0.001779 466.68448 520.37439
573.0 0.001745 466.48981 534.19507
639.0 0.001565 466.29514 559.43060
721.0 0.001387 466.10049 615.29858
774.0 0.001292 465.90591 706.48138
861.0 0.001161 465.71115 835.31061
960.0 0.001042 465.51672 1004.80762
1242.0 0.000805 465.32217 1228.15088
1475.0 0.000678 465.12772 1535.02185
1999.0 0.000500 464.93335 1980.79297
2792.0 0.000358 464.73889 2674.39746
3830.0 0.0002611 464.54459 3646.81836
4269.0 0.0002342 464.35031 4025.38916
2859.0 0.0003498 464.15616 2816.17578
1779.0 0.000562 463.96204 1964.85974
2007.0 0.000498 463.76794 2004.28174
2230.0 0.000448 463.57397 2244.15454
1835.0 0.000545 463.38000 1777.17590
1052.0 0.000951 463.18625 1057.51306
740.0 0.001351 462.99246 769.56854
686.0 0.001458 462.79874 713.78088
675.0 0.001481 462.60522 724.90735
747.0 0.001339 462.41168 769.41833
842.0 0.001188 462.21826 847.48926
937.0 0.001067 462.02505 967.95410
1103.0 0.000907 461.83176 1156.74207
1456.0 0.000687 461.63870 1457.39050
1797.0 0.000556 461.44571 1767.67969
1567.0 0.000638 461.25284 1592.52661
1091.0 0.000917 461.06006 1135.17212
981.0 0.001019 460.86737 1005.88513
1061.0 0.000943 460.67487 1094.89575
1074.0 0.000931 460.48239 1098.44934
903.0 0.001107 460.29016 827.09198
676.0 0.001479 460.09799 639.86267
617.0 0.001621 459.90591 585.22345
637.0 0.001570 459.71396 580.54602
693.0 0.001443 459.52225 604.68347
733.0 0.001364 459.33066 664.56482
792.0 0.001263 459.13916 772.56299
883.0 0.001133 458.94778 921.20398
1042.0 0.000960 458.75659 1120.02063
1314.0 0.000761 458.56558 1391.79175
1753.0 0.000570 458.37473 1773.92407
2432.0 0.000411 458.18405 2348.75220
3450.0 0.0002899 457.99341 3249.69385
4378.0 0.0002284 457.80304 4214.99316
3790.0 0.0002639 457.61279 3785.80322
2483.0 0.000403 457.42270 2390.61108
2021.0 0.000495 457.23282 1945.09998
2299.0 0.000435 457.04306 2194.42505
2321.0 0.000431 456.85361 2275.12451
1585.0 0.000631 456.66422 1514.01624
917.0 0.001091 456.47504 885.84113
647.0 0.001546 456.28610 667.67853
593.0 0.001686 456.09726 599.95923
565.0 0.001770 455.90866 570.38910
525.0 0.001905 455.72021 551.67926
506.0 0.001976 455.53210 529.46173
490.0 0.002041 455.34406 512.26080
476.0 0.002101 455.15619 503.89542
468.0 0.002137 454.96860 499.66354
511.0 0.001957 454.78125 493.13538
442.0 0.002262 454.59402 484.08047
450.0 0.002222 454.40710 478.20245
404.0 0.002475 454.22031 474.69272
439.0 0.002278 454.03378 472.10275
445.0 0.002247 453.84744 469.97598
366.0 0.002732 453.66147 460.23135
414.0 0.002415 453.47559 459.33435
437.0 0.002288 453.28992 458.55212
424.0 0.002358 453.10446 457.86014
445.0 0.002247 452.91937 453.11063
402.0 0.002488 452.73447 452.89963
369.0 0.002710 452.54977 452.69400
415.0 0.002410 452.36533 452.49228
438.0 0.002283 452.18118 452.29385
437.0 0.002288 451.99716 452.09790
447.0 0.002237 451.81354 451.90414
400.0 0.002500 451.63010 451.66489
388.0 0.002577 451.44687 451.47803
413.0 0.002421 451.26401 451.29202
413.0 0.002421 451.08130 451.10657
400.0 0.002500 450.89893 450.89734
416.0 0.002404 450.71683 450.71521
395.0 0.002532 450.53491 450.53329
423.0 0.002364 450.35330 450.35175
443.0 0.002257 450.17206 450.17032
415.0 0.002410 449.99106 449.98932
413.0 0.002421 449.81027 449.80847
420.0 0.002381 449.62976 449.62808
425.0 0.002353 449.44955 449.44781
448.0 0.002232 449.26971 449.26788
467.0 0.002141 449.09009 449.08829
457.0 0.002188 448.91074 448.90894
417.0 0.002398 448.73166 448.72986
413.0 0.002421 448.55295 448.55106
411.0 0.002433 448.37451 448.37262
405.0 0.002469 448.19638 448.19452
414.0 0.002415 448.01859 448.01660
426.0 0.002347 447.84103 447.83905
425.0 0.002353 447.66382 447.66187
431.0 0.002320 447.48688 447.48489
445.0 0.002247 447.31033 447.30835
417.0 0.002398 447.13406 447.13199
401.0 0.002494 446.95807 446.95593
422.0 0.002370 446.78241 446.78036
414.0 0.002415 446.60706 446.60495
428.0 0.002336 446.43210 446.42996
423.0 0.002364 446.25745 446.25531
427.0 0.002342 446.08304 446.08084
428.0 0.002336 445.90906 445.90689
392.0 0.002551 445.73538 445.73312
368.0 0.002717 445.56201 445.55984
426.0 0.002347 445.38904 445.38678
440.0 0.002273 445.21628 445.21402
416.0 0.002404 445.04401 445.04169
416.0 0.002404 444.87195 444.86969
423.0 0.002364 444.70038 444.69806
425.0 0.002353 444.52905 444.52676
420.0 0.002381 444.35809 444.35571
429.0 0.002331 444.18747 444.18515
445.0 0.002247 444.01724 444.01489
467.0 0.002141 443.84741 443.84503
422.0 0.002370 443.67795 443.67554
383.0 0.002611 443.50870 443.50626
433.0 0.002309 443.33994 443.33749
457.0 0.002188 443.17151 443.16901
439.0 0.002278 443.00345 443.00095
460.0 0.002174 442.83578 442.83325
445.0 0.002247 442.66840 442.66583
436.0 0.002294 442.50150 442.49893
412.0 0.002427 442.33484 442.33224
422.0 0.002370 442.16867 442.16608
427.0 0.002342 442.00287 442.00024
411.0 0.002433 441.83737 441.83475
411.0 0.002433 441.67236 441.66968
421.0 0.002375 441.50769 441.50494
464.0 0.002155 441.34338 441.34067
398.0 0.002513 441.17947 441.17676
412.0 0.002427 441.01596 441.01318
430.0 0.002326 440.85284 440.85010
447.0 0.002237 440.69012 440.68729
435.0 0.002299 440.52783 442.30652
450.0 0.002222 440.36588 442.26273
435.0 0.002299 440.20425 442.23160
415.0 0.002410 440.04321 442.21478
417.0 0.002398 439.88248 442.21439
399.0 0.002506 439.72223 443.13043
419.0 0.002387 439.56226 443.23083
410.0 0.002439 439.40271 443.36295
417.0 0.002398 439.24365 443.53220
453.0 0.002208 439.08493 443.74500
438.0 0.002283 438.92673 451.18164
416.0 0.002404 438.76889 451.98447
424.0 0.002358 438.61136 452.91138
416.0 0.002404 438.45444 453.98492
407.0 0.002457 438.29779 455.23563
447.0 0.002237 438.14172 460.30826
448.0 0.002232 437.98593 462.27884
439.0 0.002278 437.83057 467.83105
447.0 0.002237 437.67569 470.82358
460.0 0.002174 437.52124 474.42453
457.0 0.002188 437.36725 478.83221
443.0 0.002257 437.21365 484.35995
479.0 0.002088 437.06049 494.23563
567.0 0.001764 436.90778 504.49722
571.0 0.001751 436.75546 521.58899
572.0 0.001748 436.60367 554.02032
638.0 0.001567 436.45227 606.60706
701.0 0.001427 436.30124 685.98346
750.0 0.001333 436.15082 787.18878
916.0 0.001092 436.00070 924.03699
1138.0 0.000879 435.85114 1123.91809
1403.0 0.000713 435.70193 1431.19690
1996.0 0.000501 435.55319 1887.01526
2417.0 0.000414 435.40494 2207.97485
2057.0 0.000486 435.25705 1807.02930
1545.0 0.000647 435.10983 1434.29150
1579.0 0.000633 434.96286 1559.95166
1915.0 0.000522 434.81644 2001.50073
2355.0 0.000425 434.67044 2432.10107
2525.0 0.000396 434.52490 2639.86353
3058.0 0.0003270 434.37991 3164.72729
3991.0 0.0002506 434.23535 4312.18750
5846.0 0.0001711 434.09119 6105.83936
6865.0 0.0001457 433.94754 7168.13867
4893.0 0.0002044 433.80432 5272.88330
3277.0 0.0003052 433.66162 3614.97607
3411.0 0.0002932 433.51944 3667.36523
4370.0 0.0002288 433.37756 4628.07861
5205.0 0.0001921 433.23630 5319.60156
4918.0 0.0002033 433.09546 4824.07227
4277.0 0.0002338 432.95514 4137.81836
2870.0 0.0003484 432.81525 2850.33765
1986.0 0.000504 432.67587 2152.03174
2255.0 0.000443 432.53699 2276.25293
2814.0 0.000355 432.39853 2772.44067
2752.0 0.000363 432.26059 2754.41211
1831.0 0.000546 432.12314 1762.24902
1127.0 0.000887 431.98618 1132.48608
958.0 0.001044 431.84970 995.63214
963.0 0.001038 431.71365 1027.86499
941.0 0.001063 431.57822 967.04242
733.0 0.001364 431.44318 737.29572
550.0 0.001818 431.30865 596.05841
507.0 0.001972 431.17462 543.55682
460.0 0.002174 431.04111 519.61963
472.0 0.002119 430.90805 490.78857
483.0 0.002070 430.77557 481.03592
452.0 0.002212 430.64340 473.79184
433.0 0.002309 430.51190 468.21631
433.0 0.002309 430.38095 456.47745
436.0 0.002294 430.25040 453.58203
419.0 0.002387 430.12039 451.30179
425.0 0.002353 429.99081 443.52515
448.0 0.002232 429.86182 442.72473
460.0 0.002174 429.73322 442.38629
432.0 0.002315 429.60526 442.81564
408.0 0.002451 429.47775 439.51755
413.0 0.002421 429.35083 446.71002
459.0 0.002179 429.22440 455.14667
472.0 0.002119 429.09833 466.44769
483.0 0.002070 428.97290 482.13226
470.0 0.002128 428.84799 503.80188
474.0 0.002110 428.72357 540.28107
528.0 0.001894 428.59973 593.74658
547.0 0.001828 428.47632 632.04871
513.0 0.001949 428.35342 578.58209
455.0 0.002198 428.23111 515.75531
437.0 0.002288 428.10919 504.26312
468.0 0.002137 427.98795 520.88379
491.0 0.002037 427.86716 532.61115
491.0 0.002037 427.74692 498.84668
470.0 0.002128 427.62717 462.51178
455.0 0.002198 427.50793 449.09619
432.0 0.002315 427.38925 445.53125
434.0 0.002304 427.27115 444.66702
433.0 0.002309 427.15347 444.98291
385.0 0.002597 427.03638 446.16901
457.0 0.002188 426.91983 449.51215
462.0 0.002165 426.80374 452.65378
480.0 0.002083 426.68823 457.20853
493.0 0.002028 426.57330 464.03186
520.0 0.001923 426.45883 477.46960
546.0 0.001832 426.34494 502.24881
567.0 0.001764 426.23157 549.25751
643.0 0.001555 426.11874 623.84662
720.0 0.001389 426.00647 726.37061
908.0 0.001101 425.89468 868.52704
1137.0 0.000880 425.78342 1070.34497
1527.0 0.000655 425.67279 1383.42566
2080.0 0.000481 425.56259 1860.25122
2347.0 0.000426 425.45297 2231.38623
1948.0 0.000513 425.34402 1784.01965
1227.0 0.000815 425.23544 1191.21753
1093.0 0.000915 425.12750 1061.53967
1257.0 0.000796 425.02008 1199.32874
1364.0 0.000733 424.91318 1333.23328
1173.0 0.000853 424.80682 1070.51086
752.0 0.001330 424.70102 715.04633
563.0 0.001776 424.59573 571.98102
532.0 0.001880 424.49106 529.83978
525.0 0.001905 424.38690 516.13641
537.0 0.001862 424.28333 515.99414
590.0 0.001695 424.18018 531.58478
624.0 0.001603 424.07773 568.58154
650.0 0.001538 423.97580 628.26538
758.0 0.001319 423.87436 714.45081
926.0 0.001080 423.77347 850.68286
1119.0 0.000894 423.67319 1055.80688
1417.0 0.000706 423.57343 1377.57043
1785.0 0.000560 423.47421 1803.69324
1933.0 0.000517 423.37561 2008.15125
1879.0 0.000532 423.27753 1828.46704
2016.0 0.000496 423.18002 1951.14722
2352.0 0.000425 423.08307 2309.95703
2211.0 0.000452 422.98663 2153.42041
1644.0 0.000608 422.89081 1633.65588
1241.0 0.000806 422.79547 1240.54956
1164.0 0.000859 422.70071 1154.12610
1284.0 0.000779 422.60651 1232.75952
1142.0 0.000876 422.51294 1073.17114
820.0 0.001220 422.41986 747.35925
585.0 0.001709 422.32736 594.71704
506.0 0.001976 422.23538 555.25153
534.0 0.001873 422.14398 559.63507
572.0 0.001748 422.05313 589.69043
642.0 0.001558 421.96289 647.00159
699.0 0.001431 421.87326 728.77704
867.0 0.001153 421.78403 848.59369
1061.0 0.000943 421.69547 1044.55859
1476.0 0.000678 421.60745 1356.87720
1617.0 0.000618 421.52005 1647.88159
1380.0 0.000725 421.43314 1476.00171
1123.0 0.000890 421.34680 1184.85669
1210.0 0.000826 421.26108 1211.12146
1532.0 0.000653 421.17593 1487.58130
2041.0 0.000490 421.09131 1893.32935
2151.0 0.000465 421.00732 2009.26221
1400.0 0.000714 420.92377 1464.64880
864.0 0.001157 420.84085 979.68097
829.0 0.001206 420.75845 864.90417
948.0 0.001055 420.67673 935.13483
1026.0 0.000975 420.59549 1024.37634
905.0 0.001105 420.51489 874.07397
640.0 0.001563 420.43478 632.04016
494.0 0.002024 420.35526 525.09167
481.0 0.002079 420.27631 490.62256
477.0 0.002096 420.19794 476.11853
492.0 0.002033 420.12015 468.42923
458.0 0.002183 420.04288 464.13242
494.0 0.002024 419.96625 462.17740
494.0 0.002024 419.89017 462.78680
523.0 0.001912 419.81464 466.34683
513.0 0.001949 419.73969 472.39572
519.0 0.001927 419.66531 492.47247
568.0 0.001761 419.59152 532.94940
592.0 0.001689 419.51828 597.58093
658.0 0.001520 419.44562 689.68390
813.0 0.001230 419.37350 818.84387
1015.0 0.000985 419.30200 1003.51953
1348.0 0.000742 419.23105 1302.61633
1747.0 0.000572 419.16064 1707.69373
1762.0 0.000568 419.09091 1811.75623
1275.0 0.000784 419.02164 1279.67175
875.0 0.001143 418.95300 932.54333
897.0 0.001115 418.88489 916.95752
1062.0 0.000942 418.81744 1055.14856
1099.0 0.000910 418.75046 1128.13452
842.0 0.001188 418.68414 864.16998
606.0 0.001650 418.61832 605.01050
503.0 0.001988 418.55307 506.69263
454.0 0.002203 418.48849 473.93002
434.0 0.002304 418.42441 458.19556
413.0 0.002421 418.36087 448.63089
431.0 0.002320 418.29797 442.25809
461.0 0.002169 418.23557 437.75116
428.0 0.002336 418.17383 434.42487
407.0 0.002457 418.11264 431.88300
393.0 0.002545 418.05203 429.88663
408.0 0.002451 417.99188 428.28424
400.0 0.002500 417.93246 426.97278
409.0 0.002445 417.87354 425.88272
417.0 0.002398 417.81519 426.36240
449.0 0.002227 417.75742 425.67255
443.0 0.002257 417.70029 421.93369
445.0 0.002247 417.64365 421.71890
413.0 0.002421 417.58765 421.55847
431.0 0.002320 417.53207 422.12775
438.0 0.002283 417.47729 422.10690
426.0 0.002347 417.42291 420.52606
409.0 0.002445 417.36920 420.73520
409.0 0.002445 417.31607 426.86633
421.0 0.002375 417.26343 427.55045
383.0 0.002611 417.21143 428.32755
391.0 0.002558 417.15997 429.21362
422.0 0.002370 417.10910 430.23029
450.0 0.002222 417.05878 434.26474
434.0 0.002304 417.00909 435.81946
464.0 0.002155 416.95990 437.63037
445.0 0.002247 416.91125 439.75903
425.0 0.002353 416.86331 442.29276
423.0 0.002364 416.81586 445.35138
474.0 0.002110 416.76895 449.11411
477.0 0.002096 416.72263 453.85785
477.0 0.002096 416.67694 460.40076
498.0 0.002008 416.63177 469.04727
514.0 0.001946 416.58722 483.02435
510.0 0.001961 416.54315 509.42108
565.0 0.001770 416.49973 554.85748
638.0 0.001567 416.45688 625.10730
726.0 0.001377 416.41455 719.12616
871.0 0.001148 416.37277 853.00543
1097.0 0.000912 416.33160 1057.96375
1499.0 0.000667 416.29105 1371.21436
1756.0 0.000569 416.25101 1656.81689
1591.0 0.000629 416.21161 1460.72644
1280.0 0.000781 416.17270 1144.95654
1224.0 0.000817 416.13437 1191.05176
1503.0 0.000665 416.09656 1514.39441
1940.0 0.000515 416.05939 1994.15332
2387.0 0.000419 416.02286 2468.39185
3024.0 0.0003307 415.98672 2999.09888
4220.0 0.0002370 415.95129 4067.51831
5166.0 0.0001936 415.91632 5202.75342
4275.0 0.0002339 415.88202 4386.32227
2523.0 0.000396 415.84824 2595.64185
1853.0 0.000540 415.81503 1988.00378
2156.0 0.000464 415.78235 2196.41309
2738.0 0.000365 415.75024 2717.69434
2639.0 0.000379 415.71875 2681.99658
1726.0 0.000579 415.68777 1645.66296
968.0 0.001033 415.65738 968.76617
696.0 0.001437 415.62759 753.04688
636.0 0.001572 415.59833 699.48102
666.0 0.001502 415.56961 703.35492
764.0 0.001309 415.54144 751.23657
797.0 0.001255 415.51382 794.16766
737.0 0.001357 415.48688 718.32245
626.0 0.001597 415.46036 611.66364
573.0 0.001745 415.43448 581.78064
585.0 0.001709 415.40915 603.87445
681.0 0.001468 415.38440 651.72913
696.0 0.001437 415.36011 674.79669
686.0 0.001458 415.33643 662.77991
707.0 0.001414 415.31335 696.42401
780.0 0.001282 415.29080 781.84778
962.0 0.001040 415.26883 960.78070
1150.0 0.000870 415.24744 1180.07617
1092.0 0.000916 415.22653 1184.88513
899.0 0.001112 415.20624 993.68567
969.0 0.001032 415.18643 989.22485
1174.0 0.000852 415.16730 1180.94153
1555.0 0.000643 415.14865 1520.04297
1763.0 0.000567 415.13043 1743.00122
1372.0 0.000729 415.11295 1341.92041
908.0 0.001101 415.09592 894.45844
764.0 0.001309 415.07950 769.75519
816.0 0.001225 415.06363 817.56732
917.0 0.001091 415.04828 916.43817
905.0 0.001105 415.03354 868.73120
684.0 0.001462 415.01926 645.48633
511.0 0.001957 415.00558 517.11945
444.0 0.002252 414.99246 473.23288
442.0 0.002262 414.97986 455.39676
449.0 0.002227 414.96783 445.60608
429.0 0.002331 414.95633 439.24084
439.0 0.002278 414.94534 434.80276
398.0 0.002513 414.93497 431.55133
421.0 0.002375 414.92511 429.07962
424.0 0.002358 414.91577 425.47601
423.0 0.002364 414.90704 424.07022
396.0 0.002525 414.89883 422.93353
422.0 0.002370 414.89114 421.99921
403.0 0.002481 414.88397 421.22055
413.0 0.002421 414.87741 419.69675
421.0 0.002375 414.87131 416.88364
415.0 0.002410 414.86578 416.66174
391.0 0.002558 414.86087 416.63324
394.0 0.002538 414.85635 416.48282
377.0 0.002653 414.85248 416.35568
376.0 0.002660 414.84918 415.03845
393.0 0.002545 414.84628 415.04999
410.0 0.002439 414.84402 415.06369
437.0 0.002288 414.84232 415.16141
433.0 0.002309 414.84103 415.18579
422.0 0.002370 414.84030 415.21396
415.0 0.002410 414.84018 415.24634
414.0 0.002415 414.84061 415.28369
422.0 0.002370 414.84149 415.32693
410.0 0.002439 414.84299 415.37711
395.0 0.002532 414.84488 415.43549
378.0 0.002646 414.84738 415.50406
412.0 0.002427 414.85043 415.58493
420.0 0.002381 414.85400 415.68152
385.0 0.002597 414.85812 415.79773
413.0 0.002421 414.86267 416.42838
424.0 0.002358 414.86783 416.63736
410.0 0.002439 414.87350 416.89648
409.0 0.002445 414.87973 417.22595
397.0 0.002519 414.88641 417.65744
398.0 0.002513 414.89365 418.48273
393.0 0.002545 414.90137 419.38022
372.0 0.002688 414.90970 420.96802
402.0 0.002488 414.91852 425.39859
428.0 0.002336 414.92780 431.10583
428.0 0.002336 414.93762 440.09018
432.0 0.002315 414.94797 452.25662
504.0 0.001984 414.95889 470.59555
553.0 0.001808 414.97028 499.66830
533.0 0.001876 414.98212 536.94653
577.0 0.001733 414.99457 544.24713
523.0 0.001912 415.00751 495.27899
436.0 0.002294 415.02097 464.66199
442.0 0.002262 415.03491 462.57318
510.0 0.001961 415.04932 475.12390
519.0 0.001927 415.06433 489.44070
479.0 0.002088 415.07977 478.19055
484.0 0.002066 415.09583 451.85498
450.0 0.002222 415.11227 440.77573
435.0 0.002299 415.12930 440.33795
430.0 0.002326 415.14682 445.72162
462.0 0.002165 415.16483 458.52768
494.0 0.002024 415.18338 479.64450
498.0 0.002008 415.20239 512.27539
552.0 0.001812 415.22195 558.40924
628.0 0.001592 415.24194 627.72131
768.0 0.001302 415.26242 733.88812
828.0 0.001208 415.28351 827.18048
797.0 0.001255 415.30508 754.92938
651.0 0.001536 415.32709 648.66852
589.0 0.001698 415.34961 656.89197
716.0 0.001397 415.37259 750.32806
886.0 0.001129 415.39606 900.24603
1084.0 0.000923 415.42014 1074.09985
1270.0 0.000787 415.44464 1245.38501
1340.0 0.000746 415.46957 1400.52808
1161.0 0.000861 415.49506 1178.34009
813.0 0.001230 415.52103 828.08472
695.0 0.001439 415.54749 716.64142
730.0 0.001370 415.57437 754.40265
826.0 0.001211 415.60187 863.57129
880.0 0.001136 415.62982 915.00616
763.0 0.001311 415.65814 748.71887
628.0 0.001592 415.68704 606.75397
611.0 0.001637 415.71640 578.72876
667.0 0.001499 415.74625 614.53143
701.0 0.001427 415.77658 660.33789
660.0 0.001515 415.80734 625.98932
571.0 0.001751 415.83871 537.68713
537.0 0.001862 415.87048 501.43021
539.0 0.001855 415.90271 503.82416
551.0 0.001815 415.93539 526.86450
582.0 0.001718 415.96857 542.71613
527.0 0.001898 416.00229 508.07513
480.0 0.002083 416.03632 465.22568
435.0 0.002299 416.07101 447.50824
437.0 0.002288 416.10605 441.81528
446.0 0.002242 416.14157 439.60010
431.0 0.002320 416.17758 438.26794
437.0 0.002288 416.21408 438.27075
487.0 0.002053 416.25104 438.90161
446.0 0.002242 416.28845 440.09735
453.0 0.002208 416.32629 441.87460
491.0 0.002037 416.36469 444.06552
487.0 0.002053 416.40344 447.89679
481.0 0.002079 416.44275 452.26196
473.0 0.002114 416.48245 456.90408
516.0 0.001938 416.52264 464.93121
538.0 0.001859 416.56326 476.26328
569.0 0.001757 416.60437 493.44171
648.0 0.001543 416.64594 524.44678
702.0 0.001425 416.68793 588.13458
787.0 0.001271 416.73041 706.96722
912.0 0.001096 416.77328 888.64618
1157.0 0.000864 416.81659 1163.99304
1699.0 0.000589 416.86044 1568.37439
2421.0 0.000413 416.90466 2181.05615
3346.0 0.0002989 416.94940 2941.13135
3220.0 0.0003106 416.99454 2913.49390
2062.0 0.000485 417.04010 1843.09619
1259.0 0.000794 417.08612 1268.63013
1250.0 0.000800 417.13257 1247.34460
1595.0 0.000627 417.17947 1483.14331
1915.0 0.000522 417.22690 1774.15820
1731.0 0.000578 417.27466 1567.45105
1132.0 0.000883 417.32291 973.25269
698.0 0.001433 417.37155 668.73608
558.0 0.001792 417.42062 567.62329
562.0 0.001779 417.47025 528.49213
556.0 0.001799 417.52017 509.57501
546.0 0.001832 417.57059 506.30139
536.0 0.001866 417.62137 513.30121
559.0 0.001789 417.67264 532.54846
576.0 0.001736 417.72430 570.26703
638.0 0.001567 417.77649 623.81866
756.0 0.001323 417.82904 712.68286
932.0 0.001073 417.88202 839.56592
997.0 0.001003 417.93536 906.63611
832.0 0.001202 417.98914 756.90839
688.0 0.001453 418.04343 622.05615
645.0 0.001550 418.09811 593.91510
639.0 0.001565 418.15311 623.92230
709.0 0.001410 418.20862 681.46954
759.0 0.001318 418.26456 699.19800
689.0 0.001451 418.32089 613.18988
639.0 0.001565 418.37753 550.33136
644.0 0.001553 418.43472 537.21887
663.0 0.001508 418.49228 546.86218
700.0 0.001429 418.55023 567.13208
773.0 0.001294 418.60861 613.76050
842.0 0.001188 418.66736 711.67480
1004.0 0.000996 418.72650 907.25952
1228.0 0.000814 418.78616 1210.15906
1660.0 0.000602 418.84619 1697.11804
2308.0 0.000433 418.90656 2379.50684
3640.0 0.0002747 418.96741 3446.76855
5286.0 0.0001892 419.02859 4823.36279
5333.0 0.0001875 419.09012 5006.59912
3252.0 0.0003075 419.15213 3129.01709
1926.0 0.000519 419.21454 1984.50745
1811.0 0.000552 419.27728 1855.10815
2136.0 0.000468 419.34045 2230.52783
2929.0 0.0003414 419.40402 2806.98145
2853.0 0.0003505 419.46802 2709.49780
1836.0 0.000545 419.53232 1676.14233
1156.0 0.000865 419.59711 1061.54773
918.0 0.001089 419.66226 908.03552
928.0 0.001078 419.72772 929.57318
1165.0 0.000858 419.79358 1060.37427
1472.0 0.000679 419.85992 1291.00073
1725.0 0.000580 419.92654 1467.80005
1520.0 0.000658 419.99359 1289.79272
1194.0 0.000838 420.06104 1132.03516
1200.0 0.000833 420.12878 1205.19312
1517.0 0.000659 420.19699 1445.47327
1962.0 0.000510 420.26550 1732.45276
1879.0 0.000532 420.33432 1610.05908
1316.0 0.000760 420.40369 1150.42786
990.0 0.001010 420.47336 901.95740
903.0 0.001107 420.54337 875.28967
1019.0 0.000981 420.61377 955.47473
1158.0 0.000864 420.68451 1067.24304
1190.0 0.000840 420.75565 1030.82214
1108.0 0.000903 420.82718 982.59344
1161.0 0.000861 420.89899 1108.71155
1469.0 0.000681 420.97122 1428.14063
2019.0 0.000495 421.04382 1933.06372
2493.0 0.000401 421.11670 2442.52173
2542.0 0.000393 421.19003 2519.53418
2617.0 0.000382 421.26367 2673.32227
2938.0 0.0003404 421.33771 3132.09009
2829.0 0.000353 421.41205 2965.88672
2562.0 0.000390 421.48676 2626.37329
2636.0 0.000379 421.56177 2756.91016
2429.0 0.000412 421.63724 2488.84009
1980.0 0.000505 421.71301 1991.50903
1742.0 0.000574 421.78906 1890.10754
1534.0 0.000652 421.86551 1626.32581
1317.0 0.000759 421.94232 1287.62708
1188.0 0.000842 422.01944 1206.56262
1035.0 0.000966 422.09686 1055.72070
811.0 0.001233 422.17465 781.32697
693.0 0.001443 422.25281 639.27856
655.0 0.001527 422.33136 598.56061
626.0 0.001597 422.41016 607.21960
671.0 0.001490 422.48929 651.63306
759.0 0.001318 422.56879 738.38702
961.0 0.001041 422.64859 871.32843
1224.0 0.000817 422.72879 1087.45496
1560.0 0.000641 422.80923 1383.45410
1614.0 0.000620 422.89001 1518.13684
1299.0 0.000770 422.97116 1171.67126
931.0 0.001074 423.05264 875.03210
879.0 0.001138 423.13440 835.02332
949.0 0.001054 423.21649 948.80176
1241.0 0.000806 423.29901 1149.51050
1395.0 0.000717 423.38168 1333.25012
1440.0 0.000694 423.46472 1309.72534
1193.0 0.000838 423.54813 1152.80151
835.0 0.001198 423.63177 861.80164
692.0 0.001445 423.71579 694.15344
638.0 0.001567 423.80011 660.23859
700.0 0.001429 423.88474 698.60919
813.0 0.001230 423.96964 773.25677
882.0 0.001134 424.05481 802.39832
837.0 0.001195 424.14038 713.89917
808.0 0.001238 424.22626 671.86273
850.0 0.001176 424.31241 740.86322
973.0 0.001028 424.39883 912.66211
1181.0 0.000847 424.48553 1199.66211
1638.0 0.000611 424.57266 1639.60767
2375.0 0.000421 424.65994 2306.03271
3400.0 0.0002941 424.74759 3141.12964
3829.0 0.0002612 424.83557 3397.14697
2921.0 0.0003423 424.92377 2547.86279
1676.0 0.000597 425.01227 1622.19348
1270.0 0.000787 425.10110 1349.30957
1511.0 0.000662 425.19022 1494.62146
1918.0 0.000521 425.27954 1832.00879
2111.0 0.000474 425.36926 1966.97229
1721.0 0.000581 425.45920 1534.33667
1107.0 0.000903 425.54941 963.06104
727.0 0.001376 425.63989 680.74597
634.0 0.001577 425.73077 578.81104
590.0 0.001695 425.82178 535.03394
522.0 0.001916 425.91318 509.88245
502.0 0.001992 426.00476 493.04770
483.0 0.002070 426.09662 482.20230
477.0 0.002096 426.18887 473.89084
478.0 0.002092 426.28122 468.69910
482.0 0.002075 426.37405 465.46454
495.0 0.002020 426.46701 463.51663
511.0 0.001957 426.56021 463.06555
517.0 0.001934 426.65372 464.51016
487.0 0.002053 426.74750 468.99683
483.0 0.002070 426.84161 481.55148
529.0 0.001890 426.93582 507.11734
543.0 0.001842 427.03040 549.14471
579.0 0.001727 427.12515 613.36115
742.0 0.001348 427.22025 714.15973
866.0 0.001155 427.31564 858.42938
994.0 0.001006 427.41113 962.74066
892.0 0.001121 427.50702 820.45422
671.0 0.001490 427.60306 633.51208
597.0 0.001675 427.69943 575.22174
610.0 0.001639 427.79599 592.32416
654.0 0.001529 427.89282 647.85779
719.0 0.001391 427.98987 704.91248
647.0 0.001546 428.08722 653.76392
543.0 0.001842 428.18481 543.48138
533.0 0.001876 428.28256 494.67657
484.0 0.002066 428.38055 490.83350
494.0 0.002024 428.47885 507.37390
529.0 0.001890 428.57733 541.69946
590.0 0.001695 428.67609 597.44775
632.0 0.001582 428.77505 682.15283
764.0 0.001309 428.87427 759.94244
692.0 0.001445 428.97369 697.00885
565.0 0.001770 429.07339 570.12775
492.0 0.002033 429.17328 522.25031
495.0 0.002020 429.27341 525.67383
561.0 0.001783 429.37372 555.82104
577.0 0.001733 429.47421 594.94385
573.0 0.001745 429.57501 580.45526
512.0 0.001953 429.67599 507.63766
461.0 0.002169 429.77725 465.11121
407.0 0.002457 429.87869 449.98782
433.0 0.002309 429.98022 443.98370
407.0 0.002457 430.08215 440.72162
394.0 0.002538 430.18420 438.66458
427.0 0.002342 430.28650 437.27335
401.0 0.002494 430.38907 435.53418
431.0 0.002320 430.49173 434.87042
450.0 0.002222 430.59460 434.37097
421.0 0.002375 430.69775 433.99625
428.0 0.002336 430.80106 433.71286
421.0 0.002375 430.90448 433.49823
425.0 0.002353 431.00821 433.33643
390.0 0.002564 431.11215 432.86563
401.0 0.002494 431.21625 432.80081
393.0 0.002545 431.32056 432.76102
414.0 0.002415 431.42508 432.74167
432.0 0.002315 431.52972 432.79294
417.0 0.002398 431.63461 432.80856
434.0 0.002304 431.73969 432.97552
448.0 0.002232 431.84503 433.02377
424.0 0.002358 431.95044 433.08249
419.0 0.002387 432.05600 432.70239
416.0 0.002404 432.16183 432.83359
425.0 0.002353 432.26779 432.94717
415.0 0.002410 432.37402 433.13544
436.0 0.002294 432.48035 433.26862
432.0 0.002315 432.58691 433.41150
404.0 0.002475 432.69366 433.33875
407.0 0.002457 432.80045 433.52170
422.0 0.002370 432.90756 433.72253
422.0 0.002370 433.01477 433.94989
429.0 0.002331 433.12213 434.22253
419.0 0.002387 433.22971 434.59439
417.0 0.002398 433.33746 435.17487
409.0 0.002445 433.44534 436.01797
451.0 0.002217 433.55338 437.28726
435.0 0.002299 433.66153 439.05804
423.0 0.002364 433.76999 441.73032
440.0 0.002273 433.87851 444.47363
404.0 0.002475 433.98724 444.22635
428.0 0.002336 434.09610 441.37521
459.0 0.002179 434.20505 440.74438
433.0 0.002309 434.31421 442.38205
416.0 0.002404 434.42352 446.11505
472.0 0.002119 434.53305 452.36880
458.0 0.002183 434.64267 462.25699
478.0 0.002092 434.75238 474.78918
460.0 0.002174 434.86230 496.33020
568.0 0.001761 434.97235 521.73682
591.0 0.001692 435.08258 539.82721
616.0 0.001623 435.19290 550.20599
544.0 0.001838 435.30338 531.87280
464.0 0.002155 435.41397 493.62616
460.0 0.002174 435.52475 481.55331
484.0 0.002066 435.63565 487.28625
517.0 0.001934 435.74664 495.41980
498.0 0.002008 435.85785 500.10727
487.0 0.002053 435.96912 498.48224
439.0 0.002278 436.08054 476.25024
443.0 0.002257 436.19208 461.04669
444.0 0.002252 436.30371 456.04129
427.0 0.002342 436.41553 455.06308
433.0 0.002309 436.52747 455.52844
440.0 0.002273 436.63950 456.89014
425.0 0.002353 436.75165 459.17407
428.0 0.002336 436.86392 462.93390
448.0 0.002232 436.97635 469.73132
456.0 0.002193 437.08884 481.41467
482.0 0.002075 437.20142 499.66342
476.0 0.002101 437.31421 527.30731
537.0 0.001862 437.42703 567.81238
617.0 0.001621 437.53998 617.72888
647.0 0.001546 437.65314 630.69794
618.0 0.001618 437.76627 579.31696
583.0 0.001715 437.87961 553.68048
588.0 0.001701 437.99295 567.27710
638.0 0.001567 438.10638 607.77899
702.0 0.001425 438.22003 682.68420
783.0 0.001277 438.33371 803.93585
977.0 0.001024 438.44751 970.30420
1319.0 0.000758 438.56146 1247.61255
1807.0 0.000553 438.67535 1713.22668
2474.0 0.000404 438.78943 2450.06641
3052.0 0.0003277 438.90366 3213.04712
2794.0 0.000358 439.01794 2947.86011
1808.0 0.000553 439.13229 1785.67932
1127.0 0.000887 439.24667 1213.93958
1079.0 0.000927 439.36127 1174.08447
1295.0 0.000772 439.47583 1368.85925
1668.0 0.000600 439.59055 1731.42932
1797.0 0.000556 439.70529 1911.94434
1399.0 0.000715 439.82019 1405.54895
943.0 0.001060 439.93515 885.49805
692.0 0.001445 440.05014 674.90033
629.0 0.001590 440.16525 608.92572
601.0 0.001664 440.28036 598.29858
689.0 0.001451 440.39560 616.31732
713.0 0.001403 440.51089 669.39282
844.0 0.001185 440.62631 757.33350
1060.0 0.000943 440.74176 896.43286
1177.0 0.000850 440.85724 997.46466
997.0 0.001003 440.97290 860.95209
727.0 0.001376 441.08847 672.55664
646.0 0.001548 441.20416 606.05682
645.0 0.001550 441.32001 615.22418
719.0 0.001391 441.43585 661.73431
796.0 0.001256 441.55167 727.80652
848.0 0.001179 441.66766 731.94159
728.0 0.001374 441.78372 626.40564
596.0 0.001678 441.89975 554.45093
526.0 0.001901 442.01590 532.23822
524.0 0.001908 442.13199 530.83624
562.0 0.001779 442.24826 538.92352
534.0 0.001873 442.36447 556.03442
637.0 0.001570 442.48083 583.87671
718.0 0.001393 442.59717 650.30829
804.0 0.001244 442.71356 789.57227
1023.0 0.000978 442.83002 1021.76160
1269.0 0.000788 442.94644 1416.55615
1884.0 0.000531 443.06308 1994.74890
2714.0 0.000368 443.17963 2839.95972
3330.0 0.0003003 443.29614 3394.50928
2693.0 0.000371 443.41281 2561.52734
1580.0 0.000633 443.52957 1567.83594
1152.0 0.000868 443.64621 1272.73059
1236.0 0.000809 443.76294 1400.65625
1552.0 0.000644 443.87964 1694.22083
1905.0 0.000525 443.99652 1989.32996
1866.0 0.000536 444.11331 1927.15149
1319.0 0.000758 444.23022 1286.33008
856.0 0.001168 444.34702 856.01361
679.0 0.001473 444.46393 711.80731
655.0 0.001527 444.58081 675.68268
656.0 0.001524 444.69781 635.53607
599.0 0.001669 444.81473 569.74927
508.0 0.001969 444.93170 531.62970
491.0 0.002037 445.04874 518.05969
489.0 0.002045 445.16568 519.62457
507.0 0.001972 445.28271 530.91901
539.0 0.001855 445.39975 554.45923
575.0 0.001739 445.51678 594.05267
607.0 0.001647 445.63379 630.09503
576.0 0.001736 445.75082 600.47809
496.0 0.002016 445.86795 536.74463
456.0 0.002193 445.98502 508.61008
468.0 0.002137 446.10205 507.16864
517.0 0.001934 446.21912 518.12561
523.0 0.001912 446.33618 538.32904
549.0 0.001821 446.45325 549.87964
515.0 0.001942 446.57037 523.42566
460.0 0.002174 446.68735 496.56168
437.0 0.002288 446.80444 484.77200
454.0 0.002203 446.92157 488.70779
525.0 0.001905 447.03854 500.39749
537.0 0.001862 447.15567 519.27844
583.0 0.001715 447.27252 543.40149
569.0 0.001757 447.38953 547.44592
539.0 0.001855 447.50662 519.62152
505.0 0.001980 447.62360 501.74295
483.0 0.002070 447.74057 503.99176
521.0 0.001919 447.85751 517.18616
548.0 0.001825 447.97437 541.05548
644.0 0.001553 448.09131 577.78680
668.0 0.001497 448.20822 624.06573
733.0 0.001364 448.32507 699.97888
857.0 0.001167 448.44189 854.76678
1100.0 0.000909 448.55872 1105.58594
1426.0 0.000701 448.67545 1447.29956
1765.0 0.000567 448.79227 1716.66748
2035.0 0.000491 448.90897 1818.05579
1709.0 0.000585 449.02570 1599.58618
1176.0 0.000850 449.14230 1113.26050
855.0 0.001170 449.25894 907.40820
909.0 0.001100 449.37552 942.06372
952.0 0.001050 449.49207 1072.36084
1143.0 0.000875 449.60861 1167.30603
1277.0 0.000783 449.72510 1196.54456
1106.0 0.000904 449.84155 1039.39661
900.0 0.001111 449.95795 845.21814
859.0 0.001164 450.07431 815.58124
941.0 0.001063 450.19055 894.24194
962.0 0.001040 450.30682 920.96442
751.0 0.001332 450.42307 756.62769
617.0 0.001621 450.53925 620.03040
565.0 0.001770 450.65530 578.76245
576.0 0.001736 450.77142 589.49274
649.0 0.001541 450.88736 627.82373
731.0 0.001368 451.00333 680.71075
697.0 0.001435 451.11926 677.84302
611.0 0.001637 451.23514 588.12103
515.0 0.001942 451.35092 527.13403
485.0 0.002062 451.46661 504.97809
478.0 0.002092 451.58231 498.06732
488.0 0.002049 451.69788 496.53244
488.0 0.002049 451.81351 498.37097
485.0 0.002062 451.92889 503.60880
524.0 0.001908 452.04434 514.96655
553.0 0.001808 452.15964 536.93256
604.0 0.001656 452.27493 578.38037
678.0 0.001475 452.39014 647.80615
819.0 0.001221 452.50525 762.57776
1020.0 0.000980 452.62036 946.37299
1228.0 0.000814 452.73538 1161.94250
1319.0 0.000758 452.85022 1212.57190
1284.0 0.000779 452.96509 1165.08826
1349.0 0.000741 453.07990 1318.12073
1522.0 0.000657 453.19449 1519.84167
1437.0 0.000696 453.30914 1376.17297
1185.0 0.000844 453.42365 1158.67065
1096.0 0.000912 453.53812 1166.72827
1085.0 0.000922 453.65244 1207.35437
1085.0 0.000922 453.76666 1163.83972
1041.0 0.000961 453.88086 1083.94348
1061.0 0.000943 453.99500 1043.92786
892.0 0.001121 454.10901 873.21771
692.0 0.001445 454.22284 712.83673
655.0 0.001527 454.33670 671.27460
643.0 0.001555 454.45041 687.56793
637.0 0.001570 454.56409 665.98291
566.0 0.001767 454.67764 589.85669
559.0 0.001789 454.79108 546.93427
589.0 0.001698 454.90436 535.75903
543.0 0.001842 455.01764 528.08032
513.0 0.001949 455.13077 524.13342
585.0 0.001709 455.24384 540.88348
598.0 0.001672 455.35684 580.60034
657.0 0.001522 455.46960 649.75220
743.0 0.001346 455.58237 765.30707
982.0 0.001018 455.69501 908.38550
1016.0 0.000984 455.80753 950.27911
749.0 0.001335 455.91989 765.32019
634.0 0.001577 456.03217 614.96692
555.0 0.001802 456.14444 574.13184
549.0 0.001821 456.25644 585.56854
594.0 0.001684 456.36844 631.82361
723.0 0.001383 456.48029 697.93707
702.0 0.001425 456.59204 707.57648
651.0 0.001536 456.70358 607.92847
504.0 0.001984 456.81512 530.70050
479.0 0.002088 456.92648 501.63135
482.0 0.002075 457.03772 490.16275
476.0 0.002101 457.14886 484.53909
479.0 0.002088 457.25989 483.17474
476.0 0.002101 457.37079 481.95755
459.0 0.002179 457.48160 480.97369
468.0 0.002137 457.59219 481.33966
447.0 0.002237 457.70267 482.25391
459.0 0.002179 457.81305 483.68286
490.0 0.002041 457.92331 485.38449
512.0 0.001953 458.03342 487.95270
507.0 0.001972 458.14334 491.22079
510.0 0.001961 458.25320 495.36169
495.0 0.002020 458.36288 500.60080
506.0 0.001976 458.47253 507.41272
541.0 0.001848 458.58194 516.38226
568.0 0.001761 458.69122 528.53058
580.0 0.001724 458.80045 545.67041
624.0 0.001603 458.90936 571.63995
691.0 0.001447 459.01828 616.89832
798.0 0.001253 459.12704 706.14911
944.0 0.001059 459.23560 872.90741
1238.0 0.000808 459.34406 1137.43115
1663.0 0.000601 459.45236 1622.73401
2360.0 0.000424 459.56049 2279.46265
2957.0 0.0003382 459.66852 2841.94727
2872.0 0.0003482 459.77628 2714.13794
2765.0 0.000362 459.88400 2580.69531
2658.0 0.000376 459.99155 2506.77051
2036.0 0.000491 460.09897 1885.02478
1514.0 0.000661 460.20618 1522.98999
1554.0 0.000644 460.31326 1597.53320
1769.0 0.000565 460.42017 1783.33643
1725.0 0.000580 460.52692 1672.65344
1637.0 0.000611 460.63354 1550.48718
1576.0 0.000635 460.74002 1466.28235
1211.0 0.000826 460.84622 1089.15173
772.0 0.001295 460.95233 775.01276
599.0 0.001669 461.05829 641.05292
551.0 0.001815 461.16415 587.24738
506.0 0.001976 461.26978 559.58130
513.0 0.001949 461.37521 542.70129
507.0 0.001972 461.48050 531.74109
509.0 0.001965 461.58566 524.49335
509.0 0.001965 461.69058 522.51239
506.0 0.001976 461.79532 519.91620
508.0 0.001969 461.89996 518.91144
470.0 0.002128 462.00439 519.34833
516.0 0.001938 462.10858 521.22760
514.0 0.001946 462.21274 524.69330
518.0 0.001931 462.31665 530.06354
512.0 0.001953 462.42032 539.23901
519.0 0.001927 462.52390 550.61255
577.0 0.001733 462.62729 567.16467
610.0 0.001639 462.73047 592.20581
643.0 0.001555 462.83347 634.02380
764.0 0.001309 462.93628 712.91699
890.0 0.001124 463.03891 885.22296
1105.0 0.000905 463.14139 1183.54333
1583.0 0.000632 463.24374 1682.19043
2297.0 0.000435 463.34576 2469.54907
3052.0 0.0003277 463.44763 3379.43091
3068.0 0.0003259 463.54935 3397.22681
2130.0 0.000469 463.65085 2149.57446
1321.0 0.000757 463.75217 1334.98340
1082.0 0.000924 463.85336 1136.47937
1129.0 0.000886 463.95422 1238.29443
1412.0 0.000708 464.05499 1558.64966
1784.0 0.000561 464.15555 1982.17065
1920.0 0.000521 464.25589 2082.42700
1490.0 0.000671 464.35611 1496.35559
1112.0 0.000899 464.45605 1053.71619
971.0 0.001030 464.55579 974.56000
1047.0 0.000955 464.65524 1100.76538
1281.0 0.000781 464.75461 1424.05920
1742.0 0.000574 464.85376 1895.09521
2219.0 0.000451 464.95276 2325.90015
1923.0 0.000520 465.05148 1972.96985
1195.0 0.000837 465.15002 1251.19971
856.0 0.001168 465.24835 924.32520
807.0 0.001239 465.34653 878.60022
888.0 0.001126 465.44440 981.92981
1057.0 0.000946 465.54208 1190.29919
1291.0 0.000775 465.63962 1426.34570
1237.0 0.000808 465.73688 1339.48132
981.0 0.001019 465.83398 980.84393
782.0 0.001279 465.93079 792.55695
735.0 0.001361 466.02744 739.76904
635.0 0.001575 466.12390 676.18243
572.0 0.001748 466.22012 606.62543
561.0 0.001783 466.31610 576.54895
584.0 0.001712 466.41193 574.17120
593.0 0.001686 466.50742 587.25946
650.0 0.001538 466.60278 631.97437
688.0 0.001453 466.69788 712.97095
860.0 0.001163 466.79279 809.43738
938.0 0.001066 466.88745 969.86731
1200.0 0.000833 466.98193 1202.12427
1426.0 0.000701 467.07611 1376.39722
1177.0 0.000850 467.17014 1135.82092
788.0 0.001269 467.26392 804.22577
626.0 0.001597 467.35745 671.13922
646.0 0.001548 467.45074 660.13049
680.0 0.001471 467.54382 717.46173
757.0 0.001321 467.63669 821.84259
922.0 0.001085 467.72937 927.46497
872.0 0.001147 467.82175 855.67444
685.0 0.001460 467.91391 665.05737
507.0 0.001972 468.00583 562.02765
451.0 0.002217 468.09750 523.45911
482.0 0.002075 468.18903 507.37402
494.0 0.002024 468.28024 498.65216
447.0 0.002237 468.37115 493.47412
492.0 0.002033 468.46198 490.63446
461.0 0.002169 468.55243 488.31198
496.0 0.002016 468.64273 489.81628
510.0 0.001961 468.73276 493.62613
545.0 0.001835 468.82254 499.36786
546.0 0.001832 468.91208 503.49252
496.0 0.002016 469.00140 504.88867
484.0 0.002066 469.09052 513.24194
540.0 0.001852 469.17929 526.16986
525.0 0.001905 469.26782 525.79797
522.0 0.001916 469.35617 509.22330
502.0 0.001992 469.44418 498.91000
495.0 0.002020 469.53210 497.06348
509.0 0.001965 469.61963 496.57129
460.0 0.002174 469.70694 499.83441
464.0 0.002155 469.79398 505.54874
513.0 0.001949 469.88083 511.16602
501.0 0.001996 469.96744 508.46259
473.0 0.002114 470.05371 513.63025
474.0 0.002110 470.13980 529.59357
501.0 0.001996 470.22556 562.51636
544.0 0.001838 470.31113 607.01959
542.0 0.001845 470.39645 640.22241
513.0 0.001949 470.48151 603.15582
502.0 0.001992 470.56622 556.34509
520.0 0.001923 470.65079 550.09015
561.0 0.001783 470.73508 573.44434
610.0 0.001639 470.81909 623.21918
718.0 0.001393 470.90280 688.04486
736.0 0.001359 470.98621 716.09100
690.0 0.001449 471.06952 663.46716
625.0 0.001600 471.15244 616.99933
594.0 0.001684 471.23511 627.16705
658.0 0.001520 471.31754 691.54529
784.0 0.001276 471.39966 787.54999
846.0 0.001182 471.48157 850.57898
803.0 0.001245 471.56320 781.07416
761.0 0.001314 471.64459 686.48853
663.0 0.001508 471.72562 666.66974
747.0 0.001339 471.80643 734.79248
877.0 0.001140 471.88699 881.90985
1118.0 0.000894 471.96722 1145.90186
1463.0 0.000684 472.04730 1469.48303
1691.0 0.000591 472.12704 1604.29651
1256.0 0.000796 472.20642 1244.85449
901.0 0.001110 472.28564 900.69922
807.0 0.001239 472.36447 813.56268
901.0 0.001110 472.44315 890.69336
1068.0 0.000936 472.52145 1101.96362
1441.0 0.000694 472.59952 1428.71497
1794.0 0.000557 472.67737 1727.44836
1571.0 0.000637 472.75488 1541.25879
1167.0 0.000857 472.83212 1139.98950
1016.0 0.000984 472.90912 1023.49469
1151.0 0.000869 472.98569 1095.41455
1210.0 0.000826 473.06207 1113.57996
1061.0 0.000943 473.13824 1000.01105
981.0 0.001019 473.21408 962.49603
930.0 0.001075 473.28961 917.17303
800.0 0.001250 473.36484 779.27069
717.0 0.001395 473.43985 716.72534
764.0 0.001309 473.51459 735.39948
795.0 0.001258 473.58893 760.16858
713.0 0.001403 473.66312 687.43182
603.0 0.001658 473.73688 595.95667
536.0 0.001866 473.81042 553.22858
524.0 0.001908 473.88370 540.09790
530.0 0.001887 473.95670 539.59778
554.0 0.001805 474.02933 551.40198
588.0 0.001701 474.10168 582.22668
663.0 0.001508 474.17380 645.65765
858.0 0.001166 474.24561 755.12616
1132.0 0.000883 474.31711 931.13959
1380.0 0.000725 474.38831 1117.65076
1337.0 0.000748 474.45923 1101.99048
1006.0 0.000994 474.52988 842.37048
709.0 0.001410 474.60016 666.04327
650.0 0.001538 474.67029 615.04889
703.0 0.001422 474.73996 628.35339
752.0 0.001330 474.80942 686.85187
862.0 0.001160 474.87848 775.55603
956.0 0.001046 474.94736 831.38660
838.0 0.001193 475.01596 742.23334
660.0 0.001515 475.08423 616.95990
552.0 0.001812 475.15207 557.92993
541.0 0.001848 475.21973 540.46436
554.0 0.001805 475.28708 545.11578
548.0 0.001825 475.35413 569.22345
594.0 0.001684 475.42084 615.09210
664.0 0.001506 475.48730 698.38800
796.0 0.001256 475.55341 799.81097
799.0 0.001252 475.61923 831.87714
710.0 0.001408 475.68475 710.94153
630.0 0.001587 475.74994 609.08905
569.0 0.001757 475.81485 580.42798
573.0 0.001745 475.87946 597.10107
626.0 0.001597 475.94382 653.64148
719.0 0.001391 476.00775 761.50439
872.0 0.001147 476.07138 913.60376
1044.0 0.000958 476.13474 1065.90601
1130.0 0.000885 476.19781 1184.14709
1086.0 0.000921 476.26059 1120.30188
806.0 0.001241 476.32306 839.69232
609.0 0.001642 476.38519 665.92017
610.0 0.001639 476.44696 614.16400
574.0 0.001742 476.50848 625.27002
663.0 0.001508 476.56964 680.32233
765.0 0.001307 476.63055 767.02039
808.0 0.001238 476.69107 831.44666
721.0 0.001387 476.75131 746.82037
589.0 0.001698 476.81128 619.10242
577.0 0.001733 476.87091 557.77313
542.0 0.001845 476.93021 536.92944
532.0 0.001880 476.98923 533.32159
549.0 0.001821 477.04785 541.19788
557.0 0.001795 477.10614 561.99445
588.0 0.001701 477.16422 600.92212
675.0 0.001481 477.22192 658.58911
750.0 0.001333 477.27933 710.32733
710.0 0.001408 477.33636 688.92572
651.0 0.001536 477.39313 653.73242
714.0 0.001401 477.44962 688.17242
787.0 0.001271 477.50574 799.29944
977.0 0.001024 477.56149 983.60632
1167.0 0.000857 477.61694 1168.53662
1132.0 0.000883 477.67212 1118.32532
961.0 0.001041 477.72690 912.09613
815.0 0.001227 477.78146 807.21667
844.0 0.001185 477.83560 841.79681
988.0 0.001012 477.88950 1000.05615
1187.0 0.000842 477.94299 1211.33484
1257.0 0.000796 477.99622 1256.60046
1111.0 0.000900 478.04913 1073.96814
866.0 0.001155 478.10168 838.21332
683.0 0.001464 478.15393 685.79535
648.0 0.001543 478.20581 646.25909
693.0 0.001443 478.25742 671.98254
758.0 0.001319 478.30862 736.94000
786.0 0.001272 478.35956 788.78198
726.0 0.001377 478.41016 718.10950
631.0 0.001585 478.46039 603.88977
546.0 0.001832 478.51031 545.28326
493.0 0.002028 478.55994 522.22095
499.0 0.002004 478.60925 512.97601
491.0 0.002037 478.65817 507.07208
461.0 0.002169 478.70676 503.35818
461.0 0.002169 478.75510 500.94727
468.0 0.002137 478.80301 499.39703
490.0 0.002041 478.85062 498.14658
493.0 0.002028 478.89789 497.72403
471.0 0.002123 478.94479 500.62662
487.0 0.002053 478.99149 501.19232
502.0 0.001992 479.03778 502.16714
491.0 0.002037 479.08368 503.58829
467.0 0.002141 479.12927 505.52957
459.0 0.002179 479.17459 507.10831
480.0 0.002083 479.21957 511.58115
477.0 0.002096 479.26416 516.24780
546.0 0.001832 479.30844 523.96100
519.0 0.001927 479.35242 532.66107
521.0 0.001919 479.39600 545.10785
575.0 0.001739 479.43924 564.42468
605.0 0.001653 479.48221 597.01117
688.0 0.001453 479.52484 664.82495
787.0 0.001271 479.56699 807.25110
960.0 0.001042 479.60892 1040.66931
1370.0 0.000730 479.65048 1421.82532
1848.0 0.000541 479.69174 1910.21851
1924.0 0.000520 479.73267 2004.86926
1432.0 0.000698 479.77325 1429.99597
964.0 0.001037 479.81351 963.47858
765.0 0.001307 479.85330 801.26392
727.0 0.001376 479.89285 808.48816
808.0 0.001238 479.93204 903.43658
1024.0 0.000977 479.97095 1103.95605
1235.0 0.000810 480.00946 1324.72229
1298.0 0.000770 480.04761 1308.78943
1057.0 0.000946 480.08545 1025.36926
946.0 0.001057 480.12292 886.81006
1016.0 0.000984 480.16003 956.93286
1237.0 0.000808 480.19690 1194.94653
1630.0 0.000613 480.23340 1604.92358
2244.0 0.000446 480.26950 2212.82739
2508.0 0.000399 480.30521 2446.95166
1976.0 0.000506 480.34064 1861.12463
1309.0 0.000764 480.37579 1314.07837
1195.0 0.000837 480.41055 1194.11572
1396.0 0.000716 480.44492 1389.60730
1728.0 0.000579 480.47903 1701.08008
1900.0 0.000526 480.51266 1892.06628
1938.0 0.000516 480.54602 1967.46667
1941.0 0.000515 480.57907 1974.31287
1822.0 0.000549 480.61176 1805.85217
1669.0 0.000599 480.64413 1699.79089
1438.0 0.000695 480.67606 1478.75562
1191.0 0.000840 480.70767 1240.89844
1156.0 0.000865 480.73898 1172.28271
1162.0 0.000861 480.76990 1111.53345
1117.0 0.000895 480.80051 1070.56995
1222.0 0.000818 480.83081 1190.67749
1552.0 0.000644 480.86063 1506.99744
1764.0 0.000567 480.89023 1714.76770
1525.0 0.000656 480.91943 1460.88403
1146.0 0.000873 480.94830 1081.68066
1004.0 0.000996 480.97675 982.64221
1127.0 0.000887 481.00494 1124.46484
1498.0 0.000668 481.03275 1444.46216
2168.0 0.000461 481.06018 1978.61853
2555.0 0.000391 481.08728 2317.07788
2071.0 0.000483 481.11401 1937.40979
1380.0 0.000725 481.14047 1299.20459
948.0 0.001055 481.16660 932.61658
832.0 0.001202 481.19232 828.93225
890.0 0.001124 481.21756 868.35699
1029.0 0.000972 481.24261 1009.16083
1306.0 0.000766 481.26727 1250.06995
1459.0 0.000685 481.29160 1359.35779
1180.0 0.000847 481.31555 1111.61328
840.0 0.001190 481.33914 810.86163
649.0 0.001541 481.36240 660.97504
577.0 0.001733 481.38531 607.92340
570.0 0.001754 481.40784 592.41394
558.0 0.001792 481.43002 588.47406
563.0 0.001776 481.45190 581.12671
524.0 0.001908 481.47342 576.27863
507.0 0.001972 481.49463 566.50854
544.0 0.001838 481.51535 542.86237
528.0 0.001894 481.53583 526.01953
505.0 0.001980 481.55591 520.66327
484.0 0.002066 481.57562 521.35901
535.0 0.001869 481.59503 523.31909
517.0 0.001934 481.61404 516.81519
557.0 0.001795 481.63266 508.57504
496.0 0.002016 481.65106 505.79425
484.0 0.002066 481.66901 505.04691
528.0 0.001894 481.68668 505.33093
508.0 0.001969 481.70386 506.66089
493.0 0.002028 481.72079 509.05969
551.0 0.001815 481.73734 514.75153
586.0 0.001706 481.75354 519.34344
529.0 0.001890 481.76935 530.44495
520.0 0.001923 481.78488 542.94666
514.0 0.001946 481.80011 547.41388
521.0 0.001919 481.81482 545.01721
543.0 0.001842 481.82925 552.23175
614.0 0.001629 481.84335 572.97266
657.0 0.001522 481.85709 619.42297
751.0 0.001332 481.87048 716.75220
964.0 0.001037 481.88348 888.35773
1304.0 0.000767 481.89615 1161.43103
1640.0 0.000610 481.90839 1483.42554
1659.0 0.000603 481.92041 1499.56921
1269.0 0.000788 481.93198 1100.73047
876.0 0.001142 481.94327 809.29810
721.0 0.001387 481.95416 709.33630
725.0 0.001379 481.96466 715.51099
788.0 0.001269 481.97485 788.12360
958.0 0.001044 481.98465 929.20142
1195.0 0.000837 481.99414 1129.98621
1330.0 0.000752 482.00323 1246.09680
1329.0 0.000752 482.01202 1250.74060
1442.0 0.000693 482.02039 1415.41736
1744.0 0.000573 482.02847 1854.89941
2039.0 0.000490 482.03616 2129.59106
1702.0 0.000588 482.04352 1725.39392
1126.0 0.000888 482.05054 1148.64734
901.0 0.001110 482.05713 892.90771
888.0 0.001126 482.06342 861.63727
1022.0 0.000978 482.06934 953.66138
1169.0 0.000855 482.07489 1106.27515
1353.0 0.000739 482.08014 1347.77429
1613.0 0.000620 482.08499 1559.95374
1520.0 0.000658 482.08945 1487.81934
1282.0 0.000780 482.09363 1234.10999
1064.0 0.000940 482.09738 1031.33472
1046.0 0.000956 482.10086 1001.23090
1200.0 0.000833 482.10394 1085.45911
1176.0 0.000850 482.10666 1062.41907
883.0 0.001133 482.10904 877.93799
775.0 0.001290 482.11105 770.56866
776.0 0.001289 482.11273 770.29102
888.0 0.001126 482.11404 787.33685
748.0 0.001337 482.11493 781.08136
776.0 0.001289 482.11563 824.65436
932.0 0.001073 482.11584 946.39667
1126.0 0.000888 482.11572 1014.48932
860.0 0.001163 482.11517 888.92322
653.0 0.001531 482.11447 709.21082
553.0 0.001808 482.11328 618.46271
521.0 0.001919 482.11172 589.52362
565.0 0.001770 482.10989 593.12317
615.0 0.001626 482.10760 619.37317
631.0 0.001585 482.10504 674.91107
722.0 0.001385 482.10208 757.73877
832.0 0.001202 482.09882 850.03516
898.0 0.001114 482.09509 960.76874
1087.0 0.000920 482.09109 1188.96411
1285.0 0.000778 482.08676 1356.20703
1181.0 0.000847 482.08203 1168.21191
793.0 0.001261 482.07697 840.47797
610.0 0.001639 482.07156 675.10999
601.0 0.001664 482.06583 626.25745
625.0 0.001600 482.05966 641.91046
672.0 0.001488 482.05319 702.24957
781.0 0.001280 482.04639 815.65735
877.0 0.001140 482.03912 918.73590
838.0 0.001193 482.03162 859.89288
670.0 0.001493 482.02374 686.30170
556.0 0.001799 482.01550 584.16492
489.0 0.002045 482.00690 543.30090
466.0 0.002146 481.99792 527.27924
470.0 0.002128 481.98865 518.29199
495.0 0.002020 481.97897 510.53058
491.0 0.002037 481.96893 504.41055
468.0 0.002137 481.95865 500.61719
469.0 0.002132 481.94797 497.92889
501.0 0.001996 481.93686 496.12454
522.0 0.001916 481.92545 495.55331
493.0 0.002028 481.91370 495.66959
479.0 0.002088 481.90155 495.85751
486.0 0.002058 481.88913 498.13730
462.0 0.002165 481.87631 497.32635
481.0 0.002079 481.86310 497.36401
480.0 0.002083 481.84961 498.18628
489.0 0.002045 481.83575 499.47821
489.0 0.002045 481.82156 501.98981
497.0 0.002012 481.80695 506.25281
506.0 0.001976 481.79205 514.16595
546.0 0.001832 481.77673 527.40698
597.0 0.001675 481.76117 553.58521
578.0 0.001730 481.74518 594.39307
642.0 0.001558 481.72885 638.41638
644.0 0.001553 481.71219 671.10510
700.0 0.001429 481.69522 725.31866
780.0 0.001282 481.67776 776.56329
759.0 0.001318 481.66013 773.13416
719.0 0.001391 481.64206 718.06549
614.0 0.001629 481.62366 636.39764
572.0 0.001748 481.60489 599.13867
654.0 0.001529 481.58578 599.73462
607.0 0.001647 481.56635 608.71350
562.0 0.001779 481.54654 629.25934
651.0 0.001536 481.52640 658.33990
671.0 0.001490 481.50589 668.75519
637.0 0.001570 481.48514 653.84943
608.0 0.001645 481.46387 619.96918
595.0 0.001681 481.44232 603.79999
639.0 0.001565 481.42044 619.22864
700.0 0.001429 481.39825 672.68561
817.0 0.001224 481.37567 797.47217
1038.0 0.000963 481.35278 1052.96619
1499.0 0.000667 481.32956 1466.78564
2028.0 0.000493 481.30594 2064.44507
2277.0 0.000439 481.28195 2328.50415
1752.0 0.000571 481.25769 1767.24939
1116.0 0.000896 481.23309 1130.32788
805.0 0.001242 481.20810 842.87524
735.0 0.001361 481.18277 769.87604
778.0 0.001285 481.15707 817.44672
933.0 0.001072 481.13110 963.56775
1133.0 0.000883 481.10474 1220.62427
1389.0 0.000720 481.07800 1440.74121
1336.0 0.000749 481.05096 1298.54199
1012.0 0.000988 481.02359 940.61194
748.0 0.001337 480.99588 749.80035
660.0 0.001515 480.96786 706.56714
700.0 0.001429 480.93939 739.47565
746.0 0.001340 480.91068 807.96613
708.0 0.001412 480.88159 817.31213
697.0 0.001435 480.85223 743.96667
726.0 0.001377 480.82242 715.09460
753.0 0.001328 480.79230 751.83997
729.0 0.001372 480.76184 760.13080
659.0 0.001517 480.73105 692.86877
625.0 0.001600 480.69995 647.84125
613.0 0.001631 480.66855 657.31073
628.0 0.001592 480.63672 672.28265
580.0 0.001724 480.60452 643.81659
596.0 0.001678 480.57208 614.15997
633.0 0.001580 480.53931 621.29114
664.0 0.001506 480.50613 635.25330
626.0 0.001597 480.47269 610.06024
589.0 0.001698 480.43881 568.68292
584.0 0.001712 480.40466 544.70172
542.0 0.001845 480.37018 539.82489
538.0 0.001859 480.33533 542.36029
565.0 0.001770 480.30017 549.69128
562.0 0.001779 480.26471 562.22699
601.0 0.001664 480.22882 582.25580
603.0 0.001658 480.19269 615.43616
726.0 0.001377 480.15616 677.82599
846.0 0.001182 480.11932 808.87634
1083.0 0.000923 480.08218 1081.43018
1555.0 0.000643 480.04468 1544.64392
2276.0 0.000439 480.00690 2236.85474
2737.0 0.000365 479.96863 2669.23975
2140.0 0.000467 479.93021 2139.60327
1271.0 0.000787 479.89133 1335.57861
868.0 0.001152 479.85220 933.24829
779.0 0.001284 479.81274 808.90308
822.0 0.001217 479.77286 831.17621
919.0 0.001088 479.73267 974.19067
1196.0 0.000836 479.69226 1238.14355
1478.0 0.000677 479.65146 1551.26367
1556.0 0.000643 479.61032 1523.69531
1229.0 0.000814 479.56879 1095.53857
786.0 0.001272 479.52698 781.71472
640.0 0.001563 479.48486 644.23413
584.0 0.001712 479.44244 587.57886
572.0 0.001748 479.39966 558.88629
515.0 0.001942 479.35657 541.54889
515.0 0.001942 479.31314 530.03448
521.0 0.001919 479.26938 522.39716
518.0 0.001931 479.22525 519.32971
515.0 0.001942 479.18091 518.97729
485.0 0.002062 479.13614 517.68097
488.0 0.002049 479.09109 518.22266
540.0 0.001852 479.04575 521.45203
545.0 0.001835 479.00000 530.07111
576.0 0.001736 478.95404 550.64807
617.0 0.001621 478.90762 592.54626
697.0 0.001435 478.86096 660.14905
841.0 0.001189 478.81396 744.08368
866.0 0.001155 478.76663 753.59698
710.0 0.001408 478.71899 656.73340
570.0 0.001754 478.67105 575.61987
555.0 0.001802 478.62277 544.87354
561.0 0.001783 478.57419 539.18738
561.0 0.001783 478.52527 549.06958
590.0 0.001695 478.47601 573.78699
640.0 0.001563 478.42648 614.28320
678.0 0.001475 478.37659 649.66510
661.0 0.001513 478.32635 631.41516
618.0 0.001618 478.27591 590.06769
569.0 0.001757 478.22510 575.35370
582.0 0.001718 478.17395 588.19232
605.0 0.001653 478.12247 613.08350
593.0 0.001686 478.07068 624.20758
593.0 0.001686 478.01859 618.54755
678.0 0.001475 477.96625 629.88202
718.0 0.001393 477.91351 672.48315
779.0 0.001284 477.86044 765.39795
970.0 0.001031 477.80713 964.80371
1294.0 0.000773 477.75345 1358.06006
1970.0 0.000508 477.69949 2014.90649
2726.0 0.000367 477.64523 2805.43433
2983.0 0.0003352 477.59061 3083.09839
2292.0 0.000436 477.53574 2418.12036
1502.0 0.000666 477.48050 1523.98584
1009.0 0.000991 477.42490 1054.02747
873.0 0.001145 477.36920 906.82697
917.0 0.001091 477.31299 942.24518
1077.0 0.000929 477.25653 1128.46594
1432.0 0.000698 477.19980 1462.19080
1658.0 0.000603 477.14273 1792.98596
1600.0 0.000625 477.08533 1748.17371
1282.0 0.000780 477.02765 1312.52893
932.0 0.001073 476.96964 929.25110
732.0 0.001366 476.91135 758.15332
682.0 0.001466 476.85281 708.95258
743.0 0.001346 476.79385 728.30164
789.0 0.001267 476.73468 815.29883
918.0 0.001089 476.67511 982.10968
1135.0 0.000881 476.61530 1218.47449
1189.0 0.000841 476.55524 1289.26794
966.0 0.001035 476.49481 1029.19910
708.0 0.001412 476.43405 777.22113
633.0 0.001580 476.37302 665.96661
606.0 0.001650 476.31174 638.18323
609.0 0.001642 476.25012 659.22327
731.0 0.001368 476.18817 732.51599
873.0 0.001145 476.12592 872.26270
1026.0 0.000975 476.06339 1052.55383
1157.0 0.000864 476.00055 1112.80261
1050.0 0.000952 475.93750 951.63037
775.0 0.001290 475.87405 741.50208
599.0 0.001669 475.81033 619.74823
547.0 0.001828 475.74634 568.06836
537.0 0.001862 475.68207 551.87512
564.0 0.001773 475.61743 554.20795
568.0 0.001761 475.55252 573.93726
616.0 0.001623 475.48730 610.17487
688.0 0.001453 475.42188 641.48907
646.0 0.001548 475.35605 620.17596
571.0 0.001751 475.29001 574.23401
563.0 0.001776 475.22366 551.63208
595.0 0.001681 475.15701 556.55206
605.0 0.001653 475.09006 593.57458
632.0 0.001582 475.02286 673.70154
722.0 0.001385 474.95532 802.94867
865.0 0.001156 474.88748 933.69885
858.0 0.001166 474.81937 899.50409
702.0 0.001425 474.75098 723.43030
607.0 0.001647 474.68234 608.48126
557.0 0.001795 474.61337 561.87537
541.0 0.001848 474.54413 553.21124
575.0 0.001739 474.47461 568.86823
598.0 0.001672 474.40472 610.65509
642.0 0.001558 474.33463 679.40222
677.0 0.001477 474.26419 736.56091
704.0 0.001420 474.19357 704.50232
654.0 0.001529 474.12262 638.20526
629.0 0.001590 474.05139 627.51166
721.0 0.001387 473.97983 660.24664
797.0 0.001255 473.90805 695.61279
691.0 0.001447 473.83597 660.69165
614.0 0.001629 473.76358 591.61859
479.0 0.002088 473.69092 555.75745
581.0 0.001721 473.61807 546.99683
549.0 0.001821 473.54483 553.93597
586.0 0.001706 473.47137 575.89258
651.0 0.001536 473.39755 617.28345
649.0 0.001541 473.32352 684.17230
793.0 0.001261 473.24918 795.52130
966.0 0.001035 473.17465 955.76160
1173.0 0.000853 473.09982 1167.86230
1339.0 0.000747 473.02469 1417.64160
1320.0 0.000758 472.94922 1371.18604
1034.0 0.000967 472.87357 1060.25452
965.0 0.001036 472.79758 945.33441
1130.0 0.000885 472.72134 1037.66406
1421.0 0.000704 472.64481 1220.96753
1530.0 0.000654 472.56805 1367.67896
1345.0 0.000743 472.49103 1212.37329
1090.0 0.000917 472.41382 1080.79468
1014.0 0.000986 472.33618 1082.15955
933.0 0.001072 472.25833 976.62640
811.0 0.001233 472.18018 802.97400
712.0 0.001404 472.10181 746.09760
795.0 0.001258 472.02316 788.89484
920.0 0.001087 471.94421 874.36993
973.0 0.001028 471.86508 915.83942
882.0 0.001134 471.78561 811.19879
798.0 0.001253 471.70587 744.56403
827.0 0.001209 471.62595 748.62042
811.0 0.001233 471.54562 749.17926
730.0 0.001370 471.46515 669.38354
630.0 0.001587 471.38437 590.16614
529.0 0.001890 471.30341 550.69257
511.0 0.001957 471.22211 537.55994
532.0 0.001880 471.14056 538.14996
556.0 0.001799 471.05872 552.61737
580.0 0.001724 470.97668 579.41083
617.0 0.001621 470.89438 612.11993
647.0 0.001546 470.81183 626.02649
641.0 0.001560 470.72897 600.43085
632.0 0.001582 470.64590 587.02911
663.0 0.001508 470.56250 617.16235
746.0 0.001340 470.47891 710.13586
937.0 0.001067 470.39505 843.44989
1070.0 0.000935 470.31097 985.49750
1028.0 0.000973 470.22653 961.08209
820.0 0.001220 470.14191 761.05951
634.0 0.001577 470.05710 634.90656
558.0 0.001792 469.97205 589.01563
549.0 0.001821 469.88660 586.37579
587.0 0.001704 469.80099 613.35248
670.0 0.001493 469.71512 684.34570
834.0 0.001199 469.62900 808.57587
1042.0 0.000960 469.54269 1006.03955
1178.0 0.000849 469.45605 1200.13733
1376.0 0.000727 469.36917 1334.32166
1431.0 0.000699 469.28210 1383.78857
1168.0 0.000856 469.19473 1071.29395
801.0 0.001248 469.10724 796.27576
666.0 0.001502 469.01932 682.85754
654.0 0.001529 468.93121 671.44452
734.0 0.001362 468.84293 712.96838
795.0 0.001258 468.75436 795.57440
887.0 0.001127 468.66547 862.88348
942.0 0.001062 468.57648 921.73639
926.0 0.001080 468.48718 949.77106
893.0 0.001120 468.39771 802.23914
692.0 0.001445 468.30792 676.33624
627.0 0.001595 468.21802 632.50757
587.0 0.001704 468.12766 633.50024
629.0 0.001590 468.03717 622.65442
561.0 0.001783 467.94641 608.59314
584.0 0.001712 467.85562 579.49823
535.0 0.001869 467.76440 547.61279
547.0 0.001828 467.67300 534.13019
500.0 0.002000 467.58127 535.26544
531.0 0.001883 467.48947 551.59601
565.0 0.001770 467.39731 586.20416
697.0 0.001435 467.30499 653.01331
785.0 0.001274 467.21240 750.98639
869.0 0.001151 467.11960 860.14282
971.0 0.001030 467.02655 937.63275
873.0 0.001145 466.93332 834.46442
732.0 0.001366 466.83987 742.12738
738.0 0.001355 466.74619 734.26355
804.0 0.001244 466.65222 763.60095
795.0 0.001258 466.55804 717.49597
668.0 0.001497 466.46368 656.76801
635.0 0.001575 466.36902 661.76898
696.0 0.001437 466.27420 705.81909
733.0 0.001364 466.17911 751.80615
730.0 0.001370 466.08386 718.13373
724.0 0.001381 465.98837 698.22852
784.0 0.001276 465.89264 762.63287
896.0 0.001116 465.79666 911.26782
1045.0 0.000957 465.70050 1050.34338
1113.0 0.000898 465.60413 1128.72241
951.0 0.001052 465.50754 952.95691
708.0 0.001412 465.41068 730.14655
575.0 0.001739 465.31366 616.37671
541.0 0.001848 465.21640 574.85846
570.0 0.001754 465.11893 569.06049
605.0 0.001653 465.02127 592.32166
648.0 0.001543 464.92334 652.57288
689.0 0.001451 464.82526 734.20020
777.0 0.001287 464.72693 810.50983
765.0 0.001307 464.62839 768.25397
682.0 0.001466 464.52966 684.31671
690.0 0.001449 464.43076 677.01758
761.0 0.001314 464.33157 760.99817
838.0 0.001193 464.23218 919.36035
1060.0 0.000943 464.13263 1106.02136
1103.0 0.000907 464.03278 1163.61340
933.0 0.001072 463.93286 956.87085
701.0 0.001427 463.83264 764.71033
602.0 0.001661 463.73221 641.62799
579.0 0.001727 463.63165 589.70679
565.0 0.001770 463.53082 584.14661
548.0 0.001825 463.42984 617.36841
616.0 0.001623 463.32861 688.22272
763.0 0.001311 463.22717 776.67706
750.0 0.001333 463.12555 828.49805
742.0 0.001348 463.02371 738.28424
677.0 0.001477 462.92181 635.81598
589.0 0.001698 462.81949 566.04211
498.0 0.002008 462.71707 532.38849
517.0 0.001934 462.61450 518.28180
485.0 0.002062 462.51166 511.79016
467.0 0.002141 462.40866 508.35406
519.0 0.001927 462.30545 516.42145
545.0 0.001835 462.20209 537.87323
577.0 0.001733 462.09848 563.95679
618.0 0.001618 461.99469 574.03784
522.0 0.001916 461.89069 540.43164
506.0 0.001976 461.78656 510.13266
473.0 0.002114 461.68219 496.16644
456.0 0.002193 461.57764 491.47202
453.0 0.002208 461.47290 489.07587
488.0 0.002049 461.36801 492.40930
497.0 0.002012 461.26291 502.38605
512.0 0.001953 461.15762 516.02679
539.0 0.001855 461.05215 526.61292
531.0 0.001883 460.94647 514.46155
499.0 0.002004 460.84064 500.21884
485.0 0.002062 460.73459 496.46057
499.0 0.002004 460.62836 502.11221
479.0 0.002088 460.52194 516.28296
472.0 0.002119 460.41537 538.90021
533.0 0.001876 460.30862 568.88922
549.0 0.001821 460.20169 597.97992
566.0 0.001767 460.09454 595.02930
575.0 0.001739 459.98724 602.78601
612.0 0.001634 459.87976 672.59930
725.0 0.001379 459.77209 791.47882
870.0 0.001149 459.66428 911.03137
832.0 0.001202 459.55618 879.46399
695.0 0.001439 459.44806 718.01794
603.0 0.001658 459.33975 620.39044
543.0 0.001842 459.23117 588.68958
530.0 0.001887 459.12250 574.98126
535.0 0.001869 459.01358 568.49719
574.0 0.001742 458.90451 597.43964
664.0 0.001506 458.79529 664.26147
773.0 0.001294 458.68597 741.07361
762.0 0.001312 458.57635 759.43018
688.0 0.001453 458.46667 667.55267
579.0 0.001727 458.35675 590.42767
554.0 0.001805 458.24667 571.90674
589.0 0.001698 458.13644 604.10687
674.0 0.001484 458.02609 680.24573
752.0 0.001330 457.91553 768.57672
769.0 0.001300 457.80481 798.59192
675.0 0.001481 457.69394 697.41852
605.0 0.001653 457.58289 605.83173
578.0 0.001730 457.47171 555.17639
534.0 0.001873 457.36029 529.88165
509.0 0.001965 457.24875 523.50385
522.0 0.001916 457.13712 535.31488
552.0 0.001812 457.02521 567.53564
617.0 0.001621 456.91324 610.99005
593.0 0.001686 456.80109 644.65405
648.0 0.001543 456.68872 611.94763
575.0 0.001739 456.57629 560.26392
527.0 0.001898 456.46368 535.10083
537.0 0.001862 456.35086 531.25153
541.0 0.001848 456.23795 539.73450
564.0 0.001773 456.12482 564.22296
610.0 0.001639 456.01160 617.88947
727.0 0.001376 455.89828 728.58264
926.0 0.001080 455.78473 906.77734
1159.0 0.000863 455.67096 1125.78955
1297.0 0.000771 455.55716 1221.26550
1176.0 0.000850 455.44318 1159.83179
1013.0 0.000987 455.32910 978.25720
942.0 0.001062 455.21484 869.59137
1041.0 0.000961 455.10040 935.23816
1292.0 0.000774 454.98575 1127.74841
1588.0 0.000630 454.87106 1370.34009
1603.0 0.000624 454.75626 1440.22607
1553.0 0.000644 454.64120 1420.62085
1429.0 0.000700 454.52603 1359.49194
1163.0 0.000860 454.41080 1135.87573
962.0 0.001040 454.29535 925.73254
767.0 0.001304 454.17987 773.75055
725.0 0.001379 454.06418 732.83728
802.0 0.001247 453.94830 780.71106
917.0 0.001091 453.83237 870.24176
989.0 0.001011 453.71625 925.18024
964.0 0.001037 453.60001 871.56415
854.0 0.001171 453.48358 816.99768
743.0 0.001346 453.36710 725.04767
649.0 0.001541 453.25049 657.76404
621.0 0.001610 453.13367 664.34869
682.0 0.001466 453.01675 725.10638
715.0 0.001399 452.89972 793.68591
649.0 0.001541 452.78253 773.18414
619.0 0.001616 452.66519 677.35254
587.0 0.001704 452.54782 625.00891
603.0 0.001658 452.43030 614.32819
581.0 0.001721 452.31259 604.11951
581.0 0.001721 452.19473 606.92407
630.0 0.001587 452.07681 659.46552
725.0 0.001379 451.95871 765.38470
818.0 0.001222 451.84061 881.06512
798.0 0.001253 451.72226 895.63434
705.0 0.001418 451.60382 769.59082
677.0 0.001477 451.48523 677.07855
649.0 0.001541 451.36664 648.08453
666.0 0.001502 451.24783 635.70953
652.0 0.001534 451.12888 639.69891
650.0 0.001538 451.00989 701.59448
784.0 0.001276 450.89072 839.82819
950.0 0.001053 450.77145 1000.70001
1044.0 0.000958 450.65213 1060.64697
849.0 0.001178 450.53259 907.78192
774.0 0.001292 450.41296 783.86652
746.0 0.001340 450.29321 763.17212
828.0 0.001208 450.17343 817.75348
1021.0 0.000979 450.05353 957.73169
1221.0 0.000819 449.93338 1184.81750
1345.0 0.000743 449.81314 1370.74854
1397.0 0.000716 449.69299 1444.15149
1199.0 0.000834 449.57254 1307.77246
939.0 0.001065 449.45209 1006.14526
730.0 0.001370 449.33145 780.86133
608.0 0.001645 449.21072 682.41492
647.0 0.001546 449.08987 660.13190
673.0 0.001486 448.96899 688.92651
787.0 0.001271 448.84796 766.86548
868.0 0.001152 448.72681 871.69983
910.0 0.001099 448.60553 920.97815
899.0 0.001112 448.48413 924.11859
841.0 0.001189 448.36276 848.29932
780.0 0.001282 448.24124 807.94446
818.0 0.001222 448.11957 811.36932
707.0 0.001414 447.99783 740.59802
611.0 0.001637 447.87592 625.22931
507.0 0.001972 447.75406 556.14911
478.0 0.002092 447.63202 525.70886
479.0 0.002088 447.50989 515.26514
486.0 0.002058 447.38757 517.03241
493.0 0.002028 447.26526 533.45465
550.0 0.001818 447.14288 569.63312
643.0 0.001555 447.02039 616.54602
666.0 0.001502 446.89786 656.48016
655.0 0.001527 446.77505 662.64246
718.0 0.001393 446.65228 707.73920
833.0 0.001200 446.52939 798.01300
878.0 0.001139 446.40649 860.41193
774.0 0.001292 446.28339 759.18884
632.0 0.001582 446.16019 620.19824
543.0 0.001842 446.03702 542.88129
512.0 0.001953 445.91370 512.08630
481.0 0.002079 445.79031 502.43365
498.0 0.002008 445.66681 507.58548
532.0 0.001880 445.54324 531.98395
562.0 0.001779 445.41953 580.07135
614.0 0.001629 445.29584 633.92798
666.0 0.001502 445.17212 647.65283
617.0 0.001621 445.04813 581.61346
544.0 0.001838 444.92419 522.08075
514.0 0.001946 444.80005 493.62695
463.0 0.002160 444.67596 482.81989
494.0 0.002024 444.55176 480.23950
498.0 0.002008 444.42746 482.92493
536.0 0.001866 444.30310 492.24387
510.0 0.001961 444.17865 517.32971
554.0 0.001805 444.05411 572.65833
655.0 0.001527 443.92960 659.38611
724.0 0.001381 443.80484 741.87256
662.0 0.001511 443.68015 728.50195
539.0 0.001855 443.55530 617.75964
522.0 0.001916 443.43042 538.03314
456.0 0.002193 443.30548 502.08893
498.0 0.002008 443.18045 489.15601
520.0 0.001923 443.05533 488.45950
484.0 0.002066 442.93018 499.94614
539.0 0.001855 442.80502 529.14911
539.0 0.001855 442.67972 571.59558
588.0 0.001701 442.55432 606.81543
525.0 0.001905 442.42892 583.39160
490.0 0.002041 442.30344 528.45007
471.0 0.002123 442.17786 494.90384
482.0 0.002075 442.05237 481.08566
473.0 0.002114 441.92664 476.96234
494.0 0.002024 441.80090 477.38379
471.0 0.002123 441.67502 481.07968
494.0 0.002024 441.54922 488.93640
510.0 0.001961 441.42337 502.34088
565.0 0.001770 441.29736 529.83502
598.0 0.001672 441.17136 589.53644
695.0 0.001439 441.04520 712.72736
859.0 0.001164 440.91910 899.64893
1034.0 0.000967 440.79288 1069.43616
942.0 0.001062 440.66663 1029.28760
795.0 0.001258 440.54031 811.79572
664.0 0.001506 440.41394 670.93207
628.0 0.001592 440.28757 637.81665
650.0 0.001538 440.16116 672.64215
738.0 0.001355 440.03461 724.66125
736.0 0.001359 439.90805 727.41217
678.0 0.001475 439.78143 711.27478
686.0 0.001458 439.65485 749.93115
728.0 0.001374 439.52805 798.97864
692.0 0.001445 439.40134 744.99701
584.0 0.001712 439.27454 629.66132
542.0 0.001845 439.14764 562.26276
529.0 0.001890 439.02081 546.83051
548.0 0.001825 438.89395 560.88446
578.0 0.001730 438.76691 576.20923
542.0 0.001845 438.63995 555.36420
514.0 0.001946 438.51285 515.26630
503.0 0.001988 438.38574 490.82910
470.0 0.002128 438.25861 481.00717
473.0 0.002114 438.13144 479.58878
505.0 0.001980 438.00418 484.91766
517.0 0.001934 437.87692 502.68454
534.0 0.001873 437.74969 537.66632
600.0 0.001667 437.62238 588.42682
647.0 0.001546 437.49500 629.82367
609.0 0.001642 437.36755 608.79504
565.0 0.001770 437.24008 555.65155
527.0 0.001898 437.11270 528.47858
495.0 0.002020 436.98523 529.50397
548.0 0.001825 436.85770 556.54578
650.0 0.001538 436.73007 630.67566
752.0 0.001330 436.60248 785.28986
930.0 0.001075 436.47488 1005.50647
1080.0 0.000926 436.34726 1179.14941
1039.0 0.000962 436.21957 1078.02673
804.0 0.001244 436.09183 823.76868
623.0 0.001605 435.96411 649.62244
555.0 0.001802 435.83640 570.66583
555.0 0.001802 435.70856 545.94232
593.0 0.001686 435.58081 549.61243
567.0 0.001764 435.45291 582.92474
730.0 0.001370 435.32507 654.25403
689.0 0.001451 435.19717 746.73328
765.0 0.001307 435.06931 810.18372
647.0 0.001546 434.94138 742.67572
589.0 0.001698 434.81345 624.57281
537.0 0.001862 434.68539 556.30011
511.0 0.001957 434.55750 531.28522
530.0 0.001887 434.42953 531.40942
544.0 0.001838 434.30145 547.87891
575.0 0.001739 434.17340 589.65887
677.0 0.001477 434.04541 682.18469
826.0 0.001211 433.91730 861.95996
1073.0 0.000932 433.78928 1106.20447
1236.0 0.000809 433.66116 1274.52661
1077.0 0.000929 433.53305 1115.93726
764.0 0.001309 433.40497 851.17578
678.0 0.001475 433.27676 708.72766
628.0 0.001592 433.14877 659.41522
633.0 0.001580 433.02051 623.04742
607.0 0.001647 432.89236 604.81671
638.0 0.001567 432.76425 631.47546
712.0 0.001404 432.63602 720.64618
787.0 0.001271 432.50787 858.94580
900.0 0.001111 432.37970 969.85895
905.0 0.001105 432.25150 919.54773
829.0 0.001206 432.12326 798.05731
788.0 0.001269 431.99515 767.48010
862.0 0.001160 431.86688 867.26428
1020.0 0.000980 431.73871 1099.32190
1262.0 0.000792 431.61044 1393.52393
1430.0 0.000699 431.48218 1532.09790
1219.0 0.000820 431.35406 1252.32861
939.0 0.001065 431.22586 939.93549
852.0 0.001174 431.09756 804.58667
820.0 0.001220 430.96939 790.54315
875.0 0.001143 430.84113 803.86389
840.0 0.001190 430.71295 783.67383
815.0 0.001227 430.58481 790.73547
921.0 0.001086 430.45657 899.55231
1037.0 0.000964 430.32837 1066.42102
1071.0 0.000934 430.20010 1146.80286
975.0 0.001026 430.07193 1002.97491
868.0 0.001152 429.94376 844.59991
800.0 0.001250 429.81561 810.29504
845.0 0.001183 429.68744 892.74426
1077.0 0.000929 429.55923 1042.91919
1251.0 0.000799 429.43115 1220.14221
1440.0 0.000694 429.30301 1518.68750
2101.0 0.000476 429.17490 2083.05518
2835.0 0.000353 429.04675 2636.79150
2593.0 0.000386 428.91867 2494.45654
1713.0 0.000584 428.79059 1705.72876
1089.0 0.000918 428.66254 1131.37488
827.0 0.001209 428.53452 870.64453
704.0 0.001420 428.40643 792.76422
770.0 0.001299 428.27835 802.19879
861.0 0.001161 428.15042 862.27557
996.0 0.001004 428.02243 993.89899
1200.0 0.000833 427.89441 1261.83630
1595.0 0.000627 427.76642 1552.55273
1609.0 0.000622 427.63849 1543.59631
1273.0 0.000786 427.51059 1154.86987
831.0 0.001203 427.38272 827.56958
625.0 0.001600 427.25485 655.72900
592.0 0.001689 427.12698 576.76428
553.0 0.001808 426.99908 537.96985
527.0 0.001898 426.87125 517.61493
505.0 0.001980 426.74359 507.97253
526.0 0.001901 426.61575 505.81287
517.0 0.001934 426.48807 505.92294
482.0 0.002075 426.36029 498.91919
508.0 0.001969 426.23267 492.73666
530.0 0.001887 426.10501 488.57919
509.0 0.001965 425.97739 488.72382
485.0 0.002062 425.84979 497.39847
556.0 0.001799 425.72214 523.76025
600.0 0.001667 425.59464 582.34894
646.0 0.001548 425.46713 673.53424
708.0 0.001412 425.33960 749.20349
705.0 0.001418 425.21222 714.63507
607.0 0.001647 425.08475 601.84656
569.0 0.001757 424.95740 530.11920
510.0 0.001961 424.83005 499.96069
496.0 0.002016 424.70270 491.67801
546.0 0.001832 424.57547 497.63324
571.0 0.001751 424.44824 519.84460
577.0 0.001733 424.32101 563.03583
654.0 0.001529 424.19391 622.75055
708.0 0.001412 424.06671 668.34497
712.0 0.001404 423.93961 676.14984
721.0 0.001387 423.81250 665.17859
811.0 0.001233 423.68558 717.56781
916.0 0.001092 423.55856 816.44171
985.0 0.001015 423.43167 862.04755
854.0 0.001171 423.30472 764.15393
676.0 0.001479 423.17786 646.51978
628.0 0.001592 423.05103 593.92798
609.0 0.001642 422.92435 593.84039
649.0 0.001541 422.79764 619.28986
711.0 0.001406 422.67099 658.64203
762.0 0.001312 422.54428 724.56958
947.0 0.001056 422.41772 880.78687
1243.0 0.000805 422.29120 1176.30627
1502.0 0.000666 422.16470 1487.35474
1464.0 0.000683 422.03827 1505.94019
1088.0 0.000919 421.91187 1136.75647
764.0 0.001309 421.78546 814.58411
622.0 0.001608 421.65924 653.76581
584.0 0.001712 421.53299 593.76190
538.0 0.001859 421.40683 578.04034
600.0 0.001667 421.28058 582.00690
610.0 0.001639 421.15454 612.62622
700.0 0.001429 421.02847 702.40588
781.0 0.001280 420.90247 835.53583
923.0 0.001083 420.77658 914.08008
782.0 0.001279 420.65063 806.97662
650.0 0.001538 420.52490 647.61517
527.0 0.001898 420.39914 548.99335
526.0 0.001901 420.27341 501.58105
452.0 0.002212 420.14767 481.44080
522.0 0.001916 420.02213 474.27255
450.0 0.002222 419.89667 470.97189
501.0 0.001996 419.77118 464.32864
471.0 0.002123 419.64578 456.99487
491.0 0.002037 419.52039 456.00064
474.0 0.002110 419.39511 462.79190
521.0 0.001919 419.26984 471.33157
501.0 0.001996 419.14468 467.92206
471.0 0.002123 419.01959 453.95923
484.0 0.002066 418.89450 444.07275
454.0 0.002203 418.76956 440.70865
473.0 0.002114 418.64468 440.58911
499.0 0.002004 418.51984 439.76276
490.0 0.002041 418.39502 437.99286
478.0 0.002092 418.27026 434.59396
471.0 0.002123 418.14563 437.57043
458.0 0.002183 418.02103 443.57080
440.0 0.002273 417.89655 448.21829
451.0 0.002217 417.77203 448.43607
434.0 0.002304 417.64771 447.81104
458.0 0.002183 417.52328 444.34665
476.0 0.002101 417.39914 437.39734
492.0 0.002033 417.27496 432.53073
489.0 0.002045 417.15088 431.40222
461.0 0.002169 417.02682 430.99438
454.0 0.002203 416.90286 430.44440
441.0 0.002268 416.77896 431.80695
445.0 0.002247 416.65518 434.19516
458.0 0.002183 416.53143 438.12442
461.0 0.002169 416.40781 443.36319
466.0 0.002146 416.28418 448.74094
471.0 0.002123 416.16061 451.85715
500.0 0.002000 416.03735 456.71957
514.0 0.001946 415.91391 467.86853
530.0 0.001887 415.79068 490.93289
550.0 0.001818 415.66739 540.34460
605.0 0.001653 415.54425 635.48633
753.0 0.001328 415.42126 766.31482
858.0 0.001166 415.29837 852.41522
765.0 0.001307 415.17548 781.19293
652.0 0.001534 415.05261 656.37134
614.0 0.001629 414.92990 589.28992
570.0 0.001754 414.80731 590.76886
655.0 0.001527 414.68475 669.09253
794.0 0.001259 414.56232 845.42261
979.0 0.001021 414.43991 1060.56616
1058.0 0.000945 414.31757 1059.64221
934.0 0.001071 414.19537 919.76331
803.0 0.001245 414.07327 821.86725
723.0 0.001383 413.95120 702.74347
684.0 0.001462 413.82922 606.27411
617.0 0.001621 413.70737 560.72229
547.0 0.001828 413.58566 559.63007
625.0 0.001600 413.46393 610.13300
718.0 0.001393 413.34232 728.82489
840.0 0.001190 413.22083 878.70703
944.0 0.001059 413.09937 899.36090
830.0 0.001205 412.97806 755.95898
726.0 0.001377 412.85675 620.70300
633.0 0.001580 412.73560 556.37988
587.0 0.001704 412.61450 551.49744
620.0 0.001613 412.49365 591.26685
685.0 0.001460 412.37274 659.37567
698.0 0.001433 412.25192 676.54578
716.0 0.001397 412.13123 639.27386
693.0 0.001443 412.01062 635.37964
660.0 0.001515 411.89017 652.21143
675.0 0.001481 411.76978 650.51251
697.0 0.001435 411.64941 609.60419
655.0 0.001527 411.52924 553.47614
568.0 0.001761 411.40906 528.32379
557.0 0.001795 411.28906 534.82141
580.0 0.001724 411.16922 569.63220
589.0 0.001698 411.04935 616.56995
606.0 0.001650 410.92963 637.80261
649.0 0.001541 410.80997 657.38702
723.0 0.001383 410.69046 714.09369
835.0 0.001198 410.57098 870.79089
1024.0 0.000977 410.45172 1117.06152
1210.0 0.000826 410.33246 1201.35205
1166.0 0.000858 410.21344 992.52161
946.0 0.001057 410.09433 813.09479
834.0 0.001199 409.97549 780.43781
895.0 0.001117 409.85666 855.08948
976.0 0.001025 409.73795 878.19415
950.0 0.001053 409.61935 782.33490
827.0 0.001209 409.50082 707.30499
767.0 0.001304 409.38251 705.46625
791.0 0.001264 409.26422 791.59613
899.0 0.001112 409.14597 938.27179
1053.0 0.000950 409.02792 1026.00745
1137.0 0.000880 408.91000 1122.85986
1276.0 0.000784 408.79221 1390.92334
1469.0 0.000681 408.67441 1603.87524
1488.0 0.000672 408.55670 1408.87842
1199.0 0.000834 408.43921 1091.87585
945.0 0.001058 408.32178 874.79211
898.0 0.001114 408.20453 803.24152
934.0 0.001071 408.08728 863.62183
1116.0 0.000896 407.97021 1075.83057
1510.0 0.000662 407.85324 1451.09094
1874.0 0.000534 407.73636 1858.38660
2194.0 0.000456 407.61969 2247.69604
2368.0 0.000422 407.50293 2279.52441
1938.0 0.000516 407.38641 1817.69495
1384.0 0.000723 407.27005 1262.48108
986.0 0.001014 407.15381 912.23969
784.0 0.001276 407.03760 751.76129
728.0 0.001374 406.92151 702.12427
783.0 0.001277 406.80557 730.87500
836.0 0.001196 406.68970 851.47235
1009.0 0.000991 406.57401 1051.26831
1243.0 0.000805 406.45850 1233.86389
1413.0 0.000708 406.34293 1339.41736
1354.0 0.000739 406.22763 1218.49097
1208.0 0.000828 406.11240 1004.85785
933.0 0.001072 405.99719 828.92676
732.0 0.001366 405.88223 674.93213
643.0 0.001555 405.76733 576.40271
608.0 0.001645 405.65259 526.08832
515.0 0.001942 405.53793 501.48300
534.0 0.001873 405.42334 494.55948
538.0 0.001859 405.30899 499.07187
529.0 0.001890 405.19473 500.24756
558.0 0.001792 405.08054 495.76831
570.0 0.001754 404.96652 503.10370
564.0 0.001773 404.85260 521.88452
549.0 0.001821 404.73883 515.09351
539.0 0.001855 404.62518 481.68259
528.0 0.001894 404.51160 455.55945
483.0 0.002070 404.39819 442.10251
459.0 0.002179 404.28494 434.25134
465.0 0.002151 404.17178 430.70139
470.0 0.002128 404.05875 425.75113
489.0 0.002045 403.94577 423.23337
473.0 0.002114 403.83304 423.09109
475.0 0.002105 403.72037 423.34515
480.0 0.002083 403.60785 424.12195
460.0 0.002174 403.49545 425.48334
471.0 0.002123 403.38321 427.54874
504.0 0.001984 403.27106 430.53564
510.0 0.001961 403.15903 434.80844
481.0 0.002079 403.04718 440.51028
457.0 0.002188 402.93536 448.16373
498.0 0.002008 402.82373 463.42484
544.0 0.001838 402.71222 491.75131
557.0 0.001795 402.60095 548.43988
637.0 0.001570 402.48975 657.13293
775.0 0.001290 402.37860 815.74634
930.0 0.001075 402.26758 944.74414
1053.0 0.000950 402.15674 1038.67712
1117.0 0.000895 402.04605 995.02173
964.0 0.001037 401.93561 791.85052
772.0 0.001295 401.82510 634.14954
642.0 0.001558 401.71484 562.54626
611.0 0.001637 401.60461 555.07465
607.0 0.001647 401.49463 594.33130
642.0 0.001558 401.38477 653.40210
674.0 0.001484 401.27493 682.23633
680.0 0.001471 401.16534 709.22205
746.0 0.001340 401.05588 739.26587
777.0 0.001287 400.94650 777.09589
826.0 0.001211 400.83728 762.99597
768.0 0.001302 400.72830 689.65210
701.0 0.001427 400.61929 619.05963
620.0 0.001613 400.51056 549.44092
549.0 0.001821 400.40189 511.23871
540.0 0.001852 400.29333 506.18924
550.0 0.001818 400.18500 511.69089
536.0 0.001866 400.07675 493.11295
500.0 0.002000 399.96863 465.66895
484.0 0.002066 399.86072 449.81909
469.0 0.002132 399.75290 447.39938
491.0 0.002037 399.64526 457.96140
468.0 0.002137 399.53766 479.69330
556.0 0.001799 399.43030 497.79062
557.0 0.001795 399.32300 502.74829
567.0 0.001764 399.21600 493.43542
509.0 0.001965 399.10904 465.00702
490.0 0.002041 399.00217 440.70728
453.0 0.002208 398.89545 427.99521
455.0 0.002198 398.78897 422.30029
467.0 0.002141 398.68262 418.71378
450.0 0.002222 398.57635 418.13553
440.0 0.002273 398.47031 419.33542
447.0 0.002237 398.36429 423.38660
466.0 0.002146 398.25851 431.96008
447.0 0.002237 398.15286 444.12662
449.0 0.002227 398.04736 450.27838
468.0 0.002137 397.94199 444.54745
458.0 0.002183 397.83679 440.06100
470.0 0.002128 397.73175 443.27856
483.0 0.002070 397.62683 454.96899
509.0 0.001965 397.52200 483.32700
524.0 0.001908 397.41739 546.79248
591.0 0.001692 397.31290 673.93805
754.0 0.001326 397.20859 854.47223
862.0 0.001160 397.10443 916.96875
814.0 0.001229 397.00034 762.46008
641.0 0.001560 396.89645 602.55328
505.0 0.001980 396.79272 512.44788
480.0 0.002083 396.68915 472.25339
474.0 0.002110 396.58575 456.27762
468.0 0.002137 396.48245 452.40225
479.0 0.002088 396.37927 459.52948
477.0 0.002096 396.27631 485.15976
503.0 0.001988 396.17355 542.94220
591.0 0.001692 396.07086 633.14398
677.0 0.001477 395.96835 680.30084
655.0 0.001527 395.86591 623.03693
624.0 0.001603 395.76370 561.58478
596.0 0.001678 395.66165 525.28406
545.0 0.001835 395.55972 485.50201
489.0 0.002045 395.45807 452.32910
500.0 0.002000 395.35638 432.71707
448.0 0.002232 395.25494 422.50082
433.0 0.002309 395.15366 417.20132
440.0 0.002273 395.05255 414.41977
437.0 0.002288 394.95154 413.95862
461.0 0.002169 394.85074 415.43286
453.0 0.002208 394.75006 420.77350
502.0 0.001992 394.64954 430.67896
473.0 0.002114 394.54916 438.56577
467.0 0.002141 394.44897 432.32443
428.0 0.002336 394.34897 421.20712
422.0 0.002370 394.24911 414.15674
428.0 0.002336 394.14941 411.11490
466.0 0.002146 394.04980 409.04987
441.0 0.002268 393.95029 409.70142
428.0 0.002336 393.85104 411.41739
461.0 0.002169 393.75192 414.50037
432.0 0.002315 393.65305 419.99725
446.0 0.002242 393.55423 429.60019
448.0 0.002232 393.45560 444.48325
457.0 0.002188 393.35718 459.58557
479.0 0.002088 393.25879 473.09201
510.0 0.001961 393.16064 506.42551
534.0 0.001873 393.06277 587.98346
688.0 0.001453 392.96487 732.47064
781.0 0.001280 392.86719 866.75684
825.0 0.001212 392.76965 805.81628
736.0 0.001359 392.67233 645.57025
552.0 0.001812 392.57516 534.28882
483.0 0.002070 392.47818 481.06644
455.0 0.002198 392.38126 461.10132
453.0 0.002208 392.28452 455.77414
458.0 0.002183 392.18805 454.48862
455.0 0.002198 392.09161 463.21460
463.0 0.002160 391.99542 495.27701
530.0 0.001887 391.89935 560.58612
549.0 0.001821 391.80344 636.05225
575.0 0.001739 391.70779 628.65289
554.0 0.001805 391.61218 546.45026
480.0 0.002083 391.51682 479.41278
444.0 0.002252 391.42157 443.33969
453.0 0.002208 391.32642 426.76947
450.0 0.002222 391.23160 418.74301
432.0 0.002315 391.13684 414.63019
431.0 0.002320 391.04227 412.90253
462.0 0.002165 390.94781 413.37888
473.0 0.002114 390.85358 416.18280
463.0 0.002160 390.75952 420.03320
471.0 0.002123 390.66562 423.14786
485.0 0.002062 390.57184 430.96082
517.0 0.001934 390.47824 451.61160
552.0 0.001812 390.38486 488.03583
607.0 0.001647 390.29153 516.66333
580.0 0.001724 390.19852 496.34399
495.0 0.002020 390.10553 458.85083
435.0 0.002299 390.01282 434.78717
433.0 0.002309 389.92017 424.38147
456.0 0.002193 389.82782 425.20074
439.0 0.002278 389.73547 430.85690
477.0 0.002096 389.64343 433.09830
435.0 0.002299 389.55151 432.75424
460.0 0.002174 389.45972 441.07977
457.0 0.002188 389.36813 464.64984
526.0 0.001901 389.27679 499.40417
576.0 0.001736 389.18542 514.58173
515.0 0.001942 389.09439 492.18530
479.0 0.002088 389.00345 463.84711
465.0 0.002151 388.91272 450.16104
511.0 0.001957 388.82214 455.65823
456.0 0.002193 388.73175 480.64322
557.0 0.001795 388.64148 535.70148
556.0 0.001799 388.55142 629.89191
720.0 0.001389 388.46149 729.79578
679.0 0.001473 388.37177 715.17413
635.0 0.001575 388.28220 621.11884
552.0 0.001812 388.19278 561.08612
529.0 0.001890 388.10355 537.49420
530.0 0.001887 388.01453 513.20038
496.0 0.002016 387.92566 483.36600
476.0 0.002101 387.83685 467.57199
494.0 0.002024 387.74835 471.90540
511.0 0.001957 387.65994 502.74902
563.0 0.001776 387.57178 565.45551
595.0 0.001681 387.48376 638.61060
607.0 0.001647 387.39594 647.12408
584.0 0.001712 387.30817 578.51361
538.0 0.001859 387.22067 516.49524
493.0 0.002028 387.13336 488.02411
482.0 0.002075 387.04611 479.15991
474.0 0.002110 386.95920 473.26794
461.0 0.002169 386.87225 475.48755
516.0 0.001938 386.78561 498.58994
611.0 0.001637 386.69916 551.91870
681.0 0.001468 386.61279 627.52246
700.0 0.001429 386.52667 671.59473
694.0 0.001441 386.44067 678.20978
716.0 0.001397 386.35486 715.80048
758.0 0.001319 386.26926 768.63934
735.0 0.001361 386.18381 719.25244
661.0 0.001513 386.09848 610.42786
566.0 0.001767 386.01343 534.33142
501.0 0.001996 385.92841 500.42004
474.0 0.002110 385.84375 495.61273
497.0 0.002012 385.75916 512.87805
567.0 0.001764 385.67462 549.47577
598.0 0.001672 385.59036 591.54242
630.0 0.001587 385.50629 627.44525
701.0 0.001427 385.42236 708.25232
861.0 0.001161 385.33875 883.45941
1007.0 0.000993 385.25516 1118.99597
1193.0 0.000838 385.17175 1250.24866
1116.0 0.000896 385.08853 1103.37561
949.0 0.001054 385.00555 890.47260
815.0 0.001227 384.92270 810.71112
860.0 0.001163 384.84003 884.16998
1013.0 0.000987 384.75748 1029.20715
1038.0 0.000963 384.67508 1024.48230
876.0 0.001142 384.59293 845.44580
654.0 0.001529 384.51093 699.80182
688.0 0.001453 384.42914 652.43011
633.0 0.001580 384.34744 695.95740
703.0 0.001422 384.26602 790.26141
832.0 0.001202 384.18472 811.76373
766.0 0.001305 384.10358 721.79529
662.0 0.001511 384.02271 654.18335
639.0 0.001565 383.94186 665.28607
677.0 0.001477 383.86127 742.19464
783.0 0.001277 383.78091 805.57452
779.0 0.001284 383.70059 769.11243
726.0 0.001377 383.62057 724.25159
782.0 0.001279 383.54065 772.56769
898.0 0.001114 383.46088 916.19104
1011.0 0.000989 383.38141 1017.50922
1030.0 0.000971 383.30203 937.44281
810.0 0.001235 383.22278 831.18756
754.0 0.001326 383.14371 740.64447
649.0 0.001541 383.06488 639.15198
558.0 0.001792 382.98630 573.13879
545.0 0.001835 382.90781 546.33948
540.0 0.001852 382.82947 536.91711
526.0 0.001901 382.75125 530.10236
541.0 0.001848 382.67328 544.24774
589.0 0.001698 382.59552 599.74310
657.0 0.001522 382.51785 680.45959
748.0 0.001337 382.44046 699.06989
709.0 0.001410 382.36319 645.01233
617.0 0.001621 382.28601 598.12433
552.0 0.001812 382.20917 549.31268
531.0 0.001883 382.13248 501.72119
499.0 0.002004 382.05585 475.06213
483.0 0.002070 381.97949 467.40381
475.0 0.002105 381.90323 467.05698
463.0 0.002160 381.82718 471.39569
472.0 0.002119 381.75128 494.47617
532.0 0.001880 381.67563 554.07562
620.0 0.001613 381.60010 653.42102
664.0 0.001506 381.52478 727.41541
629.0 0.001590 381.44955 674.84705
615.0 0.001626 381.37463 576.84302
580.0 0.001724 381.29980 510.55270
515.0 0.001942 381.22516 470.39725
492.0 0.002033 381.15073 446.33929
490.0 0.002041 381.07642 434.65344
444.0 0.002252 381.00229 431.41571
438.0 0.002283 380.92841 437.76367
429.0 0.002331 380.85461 457.79236
477.0 0.002096 380.78098 497.98401
538.0 0.001859 380.70764 553.44440
575.0 0.001739 380.63440 580.95490
551.0 0.001815 380.56134 555.84875
588.0 0.001701 380.48840 538.09424
596.0 0.001678 380.41571 554.44476
576.0 0.001736 380.34317 572.46930
565.0 0.001770 380.27081 538.47144
493.0 0.002028 380.19867 484.05627
428.0 0.002336 380.12662 447.24481
443.0 0.002257 380.05481 428.98291
434.0 0.002304 379.98312 420.78714
393.0 0.002545 379.91162 416.19989
409.0 0.002445 379.84036 413.95386
449.0 0.002227 379.76926 415.19919
399.0 0.002506 379.69830 422.62598
446.0 0.002242 379.62750 438.95050
487.0 0.002053 379.55695 464.61389
489.0 0.002045 379.48639 482.25208
509.0 0.001965 379.41620 474.39410
476.0 0.002101 379.34610 461.75336
467.0 0.002141 379.27615 455.23404
515.0 0.001942 379.20651 461.93088
475.0 0.002105 379.13693 489.45541
543.0 0.001842 379.06754 529.90094
527.0 0.001898 378.99835 538.57849
499.0 0.002004 378.92929 499.77194
464.0 0.002155 378.86050 461.46460
451.0 0.002217 378.79184 441.52277
429.0 0.002331 378.72321 437.00189
483.0 0.002070 378.65488 444.56158
483.0 0.002070 378.58679 465.75464
527.0 0.001898 378.51874 508.49594
582.0 0.001718 378.45096 579.12677
691.0 0.001447 378.38333 668.71686
758.0 0.001319 378.31586 732.68103
808.0 0.001238 378.24857 775.79962
822.0 0.001217 378.18143 762.07422
710.0 0.001408 378.11453 663.37720
546.0 0.001832 378.04779 560.20068
480.0 0.002083 377.98114 497.81949
453.0 0.002208 377.91470 470.36414
471.0 0.002123 377.84845 465.02505
469.0 0.002132 377.78238 477.28860
496.0 0.002016 377.71646 514.46527
563.0 0.001776 377.65082 591.73016
663.0 0.001508 377.58524 715.04413
794.0 0.001259 377.51984 852.14862
894.0 0.001119 377.45465 912.92938
842.0 0.001188 377.38956 811.72333
668.0 0.001497 377.32468 657.73407
527.0 0.001898 377.26004 544.35614
453.0 0.002208 377.19550 482.80511
432.0 0.002315 377.13116 454.19775
426.0 0.002347 377.06699 442.90112
415.0 0.002410 377.00296 442.35876
457.0 0.002188 376.93918 451.90427
479.0 0.002088 376.87552 473.29709
485.0 0.002062 376.81204 512.20331
538.0 0.001859 376.74869 566.78235
534.0 0.001873 376.68558 587.90411
529.0 0.001890 376.62259 544.76587
497.0 0.002012 376.55984 500.14325
471.0 0.002123 376.49722 485.89471
499.0 0.002004 376.43472 500.30545
500.0 0.002000 376.37244 520.89514
507.0 0.001972 376.31030 528.29327
559.0 0.001789 376.24844 550.32019
630.0 0.001587 376.18668 597.42896
639.0 0.001565 376.12503 613.69006
577.0 0.001733 376.06366 568.50940
524.0 0.001908 376.00235 521.22101
466.0 0.002146 375.94128 483.58035
437.0 0.002288 375.88034 452.67981
434.0 0.002304 375.81961 436.28986
420.0 0.002381 375.75903 433.96701
422.0 0.002370 375.69861 443.17496
461.0 0.002169 375.63840 453.61816
481.0 0.002079 375.57831 457.58896
443.0 0.002257 375.51843 468.24774
487.0 0.002053 375.45871 492.38486
499.0 0.002004 375.39914 505.20963
456.0 0.002193 375.33975 492.43869
450.0 0.002222 375.28052 481.12317
470.0 0.002128 375.22147 467.41034
414.0 0.002415 375.16260 441.82770
397.0 0.002519 375.10391 419.24268
399.0 0.002506 375.04535 405.28442
371.0 0.002695 374.98700 397.45935
378.0 0.002646 374.92877 393.82861
369.0 0.002710 374.87067 392.27429
416.0 0.002404 374.81281 391.94489
382.0 0.002618 374.75516 392.71552
367.0 0.002725 374.69754 395.23782
377.0 0.002653 374.64023 400.33624
372.0 0.002688 374.58301 408.28680
400.0 0.002500 374.52600 414.51093
409.0 0.002445 374.46912 416.37482
411.0 0.002433 374.41241 420.92456
394.0 0.002538 374.35587 433.09598
424.0 0.002358 374.29950 447.65125
452.0 0.002212 374.24326 454.59406
433.0 0.002309 374.18732 465.37711
446.0 0.002242 374.13144 495.25684
509.0 0.001965 374.07568 547.22156
558.0 0.001792 374.02014 601.46136
574.0 0.001742 373.96478 610.24921
528.0 0.001894 373.90958 569.41156
462.0 0.002165 373.85455 513.94318
426.0 0.002347 373.79965 479.76862
409.0 0.002445 373.74490 463.52527
406.0 0.002463 373.69037 456.17767
407.0 0.002457 373.63602 455.30359
424.0 0.002358 373.58176 453.71826
422.0 0.002370 373.52771 455.83646
423.0 0.002364 373.47382 471.43231
461.0 0.002169 373.42007 504.30881
494.0 0.002024 373.36655 552.52081
555.0 0.001802 373.31311 604.22437
611.0 0.001637 373.25989 669.19171
664.0 0.001506 373.20679 763.58649
751.0 0.001332 373.15384 836.08484
715.0 0.001399 373.10114 772.68842
607.0 0.001647 373.04855 638.26697
490.0 0.002041 372.99612 536.80328
480.0 0.002083 372.94388 481.51437
421.0 0.002375 372.89175 456.59521
390.0 0.002564 372.83978 445.32944
432.0 0.002315 372.78802 439.42828
419.0 0.002387 372.73636 441.27829
420.0 0.002381 372.68494 456.35742
446.0 0.002242 372.63364 492.08258
512.0 0.001953 372.58252 552.05798
566.0 0.001767 372.53156 613.07581
640.0 0.001563 372.48068 616.47638
541.0 0.001848 372.43008 582.67230
527.0 0.001898 372.37949 582.43774
575.0 0.001739 372.32919 637.21844
648.0 0.001543 372.27899 708.02661
654.0 0.001529 372.22897 703.87006
555.0 0.001802 372.17914 634.15753
502.0 0.001992 372.12943 579.88885
501.0 0.001996 372.07993 562.47937
462.0 0.002165 372.03046 540.37335
452.0 0.002212 371.98126 495.88379
438.0 0.002283 371.93216 458.95441
397.0 0.002519 371.88324 439.60538
415.0 0.002410 371.83456 437.14124
396.0 0.002525 371.78595 451.98639
414.0 0.002415 371.73746 485.74002
437.0 0.002288 371.68915 528.90686
468.0 0.002137 371.64102 542.91754
464.0 0.002155 371.59311 515.85199
428.0 0.002336 371.54526 487.09366
435.0 0.002299 371.49762 477.78555
419.0 0.002387 371.45004 471.82016
422.0 0.002370 371.40271 449.66040
428.0 0.002336 371.35550 425.77908
397.0 0.002519 371.30847 410.31250
387.0 0.002584 371.26163 402.62030
385.0 0.002597 371.21487 399.99869
388.0 0.002577 371.16827 400.72577
370.0 0.002703 371.12183 404.35583
395.0 0.002532 371.07559 415.16287
405.0 0.002469 371.02936 438.63412
449.0 0.002227 370.98343 481.73605
509.0 0.001965 370.93771 539.71265
543.0 0.001842 370.89200 566.92224
492.0 0.002033 370.84650 526.63715
444.0 0.002252 370.80115 472.35074
416.0 0.002404 370.75589 437.96631
422.0 0.002370 370.71088 424.72211
434.0 0.002304 370.66595 428.60522
428.0 0.002336 370.62125 448.14551
443.0 0.002257 370.57657 478.92346
449.0 0.002227 370.53210 498.88654
444.0 0.002252 370.48785 489.43433
432.0 0.002315 370.44370 480.59952
418.0 0.002392 370.39966 487.06250
480.0 0.002083 370.35577 493.36993
451.0 0.002217 370.31204 474.29095
431.0 0.002320 370.26849 440.89438
383.0 0.002611 370.22513 416.26407
384.0 0.002604 370.18185 403.73663
372.0 0.002688 370.13876 400.62497
396.0 0.002525 370.09576 405.75339
405.0 0.002469 370.05298 417.96646
363.0 0.002755 370.01028 430.54181
397.0 0.002519 369.96777 428.54697
362.0 0.002762 369.92535 416.98248
380.0 0.002632 369.88318 408.24570
379.0 0.002639 369.84109 400.91156
384.0 0.002604 369.79916 392.75421
364.0 0.002747 369.75735 385.73267
351.0 0.002849 369.71573 381.14478
389.0 0.002571 369.67419 378.49503
380.0 0.002632 369.63281 376.87570
368.0 0.002717 369.59161 375.97162
362.0 0.002762 369.55054 375.41400
344.0 0.002907 369.50961 375.12665
360.0 0.002778 369.46878 375.15244
373.0 0.002681 369.42819 375.62897
371.0 0.002695 369.38770 376.67163
394.0 0.002538 369.34729 377.95389
369.0 0.002710 369.30710 378.13702
365.0 0.002740 369.26703 376.95538
381.0 0.002625 369.22711 375.81458
377.0 0.002653 369.18732 375.23477
389.0 0.002571 369.14767 374.82538
365.0 0.002740 369.10818 375.08020
343.0 0.002915 369.06882 375.58780
348.0 0.002874 369.02954 376.34946
368.0 0.002717 368.99048 377.42636
381.0 0.002625 368.95157 378.95480
391.0 0.002558 368.91272 381.12372
382.0 0.002618 368.87408 384.40430
410.0 0.002439 368.83548 389.62460
411.0 0.002433 368.79715 399.49088
420.0 0.002381 368.75888 418.18274
469.0 0.002132 368.72079 451.07089
503.0 0.001988 368.68280 497.33957
537.0 0.001862 368.64493 538.04578
602.0 0.001661 368.60727 558.68420
566.0 0.001767 368.56970 541.36884
485.0 0.002062 368.53226 488.51950
441.0 0.002268 368.49500 441.63974
427.0 0.002342 368.45779 413.51993
425.0 0.002353 368.42084 399.53073
383.0 0.002611 368.38388 393.60800
351.0 0.002849 368.34714 392.45871
357.0 0.002801 368.31058 395.91220
382.0 0.002618 368.27402 405.69998
399.0 0.002506 368.23773 423.74460
453.0 0.002208 368.20151 446.00162
462.0 0.002165 368.16534 461.76041
465.0 0.002151 368.12939 465.71179
482.0 0.002075 368.09363 447.60883
466.0 0.002146 368.05789 419.87372
432.0 0.002315 368.02240 399.28384
396.0 0.002525 367.98697 387.45767
374.0 0.002674 367.95169 381.27124
392.0 0.002551 367.91647 377.96533
367.0 0.002725 367.88150 375.93292
372.0 0.002688 367.84656 374.59280
346.0 0.002890 367.81183 373.62634
391.0 0.002558 367.77716 373.00589
365.0 0.002740 367.74268 372.57785
367.0 0.002725 367.70822 372.32895
360.0 0.002778 367.67401 372.24240
370.0 0.002703 367.63983 372.13565
370.0 0.002703 367.60587 372.05743
368.0 0.002717 367.57202 372.35120
361.0 0.002770 367.53824 373.04453
395.0 0.002532 367.50461 374.59808
374.0 0.002674 367.47119 377.27921
369.0 0.002710 367.43774 380.43262
382.0 0.002618 367.40460 381.80170
361.0 0.002770 367.37143 381.76794
369.0 0.002710 367.33841 382.03076
388.0 0.002577 367.30563 380.99960
356.0 0.002809 367.27286 378.26776
366.0 0.002732 367.24026 375.75742
349.0 0.002865 367.20773 374.23679
358.0 0.002793 367.17532 373.87012
397.0 0.002519 367.14310 374.07065
357.0 0.002801 367.11090 375.16437
342.0 0.002924 367.07895 377.23999
375.0 0.002667 367.04712 380.78409
384.0 0.002604 367.01538 386.13391
376.0 0.002660 366.98373 393.39749
391.0 0.002558 366.95218 403.62903
423.0 0.002364 366.92081 413.39655
421.0 0.002375 366.88950 415.58920
418.0 0.002392 366.85840 417.58688
427.0 0.002342 366.82733 428.16510
446.0 0.002242 366.79645 441.07785
439.0 0.002278 366.76563 436.03983
400.0 0.002500 366.73499 416.35431
381.0 0.002625 366.70438 399.75497
380.0 0.002632 366.67398 390.51938
387.0 0.002584 366.64362 387.28085
420.0 0.002381 366.61340 388.57471
428.0 0.002336 366.58331 394.46152
434.0 0.002304 366.55334 404.79916
436.0 0.002294 366.52350 416.65817
448.0 0.002232 366.49374 423.64752
439.0 0.002278 366.46414 425.48782
427.0 0.002342 366.43463 429.05725
443.0 0.002257 366.40524 436.02304
407.0 0.002457 366.37598 438.13617
406.0 0.002463 366.34674 435.73563
426.0 0.002347 366.31772 433.46338
426.0 0.002347 366.28876 438.75739
423.0 0.002364 366.25992 453.88751
441.0 0.002268 366.23120 463.20801
426.0 0.002347 366.20264 452.45508
430.0 0.002326 366.17413 439.92767
440.0 0.002273 366.14572 441.32413
437.0 0.002288 366.11746 457.74216
472.0 0.002119 366.08926 485.69925
482.0 0.002075 366.06128 512.29645
472.0 0.002119 366.03329 522.17505
505.0 0.001980 366.00540 530.39740
522.0 0.001916 365.97778 541.18549
458.0 0.002183 365.95016 525.87091
444.0 0.002252 365.92261 490.90482
434.0 0.002304 365.89523 465.77362
397.0 0.002519 365.86792 449.10468
401.0 0.002494 365.84073 432.08383
403.0 0.002481 365.81366 420.21274
413.0 0.002421 365.78671 418.06726
450.0 0.002222 365.75983 426.10831
396.0 0.002525 365.73306 443.47885
440.0 0.002273 365.70639 463.70532
418.0 0.002392 365.67987 482.39227
471.0 0.002123 365.65338 510.67090
537.0 0.001862 365.62708 547.76593
521.0 0.001919 365.60083 561.25507
504.0 0.001984 365.57477 533.97205
469.0 0.002132 365.54871 487.92862
419.0 0.002387 365.52271 453.69662
431.0 0.002320 365.49692 441.06891
430.0 0.002326 365.47119 450.14557
481.0 0.002079 365.44556 479.86377
547.0 0.001828 365.41995 520.59814
548.0 0.001825 365.39462 538.85400
514.0 0.001946 365.36926 518.29456
479.0 0.002088 365.34402 488.73212
429.0 0.002331 365.31894 469.54184
423.0 0.002364 365.29388 464.52444
438.0 0.002283 365.26898 463.80307
454.0 0.002203 365.24414 454.11288
423.0 0.002364 365.21942 437.30276
432.0 0.002315 365.19482 425.81204
413.0 0.002421 365.17023 425.20953
398.0 0.002513 365.14584 437.99429
462.0 0.002165 365.12146 468.62973
542.0 0.001845 365.09723 519.85742
583.0 0.001715 365.07312 582.31146
630.0 0.001587 365.04904 639.78558
632.0 0.001582 365.02505 654.31714
587.0 0.001704 365.00122 593.75391
502.0 0.001992 364.97748 514.61572
431.0 0.002320 364.95374 458.77548
408.0 0.002451 364.93015 427.62262
412.0 0.002427 364.90665 412.80228
379.0 0.002639 364.88324 406.70700
383.0 0.002611 364.85995 405.85196
375.0 0.002667 364.83673 410.11279
387.0 0.002584 364.81363 421.36548
404.0 0.002475 364.79053 442.60645
448.0 0.002232 364.76764 474.52792
487.0 0.002053 364.74475 514.13928
517.0 0.001934 364.72202 546.85120
504.0 0.001984 364.69937 558.29065
502.0 0.001992 364.67670 576.32458
515.0 0.001942 364.65421 603.93024
547.0 0.001828 364.63190 589.14886
484.0 0.002066 364.60953 528.51782
451.0 0.002217 364.58728 473.73767
422.0 0.002370 364.56519 442.42664
393.0 0.002545 364.54303 430.90356
439.0 0.002278 364.52109 429.03552
441.0 0.002268 364.49921 425.69778
415.0 0.002410 364.47742 420.12308
415.0 0.002410 364.45563 416.89868
477.0 0.002096 364.43405 421.59100
427.0 0.002342 364.41248 438.32446
453.0 0.002208 364.39096 468.03067
459.0 0.002179 364.36963 499.98416
478.0 0.002092 364.34830 501.47775
438.0 0.002283 364.32709 469.22876
437.0 0.002288 364.30597 436.46796
398.0 0.002513 364.28491 416.83743
434.0 0.002304 364.26389 409.11035
394.0 0.002538 364.24301 407.95847
407.0 0.002457 364.22220 407.40253
377.0 0.002653 364.20151 407.21167
400.0 0.002500 364.18079 410.27350
426.0 0.002347 364.16022 420.46204
469.0 0.002132 364.13971 443.05148
527.0 0.001898 364.11929 486.63800
593.0 0.001686 364.09897 559.76605
701.0 0.001427 364.07874 649.34454
721.0 0.001387 364.05853 691.47888
646.0 0.001548 364.03839 632.52179
568.0 0.001761 364.01840 541.99823
485.0 0.002062 363.99844 476.15085
445.0 0.002247 363.97858 439.73227
417.0 0.002398 363.95874 423.22064
427.0 0.002342 363.93896 418.19226
413.0 0.002421 363.91931 420.61847
412.0 0.002427 363.89972 431.95084
446.0 0.002242 363.88016 458.89478
518.0 0.001931 363.86078 512.31836
576.0 0.001736 363.84140 600.55371
640.0 0.001563 363.82208 702.19391
709.0 0.001410 363.80289 735.43176
670.0 0.001493 363.78372 660.41718
553.0 0.001808 363.76465 557.19244
463.0 0.002160 363.74557 481.91638
440.0 0.002273 363.72672 439.30951
396.0 0.002525 363.70782 417.57834
399.0 0.002506 363.68900 406.99332
411.0 0.002433 363.67023 402.37531
396.0 0.002525 363.65161 402.17474
399.0 0.002506 363.63300 407.73581
409.0 0.002445 363.61450 421.62701
418.0 0.002392 363.59601 446.83585
490.0 0.002041 363.57761 477.60107
495.0 0.002020 363.55927 489.51334
468.0 0.002137 363.54099 467.22366
416.0 0.002404 363.52277 437.42157
445.0 0.002247 363.50470 417.27383
406.0 0.002463 363.48663 408.44598
418.0 0.002392 363.46863 408.65442
415.0 0.002410 363.45065 418.28946
457.0 0.002188 363.43277 442.05978
489.0 0.002045 363.41498 483.67358
516.0 0.001938 363.39722 539.60156
545.0 0.001835 363.37955 574.44049
529.0 0.001890 363.36188 548.38135
468.0 0.002137 363.34427 497.33694
462.0 0.002165 363.32684 457.38666
462.0 0.002165 363.30936 435.18625
436.0 0.002294 363.29199 431.57800
406.0 0.002463 363.27472 444.90125
473.0 0.002114 363.25745 473.88391
542.0 0.001845 363.24020 507.73410
529.0 0.001890 363.22302 515.78802
488.0 0.002049 363.20596 494.22275
488.0 0.002049 363.18900 478.62042
447.0 0.002237 363.17197 482.29907
490.0 0.002041 363.15497 495.10382
498.0 0.002008 363.13815 488.77008
472.0 0.002119 363.12131 463.30344
441.0 0.002268 363.10455 440.61057
438.0 0.002283 363.08792 427.68488
434.0 0.002304 363.07126 426.24258
468.0 0.002137 363.05466 437.64633
478.0 0.002092 363.03812 464.97861
535.0 0.001869 363.02167 512.18750
572.0 0.001748 363.00525 568.96216
575.0 0.001739 362.98886 612.61554
620.0 0.001613 362.97253 620.04492
607.0 0.001647 362.95621 585.05652
577.0 0.001733 362.94003 548.50024
541.0 0.001848 362.92386 541.97717
562.0 0.001779 362.90778 561.47534
596.0 0.001678 362.89166 581.72412
591.0 0.001692 362.87564 600.14764
589.0 0.001698 362.85962 621.68530
577.0 0.001733 362.84375 609.19421
542.0 0.001845 362.82794 563.09558
545.0 0.001835 362.81210 530.04175
558.0 0.001792 362.79623 530.21051
582.0 0.001718 362.78061 567.43903
663.0 0.001508 362.76486 634.62561
773.0 0.001294 362.74921 715.82526
871.0 0.001148 362.73367 790.67615
829.0 0.001206 362.71814 796.96844
758.0 0.001319 362.70264 720.16809
645.0 0.001550 362.68716 637.53546
590.0 0.001695 362.67175 581.44409
553.0 0.001808 362.65643 556.62830
560.0 0.001786 362.64102 544.61133
517.0 0.001934 362.62579 519.93420
495.0 0.002020 362.61053 492.74274
484.0 0.002066 362.59537 478.26672
506.0 0.001976 362.58017 480.75156
533.0 0.001876 362.56509 508.94577
602.0 0.001661 362.54996 572.44849
697.0 0.001435 362.53497 672.87079
810.0 0.001235 362.52002 772.72687
792.0 0.001263 362.50507 781.18225
716.0 0.001397 362.49008 689.37677
567.0 0.001764 362.47525 588.48169
495.0 0.002020 362.46042 523.80212
509.0 0.001965 362.44562 496.22595
520.0 0.001923 362.43082 498.70734
545.0 0.001835 362.41614 529.57355
609.0 0.001642 362.40143 596.42157
684.0 0.001462 362.38678 709.94061
870.0 0.001149 362.37216 850.69629
926.0 0.001080 362.35757 916.95428
780.0 0.001282 362.34308 840.15295
679.0 0.001473 362.32861 730.01898
587.0 0.001704 362.31406 654.01624
581.0 0.001721 362.29962 591.00067
477.0 0.002096 362.28519 530.48999
497.0 0.002012 362.27084 486.76080
479.0 0.002088 362.25653 462.31616
424.0 0.002358 362.24222 452.64929
462.0 0.002165 362.22797 456.82477
495.0 0.002020 362.21371 475.74976
519.0 0.001927 362.19949 515.18787
568.0 0.001761 362.18536 577.41473
623.0 0.001605 362.17114 639.68396
631.0 0.001585 362.15710 641.78967
579.0 0.001727 362.14294 581.85626
535.0 0.001869 362.12891 520.50287
490.0 0.002041 362.11487 481.66858
494.0 0.002024 362.10083 465.73407
486.0 0.002058 362.08694 466.82446
491.0 0.002037 362.07294 481.78113
529.0 0.001890 362.05908 513.88464
605.0 0.001653 362.04510 571.19159
662.0 0.001511 362.03128 661.79816
766.0 0.001305 362.01740 783.46283
975.0 0.001026 362.00354 943.14154
1151.0 0.000869 361.98981 1150.05408
1213.0 0.000824 361.97604 1290.70422
1166.0 0.000858 361.96228 1230.62109
972.0 0.001029 361.94858 1040.31409
746.0 0.001340 361.93488 827.43463
628.0 0.001592 361.92117 670.89172
546.0 0.001832 361.90756 583.65155
524.0 0.001908 361.89389 547.71381
557.0 0.001795 361.88028 546.80176
596.0 0.001678 361.86664 571.72028
617.0 0.001621 361.85312 612.20801
655.0 0.001527 361.83957 661.00354
721.0 0.001387 361.82608 731.30652
881.0 0.001135 361.81259 848.59265
1004.0 0.000996 361.79910 1013.58057
1128.0 0.000887 361.78558 1149.79395
1134.0 0.000882 361.77219 1174.90393
1031.0 0.000970 361.75876 1059.22375
822.0 0.001217 361.74539 866.94104
653.0 0.001531 361.73193 699.93109
516.0 0.001938 361.71857 591.04303
537.0 0.001862 361.70520 534.48096
521.0 0.001919 361.69186 515.10345
531.0 0.001883 361.67850 521.72247
583.0 0.001715 361.66522 545.62561
620.0 0.001613 361.65198 581.57568
604.0 0.001656 361.63861 618.00098
656.0 0.001524 361.62537 628.01996
597.0 0.001675 361.61212 622.04767
643.0 0.001555 361.59882 630.50153
672.0 0.001488 361.58563 642.11218
601.0 0.001664 361.57245 621.41034
573.0 0.001745 361.55927 584.54132
541.0 0.001848 361.54596 567.68378
555.0 0.001802 361.53284 590.00293
685.0 0.001460 361.51968 648.53961
710.0 0.001408 361.50647 700.16376
648.0 0.001543 361.49338 678.72589
608.0 0.001645 361.48026 612.44073
562.0 0.001779 361.46710 561.54968
531.0 0.001883 361.45407 530.79510
491.0 0.002037 361.44089 497.91336
485.0 0.002062 361.42773 465.64148
448.0 0.002232 361.41467 442.20624
420.0 0.002381 361.40161 430.92102
434.0 0.002304 361.38849 430.85544
435.0 0.002299 361.37546 443.44888
490.0 0.002041 361.36240 473.12735
539.0 0.001855 361.34937 519.50415
559.0 0.001789 361.33624 569.25488
580.0 0.001724 361.32321 586.74146
560.0 0.001786 361.31012 552.95648
497.0 0.002012 361.29712 499.01984
462.0 0.002165 361.28409 457.09714
468.0 0.002137 361.27103 432.94479
437.0 0.002288 361.25806 421.91977
407.0 0.002457 361.24496 421.92404
449.0 0.002227 361.23206 430.96463
485.0 0.002062 361.21896 450.08856
501.0 0.001996 361.20596 479.46286
528.0 0.001894 361.19290 506.93860
550.0 0.001818 361.17996 514.95685
534.0 0.001873 361.16687 514.20227
527.0 0.001898 361.15390 525.04779
589.0 0.001698 361.14084 555.90326
649.0 0.001541 361.12790 619.01581
770.0 0.001299 361.11487 709.54187
808.0 0.001238 361.10193 768.90967
753.0 0.001328 361.08878 739.16986
675.0 0.001481 361.07587 670.22858
603.0 0.001658 361.06281 604.16766
574.0 0.001742 361.04977 547.09753
523.0 0.001912 361.03674 510.02829
515.0 0.001942 361.02371 496.34674
507.0 0.001972 361.01065 496.14566
512.0 0.001953 360.99768 497.55807
526.0 0.001901 360.98459 507.46536
541.0 0.001848 360.97162 542.16943
606.0 0.001650 360.95850 612.54602
721.0 0.001387 360.94550 707.13831
833.0 0.001200 360.93234 779.60010
836.0 0.001196 360.91931 786.40283
720.0 0.001389 360.90625 721.99634
596.0 0.001678 360.89316 641.28821
559.0 0.001789 360.88004 582.85370
540.0 0.001852 360.86700 552.78400
534.0 0.001873 360.85388 559.83545
597.0 0.001675 360.84073 612.32782
665.0 0.001504 360.82764 707.35559
815.0 0.001227 360.81451 803.02240
793.0 0.001261 360.80142 809.57800
621.0 0.001610 360.78830 729.48016
558.0 0.001792 360.77512 650.84045
562.0 0.001779 360.76190 605.88202
578.0 0.001730 360.74872 574.70490
542.0 0.001845 360.73553 537.15448
488.0 0.002049 360.72229 496.15878
440.0 0.002273 360.70911 462.47751
451.0 0.002217 360.69583 442.60620
433.0 0.002309 360.68262 437.20737
446.0 0.002242 360.66937 447.20142
473.0 0.002114 360.65619 475.35400
492.0 0.002033 360.64288 521.69690
524.0 0.001908 360.62955 570.48370
565.0 0.001770 360.61627 577.97412
534.0 0.001873 360.60287 534.22546
501.0 0.001996 360.58954 481.07367
462.0 0.002165 360.57623 441.25104
429.0 0.002331 360.56287 415.93393
408.0 0.002451 360.54947 402.10623
415.0 0.002410 360.53610 394.90067
414.0 0.002415 360.52271 392.34857
411.0 0.002433 360.50919 393.02399
429.0 0.002331 360.49576 395.90335
413.0 0.002421 360.48224 400.07990
423.0 0.002364 360.46884 404.02948
455.0 0.002198 360.45529 404.28201
457.0 0.002188 360.44174 400.73987
433.0 0.002309 360.42819 394.94397
418.0 0.002392 360.41458 389.83325
424.0 0.002358 360.40112 387.96411
398.0 0.002513 360.38742 391.26385
413.0 0.002421 360.37381 399.21967
433.0 0.002309 360.36023 409.18716
446.0 0.002242 360.34650 413.10159
448.0 0.002232 360.33282 408.60162
437.0 0.002288 360.31918 401.99017
420.0 0.002381 360.30539 396.48831
402.0 0.002488 360.29169 393.75479
423.0 0.002364 360.27783 394.15555
409.0 0.002445 360.26404 394.34302
433.0 0.002309 360.25027 395.82339
419.0 0.002387 360.23642 398.90863
417.0 0.002398 360.22253 405.88211
433.0 0.002309 360.20865 418.36768
476.0 0.002101 360.19467 435.61612
460.0 0.002174 360.18079 447.31705
461.0 0.002169 360.16681 442.86362
430.0 0.002326 360.15277 429.58835
435.0 0.002299 360.13879 415.24106
437.0 0.002288 360.12469 404.42218
389.0 0.002571 360.11063 398.46106
394.0 0.002538 360.09653 397.54614
452.0 0.002212 360.08246 402.73956
437.0 0.002288 360.06833 416.17294
470.0 0.002128 360.05411 439.79272
511.0 0.001957 360.03992 475.23947
589.0 0.001698 360.02567 515.12585
614.0 0.001629 360.01141 545.24335
615.0 0.001626 359.99707 550.81104
515.0 0.001942 359.98273 523.19910
466.0 0.002146 359.96841 481.16153
433.0 0.002309 359.95404 444.03632
447.0 0.002237 359.93961 420.37781
447.0 0.002237 359.92517 407.62494
397.0 0.002519 359.91068 403.04355
428.0 0.002336 359.89615 404.54407
463.0 0.002160 359.88162 412.39157
484.0 0.002066 359.86707 428.89804
481.0 0.002079 359.85242 456.80139
486.0 0.002058 359.83774 496.02228
536.0 0.001866 359.82309 539.65741
559.0 0.001789 359.80844 573.17169
575.0 0.001739 359.79367 588.98395
576.0 0.001736 359.77896 580.48535
510.0 0.001961 359.76410 541.87885
483.0 0.002070 359.74924 498.06186
477.0 0.002096 359.73444 471.50980
469.0 0.002132 359.71951 466.23648
509.0 0.001965 359.70459 479.90903
546.0 0.001832 359.68958 509.65625
603.0 0.001658 359.67456 550.71173
615.0 0.001626 359.65952 577.09991
562.0 0.001779 359.64441 560.29767
515.0 0.001942 359.62930 522.94696
454.0 0.002203 359.61414 494.44537
447.0 0.002237 359.59900 478.57901
446.0 0.002242 359.58374 470.26346
466.0 0.002146 359.56845 466.60306
468.0 0.002137 359.55313 459.03174
418.0 0.002392 359.53784 445.46777
409.0 0.002445 359.52246 435.50464
455.0 0.002198 359.50705 434.18304
456.0 0.002193 359.49152 440.43143
421.0 0.002375 359.47604 452.17035
475.0 0.002105 359.46051 470.59390
512.0 0.001953 359.44489 490.96951
513.0 0.001949 359.42935 497.33139
498.0 0.002008 359.41367 488.80530
499.0 0.002004 359.39795 485.84375
521.0 0.001919 359.38220 499.84973
523.0 0.001912 359.36646 531.29480
586.0 0.001706 359.35062 574.70868
647.0 0.001546 359.33478 633.66290
816.0 0.001225 359.31885 705.62653
813.0 0.001230 359.30286 758.91077
759.0 0.001318 359.28680 734.75146
617.0 0.001621 359.27081 649.92810
566.0 0.001767 359.25479 570.37885
537.0 0.001862 359.23865 522.96765
502.0 0.001992 359.22247 510.47574
564.0 0.001773 359.20627 531.43817
631.0 0.001585 359.19009 585.38062
724.0 0.001381 359.17371 667.47034
809.0 0.001236 359.15738 753.94482
860.0 0.001163 359.14099 820.08618
878.0 0.001139 359.12460 845.77759
826.0 0.001211 359.10815 802.12683
747.0 0.001339 359.09158 733.94135
657.0 0.001522 359.07501 686.72223
654.0 0.001529 359.05841 647.11188
564.0 0.001773 359.04175 588.07813
468.0 0.002137 359.02502 526.76874
440.0 0.002273 359.00824 483.02155
446.0 0.002242 358.99152 460.98984
481.0 0.002079 358.97464 458.61850
475.0 0.002105 358.95773 474.85400
508.0 0.001969 358.94086 508.45593
561.0 0.001783 358.92383 550.79791
612.0 0.001634 358.90677 581.78607
634.0 0.001577 358.88971 592.40723
586.0 0.001706 358.87256 574.32562
520.0 0.001923 358.85541 525.21985
473.0 0.002114 358.83820 473.68777
439.0 0.002278 358.82092 436.56296
419.0 0.002387 358.80353 414.51440
402.0 0.002488 358.78619 403.31738
408.0 0.002451 358.76877 399.48209
436.0 0.002294 358.75122 400.85114
445.0 0.002247 358.73376 406.33398
437.0 0.002288 358.71619 411.75937
425.0 0.002353 358.69852 411.73340
426.0 0.002347 358.68082 405.99744
425.0 0.002353 358.66318 399.30145
419.0 0.002387 358.64539 392.01410
419.0 0.002387 358.62750 385.23529
402.0 0.002488 358.60962 380.66931
387.0 0.002584 358.59171 377.68085
403.0 0.002481 358.57367 377.39572
396.0 0.002525 358.55563 378.15234
409.0 0.002445 358.53757 378.94113
400.0 0.002500 358.51941 379.93082
389.0 0.002571 358.50125 382.47668
382.0 0.002618 358.48297 387.18124
401.0 0.002494 358.46460 392.28595
406.0 0.002463 358.44623 395.07281
392.0 0.002551 358.42783 393.95734
378.0 0.002646 358.40939 390.46555
390.0 0.002564 358.39081 389.58228
411.0 0.002433 358.37231 392.25507
452.0 0.002212 358.35358 399.75552
437.0 0.002288 358.33493 412.58578
425.0 0.002353 358.31622 430.09415
461.0 0.002169 358.29739 442.50345
445.0 0.002247 358.27856 437.33212
404.0 0.002475 358.25958 420.48651
397.0 0.002519 358.24060 405.22852
376.0 0.002660 358.22162 396.22903
390.0 0.002564 358.20251 393.29062
404.0 0.002475 358.18338 394.72864
415.0 0.002410 358.16428 400.42883
433.0 0.002309 358.14499 411.15451
377.0 0.002653 358.12567 426.72272
464.0 0.002155 358.10626 443.98465
449.0 0.002227 358.08691 456.91290
500.0 0.002000 358.06732 469.62701
496.0 0.002016 358.04788 485.76666
500.0 0.002000 358.02826 494.74924
471.0 0.002123 358.00867 489.19427
484.0 0.002066 357.98889 478.37689
470.0 0.002128 357.96918 477.69135
504.0 0.001984 357.94934 501.33417
604.0 0.001656 357.92947 556.38947
687.0 0.001456 357.90948 639.01324
793.0 0.001261 357.88953 713.76227
763.0 0.001311 357.86938 714.99573
606.0 0.001650 357.84930 646.96466
527.0 0.001898 357.82910 573.23615
475.0 0.002105 357.80884 518.80609
491.0 0.002037 357.78857 483.50171
506.0 0.001976 357.76816 465.08856
481.0 0.002079 357.74774 457.76492
464.0 0.002155 357.72729 450.17917
459.0 0.002179 357.70676 438.56445
454.0 0.002203 357.68613 430.29504
450.0 0.002222 357.66550 430.78195
459.0 0.002179 357.64468 443.96500
500.0 0.002000 357.62393 472.63492
528.0 0.001894 357.60306 514.56976
546.0 0.001832 357.58218 551.78333
570.0 0.001754 357.56125 553.28168
545.0 0.001835 357.54016 525.20215
521.0 0.001919 357.51910 500.65320
510.0 0.001961 357.49799 491.13464
499.0 0.002004 357.47668 491.52817
524.0 0.001908 357.45544 492.86588
525.0 0.001905 357.43408 496.09833
514.0 0.001946 357.41275 496.80115
479.0 0.002088 357.39117 480.07953
452.0 0.002212 357.36969 450.70724
448.0 0.002232 357.34808 424.40976
422.0 0.002370 357.32639 406.48950
425.0 0.002353 357.30472 396.23627
406.0 0.002463 357.28290 391.50180
404.0 0.002475 357.26102 390.56100
420.0 0.002381 357.23907 393.08835
433.0 0.002309 357.21716 399.48666
465.0 0.002151 357.19513 410.81235
449.0 0.002227 357.17300 428.79361
500.0 0.002000 357.15082 453.19208
510.0 0.001961 357.12854 482.63208
551.0 0.001815 357.10629 516.26263
581.0 0.001721 357.08389 538.85516
526.0 0.001901 357.06149 525.16846
519.0 0.001927 357.03903 487.53891
462.0 0.002165 357.01645 452.48138
408.0 0.002451 356.99390 430.00833
410.0 0.002439 356.97119 415.01154
408.0 0.002451 356.94839 403.69174
420.0 0.002381 356.92560 396.30130
428.0 0.002336 356.90274 393.22086
424.0 0.002358 356.87970 391.60718
427.0 0.002342 356.85675 391.41370
420.0 0.002381 356.83365 393.90070
407.0 0.002457 356.81055 400.65662
406.0 0.002463 356.78732 412.84467
450.0 0.002222 356.76407 429.58551
495.0 0.002020 356.74072 444.45917
433.0 0.002309 356.71732 447.94522
445.0 0.002247 356.69382 444.60233
455.0 0.002198 356.67026 447.09662
464.0 0.002155 356.64667 465.36481
511.0 0.001957 356.62302 503.57639
607.0 0.001647 356.59927 563.03900
720.0 0.001389 356.57547 631.50549
740.0 0.001351 356.55154 669.74054
673.0 0.001486 356.52762 649.46265
576.0 0.001736 356.50360 592.82721
527.0 0.001898 356.47952 537.33154
507.0 0.001972 356.45538 506.03445
502.0 0.001992 356.43112 499.16360
519.0 0.001927 356.40692 501.47488
499.0 0.002004 356.38257 490.87341
456.0 0.002193 356.35815 467.09320
444.0 0.002252 356.33371 446.09216
441.0 0.002268 356.30914 436.52859
441.0 0.002268 356.28448 441.13541
486.0 0.002058 356.25980 461.03830
536.0 0.001866 356.23502 494.28299
565.0 0.001770 356.21024 530.09216
563.0 0.001776 356.18536 548.64252
540.0 0.001852 356.16043 537.08856
504.0 0.001984 356.13541 505.95331
466.0 0.002146 356.11029 473.86758
455.0 0.002198 356.08511 454.90659
476.0 0.002101 356.05994 450.53757
492.0 0.002033 356.03461 455.20514
469.0 0.002132 356.00928 458.90854
481.0 0.002079 355.98376 460.84430
474.0 0.002110 355.95831 473.23053
535.0 0.001869 355.93277 507.55505
610.0 0.001639 355.90707 567.52820
704.0 0.001420 355.88141 641.70746
709.0 0.001410 355.85559 687.14471
604.0 0.001656 355.82986 660.23267
546.0 0.001832 355.80383 586.91455
483.0 0.002070 355.77786 517.04254
462.0 0.002165 355.75180 470.49698
452.0 0.002212 355.72577 448.00311
449.0 0.002227 355.69949 445.40036
475.0 0.002105 355.67328 456.97391
476.0 0.002101 355.64697 473.68076
476.0 0.002101 355.62057 479.28906
460.0 0.002174 355.59409 467.32468
406.0 0.002463 355.56760 453.60175
421.0 0.002375 355.54095 452.47934
476.0 0.002101 355.51428 467.77914
503.0 0.001988 355.48755 497.09335
526.0 0.001901 355.46075 523.80774
521.0 0.001919 355.43387 521.23108
483.0 0.002070 355.40689 489.07855
444.0 0.002252 355.37988 451.63986
411.0 0.002433 355.35287 423.47394
441.0 0.002268 355.32562 407.76755
429.0 0.002331 355.29843 402.81808
389.0 0.002571 355.27112 406.13809
438.0 0.002283 355.24377 414.23932
419.0 0.002387 355.21640 419.87778
428.0 0.002336 355.18887 414.92093
433.0 0.002309 355.16125 402.29776
412.0 0.002427 355.13364 389.90430
392.0 0.002551 355.10593 380.97787
404.0 0.002475 355.07822 375.62823
405.0 0.002469 355.05032 372.96597
408.0 0.002451 355.02240 371.83890
415.0 0.002410 354.99442 371.28802
393.0 0.002545 354.96631 370.70590
396.0 0.002525 354.93826 369.90005
392.0 0.002551 354.90997 369.61401
411.0 0.002433 354.88181 369.80426
390.0 0.002564 354.85339 370.47153
380.0 0.002632 354.82501 371.82507
397.0 0.002519 354.79654 374.12454
407.0 0.002457 354.76801 377.14474
415.0 0.002410 354.73941 381.64258
422.0 0.002370 354.71072 389.12039
422.0 0.002370 354.68188 400.55655
473.0 0.002114 354.65320 414.92191
482.0 0.002075 354.62430 428.30927
459.0 0.002179 354.59528 435.06964
430.0 0.002326 354.56625 439.41391
458.0 0.002183 354.53717 452.20435
513.0 0.001949 354.50806 477.23209
537.0 0.001862 354.47879 505.12894
526.0 0.001901 354.44946 512.11255
474.0 0.002110 354.42010 488.52066
452.0 0.002212 354.39069 456.50659
450.0 0.002222 354.36118 433.52744
429.0 0.002331 354.33157 424.24475
485.0 0.002062 354.30191 427.81036
481.0 0.002079 354.27219 441.26065
464.0 0.002155 354.24240 456.32706
431.0 0.002320 354.21255 461.83118
474.0 0.002110 354.18262 458.20334
500.0 0.002000 354.15268 454.42200
487.0 0.002053 354.12262 456.45224
479.0 0.002088 354.09244 472.50723
500.0 0.002000 354.06226 508.90030
554.0 0.001805 354.03201 563.25018
590.0 0.001695 354.00165 613.73810
587.0 0.001704 353.97125 623.20563
525.0 0.001905 353.94073 585.56470
486.0 0.002058 353.91025 528.86456
455.0 0.002198 353.87964 479.24030
421.0 0.002375 353.84897 447.11237
445.0 0.002247 353.81824 431.59119
439.0 0.002278 353.78741 426.83112
442.0 0.002262 353.75656 424.59772
420.0 0.002381 353.72556 418.83002
391.0 0.002558 353.69461 412.25888
397.0 0.002519 353.66345 409.90051
407.0 0.002457 353.63229 414.88037
453.0 0.002208 353.60114 429.82687
467.0 0.002141 353.56979 457.21191
521.0 0.001919 353.53842 496.50534
597.0 0.001675 353.50702 538.62372
624.0 0.001603 353.47552 564.82471
566.0 0.001767 353.44400 560.14673
504.0 0.001984 353.41235 531.35919
463.0 0.002160 353.38068 502.76431
474.0 0.002110 353.34888 483.50211
453.0 0.002208 353.31708 465.08011
411.0 0.002433 353.28519 443.00812
390.0 0.002564 353.25320 423.58978
415.0 0.002410 353.22125 411.03958
423.0 0.002364 353.18912 405.89865
434.0 0.002304 353.15692 408.37564
422.0 0.002370 353.12473 419.62833
472.0 0.002119 353.09247 441.70319
518.0 0.001931 353.06009 475.31390
553.0 0.001808 353.02759 514.22662
560.0 0.001786 352.99509 538.60577
503.0 0.001988 352.96259 532.53333
463.0 0.002160 352.92996 505.68311
450.0 0.002222 352.89725 476.05139
427.0 0.002342 352.86453 455.62646
401.0 0.002494 352.83173 444.60928
429.0 0.002331 352.79880 436.81866
453.0 0.002208 352.76587 432.36905
430.0 0.002326 352.73282 436.50925
451.0 0.002217 352.69977 453.95105
529.0 0.001890 352.66660 487.45258
598.0 0.001672 352.63339 534.22864
646.0 0.001548 352.60010 578.98474
608.0 0.001645 352.56677 595.87158
571.0 0.001751 352.53339 579.12421
551.0 0.001815 352.49988 551.15326
497.0 0.002012 352.46637 521.36584
472.0 0.002119 352.43271 491.89728
441.0 0.002268 352.39911 472.75204
471.0 0.002123 352.36533 469.38467
492.0 0.002033 352.33154 480.99945
501.0 0.001996 352.29773 505.33105
544.0 0.001838 352.26379 536.28235
596.0 0.001678 352.22983 553.75726
505.0 0.001980 352.19571 544.13599
508.0 0.001969 352.16159 525.20691
555.0 0.001802 352.12750 515.95563
526.0 0.001901 352.09323 518.42749
529.0 0.001890 352.05896 520.76794
514.0 0.001946 352.02457 507.10797
482.0 0.002075 351.99005 478.84903
425.0 0.002353 351.95566 450.76855
400.0 0.002500 351.92108 430.97440
414.0 0.002415 351.88644 421.20831
425.0 0.002353 351.85184 421.83325
418.0 0.002392 351.81702 433.37146
437.0 0.002288 351.78232 456.58276
502.0 0.001992 351.74738 492.87207
591.0 0.001692 351.71243 537.06879
647.0 0.001546 351.67749 569.03247
572.0 0.001748 351.64240 562.47510
510.0 0.001961 351.60736 522.81781
457.0 0.002188 351.57214 478.45670
455.0 0.002198 351.53690 444.05133
418.0 0.002392 351.50159 420.06003
444.0 0.002252 351.46622 403.57547
408.0 0.002451 351.43088 392.75604
398.0 0.002513 351.39545 386.26309
382.0 0.002618 351.35986 383.04990
395.0 0.002532 351.32428 382.84824
396.0 0.002525 351.28857 386.13687
422.0 0.002370 351.25296 393.64026
412.0 0.002427 351.21719 406.18466
465.0 0.002151 351.18130 423.64142
481.0 0.002079 351.14542 443.64362
497.0 0.002012 351.10944 459.74063
499.0 0.002004 351.07349 459.22467
472.0 0.002119 351.03741 440.96564
432.0 0.002315 351.00134 419.97894
404.0 0.002475 350.96515 405.73093
413.0 0.002421 350.92886 399.96204
399.0 0.002506 350.89261 400.54999
399.0 0.002506 350.85629 402.15222
408.0 0.002451 350.81992 398.72501
399.0 0.002506 350.78339 390.61975
395.0 0.002532 350.74683 382.66336
383.0 0.002611 350.71030 377.85608
368.0 0.002717 350.67361 376.16119
370.0 0.002703 350.63693 377.29993
359.0 0.002786 350.60022 379.63547
415.0 0.002410 350.56335 382.16617
423.0 0.002364 350.52658 384.17487
409.0 0.002445 350.48956 384.23334
415.0 0.002410 350.45261 382.54672
410.0 0.002439 350.41559 381.88037
391.0 0.002558 350.37848 384.05081
399.0 0.002506 350.34143 390.57581
394.0 0.002538 350.30417 401.14325
471.0 0.002123 350.26697 413.41125
458.0 0.002183 350.22961 422.96997
438.0 0.002283 350.19226 429.04083
464.0 0.002155 350.15488 435.43314
467.0 0.002141 350.11743 440.79349
461.0 0.002169 350.07990 437.38995
419.0 0.002387 350.04230 425.89453
420.0 0.002381 350.00470 415.04904
432.0 0.002315 349.96704 410.25003
411.0 0.002433 349.92935 413.08716
439.0 0.002278 349.89151 424.04877
482.0 0.002075 349.85367 443.23080
451.0 0.002217 349.81580 471.40704
515.0 0.001942 349.77792 513.23029
635.0 0.001575 349.73993 574.07727
696.0 0.001437 349.70187 645.04993
744.0 0.001344 349.66376 689.75671
617.0 0.001621 349.62567 670.17682
531.0 0.001883 349.58749 607.30756
511.0 0.001957 349.54919 545.48389
497.0 0.002012 349.51096 502.76971
423.0 0.002364 349.47260 477.18286
418.0 0.002392 349.43420 464.34848
438.0 0.002283 349.39581 464.08542
477.0 0.002096 349.35730 474.11176
496.0 0.002016 349.31882 487.04288
489.0 0.002045 349.28009 493.33429
474.0 0.002110 349.24149 488.37354
475.0 0.002105 349.20288 480.42365
473.0 0.002114 349.16403 480.33789
490.0 0.002041 349.12537 493.70425
513.0 0.001949 349.08646 518.82538
530.0 0.001887 349.04761 540.30243
485.0 0.002062 349.00873 536.18628
479.0 0.002088 348.96976 509.02933
481.0 0.002079 348.93069 481.89401
450.0 0.002222 348.89169 468.77554
460.0 0.002174 348.85257 472.89969
511.0 0.001957 348.81345 491.46051
545.0 0.001835 348.77423 514.75568
524.0 0.001908 348.73502 531.27454
506.0 0.001976 348.69565 545.66052
536.0 0.001866 348.65637 568.58191
615.0 0.001626 348.61703 600.89093
634.0 0.001577 348.57758 630.54486
571.0 0.001751 348.53812 629.68317
502.0 0.001992 348.49863 588.23694
484.0 0.002066 348.45905 535.92700
466.0 0.002146 348.41949 497.54156
440.0 0.002273 348.37979 478.52386
476.0 0.002101 348.34015 473.37582
465.0 0.002151 348.30038 470.73047
472.0 0.002119 348.26068 465.92981
469.0 0.002132 348.22089 465.98734
473.0 0.002114 348.18100 477.31955
508.0 0.001969 348.14111 498.84210
518.0 0.001931 348.10117 521.08887
513.0 0.001949 348.06119 532.23065
481.0 0.002079 348.02124 531.19513
467.0 0.002141 347.98123 531.69354
518.0 0.001931 347.94113 541.92175
544.0 0.001838 347.90097 550.91882
486.0 0.002058 347.86081 541.46771
502.0 0.001992 347.82065 518.00165
477.0 0.002096 347.78036 494.96725
496.0 0.002016 347.74011 476.47186
409.0 0.002445 347.69974 463.70267
417.0 0.002398 347.65936 457.85126
415.0 0.002410 347.61905 457.09589
436.0 0.002294 347.57852 461.30576
481.0 0.002079 347.53806 468.71924
466.0 0.002146 347.49762 470.06094
450.0 0.002222 347.45694 462.90970
376.0 0.002660 347.41647 452.69769
402.0 0.002488 347.37582 438.80637
400.0 0.002500 347.33517 423.24490
404.0 0.002475 347.29443 411.73022
422.0 0.002370 347.25375 406.54883
403.0 0.002481 347.21304 406.18320
413.0 0.002421 347.17221 407.39642
431.0 0.002320 347.13141 408.51572
414.0 0.002415 347.09048 406.96347
389.0 0.002571 347.04968 401.83261
387.0 0.002584 347.00879 396.89273
401.0 0.002494 346.96777 395.96481
388.0 0.002577 346.92682 400.08411
387.0 0.002584 346.88574 408.18793
417.0 0.002398 346.84467 415.83170
439.0 0.002278 346.80365 419.43033
426.0 0.002347 346.76251 421.67117
438.0 0.002283 346.72141 426.24478
448.0 0.002232 346.68018 434.14127
462.0 0.002165 346.63892 448.97113
503.0 0.001988 346.59772 474.03848
554.0 0.001805 346.55652 503.82626
557.0 0.001795 346.51520 522.13824
550.0 0.001818 346.47385 515.08453
497.0 0.002012 346.43246 485.35550
454.0 0.002203 346.39114 450.25055
435.0 0.002299 346.34970 421.49496
422.0 0.002370 346.30829 402.51031
407.0 0.002457 346.26682 392.43845
399.0 0.002506 346.22534 389.69162
381.0 0.002625 346.18387 392.39743
425.0 0.002353 346.14224 400.04532
435.0 0.002299 346.10071 411.10379
432.0 0.002315 346.05905 422.19339
455.0 0.002198 346.01749 429.55750
457.0 0.002188 345.97583 435.40417
454.0 0.002203 345.93417 444.33902
448.0 0.002232 345.89243 454.83499
452.0 0.002212 345.85068 461.64267
469.0 0.002132 345.80899 458.96698
467.0 0.002141 345.76727 444.73145
434.0 0.002304 345.72549 424.73505
435.0 0.002299 345.68365 407.17258
409.0 0.002445 345.64172 395.13489
416.0 0.002404 345.59991 388.85873
398.0 0.002513 345.55807 387.71481
394.0 0.002538 345.51617 391.26846
400.0 0.002500 345.47424 399.99341
408.0 0.002451 345.43228 415.28268
431.0 0.002320 345.39029 438.69461
491.0 0.002037 345.34836 470.69797
476.0 0.002101 345.30634 510.72122
521.0 0.001919 345.26440 554.18231
604.0 0.001656 345.22232 593.49445
610.0 0.001639 345.18024 618.41742
564.0 0.001773 345.13821 608.96039
467.0 0.002141 345.09613 562.88220
406.0 0.002463 345.05402 507.71353
404.0 0.002475 345.01190 464.28329
361.0 0.002770 344.96967 438.07770
382.0 0.002618 344.92764 427.63464
394.0 0.002538 344.88538 430.24356
416.0 0.002404 344.84326 442.30661
409.0 0.002445 344.80099 457.91327
429.0 0.002331 344.75879 469.73602
445.0 0.002247 344.71658 477.85553
449.0 0.002227 344.67422 486.89563
485.0 0.002062 344.63208 494.06238
459.0 0.002179 344.58975 497.10995
487.0 0.002053 344.54745 499.90704
493.0 0.002028 344.50525 504.14215
496.0 0.002016 344.46289 505.55695
488.0 0.002049 344.42062 492.96564
419.0 0.002387 344.37820 466.31293
399.0 0.002506 344.33585 438.01700
387.0 0.002584 344.29355 416.66913
388.0 0.002577 344.25116 404.54248
374.0 0.002674 344.20880 401.04935
397.0 0.002519 344.16638 405.26050
424.0 0.002358 344.12393 416.13586
435.0 0.002299 344.08163 431.50250
460.0 0.002174 344.03915 448.73563
467.0 0.002141 343.99677 467.47623
506.0 0.001976 343.95425 484.30334
494.0 0.002024 343.91180 486.77942
448.0 0.002232 343.86945 471.13312
433.0 0.002309 343.82700 451.20972
408.0 0.002451 343.78461 439.16879
434.0 0.002304 343.74210 437.97232
470.0 0.002128 343.69955 443.97253
471.0 0.002123 343.65720 448.06348
457.0 0.002188 343.61465 444.62390
423.0 0.002364 343.57217 440.17032
453.0 0.002208 343.52969 443.57361
515.0 0.001942 343.48721 457.01816
539.0 0.001855 343.44476 474.71478
514.0 0.001946 343.40222 482.89374
500.0 0.002000 343.35974 473.72873
472.0 0.002119 343.31723 457.48123
457.0 0.002188 343.27472 444.43677
455.0 0.002198 343.23224 435.72128
433.0 0.002309 343.18973 426.96344
413.0 0.002421 343.14728 416.09375
403.0 0.002481 343.10468 407.02441
396.0 0.002525 343.06226 403.53247
380.0 0.002632 343.01974 406.43521
398.0 0.002513 342.97726 414.85898
422.0 0.002370 342.93478 425.24588
392.0 0.002551 342.89221 436.32114
484.0 0.002066 342.84976 450.67047
515.0 0.001942 342.80731 469.08432
470.0 0.002128 342.76477 485.24393
506.0 0.001976 342.72241 488.89035
450.0 0.002222 342.67981 478.15115
488.0 0.002049 342.63733 459.80872
423.0 0.002364 342.59494 444.28174
446.0 0.002242 342.55240 437.86368
444.0 0.002252 342.50998 440.40002
454.0 0.002203 342.46747 444.99683
425.0 0.002353 342.42511 440.65103
409.0 0.002445 342.38269 425.20630
385.0 0.002597 342.34024 406.63248
377.0 0.002653 342.29785 391.59641
363.0 0.002755 342.25534 382.37622
393.0 0.002545 342.21295 378.78967
389.0 0.002571 342.17062 380.24600
385.0 0.002597 342.12823 385.38138
376.0 0.002660 342.08585 391.91824
383.0 0.002611 342.04346 396.01584
385.0 0.002597 342.00110 393.59827
339.0 0.002950 341.95883 386.55548
334.0 0.002994 341.91647 380.18381
358.0 0.002793 341.87415 377.54724
370.0 0.002703 341.83182 379.33667
398.0 0.002513 341.78952 384.77945
379.0 0.002639 341.74728 390.68918
356.0 0.002809 341.70505 391.75763
367.0 0.002725 341.66278 386.84894
350.0 0.002857 341.62051 379.93542
330.0 0.003030 341.57825 374.69156
342.0 0.002924 341.53604 372.64255
351.0 0.002849 341.49387 373.58392
380.0 0.002632 341.45172 376.49713
393.0 0.002545 341.40952 381.04700
376.0 0.002660 341.36737 388.72296
378.0 0.002646 341.32532 399.78079
407.0 0.002457 341.28317 412.47433
440.0 0.002273 341.24112 424.38458
446.0 0.002242 341.19901 432.18948
422.0 0.002370 341.15698 431.05814
393.0 0.002545 341.11499 421.04388
382.0 0.002618 341.07294 407.08588
359.0 0.002786 341.03101 392.75659
339.0 0.002950 340.98892 379.98248
354.0 0.002825 340.94705 370.71863
367.0 0.002725 340.90518 364.97867
361.0 0.002770 340.86328 362.37683
366.0 0.002732 340.82138 362.28403
358.0 0.002793 340.77951 364.42157
410.0 0.002439 340.73761 368.52515
368.0 0.002717 340.69589 374.52380
408.0 0.002451 340.65411 382.90817
394.0 0.002538 340.61234 392.56952
400.0 0.002500 340.57059 399.80902
418.0 0.002392 340.52890 402.53735
369.0 0.002710 340.48730 401.86075
402.0 0.002488 340.44559 397.76181
391.0 0.002558 340.40402 390.32910
372.0 0.002688 340.36234 381.50497
340.0 0.002941 340.32074 373.26630
369.0 0.002710 340.27924 365.93396
340.0 0.002941 340.23770 359.97855
339.0 0.002950 340.19623 355.69403
356.0 0.002809 340.15479 352.83521
351.0 0.002849 340.11334 351.14893
376.0 0.002660 340.07202 350.45557
354.0 0.002825 340.03058 350.72195
343.0 0.002915 339.98932 351.92676
371.0 0.002695 339.94800 353.97202
373.0 0.002681 339.90668 356.32333
366.0 0.002732 339.86557 357.68701
341.0 0.002933 339.82428 356.81757
338.0 0.002959 339.78314 354.60361
344.0 0.002907 339.74197 352.47995
337.0 0.002967 339.70087 351.10037
337.0 0.002967 339.65988 350.75964
353.0 0.002833 339.61880 351.51126
338.0 0.002959 339.57779 353.55115
345.0 0.002899 339.53683 357.17136
381.0 0.002625 339.49594 363.28824
390.0 0.002564 339.45514 372.54657
404.0 0.002475 339.41428 384.97693
433.0 0.002309 339.37347 397.99011
415.0 0.002410 339.33267 405.03848
383.0 0.002611 339.29196 400.46362
367.0 0.002725 339.25131 388.40613
362.0 0.002762 339.21057 375.96799
366.0 0.002732 339.17004 366.49246
367.0 0.002725 339.12946 360.24402
362.0 0.002762 339.08899 356.51779
349.0 0.002865 339.04852 354.48645
335.0 0.002985 339.00806 353.77368
345.0 0.002899 338.96765 354.05954
358.0 0.002793 338.92734 355.69095
367.0 0.002725 338.88699 359.21869
378.0 0.002646 338.84680 365.37964
406.0 0.002463 338.80652 375.11780
427.0 0.002342 338.76636 388.69177
436.0 0.002294 338.72620 404.53055
430.0 0.002326 338.68613 416.83328
412.0 0.002427 338.64612 419.34351
389.0 0.002571 338.60608 411.57156
408.0 0.002451 338.56619 398.55005
382.0 0.002618 338.52628 386.45319
362.0 0.002762 338.48645 378.72888
374.0 0.002674 338.44672 376.36035
395.0 0.002532 338.40692 379.24054
424.0 0.002358 338.36722 387.04773
402.0 0.002488 338.32758 398.45807
419.0 0.002387 338.28799 410.60806
427.0 0.002342 338.24847 419.15323
424.0 0.002358 338.20898 424.36200
400.0 0.002500 338.16956 431.89066
449.0 0.002227 338.13010 444.23196
447.0 0.002237 338.09079 455.99167
478.0 0.002092 338.05151 459.68338
464.0 0.002155 338.01236 455.33032
450.0 0.002222 337.97318 446.92203
388.0 0.002577 337.93399 434.38867
391.0 0.002558 337.89493 418.35675
396.0 0.002525 337.85599 402.49472
385.0 0.002597 337.81702 389.82849
363.0 0.002755 337.77811 381.76538
387.0 0.002584 337.73932 378.58768
400.0 0.002500 337.70053 380.52582
405.0 0.002469 337.66180 387.34088
416.0 0.002404 337.62317 398.36411
416.0 0.002404 337.58453 411.48868
425.0 0.002353 337.54596 423.43179
418.0 0.002392 337.50751 432.35004
441.0 0.002268 337.46912 438.45953
470.0 0.002128 337.43076 440.56909
418.0 0.002392 337.39246 435.45053
411.0 0.002433 337.35410 424.31781
385.0 0.002597 337.31604 412.79767
387.0 0.002584 337.27792 404.51108
386.0 0.002591 337.23981 399.17786
388.0 0.002577 337.20193 395.38684
400.0 0.002500 337.16388 393.05350
400.0 0.002500 337.12610 391.63712
398.0 0.002513 337.08835 390.14984
383.0 0.002611 337.05060 389.16113
379.0 0.002639 337.01294 391.35941
372.0 0.002688 336.97528 398.52896
403.0 0.002481 336.93777 410.31793
389.0 0.002571 336.90033 423.03488
389.0 0.002571 336.86295 430.31631
402.0 0.002488 336.82562 430.28467
400.0 0.002500 336.78833 428.32895
414.0 0.002415 336.75125 429.29871
423.0 0.002364 336.71408 435.57495
436.0 0.002294 336.67703 447.13806
450.0 0.002222 336.64008 458.48883
454.0 0.002203 336.60315 460.35474
441.0 0.002268 336.56628 452.20953
434.0 0.002304 336.52957 441.87393
437.0 0.002288 336.49289 435.44562
431.0 0.002320 336.45627 433.02866
423.0 0.002364 336.41974 431.76767
397.0 0.002519 336.38321 430.91830
435.0 0.002299 336.34686 432.43604
431.0 0.002320 336.31052 436.39572
424.0 0.002358 336.27429 439.03046
412.0 0.002427 336.23810 438.65036
403.0 0.002481 336.20203 437.74753
413.0 0.002421 336.16602 441.26541
475.0 0.002105 336.13010 453.94049
465.0 0.002151 336.09424 476.73560
523.0 0.001912 336.05841 503.31351
554.0 0.001805 336.02271 521.73840
546.0 0.001832 335.98715 521.93964
446.0 0.002242 335.95154 505.45636
461.0 0.002169 335.91614 485.11011
483.0 0.002070 335.88071 472.50476
492.0 0.002033 335.84537 471.56238
449.0 0.002227 335.81024 477.60846
493.0 0.002028 335.77505 480.49713
492.0 0.002033 335.73999 474.47839
477.0 0.002096 335.70499 463.12906
458.0 0.002183 335.67007 449.52585
397.0 0.002519 335.63538 432.80566
400.0 0.002500 335.60059 415.53815
364.0 0.002747 335.56598 402.62509
390.0 0.002564 335.53140 396.73087
410.0 0.002439 335.49692 397.83478
408.0 0.002451 335.46255 404.48102
401.0 0.002494 335.42819 412.16708
439.0 0.002278 335.39404 415.26019
425.0 0.002353 335.35992 410.58279
364.0 0.002747 335.32587 401.10818
381.0 0.002625 335.29196 392.70331
398.0 0.002513 335.25806 388.88208
403.0 0.002481 335.22424 390.00549
421.0 0.002375 335.19058 393.82632
388.0 0.002577 335.15692 395.83435
404.0 0.002475 335.12354 393.62177
392.0 0.002551 335.09009 388.88452
378.0 0.002646 335.05679 383.50812
390.0 0.002564 335.02353 377.84363
382.0 0.002618 334.99039 373.05890
354.0 0.002825 334.95743 369.78256
344.0 0.002907 334.92441 367.68542
371.0 0.002695 334.89160 366.61285
388.0 0.002577 334.85880 367.00681
386.0 0.002591 334.82614 369.59564
400.0 0.002500 334.79361 374.87164
410.0 0.002439 334.76111 382.24286
418.0 0.002392 334.72876 388.01758
409.0 0.002445 334.69647 387.20300
394.0 0.002538 334.66425 379.45670
371.0 0.002695 334.63220 369.52704
369.0 0.002710 334.60019 361.01672
358.0 0.002793 334.56833 354.96097
349.0 0.002865 334.53653 351.32700
365.0 0.002740 334.50479 349.61008
343.0 0.002915 334.47321 349.69217
347.0 0.002882 334.44171 350.65390
366.0 0.002732 334.41025 352.22504
344.0 0.002907 334.37900 353.53537
344.0 0.002907 334.34781 354.03961
372.0 0.002688 334.31677 354.00748
333.0 0.003003 334.28577 354.41870
361.0 0.002770 334.25494 355.76779
371.0 0.002695 334.22406 358.90961
383.0 0.002611 334.19345 363.69797
404.0 0.002475 334.16284 368.74216
393.0 0.002545 334.13239 371.67047
376.0 0.002660 334.10202 371.53458
371.0 0.002695 334.07172 370.18091
367.0 0.002725 334.04160 368.16318
379.0 0.002639 334.01157 365.45856
374.0 0.002674 333.98160 363.11810
356.0 0.002809 333.95178 362.92603
390.0 0.002564 333.92206 366.23120
400.0 0.002500 333.89240 373.74799
367.0 0.002725 333.86292 386.35428
457.0 0.002188 333.83350 403.68369
434.0 0.002304 333.80423 423.34637
436.0 0.002294 333.77505 440.44394
447.0 0.002237 333.74597 450.61429
425.0 0.002353 333.71707 451.05536
435.0 0.002299 333.68811 439.44839
373.0 0.002681 333.65942 420.32724
392.0 0.002551 333.63077 402.26648
391.0 0.002558 333.60226 389.66345
343.0 0.002915 333.57394 383.27341
363.0 0.002755 333.54559 381.73190
355.0 0.002817 333.51743 381.73999
361.0 0.002770 333.48935 379.45804
368.0 0.002717 333.46143 374.20496
369.0 0.002710 333.43362 368.62024
364.0 0.002747 333.40585 365.07193
375.0 0.002667 333.37830 364.65613
350.0 0.002857 333.35074 367.78519
353.0 0.002833 333.32343 374.60931
390.0 0.002564 333.29617 384.06598
383.0 0.002611 333.26901 394.02832
419.0 0.002387 333.24210 401.99423
437.0 0.002288 333.21515 406.30573
401.0 0.002494 333.18832 405.32513
397.0 0.002519 333.16177 399.88623
397.0 0.002519 333.13519 394.04514
388.0 0.002577 333.10880 390.65256
372.0 0.002688 333.08252 389.26382
376.0 0.002660 333.05624 389.38834
382.0 0.002618 333.03027 392.01315
378.0 0.002646 333.00436 398.17480
417.0 0.002398 332.97852 407.86133
450.0 0.002222 332.95285 420.03265
433.0 0.002309 332.92731 429.72507
418.0 0.002392 332.90186 428.71683
395.0 0.002532 332.87656 415.45279
384.0 0.002604 332.85132 397.55902
377.0 0.002653 332.82623 381.50647
366.0 0.002732 332.80133 369.82062
375.0 0.002667 332.77655 362.34705
366.0 0.002732 332.75186 358.31863
363.0 0.002755 332.72723 356.70923
385.0 0.002597 332.70282 356.73669
365.0 0.002740 332.67853 357.88947
387.0 0.002584 332.65433 360.04504
364.0 0.002747 332.63028 362.58945
362.0 0.002762 332.60641 365.24847
376.0 0.002660 332.58258 368.76062
342.0 0.002924 332.55887 374.99036
366.0 0.002732 332.53540 385.47098
407.0 0.002457 332.51196 401.04239
403.0 0.002481 332.48865 420.79596
440.0 0.002273 332.46552 440.04941
469.0 0.002132 332.44254 454.36966
481.0 0.002079 332.41962 462.59262
455.0 0.002198 332.39691 465.36960
467.0 0.002141 332.37430 463.96051
451.0 0.002217 332.35181 458.93399
424.0 0.002358 332.32947 448.11594
406.0 0.002463 332.30722 435.12402
383.0 0.002611 332.28519 426.06491
440.0 0.002273 332.26321 422.58261
384.0 0.002604 332.24139 420.93619
379.0 0.002639 332.21970 415.67828
407.0 0.002457 332.19824 405.59253
392.0 0.002551 332.17679 393.54895
385.0 0.002597 332.15555 383.11185
374.0 0.002674 332.13437 376.62424
352.0 0.002841 332.11337 375.16705
365.0 0.002740 332.09256 378.35999
385.0 0.002597 332.07175 385.99646
426.0 0.002347 332.05127 396.18564
417.0 0.002398 332.03082 405.99655
394.0 0.002538 332.01053 411.80930
405.0 0.002469 331.99039 412.27524
395.0 0.002532 331.97034 409.60370
419.0 0.002387 331.95050 404.38971
410.0 0.002439 331.93069 396.90631
384.0 0.002604 331.91110 390.28970
390.0 0.002564 331.89169 386.41748
390.0 0.002564 331.87238 385.30557
386.0 0.002591 331.85321 384.38348
391.0 0.002558 331.83417 381.28995
381.0 0.002625 331.81528 376.37848
376.0 0.002660 331.79654 371.47214
368.0 0.002717 331.77789 368.45453
369.0 0.002710 331.75946 368.38333
390.0 0.002564 331.74121 372.46631
390.0 0.002564 331.72296 380.57962
406.0 0.002463 331.70496 392.43042
441.0 0.002268 331.68710 406.06219
418.0 0.002392 331.66940 417.92822
439.0 0.002278 331.65182 425.75616
438.0 0.002283 331.63443 428.54626
419.0 0.002387 331.61710 425.09619
393.0 0.002545 331.59995 418.17636
402.0 0.002488 331.58292 412.77744
385.0 0.002597 331.56610 410.94843
424.0 0.002358 331.54944 411.51813
440.0 0.002273 331.53287 414.31854
396.0 0.002525 331.51645 420.89175
396.0 0.002525 331.50027 432.49594
472.0 0.002119 331.48413 448.01682
476.0 0.002101 331.46820 465.32977
480.0 0.002083 331.45242 481.22800
477.0 0.002096 331.43677 488.05423
405.0 0.002469 331.42130 478.97192
446.0 0.002242 331.40588 459.45444
388.0 0.002577 331.39069 439.74692
428.0 0.002336 331.37564 425.28296
409.0 0.002445 331.36081 416.36780
421.0 0.002375 331.34610 412.17429
406.0 0.002463 331.33154 410.68057
412.0 0.002427 331.31711 409.89096
449.0 0.002227 331.30273 409.85065
429.0 0.002331 331.28870 411.30188
391.0 0.002558 331.27469 412.84604
417.0 0.002398 331.26093 414.46075
407.0 0.002457 331.24725 418.29962
450.0 0.002222 331.23383 428.31805
442.0 0.002262 331.22040 446.73431
483.0 0.002070 331.20728 472.84430
513.0 0.001949 331.19424 502.74448
534.0 0.001873 331.18134 526.72961
490.0 0.002041 331.16867 531.13934
451.0 0.002217 331.15616 513.60107
440.0 0.002273 331.14371 487.19370
437.0 0.002288 331.13150 463.87128
439.0 0.002278 331.11945 448.21469
448.0 0.002232 331.10751 441.73981
433.0 0.002309 331.09573 445.70660
459.0 0.002179 331.08414 459.32074
503.0 0.001988 331.07269 477.31342
515.0 0.001942 331.06143 488.09036
451.0 0.002217 331.05032 481.12592
417.0 0.002398 331.03937 459.24472
404.0 0.002475 331.02859 433.97501
380.0 0.002632 331.01788 413.30670
386.0 0.002591 331.00742 400.34842
413.0 0.002421 330.99710 395.60858
415.0 0.002410 330.98703 397.83615
399.0 0.002506 330.97699 404.42279
397.0 0.002519 330.96725 410.41983
377.0 0.002653 330.95749 410.59866
375.0 0.002667 330.94806 405.00317
395.0 0.002532 330.93872 398.14893
392.0 0.002551 330.92960 393.61655
380.0 0.002632 330.92053 391.66431
385.0 0.002597 330.91177 391.73929
392.0 0.002551 330.90311 394.13129
391.0 0.002558 330.89459 399.51630
429.0 0.002331 330.88623 406.48401
444.0 0.002252 330.87808 410.24777
416.0 0.002404 330.87006 405.92075
394.0 0.002538 330.86221 394.84708
361.0 0.002770 330.85455 382.40216
359.0 0.002786 330.84702 372.24966
368.0 0.002717 330.83975 365.45346
372.0 0.002688 330.83258 361.31046
353.0 0.002833 330.82556 359.63565
365.0 0.002740 330.81866 359.38901
370.0 0.002703 330.81204 360.42651
382.0 0.002618 330.80557 363.20276
407.0 0.002457 330.79922 368.09894
390.0 0.002564 330.79312 374.93875
364.0 0.002747 330.78708 382.87512
360.0 0.002778 330.78128 390.91449
355.0 0.002817 330.77560 400.04910
406.0 0.002463 330.77014 412.71521
445.0 0.002247 330.76489 430.05347
469.0 0.002132 330.75980 449.39923
450.0 0.002222 330.75485 461.75513
426.0 0.002347 330.75000 457.42776
366.0 0.002732 330.74539 438.23813
369.0 0.002710 330.74091 414.62244
363.0 0.002755 330.73666 394.04684
358.0 0.002793 330.73257 378.74600
324.0 0.003086 330.72867 369.01218
375.0 0.002667 330.72491 363.78815
382.0 0.002618 330.72131 361.67831
378.0 0.002646 330.71786 361.92810
342.0 0.002924 330.71463 364.20111
387.0 0.002584 330.71161 368.36148
418.0 0.002392 330.70874 373.89487
401.0 0.002494 330.70599 379.95255
409.0 0.002445 330.70349 385.13293
387.0 0.002584 330.70111 390.42682
412.0 0.002427 330.69891 398.35471
430.0 0.002326 330.69693 411.62408
467.0 0.002141 330.69507 430.61179
505.0 0.001980 330.69342 451.96045
516.0 0.001938 330.69199 468.65320
506.0 0.001976 330.69064 474.79462
480.0 0.002083 330.68951 468.67200
460.0 0.002174 330.68854 454.13800
427.0 0.002342 330.68787 437.44772
420.0 0.002381 330.68719 421.18811
399.0 0.002506 330.68677 404.55981
371.0 0.002695 330.68649 388.88977
377.0 0.002653 330.68646 376.30948
394.0 0.002538 330.68665 367.44293
397.0 0.002519 330.68695 361.98514
394.0 0.002538 330.68738 359.06531
375.0 0.002667 330.68799 357.88467
370.0 0.002703 330.68884 357.51263
366.0 0.002732 330.68988 357.85623
349.0 0.002865 330.69104 358.89197
363.0 0.002755 330.69241 361.41833
374.0 0.002674 330.69400 366.19196
365.0 0.002740 330.69574 373.44073
383.0 0.002611 330.69763 382.27490
403.0 0.002481 330.69968 390.45840
440.0 0.002273 330.70200 395.12476
442.0 0.002262 330.70447 395.37173
425.0 0.002353 330.70706 393.48639
433.0 0.002309 330.70984 391.42142
415.0 0.002410 330.71283 388.85724
381.0 0.002625 330.71603 385.87888
386.0 0.002591 330.71939 382.78275
379.0 0.002639 330.72293 378.81293
370.0 0.002703 330.72668 373.62451
371.0 0.002695 330.73059 369.02841
381.0 0.002625 330.73465 366.83130
359.0 0.002786 330.73889 367.62241
409.0 0.002445 330.74338 370.53687
367.0 0.002725 330.74808 374.42654
373.0 0.002681 330.75284 376.01898
383.0 0.002611 330.75784 373.79718
373.0 0.002681 330.76303 368.73669
369.0 0.002710 330.76840 363.00763
379.0 0.002639 330.77396 357.92697
377.0 0.002653 330.77972 353.99579
358.0 0.002793 330.78564 351.54211
344.0 0.002907 330.79172 350.79068
368.0 0.002717 330.79800 351.64383
361.0 0.002770 330.80444 353.68784
388.0 0.002577 330.81116 356.30035
356.0 0.002809 330.81802 358.51175
379.0 0.002639 330.82501 359.27670
375.0 0.002667 330.83228 357.92950
398.0 0.002513 330.83966 355.47025
352.0 0.002841 330.84723 353.47150
370.0 0.002703 330.85498 352.90280
363.0 0.002755 330.86298 353.85168
353.0 0.002833 330.87109 355.93484
384.0 0.002604 330.87946 358.45261
382.0 0.002618 330.88791 359.43674
348.0 0.002874 330.89661 358.57425
363.0 0.002755 330.90552 356.03104
359.0 0.002786 330.91461 353.03943
333.0 0.003003 330.92389 350.38806
356.0 0.002809 330.93335 348.73572
367.0 0.002725 330.94293 348.35825
364.0 0.002747 330.95279 349.36230
389.0 0.002571 330.96277 351.53870
393.0 0.002545 330.97299 354.77734
381.0 0.002625 330.98334 358.93768
391.0 0.002558 330.99393 364.15601
388.0 0.002577 331.00470 370.47794
412.0 0.002427 331.01563 377.39066
416.0 0.002404 331.02673 382.90668
395.0 0.002532 331.03812 384.07974
382.0 0.002618 331.04956 380.60117
376.0 0.002660 331.06131 375.70557
365.0 0.002740 331.07321 372.43448
368.0 0.002717 331.08524 372.64233
391.0 0.002558 331.09753 376.57883
430.0 0.002326 331.10999 383.70044
446.0 0.002242 331.12262 392.40408
429.0 0.002331 331.13541 399.95126
448.0 0.002232 331.14847 404.44736
427.0 0.002342 331.16165 407.11444
424.0 0.002358 331.17508 410.41446
478.0 0.002092 331.18860 415.13608
468.0 0.002137 331.20239 419.85400
460.0 0.002174 331.21634 422.66229
438.0 0.002283 331.23050 423.28973
415.0 0.002410 331.24487 422.57190
429.0 0.002331 331.25940 422.75641
429.0 0.002331 331.27411 426.08484
457.0 0.002188 331.28906 431.64966
453.0 0.002208 331.30414 436.11096
441.0 0.002268 331.31940 436.67993
469.0 0.002132 331.33493 434.83896
425.0 0.002353 331.35059 434.06665
481.0 0.002079 331.36642 435.62405
379.0 0.002639 331.38242 437.99139
424.0 0.002358 331.39877 439.87100
447.0 0.002237 331.41513 442.02704
404.0 0.002475 331.43173 445.78653
468.0 0.002137 331.44852 451.53986
447.0 0.002237 331.46552 458.99716
468.0 0.002137 331.48273 467.36774
485.0 0.002062 331.50009 473.69434
471.0 0.002123 331.51770 472.10849
450.0 0.002222 331.53540 460.37537
423.0 0.002364 331.55331 443.44162
420.0 0.002381 331.57150 427.14014
416.0 0.002404 331.58984 414.61191
422.0 0.002370 331.60837 407.69171
441.0 0.002268 331.62704 405.83685
433.0 0.002309 331.64590 406.78912
394.0 0.002538 331.66498 407.60165
378.0 0.002646 331.68439 407.14624
403.0 0.002481 331.70374 406.52286
398.0 0.002513 331.72348 406.95880
411.0 0.002433 331.74319 408.79089
429.0 0.002331 331.76334 412.65240
407.0 0.002457 331.78357 420.60263
404.0 0.002475 331.80392 435.17221
449.0 0.002227 331.82458 457.80615
517.0 0.001934 331.84537 487.37515
540.0 0.001852 331.86633 519.13727
517.0 0.001934 331.88754 543.13318
512.0 0.001953 331.90887 548.08081
510.0 0.001961 331.93045 533.75232
480.0 0.002083 331.95218 509.90790
459.0 0.002179 331.97418 485.20645
413.0 0.002421 331.99631 464.77426
442.0 0.002262 332.01859 449.54333
458.0 0.002183 332.04111 437.83447
418.0 0.002392 332.06384 426.29819
411.0 0.002433 332.08673 413.31631
419.0 0.002387 332.10980 400.37888
401.0 0.002494 332.13312 389.44687
385.0 0.002597 332.15652 381.64185
345.0 0.002899 332.18018 377.43524
339.0 0.002950 332.20404 377.29288
357.0 0.002801 332.22809 381.49265
413.0 0.002421 332.25226 390.30991
447.0 0.002237 332.27670 404.20084
450.0 0.002222 332.30130 422.20328
467.0 0.002141 332.32611 441.76563
458.0 0.002183 332.35110 457.10440
456.0 0.002193 332.37622 462.22549
435.0 0.002299 332.40167 457.49539
407.0 0.002457 332.42719 448.21158
446.0 0.002242 332.45288 438.15997
432.0 0.002315 332.47885 428.71964
423.0 0.002364 332.50494 420.38852
380.0 0.002632 332.53131 413.93182
412.0 0.002427 332.55777 409.40811
421.0 0.002375 332.58444 406.91083
373.0 0.002681 332.61139 407.57404
416.0 0.002404 332.63837 412.35522
433.0 0.002309 332.66568 420.72226
467.0 0.002141 332.69312 429.76810
430.0 0.002326 332.72076 433.72018
440.0 0.002273 332.74860 428.75046
377.0 0.002653 332.77655 417.60773
436.0 0.002294 332.80481 405.25412
381.0 0.002625 332.83316 395.00574
394.0 0.002538 332.86172 387.84988
379.0 0.002639 332.89050 383.24045
415.0 0.002410 332.91943 379.83780
364.0 0.002747 332.94858 377.14401
399.0 0.002506 332.97787 375.60364
376.0 0.002660 333.00742 375.55673
370.0 0.002703 333.03717 377.03146
357.0 0.002801 333.06699 380.13843
384.0 0.002604 333.09708 386.51208
401.0 0.002494 333.12729 397.79330
421.0 0.002375 333.15781 415.34201
484.0 0.002066 333.18848 439.34796
551.0 0.001815 333.21933 467.59241
580.0 0.001724 333.25034 493.62311
521.0 0.001919 333.28146 506.70468
482.0 0.002075 333.31296 500.38031
470.0 0.002128 333.34448 479.01990
418.0 0.002392 333.37625 452.20313
392.0 0.002551 333.40817 427.28046
402.0 0.002488 333.44037 407.77106
395.0 0.002532 333.47266 394.41705
388.0 0.002577 333.50519 386.42096
389.0 0.002571 333.53781 381.89014
365.0 0.002740 333.57077 378.71814
354.0 0.002825 333.60379 375.97598
372.0 0.002688 333.63705 374.30389
366.0 0.002732 333.67050 374.91208
354.0 0.002825 333.70404 378.54282
390.0 0.002564 333.73795 386.31409
414.0 0.002415 333.77188 398.43152
440.0 0.002273 333.80606 414.04922
439.0 0.002278 333.84045 430.55563
453.0 0.002208 333.87494 443.42181
444.0 0.002252 333.90967 449.57999
439.0 0.002278 333.94464 447.89664
430.0 0.002326 333.97971 437.96707
402.0 0.002488 334.01498 422.85422
394.0 0.002538 334.05045 407.79236
391.0 0.002558 334.08612 396.27197
416.0 0.002404 334.12192 389.74857
385.0 0.002597 334.15799 388.55093
368.0 0.002717 334.19412 392.56744
361.0 0.002770 334.23044 401.11862
410.0 0.002439 334.26709 412.63354
445.0 0.002247 334.30380 424.30020
475.0 0.002105 334.34073 432.71759
445.0 0.002247 334.37784 435.36316
417.0 0.002398 334.41510 432.89230
420.0 0.002381 334.45258 429.92194
423.0 0.002364 334.49020 430.80975
460.0 0.002174 334.52811 437.40298
441.0 0.002268 334.56610 448.78708
428.0 0.002336 334.60419 460.88245
482.0 0.002075 334.64267 466.58545
405.0 0.002469 334.68115 460.58490
391.0 0.002558 334.71994 445.12173
374.0 0.002674 334.75882 427.37161
369.0 0.002710 334.79788 412.74728
379.0 0.002639 334.83722 403.64645
407.0 0.002457 334.87668 400.45972
399.0 0.002506 334.91626 401.97275
383.0 0.002611 334.95612 405.97726
417.0 0.002398 334.99606 409.33154
380.0 0.002632 335.03629 410.74771
421.0 0.002375 335.07660 410.75195
399.0 0.002506 335.11716 409.61081
409.0 0.002445 335.15787 406.84210
409.0 0.002445 335.19864 401.94543
382.0 0.002618 335.23981 395.68796
383.0 0.002611 335.28091 390.04510
373.0 0.002681 335.32236 386.75266
375.0 0.002667 335.36392 386.52826
364.0 0.002747 335.40573 388.99002
362.0 0.002762 335.44769 392.38300
374.0 0.002674 335.48975 393.52100
376.0 0.002660 335.53207 390.10803
372.0 0.002688 335.57449 383.31723
382.0 0.002618 335.61707 376.10583
368.0 0.002717 335.65994 370.31924
362.0 0.002762 335.70291 366.60611
377.0 0.002653 335.74606 365.41736
379.0 0.002639 335.78937 365.70361
381.0 0.002625 335.83286 366.18192
359.0 0.002786 335.87656 365.37714
348.0 0.002874 335.92035 363.01553
367.0 0.002725 335.96445 359.73480
373.0 0.002681 336.00867 356.29370
355.0 0.002817 336.05295 353.26672
353.0 0.002833 336.09750 350.84073
348.0 0.002874 336.14227 348.99811
337.0 0.002967 336.18713 347.62314
362.0 0.002762 336.23218 346.75327
352.0 0.002841 336.27737 346.49817
359.0 0.002786 336.32275 346.71320
344.0 0.002907 336.36826 347.46402
366.0 0.002732 336.41403 348.38046
380.0 0.002632 336.46002 349.24979
361.0 0.002770 336.50604 349.70325
381.0 0.002625 336.55228 350.01508
367.0 0.002725 336.59860 350.14780
390.0 0.002564 336.64529 350.74646
362.0 0.002762 336.69196 352.07993
342.0 0.002924 336.73889 354.32501
395.0 0.002532 336.78598 357.26993
359.0 0.002786 336.83316 360.09052
427.0 0.002342 336.88062 361.38885
376.0 0.002660 336.92819 360.24109
321.0 0.003115 336.97589 357.30591
357.0 0.002801 337.02380 353.93564
374.0 0.002674 337.07193 351.10226
332.0 0.003012 337.12018 349.14859
344.0 0.002907 337.16858 348.21304
328.0 0.003049 337.21710 348.49637
381.0 0.002625 337.26587 349.95599
395.0 0.002532 337.31470 352.65060
337.0 0.002967 337.36383 356.53210
375.0 0.002667 337.41306 361.18262
359.0 0.002786 337.46237 365.69064
384.0 0.002604 337.51193 368.40472
359.0 0.002786 337.56161 368.02261
337.0 0.002967 337.61148 364.96545
362.0 0.002762 337.66153 361.12006
358.0 0.002793 337.71164 357.86658
363.0 0.002755 337.76208 355.80908
361.0 0.002770 337.81253 354.95578
345.0 0.002899 337.86319 354.80817
371.0 0.002695 337.91403 354.51379
389.0 0.002571 337.96497 353.41693
348.0 0.002874 338.01611 351.61157
362.0 0.002762 338.06750 349.77203
378.0 0.002646 338.11890 348.27414
354.0 0.002825 338.17050 347.47122
341.0 0.002933 338.22223 347.06546
349.0 0.002865 338.27426 347.31406
351.0 0.002849 338.32623 348.22879
356.0 0.002809 338.37851 349.86990
360.0 0.002778 338.43097 352.33173
369.0 0.002710 338.48343 355.65683
376.0 0.002660 338.53613 359.76300
379.0 0.002639 338.58896 364.12442
401.0 0.002494 338.64203 368.15732
391.0 0.002558 338.69522 372.05383
389.0 0.002571 338.74854 376.01154
376.0 0.002660 338.80194 379.37027
368.0 0.002717 338.85565 380.30023
380.0 0.002632 338.90939 377.61145
377.0 0.002653 338.96332 372.42865
364.0 0.002747 339.01736 366.83841
359.0 0.002786 339.07166 362.13528
369.0 0.002710 339.12589 358.82379
355.0 0.002817 339.18054 356.87308
354.0 0.002825 339.23529 356.27396
349.0 0.002865 339.29001 357.02872
354.0 0.002825 339.34494 359.01248
361.0 0.002770 339.40002 362.55307
348.0 0.002874 339.45538 367.89304
384.0 0.002604 339.51077 375.66257
369.0 0.002710 339.56628 386.16595
412.0 0.002427 339.62204 399.01273
418.0 0.002392 339.67789 412.42035
452.0 0.002212 339.73389 423.58859
466.0 0.002146 339.79007 430.12708
426.0 0.002347 339.84631 430.81866
434.0 0.002304 339.90277 425.72394
388.0 0.002577 339.95926 416.90921
351.0 0.002849 340.01602 406.32617
379.0 0.002639 340.07291 395.20782
376.0 0.002660 340.12982 384.74979
408.0 0.002451 340.18698 376.10965
376.0 0.002660 340.24429 369.80890
393.0 0.002545 340.30182 365.61383
366.0 0.002732 340.35928 363.12674
393.0 0.002545 340.41696 361.63098
334.0 0.002994 340.47485 360.75339
353.0 0.002833 340.53281 360.49506
372.0 0.002688 340.59097 361.11313
381.0 0.002625 340.64929 362.99188
400.0 0.002500 340.70758 366.40640
413.0 0.002421 340.76611 371.72119
360.0 0.002778 340.82477 378.93134
417.0 0.002398 340.88367 387.44189
410.0 0.002439 340.94266 395.81189
415.0 0.002410 341.00159 402.24332
397.0 0.002519 341.06088 405.16483
413.0 0.002421 341.12015 403.55511
391.0 0.002558 341.17969 398.40854
371.0 0.002695 341.23935 392.03458
378.0 0.002646 341.29901 385.69821
380.0 0.002632 341.35892 380.14340
379.0 0.002639 341.41895 375.61411
371.0 0.002695 341.47913 372.49506
364.0 0.002747 341.53937 371.20694
384.0 0.002604 341.59970 372.13342
382.0 0.002618 341.66028 375.53326
379.0 0.002639 341.72095 381.66107
397.0 0.002519 341.78177 390.74893
417.0 0.002398 341.84271 402.65015
468.0 0.002137 341.90363 416.30957
462.0 0.002165 341.96490 429.10849
434.0 0.002304 342.02618 436.58408
419.0 0.002387 342.08762 435.55063
393.0 0.002545 342.14914 428.06189
394.0 0.002538 342.21075 419.24258
410.0 0.002439 342.27267 412.67258
423.0 0.002364 342.33453 409.36523
419.0 0.002387 342.39664 408.17017
387.0 0.002584 342.45871 407.04797
403.0 0.002481 342.52103 404.36557
420.0 0.002381 342.58347 400.08823
418.0 0.002392 342.64597 395.09769
373.0 0.002681 342.70871 390.75644
395.0 0.002532 342.77145 387.34088
382.0 0.002618 342.83429 385.93015
398.0 0.002513 342.89734 387.24445
396.0 0.002525 342.96045 391.87595
393.0 0.002545 343.02377 400.01938
426.0 0.002347 343.08716 411.18460
433.0 0.002309 343.15057 423.87106
440.0 0.002273 343.21423 436.02008
424.0 0.002358 343.27792 446.65408
480.0 0.002083 343.34180 455.55908
503.0 0.001988 343.40570 461.02591
450.0 0.002222 343.46979 460.51340
440.0 0.002273 343.53400 453.04031
396.0 0.002525 343.59827 440.64310
384.0 0.002604 343.66272 427.45471
431.0 0.002320 343.72720 416.79376
424.0 0.002358 343.79178 409.76636
385.0 0.002597 343.85657 405.99695
384.0 0.002604 343.92139 404.43195
424.0 0.002358 343.98642 404.27454
425.0 0.002353 344.05154 404.46323
413.0 0.002421 344.11661 403.35516
379.0 0.002639 344.18195 399.75702
364.0 0.002747 344.24731 394.47934
393.0 0.002545 344.31290 389.49387
391.0 0.002558 344.37851 386.26593
398.0 0.002513 344.44412 385.22922
395.0 0.002532 344.50998 385.98462
375.0 0.002667 344.57584 387.50272
374.0 0.002674 344.64200 388.76819
356.0 0.002809 344.70807 389.72852
368.0 0.002717 344.77429 391.03284
392.0 0.002551 344.84067 392.68976
418.0 0.002392 344.90701 393.69751
418.0 0.002392 344.97366 392.88971
402.0 0.002488 345.04031 390.56711
391.0 0.002558 345.10693 388.43475
374.0 0.002674 345.17389 388.29343
380.0 0.002632 345.24081 391.12344
399.0 0.002506 345.30789 397.47485
446.0 0.002242 345.37503 407.12259
464.0 0.002155 345.44217 419.40976
453.0 0.002208 345.50961 432.61255
471.0 0.002123 345.57700 443.11700
468.0 0.002137 345.64456 446.20709
407.0 0.002457 345.71213 440.11444
409.0 0.002445 345.77972 427.61496
399.0 0.002506 345.84760 413.00354
383.0 0.002611 345.91550 399.39731
408.0 0.002451 345.98355 388.29568
422.0 0.002370 346.05170 380.08704
383.0 0.002611 346.11978 374.50226
390.0 0.002564 346.18808 371.07498
364.0 0.002747 346.25644 369.18887
357.0 0.002801 346.32492 368.86298
371.0 0.002695 346.39349 369.77051
372.0 0.002688 346.46204 371.96185
370.0 0.002703 346.53076 375.55127
364.0 0.002747 346.59958 380.87445
392.0 0.002551 346.66843 388.30191
393.0 0.002545 346.73737 398.06714
423.0 0.002364 346.80649 410.12247
403.0 0.002481 346.87567 424.65720
433.0 0.002309 346.94482 442.16812
490.0 0.002041 347.01413 462.65408
551.0 0.001815 347.08362 483.54480
544.0 0.001838 347.15298 498.87555
488.0 0.002049 347.22263 502.20081
483.0 0.002070 347.29221 491.85352
441.0 0.002268 347.36194 472.20554
395.0 0.002532 347.43173 450.00934
402.0 0.002488 347.50156 430.13565
382.0 0.002618 347.57153 414.46167
380.0 0.002632 347.64154 402.87985
401.0 0.002494 347.71170 394.12033
394.0 0.002538 347.78192 387.17712
389.0 0.002571 347.85205 382.05524
394.0 0.002538 347.92245 378.54059
411.0 0.002433 347.99283 376.69745
362.0 0.002762 348.06335 376.49872
351.0 0.002849 348.13397 377.89255
401.0 0.002494 348.20453 380.80792
400.0 0.002500 348.27530 384.97308
385.0 0.002597 348.34598 389.89102
376.0 0.002660 348.41696 395.15485
378.0 0.002646 348.48779 401.13940
383.0 0.002611 348.55872 408.33859
421.0 0.002375 348.62982 416.99979
463.0 0.002160 348.70087 425.54211
450.0 0.002222 348.77219 431.06595
429.0 0.002331 348.84348 431.12106
414.0 0.002415 348.91461 425.44940
389.0 0.002571 348.98608 416.07858
378.0 0.002646 349.05756 405.92450
384.0 0.002604 349.12912 397.09372
393.0 0.002545 349.20071 390.42670
360.0 0.002778 349.27225 385.74323
381.0 0.002625 349.34399 382.68051
374.0 0.002674 349.41577 381.06549
385.0 0.002597 349.48761 380.70840
397.0 0.002519 349.55951 381.46634
389.0 0.002571 349.63141 383.10818
385.0 0.002597 349.70343 386.05664
376.0 0.002660 349.77551 390.83801
392.0 0.002551 349.84766 398.05801
432.0 0.002315 349.91989 407.79837
465.0 0.002151 349.99210 419.37271
466.0 0.002146 350.06442 431.09396
433.0 0.002309 350.13672 440.20987
438.0 0.002283 350.20920 444.77377
432.0 0.002315 350.28165 445.00195
439.0 0.002278 350.35406 441.39005
430.0 0.002326 350.42673 434.19299
420.0 0.002381 350.49933 424.07373
383.0 0.002611 350.57199 412.60690
381.0 0.002625 350.64474 401.67188
419.0 0.002387 350.71744 392.65546
415.0 0.002410 350.79028 386.14832
381.0 0.002625 350.86313 382.22290
385.0 0.002597 350.93616 380.62375
413.0 0.002421 351.00912 380.98120
372.0 0.002688 351.08206 382.82465
366.0 0.002732 351.15515 385.68124
374.0 0.002674 351.22827 389.16415
404.0 0.002475 351.30145 392.68643
396.0 0.002525 351.37460 395.67715
394.0 0.002538 351.44778 398.06970
420.0 0.002381 351.52118 400.72037
392.0 0.002551 351.59442 404.74484
425.0 0.002353 351.66785 410.38708
448.0 0.002232 351.74127 416.76636
477.0 0.002096 351.81461 422.27606
433.0 0.002309 351.88818 425.67145
443.0 0.002257 351.96167 426.00800
432.0 0.002315 352.03528 422.71909
405.0 0.002469 352.10886 416.31738
410.0 0.002439 352.18246 408.91376
388.0 0.002577 352.25613 402.72095
337.0 0.002967 352.32990 399.26862
383.0 0.002611 352.40366 399.48340
406.0 0.002463 352.47748 403.98825
389.0 0.002571 352.55121 412.72589
433.0 0.002309 352.62509 425.53864
471.0 0.002123 352.69897 440.99869
511.0 0.001957 352.77289 456.43152
491.0 0.002037 352.84683 467.81644
500.0 0.002000 352.92078 471.89444
466.0 0.002146 352.99484 468.48062
461.0 0.002169 353.06882 460.74786
461.0 0.002169 353.14291 452.31525
459.0 0.002179 353.21704 445.11810
441.0 0.002268 353.29111 438.51331
428.0 0.002336 353.36536 430.87759
409.0 0.002445 353.43945 422.01636
393.0 0.002545 353.51367 413.22208
392.0 0.002551 353.58786 405.41803
386.0 0.002591 353.66205 398.88617
393.0 0.002545 353.73639 393.31015
395.0 0.002532 353.81064 388.94153
377.0 0.002653 353.88501 386.16693
365.0 0.002740 353.95938 385.20184
370.0 0.002703 354.03366 386.12051
369.0 0.002710 354.10806 388.85388
369.0 0.002710 354.18243 393.31104
405.0 0.002469 354.25696 399.15829
443.0 0.002257 354.33139 406.46106
453.0 0.002208 354.40573 414.89319
462.0 0.002165 354.48026 423.34451
470.0 0.002128 354.55472 429.85248
488.0 0.002049 354.62927 432.74591
453.0 0.002208 354.70386 431.73221
412.0 0.002427 354.77823 427.57779
383.0 0.002611 354.85284 421.97665
400.0 0.002500 354.92737 416.13159
402.0 0.002488 355.00201 410.14301
438.0 0.002283 355.07666 403.51895
404.0 0.002475 355.15118 396.42026
371.0 0.002695 355.22574 389.58066
371.0 0.002695 355.30032 383.90652
357.0 0.002801 355.37500 379.59735
391.0 0.002558 355.44971 376.73392
369.0 0.002710 355.52426 375.12430
358.0 0.002793 355.59900 374.55704
367.0 0.002725 355.67368 374.84106
399.0 0.002506 355.74829 375.82977
373.0 0.002681 355.82297 377.52576
396.0 0.002525 355.89758 379.96405
418.0 0.002392 355.97229 383.24686
430.0 0.002326 356.04700 387.52606
405.0 0.002469 356.12167 392.81198
427.0 0.002342 356.19641 398.52151
417.0 0.002398 356.27097 403.43234
433.0 0.002309 356.34576 405.96902
420.0 0.002381 356.42041 405.52103
423.0 0.002364 356.49515 402.95975
414.0 0.002415 356.56989 398.94589
367.0 0.002725 356.64450 394.74854
380.0 0.002632 356.71921 391.02588
405.0 0.002469 356.79382 388.01538
372.0 0.002688 356.86859 386.25522
386.0 0.002591 356.94330 386.24188
400.0 0.002500 357.01788 388.09570
413.0 0.002421 357.09259 392.12631
406.0 0.002463 357.16727 398.46964
394.0 0.002538 357.24191 407.11023
401.0 0.002494 357.31662 417.87561
452.0 0.002212 357.39117 430.40948
450.0 0.002222 357.46585 443.64810
446.0 0.002242 357.54047 454.98865
468.0 0.002137 357.61517 461.16367
457.0 0.002188 357.68976 460.69119
440.0 0.002273 357.76431 455.22714
455.0 0.002198 357.83890 448.13922
450.0 0.002222 357.91348 441.80618
448.0 0.002232 357.98810 436.93329
433.0 0.002309 358.06268 432.54868
434.0 0.002304 358.13708 427.36063
429.0 0.002331 358.21167 420.77133
405.0 0.002469 358.28619 413.26773
397.0 0.002519 358.36078 405.87582
395.0 0.002532 358.43527 399.50946
384.0 0.002604 358.50961 394.94757
387.0 0.002584 358.58411 392.48810
399.0 0.002506 358.65851 391.96439
382.0 0.002618 358.73303 393.41620
393.0 0.002545 358.80737 396.58981
417.0 0.002398 358.88171 401.00754
425.0 0.002353 358.95605 406.11081
419.0 0.002387 359.03036 411.64392
442.0 0.002262 359.10477 417.83453
462.0 0.002165 359.17911 424.68445
443.0 0.002257 359.25330 431.26892
415.0 0.002410 359.32761 436.19656
413.0 0.002421 359.40176 438.70148
408.0 0.002451 359.47604 439.76065
418.0 0.002392 359.55020 441.04843
438.0 0.002283 359.62433 443.75333
486.0 0.002058 359.69855 447.34216
504.0 0.001984 359.77258 449.60083
443.0 0.002257 359.84665 448.12015
433.0 0.002309 359.92072 442.51569
419.0 0.002387 359.99469 434.38828
422.0 0.002370 360.06876 425.83893
416.0 0.002404 360.14273 418.07993
387.0 0.002584 360.21664 411.63873
402.0 0.002488 360.29059 406.67935
405.0 0.002469 360.36438 403.18884
402.0 0.002488 360.43832 400.62473
404.0 0.002475 360.51212 398.88562
393.0 0.002545 360.58597 397.92181
362.0 0.002762 360.65973 397.67206
402.0 0.002488 360.73334 398.14832
390.0 0.002564 360.80707 399.64575
372.0 0.002688 360.88077 402.68469
387.0 0.002584 360.95441 407.86511
385.0 0.002597 361.02808 415.90002
438.0 0.002283 361.10150 427.74377
443.0 0.002257 361.17508 444.30460
523.0 0.001912 361.24847 466.30832
593.0 0.001686 361.32205 493.61905
637.0 0.001570 361.39548 524.21838
659.0 0.001517 361.46881 553.67346
615.0 0.001626 361.54214 576.34515
638.0 0.001567 361.61545 588.04797
629.0 0.001590 361.68872 587.01300
550.0 0.001818 361.76196 573.02112
503.0 0.001988 361.83505 548.89886
494.0 0.002024 361.90823 520.11652
441.0 0.002268 361.98132 491.97928
435.0 0.002299 362.05441 467.19592
434.0 0.002304 362.12744 447.01663
415.0 0.002410 362.20038 431.54526
418.0 0.002392 362.27335 420.50058
397.0 0.002519 362.34631 413.34293
388.0 0.002577 362.41910 409.37985
406.0 0.002463 362.49191 407.87308
432.0 0.002315 362.56458 408.33087
430.0 0.002326 362.63739 410.15161
429.0 0.002331 362.71002 413.08142
446.0 0.002242 362.78265 417.52573
458.0 0.002183 362.85526 424.40753
454.0 0.002203 362.92776 434.85870
454.0 0.002203 363.00024 449.67111
461.0 0.002169 363.07266 468.82263
521.0 0.001919 363.14511 491.10764
585.0 0.001709 363.21747 514.04089
561.0 0.001783 363.28970 534.17590
545.0 0.001835 363.36197 548.45697
556.0 0.001799 363.43417 553.48175
518.0 0.001931 363.50635 546.50525
502.0 0.001992 363.57846 528.65393
436.0 0.002294 363.65042 505.19592
419.0 0.002387 363.72247 481.87085
387.0 0.002584 363.79437 462.42163
402.0 0.002488 363.86627 448.73090
436.0 0.002294 363.93814 441.44864
450.0 0.002222 364.00980 440.26874
463.0 0.002160 364.08170 444.28949
468.0 0.002137 364.15332 452.12625
519.0 0.001927 364.22501 460.83273
499.0 0.002004 364.29660 466.65448
431.0 0.002320 364.36801 466.02295
424.0 0.002358 364.43954 458.48145
391.0 0.002558 364.51093 447.01120
395.0 0.002532 364.58234 435.08850
402.0 0.002488 364.65366 425.34866
423.0 0.002364 364.72479 418.81631
404.0 0.002475 364.79602 415.78348
409.0 0.002445 364.86716 415.94620
443.0 0.002257 364.93829 418.68228
411.0 0.002433 365.00934 422.92288
404.0 0.002475 365.08020 427.46274
397.0 0.002519 365.15115 430.72238
408.0 0.002451 365.22202 431.00467
403.0 0.002481 365.29282 427.77777
375.0 0.002667 365.36362 422.04556
395.0 0.002532 365.43420 415.57309
390.0 0.002564 365.50485 410.09744
394.0 0.002538 365.57535 406.36533
382.0 0.002618 365.64594 404.97943
378.0 0.002646 365.71634 406.01047
421.0 0.002375 365.78671 409.20950
434.0 0.002304 365.85703 413.92346
434.0 0.002304 365.92722 418.92404
408.0 0.002451 365.99756 422.48029
421.0 0.002375 366.06766 423.21567
422.0 0.002370 366.13763 421.30350
414.0 0.002415 366.20773 418.28452
413.0 0.002421 366.27768 415.77084
404.0 0.002475 366.34753 414.94592
408.0 0.002451 366.41742 416.43381
412.0 0.002427 366.48715 420.06216
406.0 0.002463 366.55682 426.45023
418.0 0.002392 366.62650 434.82510
438.0 0.002283 366.69614 444.13879
457.0 0.002188 366.76556 453.13028
469.0 0.002132 366.83499 461.18277
479.0 0.002088 366.90451 468.14355
459.0 0.002179 366.97372 473.20444
470.0 0.002128 367.04306 475.71674
467.0 0.002141 367.11227 474.58963
457.0 0.002188 367.18134 468.61679
444.0 0.002252 367.25040 458.04187
422.0 0.002370 367.31934 445.47107
437.0 0.002288 367.38843 433.77789
409.0 0.002445 367.45728 424.80740
401.0 0.002494 367.52606 419.23178
398.0 0.002513 367.59488 417.28766
418.0 0.002392 367.66348 418.67337
441.0 0.002268 367.73215 422.81171
452.0 0.002212 367.80072 428.67355
456.0 0.002193 367.86917 434.72742
471.0 0.002123 367.93753 439.65738
464.0 0.002155 368.00586 442.29321
429.0 0.002331 368.07422 442.42560
441.0 0.002268 368.14246 441.01602
428.0 0.002336 368.21057 439.41925
425.0 0.002353 368.27875 437.91754
435.0 0.002299 368.34665 436.47296
428.0 0.002336 368.41470 435.09811
416.0 0.002404 368.48264 434.08948
465.0 0.002151 368.55035 433.63654
423.0 0.002364 368.61816 433.50504
392.0 0.002551 368.68585 433.34116
459.0 0.002179 368.75360 432.38644
407.0 0.002457 368.82111 429.67624
390.0 0.002564 368.88852 424.64731
397.0 0.002519 368.95602 418.52026
394.0 0.002538 369.02341 412.47824
390.0 0.002564 369.09073 407.46896
404.0 0.002475 369.15793 404.03168
398.0 0.002513 369.22507 402.34433
412.0 0.002427 369.29221 402.47864
423.0 0.002364 369.35925 404.28348
451.0 0.002217 369.42621 407.48141
460.0 0.002174 369.49316 411.36249
437.0 0.002288 369.55994 415.44321
412.0 0.002427 369.62677 419.33688
436.0 0.002294 369.69342 423.04980
426.0 0.002347 369.76013 426.92462
413.0 0.002421 369.82678 431.63733
459.0 0.002179 369.89313 436.89224
461.0 0.002169 369.95963 441.63757
438.0 0.002283 370.02600 443.97491
436.0 0.002294 370.09235 442.11298
434.0 0.002304 370.15866 436.01773
440.0 0.002273 370.22476 427.61029
397.0 0.002519 370.29086 419.04837
403.0 0.002481 370.35703 411.78464
391.0 0.002558 370.42300 406.37570
388.0 0.002577 370.48898 402.85330
414.0 0.002415 370.55478 401.35745
410.0 0.002439 370.62061 401.41190
415.0 0.002410 370.68637 402.87408
409.0 0.002445 370.75201 405.58133
427.0 0.002342 370.81763 409.38101
427.0 0.002342 370.88315 413.91077
433.0 0.002309 370.94870 418.43900
441.0 0.002268 371.01407 422.06897
441.0 0.002268 371.07956 424.42111
442.0 0.002262 371.14481 426.52432
419.0 0.002387 371.21002 429.38455
446.0 0.002242 371.27521 433.98422
486.0 0.002058 371.34033 440.10263
456.0 0.002193 371.40536 446.40674
442.0 0.002262 371.47046 450.91293
434.0 0.002304 371.53531 451.88971
418.0 0.002392 371.60025 448.91544
434.0 0.002304 371.66498 442.92465
426.0 0.002347 371.72977 434.60980
418.0 0.002392 371.79456 425.28653
406.0 0.002463 371.85910 416.40256
398.0 0.002513 371.92374 408.91550
400.0 0.002500 371.98822 403.22400
429.0 0.002331 372.05273 399.33066
404.0 0.002475 372.11713 397.07236
390.0 0.002564 372.18140 396.19882
410.0 0.002439 372.24576 396.54651
417.0 0.002398 372.30994 397.85803
408.0 0.002451 372.37418 400.31317
420.0 0.002381 372.43832 403.80182
426.0 0.002347 372.50232 408.16467
419.0 0.002387 372.56638 413.16519
415.0 0.002410 372.63031 418.41748
440.0 0.002273 372.69427 423.90103
457.0 0.002188 372.75815 429.88190
475.0 0.002105 372.82187 436.06161
427.0 0.002342 372.88562 441.56940
418.0 0.002392 372.94931 445.06708
417.0 0.002398 373.01300 445.92038
445.0 0.002247 373.07660 444.28326
401.0 0.002494 373.14011 440.97067
423.0 0.002364 373.20355 437.47513
428.0 0.002336 373.26706 435.03937
428.0 0.002336 373.33044 434.70071
446.0 0.002242 373.39380 437.11261
490.0 0.002041 373.45706 442.29428
495.0 0.002020 373.52036 449.46985
496.0 0.002016 373.58353 456.93021
509.0 0.001965 373.64667 462.64215
505.0 0.001980 373.70993 465.26819
468.0 0.002137 373.77280 464.55167
431.0 0.002320 373.83600 460.93356
433.0 0.002309 373.89886 455.31424
423.0 0.002364 373.96182 448.55954
428.0 0.002336 374.02472 441.56110
436.0 0.002294 374.08749 434.94550
419.0 0.002387 374.15036 429.21634
404.0 0.002475 374.21313 424.85516
407.0 0.002457 374.27585 422.35150
416.0 0.002404 374.33853 421.74063
410.0 0.002439 374.40115 423.06223
422.0 0.002370 374.46384 425.59653
419.0 0.002387 374.52631 428.77554
421.0 0.002375 374.58899 432.41122
450.0 0.002222 374.65143 436.46198
474.0 0.002110 374.71384 440.41714
459.0 0.002179 374.77621 443.11566
432.0 0.002315 374.83871 443.57104
421.0 0.002375 374.90112 442.10590
411.0 0.002433 374.96338 440.18546
440.0 0.002273 375.02570 439.15326
427.0 0.002342 375.08795 439.47003
416.0 0.002404 375.15018 440.62286
448.0 0.002232 375.21246 441.89142
425.0 0.002353 375.27469 442.45096
401.0 0.002494 375.33673 442.22156
429.0 0.002331 375.39886 441.57040
434.0 0.002304 375.46097 441.13712
460.0 0.002174 375.52307 441.55841
408.0 0.002451 375.58524 443.33090
471.0 0.002123 375.64719 446.63165
499.0 0.002004 375.70923 451.23071
522.0 0.001916 375.77124 456.36404
481.0 0.002079 375.83313 460.96521
470.0 0.002128 375.89514 464.45154
487.0 0.002053 375.95709 467.66537
452.0 0.002212 376.01895 472.31592
489.0 0.002045 376.08087 479.64151
563.0 0.001776 376.14288 489.75754
584.0 0.001712 376.20468 501.24469
546.0 0.001832 376.26642 510.92484
578.0 0.001730 376.32837 514.65387
484.0 0.002066 376.39023 509.74063
467.0 0.002141 376.45206 496.90817
450.0 0.002222 376.51392 479.78091
413.0 0.002421 376.57568 462.01727
376.0 0.002660 376.63748 446.03976
403.0 0.002481 376.69928 433.04153
413.0 0.002421 376.76114 423.19055
393.0 0.002545 376.82297 416.25778
389.0 0.002571 376.88470 411.72998
415.0 0.002410 376.94647 409.12552
401.0 0.002494 377.00830 408.02222
424.0 0.002358 377.07004 408.07669
427.0 0.002342 377.13190 409.10156
421.0 0.002375 377.19360 411.03979
415.0 0.002410 377.25546 413.78821
449.0 0.002227 377.31726 416.98694
444.0 0.002252 377.37912 420.03677
431.0 0.002320 377.44095 422.44550
419.0 0.002387 377.50272 424.36993
432.0 0.002315 377.56461 426.56705
457.0 0.002188 377.62643 429.55228
463.0 0.002160 377.68835 433.54019
436.0 0.002294 377.75024 437.96909
434.0 0.002304 377.81204 441.66586
453.0 0.002208 377.87402 443.06729
449.0 0.002227 377.93600 440.95160
404.0 0.002475 377.99799 435.51685
420.0 0.002381 378.05994 427.92508
430.0 0.002326 378.12186 419.84500
421.0 0.002375 378.18399 412.35147
421.0 0.002375 378.24603 406.11475
405.0 0.002469 378.30814 401.34579
362.0 0.002762 378.37024 397.95764
386.0 0.002591 378.43237 395.79996
400.0 0.002500 378.49448 394.63370
401.0 0.002494 378.55673 394.20450
400.0 0.002500 378.61902 394.24753
407.0 0.002457 378.68134 394.50134
409.0 0.002445 378.74356 394.87900
376.0 0.002660 378.80594 395.33426
361.0 0.002770 378.86835 395.76437
403.0 0.002481 378.93088 396.10489
395.0 0.002532 378.99335 396.42966
409.0 0.002445 379.05582 396.78415
385.0 0.002597 379.11844 397.33328
382.0 0.002618 379.18106 398.03372
374.0 0.002674 379.24380 398.58951
408.0 0.002451 379.30643 398.67148
374.0 0.002674 379.36914 398.06161
403.0 0.002481 379.43213 396.91037
400.0 0.002500 379.49493 395.49503
400.0 0.002500 379.55798 394.11237
379.0 0.002639 379.62094 392.88983
417.0 0.002398 379.68399 391.99838
370.0 0.002703 379.74719 391.23837
355.0 0.002817 379.81036 390.85519
393.0 0.002545 379.87372 390.78125
388.0 0.002577 379.93701 391.12015
367.0 0.002725 380.00037 391.98517
382.0 0.002618 380.06396 393.42972
416.0 0.002404 380.12744 395.48273
412.0 0.002427 380.19116 398.06042
390.0 0.002564 380.25488 400.96136
416.0 0.002404 380.31860 403.64319
454.0 0.002203 380.38254 405.49692
378.0 0.002646 380.44647 405.93100
390.0 0.002564 380.51062 404.92126
392.0 0.002551 380.57477 403.01221
401.0 0.002494 380.63895 400.80014
415.0 0.002410 380.70328 398.77054
396.0 0.002525 380.76767 397.16342
377.0 0.002653 380.83221 395.92902
385.0 0.002597 380.89691 395.11328
402.0 0.002488 380.96158 394.46835
384.0 0.002604 381.02640 393.92288
374.0 0.002674 381.09134 393.56403
379.0 0.002639 381.15640 393.48743
373.0 0.002681 381.22153 393.78204
383.0 0.002611 381.28677 394.47299
396.0 0.002525 381.35220 395.72412
403.0 0.002481 381.41766 397.38712
404.0 0.002475 381.48322 399.60864
399.0 0.002506 381.54898 402.10019
392.0 0.002551 381.61478 404.52997
408.0 0.002451 381.68085 406.54462
435.0 0.002299 381.74680 407.80441
414.0 0.002415 381.81317 408.38647
406.0 0.002463 381.87952 408.43863
403.0 0.002481 381.94592 408.05804
411.0 0.002433 382.01254 407.34232
406.0 0.002463 382.07932 406.27884
392.0 0.002551 382.14627 404.92758
378.0 0.002646 382.21332 403.48471
388.0 0.002577 382.28043 402.29922
393.0 0.002545 382.34784 401.68521
429.0 0.002331 382.41528 401.87802
430.0 0.002326 382.48294 403.06546
442.0 0.002262 382.55075 405.33365
428.0 0.002336 382.61868 408.75082
425.0 0.002353 382.68683 413.17767
458.0 0.002183 382.75500 418.22025
474.0 0.002110 382.82355 423.16898
467.0 0.002141 382.89212 427.15259
467.0 0.002141 382.96091 429.51437
438.0 0.002283 383.02985 430.17203
439.0 0.002278 383.09891 429.14728
411.0 0.002433 383.16827 427.22534
420.0 0.002381 383.23776 425.16092
412.0 0.002427 383.30731 423.69638
424.0 0.002358 383.37723 423.07220
422.0 0.002370 383.44724 423.08264
402.0 0.002488 383.51752 423.16592
412.0 0.002427 383.58795 422.71890
415.0 0.002410 383.65848 421.21109
437.0 0.002288 383.72937 418.42899
421.0 0.002375 383.80038 414.75256
379.0 0.002639 383.87167 410.83368
377.0 0.002653 383.94305 407.25589
420.0 0.002381 384.01462 404.41101
420.0 0.002381 384.08652 402.34332
400.0 0.002500 384.15860 401.12683
427.0 0.002342 384.23087 400.74307
426.0 0.002347 384.30344 401.21518
407.0 0.002457 384.37613 402.47684
430.0 0.002326 384.44913 404.55173
435.0 0.002299 384.52228 407.42548
413.0 0.002421 384.59576 411.01767
412.0 0.002427 384.66940 415.12436
426.0 0.002347 384.74323 419.48691
434.0 0.002304 384.81747 423.93738
456.0 0.002193 384.89182 428.46573
456.0 0.002193 384.96649 433.18893
473.0 0.002114 385.04141 438.16333
528.0 0.001894 385.11652 443.36115
508.0 0.001969 385.19202 448.32086
488.0 0.002049 385.26764 451.99002
473.0 0.002114 385.34357 453.23880
454.0 0.002203 385.41980 451.64835
467.0 0.002141 385.49619 447.88046
451.0 0.002217 385.57300 443.05121
443.0 0.002257 385.64993 438.19156
435.0 0.002299 385.72736 433.93695
431.0 0.002320 385.80493 430.79056
448.0 0.002232 385.88275 428.86624
479.0 0.002088 385.96094 427.77606
471.0 0.002123 386.03943 426.82880
430.0 0.002326 386.11823 425.06168
429.0 0.002331 386.19730 422.14197
390.0 0.002564 386.27661 418.46765
392.0 0.002551 386.35629 414.67072
393.0 0.002545 386.43625 411.35742
359.0 0.002786 386.51660 408.80975
389.0 0.002571 386.59726 407.22043
403.0 0.002481 386.67813 406.77222
402.0 0.002488 386.75943 407.41205
395.0 0.002532 386.84094 409.27982
401.0 0.002494 386.92294 412.39514
388.0 0.002577 387.00528 416.77298
452.0 0.002212 387.08783 422.29901
458.0 0.002183 387.17084 428.66833
439.0 0.002278 387.25403 435.19800
431.0 0.002320 387.33774 440.93439
425.0 0.002353 387.42175 444.76471
459.0 0.002179 387.50604 446.35904
433.0 0.002309 387.59088 446.21680
436.0 0.002294 387.67587 445.20291
460.0 0.002174 387.76138 443.75644
460.0 0.002174 387.84726 441.70694
433.0 0.002309 387.93338 438.91785
437.0 0.002288 388.02002 435.72086
427.0 0.002342 388.10699 432.66299
425.0 0.002353 388.19443 430.12820
439.0 0.002278 388.28217 428.07980
435.0 0.002299 388.37024 426.35742
382.0 0.002618 388.45889 424.97821
424.0 0.002358 388.54773 424.16019
421.0 0.002375 388.63724 424.09015
434.0 0.002304 388.72705 424.69894
448.0 0.002232 388.81714 425.66229
423.0 0.002364 388.90790 426.43533
419.0 0.002387 388.99884 426.60544
417.0 0.002398 389.09042 426.31326
444.0 0.002252 389.18234 426.00165
447.0 0.002237 389.27457 426.34103
431.0 0.002320 389.36746 427.50024
470.0 0.002128 389.46066 429.42062
463.0 0.002160 389.55444 431.56699
446.0 0.002242 389.64859 433.18436
436.0 0.002294 389.74313 433.74594
431.0 0.002320 389.83826 433.27591
436.0 0.002294 389.93375 432.41806
435.0 0.002299 390.02985 431.89655
447.0 0.002237 390.12634 432.08377
474.0 0.002110 390.22324 432.99924
443.0 0.002257 390.32077 434.37738
423.0 0.002364 390.41873 435.98679
437.0 0.002288 390.51718 437.74881
438.0 0.002283 390.61621 439.65323
433.0 0.002309 390.71558 441.61423
420.0 0.002381 390.81552 443.35226
423.0 0.002364 390.91611 444.52225
454.0 0.002203 391.01709 444.91223
440.0 0.002273 391.11865 444.99423
429.0 0.002331 391.22061 444.88718
410.0 0.002439 391.32327 444.66501
419.0 0.002387 391.42630 443.87671
441.0 0.002268 391.53000 442.13220
438.0 0.002283 391.63431 439.51953
426.0 0.002347 391.73895 436.49738
414.0 0.002415 391.84433 433.56918
444.0 0.002252 391.95016 430.91339
453.0 0.002208 392.05667 428.59119
413.0 0.002421 392.16376 426.60321
427.0 0.002342 392.27124 424.97501
411.0 0.002433 392.37943 423.50024
423.0 0.002364 392.48813 422.18686
379.0 0.002639 392.59760 421.06696
389.0 0.002571 392.70758 420.59207
413.0 0.002421 392.81805 420.85553
405.0 0.002469 392.92929 421.99268
444.0 0.002252 393.04095 423.95404
424.0 0.002358 393.15341 426.58157
445.0 0.002247 393.26639 429.61972
434.0 0.002304 393.37994 432.55917
438.0 0.002283 393.49432 435.08377
434.0 0.002304 393.60916 437.09390
424.0 0.002358 393.72476 438.85757
441.0 0.002268 393.84103 440.44064
455.0 0.002198 393.95776 441.97284
423.0 0.002364 394.07532 443.50784
430.0 0.002326 394.19342 445.13992
478.0 0.002092 394.31247 446.64661
428.0 0.002336 394.43195 448.08081
457.0 0.002188 394.55197 449.65775
471.0 0.002123 394.67297 451.67523
481.0 0.002079 394.79456 454.16183
513.0 0.001949 394.91693 456.65720
461.0 0.002169 395.03998 458.37723
437.0 0.002288 395.16357 458.75912
457.0 0.002188 395.28793 458.15591
444.0 0.002252 395.41309 457.46075
436.0 0.002294 395.53897 457.53827
443.0 0.002257 395.66556 458.57919
453.0 0.002208 395.79279 460.24893
438.0 0.002283 395.92090 461.74500
414.0 0.002415 396.04971 462.19244
432.0 0.002315 396.17935 461.27347
432.0 0.002315 396.30972 459.05270
425.0 0.002353 396.44070 455.79694
457.0 0.002188 396.57272 451.53937
433.0 0.002309 396.70526 446.57443
412.0 0.002427 396.83884 441.36371
425.0 0.002353 396.97299 436.45609
407.0 0.002457 397.10788 432.35004
425.0 0.002353 397.24387 429.23532
438.0 0.002283 397.38040 427.14807
419.0 0.002387 397.51801 425.95688
409.0 0.002445 397.65625 425.45975
427.0 0.002342 397.79523 425.43130
431.0 0.002320 397.93530 425.77106
431.0 0.002320 398.07599 426.57928
478.0 0.002092 398.21777 427.90405
474.0 0.002110 398.36017 429.73502
454.0 0.002203 398.50345 431.85266
430.0 0.002326 398.64767 433.98669
430.0 0.002326 398.79272 435.78467
450.0 0.002222 398.93878 437.33002
455.0 0.002198 399.08563 438.96686
465.0 0.002151 399.23322 441.23633
486.0 0.002058 399.38190 444.35355
482.0 0.002075 399.53137 448.28125
477.0 0.002096 399.68198 452.59866
464.0 0.002155 399.83337 456.70053
446.0 0.002242 399.98547 460.08539
441.0 0.002268 400.13882 462.40408
441.0 0.002268 400.29291 463.76352
438.0 0.002283 400.44812 464.64838
448.0 0.002232 400.60425 465.88828
484.0 0.002066 400.76105 468.26239
474.0 0.002110 400.91913 472.23993
508.0 0.001969 401.07809 477.70679
520.0 0.001923 401.23801 483.98129
516.0 0.001938 401.39899 490.07941
558.0 0.001792 401.56079 495.04358
531.0 0.001883 401.72375 498.01297
544.0 0.001838 401.88766 497.95316
516.0 0.001938 402.05264 494.17996
462.0 0.002165 402.21866 487.07748
441.0 0.002268 402.38553 478.19400
455.0 0.002198 402.55365 469.29703
472.0 0.002119 402.72269 461.71396
477.0 0.002096 402.89291 456.10071
450.0 0.002222 403.06400 452.61426
451.0 0.002217 403.23605 450.95499
433.0 0.002309 403.40952 450.56866
430.0 0.002326 403.58380 450.62079
456.0 0.002193 403.75952 450.41077
440.0 0.002273 403.93604 449.73178
453.0 0.002208 404.11353 448.96585
450.0 0.002222 404.29242 448.52328
435.0 0.002299 404.47226 448.71432
435.0 0.002299 404.65341 449.45068
465.0 0.002151 404.83557 450.51089
487.0 0.002053 405.01865 451.67795
459.0 0.002179 405.20334 453.00601
433.0 0.002309 405.38873 454.49997
478.0 0.002092 405.57571 456.23810
505.0 0.001980 405.76361 458.25659
468.0 0.002137 405.95248 460.51175
473.0 0.002114 406.14301 462.90640
483.0 0.002070 406.33444 465.10352
469.0 0.002132 406.52725 466.69263
475.0 0.002105 406.72116 467.41388
469.0 0.002132 406.91605 466.84702
471.0 0.002123 407.11258 464.87061
458.0 0.002183 407.31003 461.80655
445.0 0.002247 407.50909 458.38571
442.0 0.002262 407.70926 455.52582
442.0 0.002262 407.91037 453.53195
460.0 0.002174 408.11301 452.38699
442.0 0.002262 408.31680 451.70993
409.0 0.002445 408.52213 451.02676
417.0 0.002398 408.72867 449.95700
423.0 0.002364 408.93622 448.28122
408.0 0.002451 409.14542 445.85989
415.0 0.002410 409.35577 443.04291
446.0 0.002242 409.56754 440.22025
450.0 0.002222 409.78067 437.82120
429.0 0.002331 409.99484 436.06631
458.0 0.002183 410.21069 435.00385
443.0 0.002257 410.42776 434.61465
429.0 0.002331 410.64630 434.79263
410.0 0.002439 410.86624 435.39200
433.0 0.002309 411.08728 436.29410
441.0 0.002268 411.31006 437.40869
419.0 0.002387 411.53397 438.71930
411.0 0.002433 411.75955 440.30490
457.0 0.002188 411.98645 442.23392
462.0 0.002165 412.21451 444.60245
466.0 0.002146 412.44440 447.19263
401.0 0.002494 412.67548 449.93393
467.0 0.002141 412.90829 452.64484
441.0 0.002268 413.14243 455.24564
460.0 0.002174 413.37778 457.82776
475.0 0.002105 413.61502 460.45834
494.0 0.002024 413.85349 463.17200
511.0 0.001957 414.09372 465.61234
503.0 0.001988 414.33527 467.31128
473.0 0.002114 414.57809 467.76086
508.0 0.001969 414.82300 466.84604
435.0 0.002299 415.06894 465.03397
400.0 0.002500 415.31696 463.05634
441.0 0.002268 415.56616 461.64514
443.0 0.002257 415.81674 461.15781
480.0 0.002083 416.06937 461.68484
472.0 0.002119 416.32324 462.78928
465.0 0.002151 416.57907 463.88507
481.0 0.002079 416.83643 464.25818
459.0 0.002179 417.09488 463.70081
428.0 0.002336 417.35547 462.43307
434.0 0.002304 417.61743 461.11346
438.0 0.002283 417.88138 460.22568
471.0 0.002123 418.14685 459.92349
504.0 0.001984 418.41370 459.97406
468.0 0.002137 418.68259 460.15720
446.0 0.002242 418.95291 459.90234
459.0 0.002179 419.22519 459.56400
453.0 0.002208 419.49905 459.32632
432.0 0.002315 419.77432 459.43579
426.0 0.002347 420.05170 460.12671
462.0 0.002165 420.33069 461.53336
478.0 0.002092 420.61154 463.83585
454.0 0.002203 420.89410 467.25250
488.0 0.002049 421.17804 471.95215
529.0 0.001890 421.46432 477.99152
519.0 0.001927 421.75201 485.19559
518.0 0.001931 422.04193 493.12665
525.0 0.001905 422.33325 501.39200
523.0 0.001912 422.62631 509.45673
511.0 0.001957 422.92157 516.91681
526.0 0.001901 423.21838 523.18268
542.0 0.001845 423.51743 527.50793
527.0 0.001898 423.81802 529.07050
523.0 0.001912 424.12018 527.37891
519.0 0.001927 424.42480 522.64929
516.0 0.001938 424.73090 515.59723
470.0 . . .
loop_
_refln_index_h
_refln_index_k
_refln_index_l
_pd_refln_wavelength_id
_refln_observed_status
_refln_F_squared_meas
_refln_F_squared_calc
_refln_phase_calc
_refln_d_spacing
_gsas_i100_meas
0 2 0 1 o 40888.57 37903.25 0.00 6.67884 14.63
0 2 0 2 o 40395.94 37903.25 0.00 6.67884 7.18
1 1 1 1 o 18532.182 17948.775 0.00 6.04314 18.66
1 1 1 2 o 17882.070 17948.775 0.00 6.04314 8.92
2 0 0 1 o 527.392 594.370 180.00 4.80994 0.00
2 0 0 2 o 527.392 594.370 180.00 4.80994 0.00
0 0 2 1 o 31784.432 35166.22 0.00 4.77336 3.54
0 0 2 2 o 32945.031 35166.22 0.00 4.77336 1.86
1 2 1 1 o 6023.124 6386.450 0.00 4.75672 2.16
1 2 1 2 o 5753.895 6386.450 0.00 4.75672 0.98
2 1 0 1 o 156867.09 157899.08 180.00 4.52548 39.95
2 1 0 2 o 153839.41 157899.08 180.00 4.52548 19.42
1 0 2 1 o 221428.58 225311.59 0.00 4.27590 50.33
1 0 2 2 o 216446.80 225311.59 0.00 4.27590 24.39
2 1 1 1 o 120985.77 115749.38 0.00 4.08929 51.80
2 1 1 2 o 119547.67 115749.38 0.00 4.08929 25.42
1 1 2 1 o 123193.95 120146.12 0.00 4.07235 52.08
1 1 2 2 o 118771.53 120146.12 0.00 4.07235 24.84
0 3 1 1 o 425301.8 438415.8 180.00 4.03525 100.00
0 3 1 2 o 429012.3 438415.8 180.00 4.03525 50.25
2 2 0 1 o 86320.38 80418.79 180.00 3.90311 17.34
2 2 0 2 o 83081.29 80418.79 180.00 3.90311 8.25
0 2 2 1 o 51579.30 51422.16 0.00 3.88348 10.16
0 2 2 2 o 52260.99 51422.16 0.00 3.88348 5.13
1 3 1 1 o 82059.84 77126.60 180.00 3.72113 32.77
1 3 1 2 o 80910.55 77126.60 180.00 3.72113 16.04
2 2 1 1 o 180670.47 176406.09 180.00 3.61282 61.72
2 2 1 2 o 178976.52 176406.09 180.00 3.61282 30.37
1 2 2 1 o 527.634 539.165 0.00 3.60112 0.19
1 2 2 2 o 728.424 539.165 0.00 3.60112 0.13
2 0 2 1 o 150455.78 141075.09 180.00 3.38813 22.78
2 0 2 2 o 151886.92 141075.09 180.00 3.38813 11.45
0 4 0 1 o 146258.70 137731.45 180.00 3.33942 13.23
0 4 0 2 o 144002.38 137731.45 180.00 3.33942 6.48
2 1 2 1 o 11895.323 12865.557 180.00 3.28413 3.32
2 1 2 2 o 11878.844 12865.557 180.00 3.28413 1.65
2 3 0 1 o 38132.89 41969.60 180.00 3.26748 5.28
2 3 0 2 o 31888.621 41969.60 180.00 3.26748 2.10
0 1 3 1 o 146188.84 146341.73 180.00 3.09560 17.11
2 3 1 1 o 40930.30 40378.57 0.00 3.09142 10.41
0 1 3 2 o 150615.81 146341.73 180.00 3.09560 8.81
1 3 2 1 o 28536.998 26925.652 0.00 3.08408 7.26
2 3 1 2 o 42844.47 40378.57 0.00 3.09142 5.46
1 3 2 2 o 29522.010 26925.652 0.00 3.08408 3.76
2 2 2 1 o 59561.77 57212.49 180.00 3.02157 13.66
2 2 2 2 o 57386.86 57212.49 180.00 3.02157 6.51
1 4 1 1 o 17411.705 17748.549 180.00 2.99543 4.53
1 4 1 2 o 17914.582 17748.549 180.00 2.99543 2.33
3 1 1 1 o 64416.13 63281.96 0.00 2.96396 14.16
3 1 1 2 o 63443.52 63281.96 0.00 2.96396 6.92
1 1 3 1 o 164.152 510.194 0.00 2.94679 0.00
1 1 3 2 o 164.152 510.194 0.00 2.94679 0.00
3 2 1 1 o 30917.697 29979.250 180.00 2.76666 6.07
3 2 1 2 o 29580.699 29979.250 180.00 2.76666 2.87
1 2 3 1 o 116613.12 122590.59 0.00 2.75269 22.13
1 2 3 2 o 117724.45 122590.59 0.00 2.75269 11.13
2 4 0 1 o 99098.45 100696.85 180.00 2.74312 10.23
2 4 0 2 o 99488.43 100696.85 180.00 2.74312 5.11
0 4 2 1 o 31541.877 31934.234 0.00 2.73628 3.39
0 4 2 2 o 29667.705 31934.234 0.00 2.73628 1.58
2 3 2 1 o 2116.167 3595.258 180.00 2.69628 0.40
2 3 2 2 o 2141.957 3595.258 180.00 2.69628 0.20
3 0 2 1 o 86772.41 79910.70 0.00 2.66178 7.20
3 0 2 2 o 85266.23 79910.70 0.00 2.66178 3.51
2 4 1 1 o 23425.381 22591.436 0.00 2.63644 4.28
1 4 2 1 o 30402.922 29675.340 180.00 2.63188 5.53
2 4 1 2 o 23028.301 22591.436 0.00 2.63644 2.09
1 4 2 2 o 30828.383 29675.340 180.00 2.63188 2.80
3 1 2 1 o 25456.986 25580.844 180.00 2.61046 3.96
3 1 2 2 o 26123.797 25580.844 180.00 2.61046 2.03
2 1 3 1 o 26937.240 26579.895 0.00 2.60309 4.25
2 1 3 2 o 26554.928 26579.895 0.00 2.60309 2.08
0 3 3 1 o 43.646 38.034 0.00 2.58899 0.00
0 3 3 2 o 56.741 38.034 0.00 2.58899 0.00
0 5 1 1 o 59016.93 58894.48 180.00 2.57270 5.25
0 5 1 2 o 56728.01 58894.48 180.00 2.57270 2.49
3 3 1 1 o 29012.053 26942.471 180.00 2.51049 4.53
3 3 1 2 o 27195.877 26942.471 180.00 2.51049 2.09
1 3 3 1 o 114223.91 114712.61 180.00 2.50003 17.42
1 3 3 2 o 113532.96 114712.61 180.00 2.50003 8.60
1 5 1 1 o 5995.946 6082.087 180.00 2.48536 1.03
1 5 1 2 o 6261.252 6082.087 180.00 2.48536 0.54
3 2 2 1 o 17580.998 18128.168 180.00 2.47264 2.42
3 2 2 2 o 17950.113 18128.168 180.00 2.47264 1.24
2 2 3 1 o 26078.738 26323.260 0.00 2.46638 3.58
2 2 3 2 o 25544.648 26323.260 0.00 2.46638 1.73
4 0 0 1 o 13833.563 16472.867 180.00 2.40497 0.37
4 0 0 2 o 17807.594 16472.867 180.00 2.40497 0.26
0 0 4 1 o 45604.85 45136.97 180.00 2.38668 1.42
0 0 4 2 o 43847.49 45136.97 180.00 2.38668 0.67
2 4 2 1 o 26055.338 26511.283 180.00 2.37836 3.38
2 4 2 2 o 26174.063 26511.283 180.00 2.37836 1.69
4 1 0 1 o 14359.658 12462.660 180.00 2.36691 0.94
4 1 0 2 o 15159.688 12462.660 180.00 2.36691 0.50
2 5 0 1 o 159199.56 141035.83 0.00 2.33548 11.55
2 5 0 2 o 156113.78 141035.83 0.00 2.33548 5.61
1 0 4 1 o 34180.082 29657.705 0.00 2.31645 2.00
1 0 4 2 o 35499.77 29657.705 0.00 2.31645 1.04
4 1 1 1 o 157939.67 148450.02 180.00 2.29736 19.18
4 1 1 2 o 154469.69 148450.02 180.00 2.29736 9.29
3 3 2 1 o 25790.088 22384.211 180.00 2.28466 3.53
1 1 4 1 o 2528.062 2325.498 0.00 2.28239 0.26
2 3 3 1 o 30241.199 27176.908 0.00 2.27972 3.65
3 3 2 2 o 25563.494 22384.211 180.00 2.28466 1.74
1 1 4 2 o 2563.821 2325.498 0.00 2.28239 0.13
2 3 3 2 o 30420.973 27176.908 0.00 2.27972 1.83
2 5 1 1 o 36957.05 35566.54 0.00 2.26858 4.98
1 5 2 1 o 57912.25 58675.75 180.00 2.26567 7.34
4 2 0 1 o 70288.05 71876.47 0.00 2.26274 4.05
2 5 1 2 o 34759.773 35566.54 0.00 2.26858 2.30
1 5 2 2 o 57123.67 58675.75 180.00 2.26567 3.59
4 2 0 2 o 72286.60 71876.47 0.00 2.26274 2.09
3 4 1 1 o 4765.164 4256.125 0.00 2.24792 0.61
0 2 4 1 o 64697.50 57948.03 0.00 2.24749 3.86
3 4 1 2 o 4574.078 4256.125 0.00 2.24792 0.29
0 2 4 2 o 62268.11 57948.03 0.00 2.24749 1.83
1 4 3 1 o 17809.471 16819.846 180.00 2.24040 2.23
1 4 3 2 o 18967.832 16819.846 180.00 2.24040 1.20
3 1 3 1 o 61408.89 56974.27 0.00 2.22714 6.64
0 6 0 1 o 192875.92 177534.27 0.00 2.22628 6.53
3 1 3 2 o 60964.54 56974.27 0.00 2.22714 3.27
0 6 0 2 o 195138.16 177534.27 0.00 2.22628 3.29
4 2 1 1 o 17783.566 16572.434 180.00 2.20174 2.11
4 2 1 2 o 17244.992 16572.434 180.00 2.20174 1.01
1 2 4 1 o 9830.950 11214.828 0.00 2.18855 1.03
1 2 4 2 o 7973.336 11214.828 0.00 2.18855 0.39
4 0 2 1 o -431.689 99.012 180.00 2.14777 0.00
4 0 2 2 o -192.603 99.012 180.00 2.14777 0.01
3 2 3 1 o 2569.784 2701.327 180.00 2.13970 0.13
2 0 4 1 o 9839.618 9842.011 180.00 2.13795 0.37
3 2 3 2 o 2480.838 2701.327 180.00 2.13970 0.06
2 0 4 2 o 7965.235 9842.011 180.00 2.13795 0.13
4 1 2 1 o 4338.013 4826.962 180.00 2.12053 0.52
4 3 0 1 o 1382.224 1324.111 180.00 2.11603 0.06
4 1 2 2 o 5011.762 4826.962 180.00 2.12053 0.30
1 6 1 1 o 126.662 125.263 180.00 2.11506 0.01
2 1 4 1 o 102353.77 103846.59 0.00 2.11108 10.50
4 3 0 2 o 1304.675 1324.111 180.00 2.11603 0.03
1 6 1 2 o 123.909 125.263 180.00 2.11506 0.00
2 1 4 2 o 101012.95 103846.59 0.00 2.11108 5.14
2 5 2 1 o 19734.088 15754.015 0.00 2.09784 2.45
2 5 2 2 o 19889.119 15754.015 0.00 2.09784 1.23
3 4 2 1 o 105868.20 107702.61 180.00 2.08146 10.71
2 4 3 1 o 7185.645 7725.525 180.00 2.07773 0.74
3 4 2 2 o 102610.03 107702.61 180.00 2.08146 5.12
2 4 3 2 o 7538.465 7725.525 180.00 2.07773 0.39
4 3 1 1 o 4814.685 5869.959 0.00 2.06589 0.47
4 3 1 2 o 4733.104 5869.959 0.00 2.06589 0.23
1 3 4 1 o 3241.873 2922.339 0.00 2.05498 0.33
1 3 4 2 o 3328.500 2922.339 0.00 2.05498 0.17
0 5 3 1 o 35790.23 34512.785 180.00 2.04610 2.00
4 2 2 1 o 47511.11 45140.61 0.00 2.04465 4.59
0 5 3 2 o 33323.453 34512.785 180.00 2.04610 0.92
4 2 2 2 o 46203.85 45140.61 0.00 2.04465 2.21
2 2 4 1 o 17814.623 16934.564 180.00 2.03617 1.68
2 2 4 2 o 17781.092 16934.564 180.00 2.03617 0.83
2 6 0 1 o 40905.39 37218.04 180.00 2.02036 2.32
0 6 2 1 o 64400.78 61865.93 0.00 2.01763 3.52
2 6 0 2 o 36001.19 37218.04 180.00 2.02036 0.99
3 3 3 1 o 14248.141 14968.479 180.00 2.01438 1.20
0 6 2 2 o 60241.10 61865.93 0.00 2.01763 1.62
3 3 3 2 o 14082.062 14968.479 180.00 2.01438 0.59
3 5 1 1 o 874.952 745.638 180.00 2.00668 0.11
3 5 1 2 o 797.618 745.638 180.00 2.00668 0.05
1 5 3 1 o 19716.264 18812.080 180.00 2.00133 1.94
1 5 3 2 o 18078.682 18812.080 180.00 2.00133 0.87
2 6 1 1 o 69209.67 64950.81 0.00 1.97659 7.24
1 6 2 1 o 65906.20 62360.72 0.00 1.97466 6.82
2 6 1 2 o 65698.41 64950.81 0.00 1.97659 3.39
1 6 2 2 o 64700.44 62360.72 0.00 1.97466 3.32
4 4 0 1 o 246413.31 263834.72 0.00 1.95155 10.79
4 4 0 2 o 245447.78 263834.72 0.00 1.95155 5.34
0 4 4 1 o 150578.08 160550.55 0.00 1.94174 6.28
0 4 4 2 o 145102.84 160550.55 0.00 1.94174 2.98
4 3 2 1 o 4529.400 4969.233 180.00 1.93447 0.48
4 3 2 2 o 4998.973 4969.233 180.00 1.93447 0.26
2 3 4 1 o 37131.00 37292.13 0.00 1.92729 3.33
2 3 4 2 o 33671.570 37292.13 0.00 1.92729 1.48
3 0 4 1 o 1748.524 1180.591 180.00 1.91457 0.08
4 4 1 1 o 2174.288 2117.757 0.00 1.91201 0.19
3 0 4 2 o 1144.523 1180.591 180.00 1.91457 0.03
4 4 1 2 o 1289.149 2117.757 0.00 1.91201 0.05
1 4 4 1 o 3087.515 6130.048 0.00 1.90335 0.26
4 1 3 1 o 6315.633 6497.110 180.00 1.89918 0.53
1 4 4 2 o 6115.987 6130.048 0.00 1.90335 0.28
3 1 4 1 o 11682.792 11802.744 180.00 1.89520 1.02
4 1 3 2 o 6721.863 6497.110 180.00 1.89918 0.28
3 1 4 2 o 11904.410 11802.744 180.00 1.89520 0.52
0 1 5 1 o 97182.49 96133.64 180.00 1.89013 3.76
3 5 2 1 o 31563.965 31004.641 0.00 1.88560 2.68
0 1 5 2 o 97984.52 96133.64 180.00 1.89013 1.89
2 5 3 1 o 22098.016 20899.445 0.00 1.88282 1.85
3 5 2 2 o 32567.322 31004.641 0.00 1.88560 1.38
2 5 3 2 o 22116.006 20899.445 0.00 1.88282 0.92
0 7 1 1 o 32569.842 25244.344 0.00 1.87123 1.67
3 4 3 1 o 19007.803 14646.988 0.00 1.87096 1.72
5 1 1 1 o 94.507 92.527 180.00 1.86753 0.00
0 7 1 2 o 31695.891 25244.344 0.00 1.87123 0.81
3 4 3 2 o 18342.035 14646.988 0.00 1.87096 0.82
5 1 1 2 o 92.349 92.527 180.00 1.86753 0.00
2 6 2 1 o 15478.433 16099.078 180.00 1.86057 1.23
2 6 2 2 o 14975.297 16099.078 180.00 1.86057 0.58
1 1 5 1 o 31309.264 33534.676 180.00 1.85467 2.29
1 1 5 2 o 31512.650 33534.676 180.00 1.85467 1.15
4 2 3 1 o 8911.350 8482.530 0.00 1.84408 0.74
3 2 4 1 o 30270.357 29994.074 180.00 1.84045 2.34
4 2 3 2 o 8663.088 8482.530 0.00 1.84408 0.36
1 7 1 1 o 22812.418 22984.168 0.00 1.83680 2.12
3 2 4 2 o 30145.809 29994.074 180.00 1.84045 1.16
1 7 1 2 o 22683.580 22984.168 0.00 1.83680 1.05
5 2 1 1 o 72180.45 76716.00 180.00 1.81507 5.53
5 2 1 2 o 72182.02 76716.00 180.00 1.81507 2.75
4 4 2 1 o 92394.72 90075.70 0.00 1.80641 7.39
1 2 5 1 o 33904.355 33687.832 180.00 1.80326 2.80
4 4 2 2 o 89742.15 90075.70 0.00 1.80641 3.56
2 4 4 1 o 34459.879 34904.953 180.00 1.80056 2.93
1 2 5 2 o 33876.598 33687.832 180.00 1.80326 1.39
2 4 4 2 o 36489.65 34904.953 180.00 1.80056 1.55
3 6 1 1 o 32059.439 30671.828 0.00 1.79609 2.89
1 6 3 1 o 71689.58 66772.02 180.00 1.79225 6.18
3 6 1 2 o 32984.035 30671.828 0.00 1.79609 1.48
1 6 3 2 o 70007.89 66772.02 180.00 1.79225 2.99
4 5 0 1 o 10927.142 10511.119 0.00 1.78740 0.40
5 0 2 1 o 3008.290 3594.370 180.00 1.78447 0.10
4 5 0 2 o 7909.928 10511.119 0.00 1.78740 0.13
5 0 2 2 o 3400.635 3594.370 180.00 1.78447 0.06
2 7 0 1 o 2206.369 2227.453 180.00 1.77375 0.11
2 7 0 2 o 2597.534 2227.453 180.00 1.77375 0.06
5 1 2 1 o 67487.59 59412.87 180.00 1.76876 4.66
5 1 2 2 o 63097.46 59412.87 180.00 1.76876 2.14
4 3 3 1 o 87576.66 87893.54 180.00 1.76204 6.04
2 1 5 1 o 5114.811 4853.938 0.00 1.75918 0.34
3 3 4 1 o 1612.742 1525.277 180.00 1.75886 0.12
4 3 3 2 o 91548.54 87893.54 180.00 1.76204 3.17
4 5 1 1 o 17575.104 16828.012 180.00 1.75688 1.30
2 1 5 2 o 5245.473 4853.938 0.00 1.75918 0.17
0 3 5 1 o 52418.98 48348.90 0.00 1.75481 1.86
3 3 4 2 o 1650.732 1525.277 180.00 1.75886 0.06
4 5 1 2 o 17602.568 16828.012 180.00 1.75688 0.65
0 3 5 2 o 47177.82 48348.90 0.00 1.75481 0.82
1 5 4 1 o 13750.714 14359.720 180.00 1.75015 1.01
1 5 4 2 o 12583.221 14359.720 180.00 1.75015 0.45
2 7 1 1 o 38720.10 42818.68 0.00 1.74391 2.89
1 7 2 1 o 11.412 12.519 0.00 1.74258 0.00
2 7 1 2 o 36645.72 42818.68 0.00 1.74391 1.34
1 7 2 2 o 9.951 12.519 0.00 1.74258 0.00
5 3 1 1 o 238.008 471.601 0.00 1.73668 0.00
5 3 1 2 o 311.504 471.601 0.00 1.73668 0.00
1 3 5 1 o 4456.625 4543.422 180.00 1.72632 0.29
3 5 3 1 o 7082.559 7537.960 0.00 1.72487 0.56
5 2 2 1 o 9683.784 10188.014 0.00 1.72400 0.63
1 3 5 2 o 4490.076 4543.422 180.00 1.72632 0.14
3 5 3 2 o 6914.983 7537.960 0.00 1.72487 0.27
5 2 2 2 o 9617.103 10188.014 0.00 1.72400 0.31
2 2 5 1 o 108905.23 110797.74 0.00 1.71512 7.00
2 2 5 2 o 107321.80 110797.74 0.00 1.71512 3.42
3 6 2 1 o 12600.830 14492.299 0.00 1.70771 0.84
2 6 3 1 o 11326.415 12199.404 180.00 1.70564 0.76
3 6 2 2 o 12401.565 14492.299 0.00 1.70771 0.41
2 6 3 2 o 12864.777 12199.404 180.00 1.70564 0.44
4 0 4 1 o 265955.47 264574.72 0.00 1.69407 8.53
4 0 4 2 o 262886.69 264574.72 0.00 1.69407 4.19
4 1 4 1 o 18891.586 15377.508 0.00 1.68060 1.29
4 1 4 2 o 17539.361 15377.508 0.00 1.68060 0.59
4 5 2 1 o 3135.849 3262.197 0.00 1.67390 0.24
4 5 2 2 o 3171.675 3262.197 0.00 1.67390 0.12
0 8 0 1 o 228690.20 234760.98 0.00 1.66971 4.40
2 5 4 1 o 93460.23 96341.34 180.00 1.66924 5.99
0 8 0 2 o 220774.33 234760.98 0.00 1.66971 2.10
2 5 4 2 o 90907.05 96341.34 180.00 1.66924 2.88
4 4 3 1 o 131.412 136.816 180.00 1.66363 0.01
2 7 2 1 o 643.231 686.753 0.00 1.66267 0.06
3 4 4 1 o 43971.63 48431.49 180.00 1.66096 2.68
4 4 3 2 o 123.115 136.816 180.00 1.66363 0.00
2 7 2 2 o 585.453 686.753 0.00 1.66267 0.03
3 4 4 2 o 48492.13 48431.49 180.00 1.66096 1.50
5 3 2 1 o 17780.676 17327.076 180.00 1.65640 1.08
5 3 2 2 o 18673.980 17327.076 180.00 1.65640 0.57
2 3 5 1 o 26903.369 29246.924 0.00 1.64852 1.62
2 3 5 2 o 27652.240 29246.924 0.00 1.64852 0.83
5 4 1 1 o 7543.191 6672.592 0.00 1.64223 0.45
4 2 4 1 o 6114.716 5386.727 0.00 1.64207 0.38
5 4 1 2 o 6716.544 6672.592 0.00 1.64223 0.20
4 2 4 2 o 5415.019 5386.727 0.00 1.64207 0.17
0 7 3 1 o 105615.64 106819.59 180.00 1.63655 3.52
5 1 3 1 o 51198.48 46038.05 180.00 1.63408 3.18
4 6 0 1 o 1723.861 1571.118 180.00 1.63374 0.06
1 4 5 1 o 353.966 334.171 0.00 1.63347 0.02
0 7 3 2 o 107409.16 106819.59 180.00 1.63655 1.79
5 1 3 2 o 50001.91 46038.05 180.00 1.63408 1.54
4 6 0 2 o 1737.580 1571.118 180.00 1.63374 0.03
1 4 5 2 o 364.668 334.171 0.00 1.63347 0.01
3 1 5 1 o 12222.528 10479.611 0.00 1.62831 0.75
0 6 4 1 o 9130.887 7866.065 180.00 1.62797 0.31
3 1 5 2 o 11404.889 10479.611 0.00 1.62831 0.35
0 6 4 2 o 8845.852 7866.065 180.00 1.62797 0.15
1 8 1 1 o 31729.641 28226.004 0.00 1.62122 2.31
1 8 1 2 o 28491.574 28226.004 0.00 1.62122 1.01
3 7 1 1 o 52653.55 51011.88 0.00 1.61617 3.45
1 7 3 1 o 9128.321 8991.835 0.00 1.61337 0.57
3 7 1 2 o 52631.91 51011.88 0.00 1.61617 1.72
4 6 1 1 o 4021.298 4248.977 0.00 1.61033 0.25
1 7 3 2 o 8291.573 8991.835 0.00 1.61337 0.25
4 6 1 2 o 4233.656 4248.977 0.00 1.61033 0.13
1 6 4 1 o 28174.250 27120.615 0.00 1.60515 1.72
6 0 0 1 o 71754.87 67577.64 180.00 1.60331 0.94
1 6 4 2 o 26961.730 27120.615 0.00 1.60515 0.81
6 0 0 2 o 67597.91 67577.64 180.00 1.60331 0.43
5 2 3 1 o 44439.74 45435.31 180.00 1.59859 2.26
5 2 3 2 o 43304.04 45435.31 180.00 1.59859 1.09
3 2 5 1 o 582.345 624.653 180.00 1.59318 0.07
6 1 0 1 o 80540.19 87673.16 0.00 1.59189 2.27
0 0 6 1 o 24519.484 27664.924 180.00 1.59112 0.36
3 2 5 2 o 402.508 624.653 180.00 1.59318 0.03
6 1 0 2 o 77549.03 87673.16 0.00 1.59189 1.08
0 0 6 2 o 26645.463 27664.924 180.00 1.59112 0.20
3 6 3 1 o 1378.347 1559.652 0.00 1.58557 0.04
4 3 4 1 o 6053.154 6266.357 0.00 1.58334 0.38
3 6 3 2 o 1168.203 1559.652 0.00 1.58557 0.01
4 3 4 2 o 5891.261 6266.357 0.00 1.58334 0.18
2 8 0 1 o 1709.135 2045.979 180.00 1.57737 0.02
0 8 2 1 o 11121.155 14471.513 0.00 1.57607 0.25
5 4 2 1 o 27563.818 31944.887 0.00 1.57386 1.48
2 8 0 2 o 1906.142 2045.979 180.00 1.57737 0.01
0 8 2 2 o 12194.846 14471.513 0.00 1.57607 0.15
6 1 1 1 o 3174.715 3262.339 0.00 1.57021 0.14
5 4 2 2 o 31265.668 31944.887 0.00 1.57386 0.86
1 0 6 1 o 3614.667 3684.182 180.00 1.56979 0.10
2 4 5 1 o 21405.393 22491.824 180.00 1.56710 1.17
6 1 1 2 o 3202.173 3262.339 0.00 1.57021 0.07
1 0 6 2 o 3692.198 3684.182 180.00 1.56979 0.05
2 4 5 2 o 21915.361 22491.824 180.00 1.56710 0.60
6 2 0 1 o 18464.305 17709.771 180.00 1.55902 0.49
1 1 6 1 o 24172.430 23234.689 180.00 1.55906 1.24
4 5 3 1 o 32424.088 30655.742 180.00 1.55840 1.82
3 5 4 1 o 2762.848 2457.566 0.00 1.55620 0.15
2 8 1 1 o 43981.43 38831.04 180.00 1.55627 2.74
6 2 0 2 o 19148.154 17709.771 180.00 1.55902 0.25
1 1 6 2 o 25124.576 23234.689 180.00 1.55906 0.64
1 8 2 1 o 30653.229 28193.123 0.00 1.55533 1.87
4 5 3 2 o 32295.791 30655.742 180.00 1.55840 0.90
0 5 5 1 o 880.471 854.742 180.00 1.55339 0.02
3 5 4 2 o 2620.529 2457.566 0.00 1.55620 0.07
2 8 1 2 o 41460.91 38831.04 180.00 1.55627 1.27
1 8 2 2 o 29686.221 28193.123 0.00 1.55533 0.89
3 7 2 1 o 30.581 30.921 0.00 1.55088 0.00
0 5 5 2 o 742.762 854.742 180.00 1.55339 0.01
2 7 3 1 o 15877.567 19053.430 0.00 1.54933 0.92
0 2 6 1 o 9168.931 10450.011 0.00 1.54780 0.22
3 7 2 2 o 25.250 30.921 0.00 1.55088 0.00
4 6 2 1 o 16671.566 18927.342 0.00 1.54571 0.95
2 7 3 2 o 16835.881 19053.430 0.00 1.54933 0.49
5 3 3 1 o 2637.919 2716.604 0.00 1.54425 0.17
0 2 6 2 o 10340.047 10450.011 0.00 1.54780 0.13
2 6 4 1 o 27237.211 29131.473 180.00 1.54204 1.53
4 6 2 2 o 17718.912 18927.342 0.00 1.54571 0.51
5 5 1 1 o 2948.040 3063.506 180.00 1.54077 0.20
5 3 3 2 o 2666.834 2716.604 0.00 1.54425 0.08
3 3 5 1 o 29728.121 29954.516 0.00 1.53938 1.45
6 2 1 1 o 47535.09 50065.09 0.00 1.53864 2.39
2 6 4 2 o 26930.414 29131.473 180.00 1.54204 0.75
5 5 1 2 o 2678.520 3063.506 180.00 1.54077 0.09
3 3 5 2 o 29015.340 29954.516 0.00 1.53938 0.70
6 2 1 2 o 48005.90 50065.09 0.00 1.53864 1.21
1 5 5 1 o 18462.896 20123.463 180.00 1.53353 1.01
1 5 5 2 o 19328.193 20123.463 180.00 1.53353 0.53
1 2 6 1 o 32320.568 31778.807 0.00 1.52815 1.61
1 2 6 2 o 32624.188 31778.807 0.00 1.52815 0.81
6 0 2 1 o 43181.13 48068.13 180.00 1.51987 1.09
6 0 2 2 o 40493.00 48068.13 180.00 1.51987 0.50
4 4 4 1 o 33894.043 35684.37 180.00 1.51079 1.84
2 0 6 1 o 23318.088 24685.412 180.00 1.51061 0.62
6 1 2 1 o 0.195 3.548 180.00 1.51012 0.00
6 3 0 1 o 30156.010 31474.986 0.00 1.50849 0.81
4 4 4 2 o 31031.691 35684.37 180.00 1.51079 0.83
2 0 6 2 o 21282.631 24685.412 180.00 1.51061 0.28
6 1 2 2 o -5.254 3.548 180.00 1.51012 0.00
6 3 0 2 o 29684.865 31474.986 0.00 1.50849 0.39
2 1 6 1 o 15020.958 14629.297 0.00 1.50104 0.70
5 0 4 1 o 3326.180 3556.992 0.00 1.49788 0.08
2 8 2 1 o 40935.46 44030.59 180.00 1.49772 2.46
2 1 6 2 o 13795.976 14629.297 0.00 1.50104 0.31
4 7 0 1 o 2544.786 2476.130 180.00 1.49484 0.09
5 0 4 2 o 3333.238 3556.992 0.00 1.49788 0.04
2 8 2 2 o 40047.64 44030.59 180.00 1.49772 1.19
4 7 0 2 o 2310.476 2476.130 180.00 1.49484 0.04
6 3 1 1 o 65028.66 69007.53 0.00 1.49001 3.08
5 1 4 1 o 6206.944 6575.735 180.00 1.48855 0.28
6 3 1 2 o 65838.31 69007.53 0.00 1.49001 1.56
4 1 5 1 o 5147.657 5320.891 0.00 1.48609 0.23
5 1 4 2 o 6428.756 6575.735 180.00 1.48855 0.15
5 5 2 1 o 81853.84 85456.50 0.00 1.48389 4.03
4 1 5 2 o 5601.931 5320.891 0.00 1.48609 0.13
6 2 2 1 o 17013.492 15930.977 180.00 1.48198 0.79
1 3 6 1 o 8293.372 8341.592 180.00 1.48048 0.40
5 5 2 2 o 84226.41 85456.50 0.00 1.48389 2.07
6 2 2 2 o 15884.222 15930.977 180.00 1.48198 0.36
2 5 5 1 o 17026.242 17057.303 0.00 1.47822 0.87
1 3 6 2 o 8436.941 8341.592 180.00 1.48048 0.20
4 7 1 1 o 160870.20 159036.38 180.00 1.47685 8.39
5 4 3 1 o 14471.582 14332.688 0.00 1.47672 0.70
2 5 5 2 o 16376.824 17057.303 0.00 1.47822 0.41
2 2 6 1 o 4367.938 4306.495 180.00 1.47340 0.20
4 7 1 2 o 162728.16 159036.38 180.00 1.47685 4.23
5 4 3 2 o 14749.389 14332.688 0.00 1.47672 0.36
1 7 4 1 o 118.492 113.613 0.00 1.47285 0.01
3 4 5 1 o 947.713 915.448 180.00 1.47245 0.05
2 2 6 2 o 4664.131 4306.495 180.00 1.47340 0.11
1 7 4 2 o 131.223 113.613 0.00 1.47285 0.00
3 4 5 2 o 1090.548 915.448 180.00 1.47245 0.03
0 9 1 1 o 47495.38 46183.79 180.00 1.46657 1.31
3 8 1 1 o 5152.372 4446.663 180.00 1.46346 0.26
0 9 1 2 o 53485.95 46183.79 180.00 1.46657 0.75
5 2 4 1 o 13762.569 11593.006 0.00 1.46158 0.64
1 8 3 1 o 26665.063 22620.264 0.00 1.46138 1.40
3 8 1 2 o 4956.133 4446.663 180.00 1.46346 0.12
4 2 5 1 o 7058.112 6345.409 0.00 1.45925 0.32
5 2 4 2 o 12069.477 11593.006 0.00 1.46158 0.27
1 8 3 2 o 23189.447 22620.264 0.00 1.46138 0.58
3 7 3 1 o 81354.66 80002.40 0.00 1.45768 3.97
4 2 5 2 o 6199.617 6345.409 0.00 1.45925 0.13
3 7 3 2 o 80844.87 80002.40 0.00 1.45768 1.96
4 6 3 1 o 883.303 856.201 180.00 1.45339 0.04
3 6 4 1 o 1945.857 1524.429 180.00 1.45161 0.10
4 6 3 2 o 1360.989 856.201 180.00 1.45339 0.03
1 9 1 1 o 4314.489 2733.978 180.00 1.44982 0.24
3 6 4 2 o 3585.225 1524.429 180.00 1.45161 0.10
1 9 1 2 o 4330.743 2733.978 180.00 1.44982 0.12
6 4 0 1 o 4859.258 2711.522 180.00 1.44536 0.13
6 4 0 2 o 4572.226 2711.522 180.00 1.44536 0.06
5 6 1 1 o 36031.99 33514.789 0.00 1.43906 1.84
6 3 2 1 o 673.907 620.339 180.00 1.43838 0.05
0 4 6 1 o 96893.33 96669.23 0.00 1.43640 2.36
5 6 1 2 o 35712.66 33514.789 0.00 1.43906 0.91
6 3 2 2 o 764.295 620.339 180.00 1.43838 0.03
1 6 5 1 o 15302.911 14073.625 0.00 1.43315 0.84
0 4 6 2 o 108567.88 96669.23 0.00 1.43640 1.33
4 5 4 1 o 17050.588 14683.892 180.00 1.43067 0.85
2 3 6 1 o 1979.345 1757.444 0.00 1.43053 0.08
1 6 5 2 o 16721.611 14073.625 0.00 1.43315 0.46
6 4 1 1 o 13075.966 10788.425 180.00 1.42907 0.61
4 5 4 2 o 14992.007 14683.892 180.00 1.43067 0.37
2 3 6 2 o 1767.284 1757.444 0.00 1.43053 0.03
4 7 2 1 o 3297.775 3295.793 0.00 1.42653 0.20
6 4 1 2 o 11056.611 10788.425 180.00 1.42907 0.25
3 0 6 1 o 133628.91 126511.55 180.00 1.42530 2.89
6 1 3 1 o 36166.44 31049.402 0.00 1.42369 1.60
2 7 4 1 o 204.591 161.597 180.00 1.42364 0.01
4 7 2 2 o 4111.564 3295.793 0.00 1.42653 0.13
3 0 6 2 o 130982.16 126511.55 180.00 1.42530 1.41
1 4 6 1 o 87890.32 86486.55 0.00 1.42066 3.91
6 1 3 2 o 32973.008 31049.402 0.00 1.42369 0.71
2 7 4 2 o 178.678 161.597 180.00 1.42364 0.01
5 3 4 1 o 390.671 363.197 180.00 1.41970 0.01
2 9 0 1 o 85504.21 81235.34 180.00 1.41821 2.18
4 3 5 1 o 119347.76 113768.09 180.00 1.41756 5.17
3 1 6 1 o 14857.448 13941.723 0.00 1.41726 0.66
1 4 6 2 o 92488.27 86486.55 0.00 1.42066 2.07
5 3 4 2 o 389.739 363.197 180.00 1.41970 0.01
2 9 0 2 o 86790.37 81235.34 180.00 1.41821 1.10
3 8 2 1 o 7232.998 6675.071 0.00 1.41445 0.34
4 3 5 2 o 128673.46 113768.09 180.00 1.41756 2.82
3 1 6 2 o 16453.020 13941.723 0.00 1.41726 0.37
2 8 3 1 o 17706.752 14377.771 0.00 1.41328 0.90
3 8 2 2 o 9284.296 6675.071 0.00 1.41445 0.23
2 8 3 2 o 22113.791 14377.771 0.00 1.41328 0.58
2 9 1 1 o 24225.475 21189.250 0.00 1.40281 1.24
1 9 2 1 o 52726.68 43730.11 0.00 1.40212 2.68
5 5 3 1 o 68.581 68.281 180.00 1.40164 0.00
6 2 3 1 o 15523.633 14059.693 180.00 1.40003 0.65
2 9 1 2 o 22888.840 21189.250 0.00 1.40281 0.58
1 9 2 2 o 50239.20 43730.11 0.00 1.40212 1.26
5 5 3 2 o 68.516 68.281 180.00 1.40164 0.00
3 5 5 1 o 12849.884 10388.892 0.00 1.39799 0.54
6 2 3 2 o 18799.971 14059.693 180.00 1.40003 0.41
3 5 5 2 o 14097.949 10388.892 0.00 1.39799 0.30
3 2 6 1 o 9976.625 6457.880 180.00 1.39391 0.44
5 6 2 1 o 95.421 54.662 180.00 1.39239 0.00
3 2 6 2 o 8743.940 6457.880 180.00 1.39391 0.19
5 6 2 2 o 63.380 54.662 180.00 1.39239 0.00
2 6 5 1 o 50368.58 49279.77 180.00 1.38770 2.22
2 6 5 2 o 55281.48 49279.77 180.00 1.38770 1.24
6 4 2 1 o 10321.567 7391.521 180.00 1.38333 0.43
6 4 2 2 o 13246.808 7391.521 180.00 1.38333 0.29
2 4 6 1 o 1947.680 1438.609 0.00 1.37634 0.13
6 5 0 1 o 95333.77 91223.63 180.00 1.37474 2.09
2 4 6 2 o 1485.650 1438.609 0.00 1.37634 0.05
4 8 0 1 o 1211.241 1311.494 0.00 1.37156 0.04
6 5 0 2 o 88664.48 91223.63 180.00 1.37474 0.95
4 8 0 2 o 3451.036 1311.494 0.00 1.37156 0.05
0 8 4 1 o 898.018 226.452 0.00 1.36814 0.03
5 4 4 1 o 19850.891 12698.979 0.00 1.36669 0.84
4 4 5 1 o 2569.937 1852.064 180.00 1.36479 0.11
0 8 4 2 o 459.567 226.452 0.00 1.36814 0.01
4 4 5 2 o 1961.571 1852.064 180.00 1.36479 0.04
6 5 1 1 o 32948.961 33068.270 0.00 1.36071 1.38
5 4 4 2 o 15390.885 12698.979 0.00 1.36669 0.31
6 3 3 1 o 6825.962 5529.877 0.00 1.36310 0.29
6 3 3 2 o 5693.329 5529.877 0.00 1.36310 0.12
2 9 2 1 o 4929.343 4688.223 180.00 1.35947 0.24
4 8 1 1 o 4935.720 4960.312 180.00 1.35762 0.23
3 3 6 1 o 3479.972 3514.120 0.00 1.35745 0.14
6 5 1 2 o 32802.258 33068.270 0.00 1.36071 0.68
0 1 7 1 o 229.390 222.763 180.00 1.35676 0.00
2 9 2 2 o 4860.257 4688.223 180.00 1.35947 0.12
1 8 4 1 o 17708.154 16180.882 0.00 1.35451 0.78
4 8 1 2 o 5356.796 4960.312 180.00 1.35762 0.12
3 3 6 2 o 3739.822 3514.120 0.00 1.35745 0.08
0 1 7 2 o 231.429 222.763 180.00 1.35676 0.00
1 5 6 1 o 34262.582 32791.613 0.00 1.35343 1.40
7 1 1 1 o 684.816 668.612 180.00 1.35325 0.01
4 7 3 1 o 162.008 151.229 0.00 1.35300 0.01
3 7 4 1 o 129.140 129.943 0.00 1.35156 0.01
1 8 4 2 o 16239.313 16180.882 0.00 1.35451 0.35
1 5 6 2 o 31771.363 32791.613 0.00 1.35343 0.63
7 1 1 2 o 659.825 668.612 180.00 1.35325 0.01
0 7 5 1 o 136077.11 138885.17 180.00 1.34972 2.87
4 7 3 2 o 148.313 151.229 0.00 1.35300 0.00
5 1 5 1 o 6009.080 6040.611 180.00 1.34833 0.21
3 7 4 2 o 128.993 129.943 0.00 1.35156 0.00
4 6 4 1 o 57145.41 57430.00 0.00 1.34814 2.26
0 7 5 2 o 135166.19 138885.17 180.00 1.34972 1.42
5 1 5 2 o 5843.633 6040.611 180.00 1.34833 0.10
0 9 3 1 o 6549.985 6798.803 180.00 1.34508 0.14
4 6 4 2 o 55945.01 57430.00 0.00 1.34814 1.09
1 1 7 1 o 60080.17 59294.52 180.00 1.34347 2.27
3 8 3 1 o 18317.275 18056.059 180.00 1.34269 0.84
0 9 3 2 o 6787.145 6798.803 180.00 1.34508 0.07
5 7 1 1 o 4955.707 4956.959 180.00 1.34142 0.19
1 1 7 2 o 61974.49 59294.52 180.00 1.34347 1.18
3 8 3 2 o 19714.365 18056.059 180.00 1.34269 0.45
5 7 1 2 o 5196.650 4956.959 180.00 1.34142 0.10
1 7 5 1 o 33406.613 33462.277 180.00 1.33663 1.40
0 10 0 1 o 12219.583 9902.377 180.00 1.33577 0.14
3 9 1 1 o 337.405 347.933 0.00 1.33370 0.02
1 7 5 2 o 33826.039 33462.277 180.00 1.33663 0.71
7 2 1 1 o 518.931 492.564 0.00 1.33288 0.02
0 10 0 2 o 10781.777 9902.377 180.00 1.33577 0.06
1 9 3 1 o 15979.798 14768.452 180.00 1.33213 0.72
6 0 4 1 o 1077.119 1032.561 0.00 1.33089 0.02
3 9 1 2 o 353.025 347.933 0.00 1.33370 0.01
7 2 1 2 o 516.789 492.564 0.00 1.33288 0.01
1 9 3 2 o 16636.500 14768.452 180.00 1.33213 0.38
5 2 5 1 o 3117.205 2752.863 0.00 1.32818 0.10
6 0 4 2 o 1192.844 1032.561 0.00 1.33089 0.01
4 0 6 1 o 36343.27 34700.164 0.00 1.32699 0.65
5 2 5 2 o 2981.303 2752.863 0.00 1.32818 0.05
6 1 4 1 o 23239.832 21945.563 180.00 1.32433 0.81
4 0 6 2 o 36571.73 34700.164 0.00 1.32699 0.33
5 6 3 1 o 16410.801 15613.341 0.00 1.32377 0.58
1 2 7 1 o 19631.516 18850.881 180.00 1.32353 0.63
6 1 4 2 o 20408.469 21945.563 180.00 1.32433 0.34
6 5 2 1 o 89.803 91.065 180.00 1.32104 0.00
7 0 2 1 o 84554.39 89267.13 180.00 1.32063 1.50
3 6 5 1 o 74.869 90.353 0.00 1.32069 0.01
4 1 6 1 o 81.716 82.807 0.00 1.32049 0.00
5 6 3 2 o 14939.655 15613.341 0.00 1.32377 0.26
1 2 7 2 o 18108.594 18850.881 180.00 1.32353 0.28
4 8 2 1 o 1801.958 1917.169 0.00 1.31822 0.05
6 5 2 2 o 89.367 91.065 180.00 1.32104 0.00
7 0 2 2 o 79798.16 89267.13 180.00 1.32063 0.69
3 6 5 2 o 61.058 90.353 0.00 1.32069 0.00
4 1 6 2 o 80.440 82.807 0.00 1.32049 0.00
6 4 3 1 o 4346.959 4648.338 0.00 1.31598 0.17
2 8 4 1 o 5249.680 5512.294 180.00 1.31594 0.17
2 5 6 1 o 22555.795 22460.402 180.00 1.31495 0.86
4 8 2 2 o 1922.813 1917.169 0.00 1.31822 0.03
7 1 2 1 o 4841.447 5157.506 0.00 1.31422 0.19
6 4 3 2 o 4306.860 4648.338 0.00 1.31598 0.08
2 8 4 2 o 5222.682 5512.294 180.00 1.31594 0.08
2 5 6 2 o 19559.916 22460.402 180.00 1.31495 0.36
7 1 2 2 o 4000.227 5157.506 0.00 1.31422 0.08
3 4 6 1 o 3314.173 4297.614 0.00 1.31089 0.12
1 10 1 1 o 184.484 205.468 0.00 1.31055 0.00
3 4 6 2 o 2360.467 4297.614 0.00 1.31089 0.04
1 10 1 2 o 180.330 205.468 0.00 1.31055 0.00
5 5 4 1 o 3769.888 5059.140 0.00 1.30653 0.12
2 1 7 1 o 1266.567 1687.364 0.00 1.30581 0.04
6 2 4 1 o 13007.182 16789.252 180.00 1.30523 0.44
4 5 5 1 o 10269.058 13359.283 180.00 1.30487 0.34
0 3 7 1 o 3462.572 5581.881 180.00 1.30402 0.06
5 7 2 1 o 418.451 748.183 180.00 1.30337 0.02
5 5 4 2 o 3329.644 5059.140 0.00 1.30653 0.05
2 1 7 2 o 1161.363 1687.364 0.00 1.30581 0.02
6 2 4 2 o 12608.437 16789.252 180.00 1.30523 0.21
4 5 5 2 o 10575.379 13359.283 180.00 1.30487 0.17
4 2 6 1 o 321.909 394.065 0.00 1.30155 0.01
6 6 0 1 o 50632.72 62685.11 180.00 1.30104 0.95
7 3 1 1 o 16306.598 19556.633 0.00 1.30090 0.50
0 3 7 2 o 4549.709 5581.881 180.00 1.30402 0.04
5 7 2 2 o 569.736 748.183 180.00 1.30337 0.01
2 7 5 1 o 937.862 1276.042 0.00 1.29953 0.03
4 2 6 2 o 313.930 394.065 0.00 1.30155 0.00
6 6 0 2 o 51625.58 62685.11 180.00 1.30104 0.48
7 3 1 2 o 16680.145 19556.633 0.00 1.30090 0.26
5 3 5 1 o 21107.350 26740.688 180.00 1.29653 0.76
2 7 5 2 o 1019.342 1276.042 0.00 1.29953 0.02
3 9 2 1 o 8074.345 10062.685 180.00 1.29629 0.28
7 2 2 1 o 164.235 234.115 0.00 1.29554 0.01
2 9 3 1 o 9050.457 12713.425 0.00 1.29539 0.33
0 6 6 1 o 24.095 25.026 180.00 1.29449 0.00
5 3 5 2 o 15789.840 26740.688 180.00 1.29653 0.26
3 9 2 2 o 6637.029 10062.685 180.00 1.29629 0.10
7 2 2 2 o 151.027 234.115 0.00 1.29554 0.00
1 3 7 1 o 741.582 1122.715 0.00 1.29220 0.03
2 9 3 2 o 8662.776 12713.425 0.00 1.29539 0.15
0 6 6 2 o 24.201 25.026 180.00 1.29449 0.00
6 6 1 1 o 17106.768 22107.564 180.00 1.28912 0.60
1 3 7 2 o 865.903 1122.715 0.00 1.29220 0.02
2 2 7 1 o -6.514 2.101 0.00 1.28748 0.00
2 10 0 1 o 16707.816 22898.143 180.00 1.28706 0.30
0 10 2 1 o 2900.941 4118.150 0.00 1.28635 0.05
6 6 1 2 o 15366.964 22107.564 180.00 1.28912 0.26
2 2 7 2 o -16.989 2.101 0.00 1.28748 0.00
2 10 0 2 o 10300.644 22898.143 180.00 1.28706 0.06
0 10 2 2 o 1663.060 4118.150 0.00 1.28635 0.01
1 6 6 1 o 321.249 1083.510 0.00 1.28293 0.01
1 6 6 2 o 655.733 1083.510 0.00 1.28293 0.01
2 10 1 1 o 8683.720 8498.561 180.00 1.27552 0.37
6 3 4 1 o 2972.278 2928.136 180.00 1.27515 0.08
1 10 2 1 o 14627.682 14411.352 180.00 1.27500 0.61
2 10 1 2 o 7260.164 8498.561 180.00 1.27552 0.15
6 3 4 2 o 2972.612 2928.136 180.00 1.27515 0.04
4 3 6 1 o 61.502 44.301 180.00 1.27171 0.00
1 10 2 2 o 15582.800 14411.352 180.00 1.27500 0.33
4 3 6 2 o -46.822 44.301 180.00 1.27171 0.00
4 7 4 1 o 367.470 814.273 180.00 1.26687 0.02
7 3 2 1 o 331.845 1122.758 0.00 1.26611 0.01
4 7 4 2 o 254.833 814.273 180.00 1.26687 0.01
7 3 2 2 o 955.313 1122.758 0.00 1.26611 0.02
4 9 0 1 o 5935.296 6997.599 180.00 1.26303 0.11
6 5 3 1 o 8344.244 8998.621 0.00 1.26201 0.28
4 9 0 2 o 9111.035 6997.599 180.00 1.26303 0.09
7 4 1 1 o 1818.862 1426.286 180.00 1.25975 0.07
4 8 3 1 o 1983.162 1683.645 0.00 1.25955 0.08
6 5 3 2 o 8555.942 8998.621 0.00 1.26201 0.14
2 3 7 1 o 1237.679 1425.668 0.00 1.25858 0.04
3 8 4 1 o 1621.910 1916.046 180.00 1.25839 0.06
3 5 6 1 o 8371.891 10032.980 180.00 1.25752 0.27
7 4 1 2 o 1200.096 1426.286 180.00 1.25975 0.02
4 8 3 2 o 1427.555 1683.645 0.00 1.25955 0.03
7 1 3 1 o 8706.721 10648.142 180.00 1.25606 0.31
5 4 5 1 o 1544.193 1907.835 180.00 1.25578 0.05
2 3 7 2 o 1148.428 1425.668 0.00 1.25858 0.02
6 6 2 1 o 12630.545 15966.533 180.00 1.25524 0.40
3 8 4 2 o 1504.208 1916.046 180.00 1.25839 0.03
3 5 6 2 o 7305.309 10032.980 180.00 1.25752 0.11
7 1 3 2 o 8121.890 10648.142 180.00 1.25606 0.14
5 4 5 2 o 1459.478 1907.835 180.00 1.25578 0.03
6 6 2 2 o 13305.533 15966.533 180.00 1.25524 0.22
4 9 1 1 o 5015.295 6037.222 180.00 1.25212 0.18
1 4 7 1 o 8982.128 10780.077 0.00 1.25185 0.31
5 8 1 1 o 13497.616 14199.383 180.00 1.25019 0.48
2 6 6 1 o 4669.802 4969.417 180.00 1.25002 0.16
1 9 4 1 o 1931.286 2135.043 0.00 1.24968 0.06
3 1 7 1 o 697.050 835.673 180.00 1.24952 0.03
4 9 1 2 o 5032.743 6037.222 180.00 1.25212 0.09
1 4 7 2 o 9192.573 10780.077 0.00 1.25185 0.16
5 8 1 2 o 13254.176 14199.383 180.00 1.25019 0.23
2 6 6 2 o 4647.858 4969.417 180.00 1.25002 0.08
5 7 3 1 o 27630.467 30267.430 180.00 1.24658 1.00
1 9 4 2 o 1983.039 2135.043 0.00 1.24968 0.03
3 1 7 2 o 739.996 835.673 180.00 1.24952 0.01
1 8 5 1 o 708.230 774.461 180.00 1.24631 0.02
3 7 5 1 o 1421.591 2011.534 0.00 1.24401 0.05
5 7 3 2 o 23505.799 30267.430 180.00 1.24658 0.41
1 8 5 2 o 642.976 774.461 180.00 1.24631 0.01
5 6 4 1 o 1794.548 2228.773 0.00 1.24277 0.05
2 10 2 1 o 17508.225 22345.953 180.00 1.24268 0.67
4 6 5 1 o 3188.042 3360.547 180.00 1.24134 0.11
3 7 5 2 o 2051.287 2011.534 0.00 1.24401 0.04
3 9 3 1 o 251.679 233.855 180.00 1.24038 0.02
7 2 3 1 o 3353.653 3726.482 0.00 1.23972 0.11
5 6 4 2 o 2035.068 2228.773 0.00 1.24277 0.03
2 10 2 2 o 19968.391 22345.953 180.00 1.24268 0.39
4 6 5 2 o 3081.763 3360.547 180.00 1.24134 0.05
3 9 3 2 o 249.609 233.855 180.00 1.24038 0.01
7 2 3 2 o 4096.260 3726.482 0.00 1.23972 0.07
6 4 4 1 o 47535.03 44234.20 180.00 1.23632 1.64
3 2 7 1 o 28544.781 30582.633 0.00 1.23343 0.99
6 4 4 2 o 41647.20 44234.20 180.00 1.23632 0.70
4 4 6 1 o 443.307 455.893 180.00 1.23319 0.01
3 2 7 2 o 29659.336 30582.633 0.00 1.23343 0.52
4 4 6 2 o 453.906 455.893 180.00 1.23319 0.00
7 4 2 1 o 27832.463 28963.816 0.00 1.22808 0.90
6 7 0 1 o 1654.523 1690.047 180.00 1.22754 0.04
5 0 6 1 o 39042.21 38429.14 0.00 1.22614 0.62
7 4 2 2 o 29111.170 28963.816 0.00 1.22808 0.47
6 7 0 2 o 1821.072 1690.047 180.00 1.22754 0.02
5 0 6 2 o 40090.79 38429.14 0.00 1.22614 0.32
3 10 1 1 o 5226.294 5063.784 180.00 1.22290 0.23
6 1 5 1 o 23149.305 22540.072 0.00 1.22268 0.74
1 10 3 1 o 11649.755 11482.032 0.00 1.22169 0.49
2 4 7 1 o 423.332 430.436 0.00 1.22121 0.02
5 1 6 1 o 26581.781 27090.916 0.00 1.22101 0.85
4 9 2 1 o 415.036 423.875 180.00 1.22101 0.02
3 10 1 2 o 5482.533 5063.784 180.00 1.22290 0.12
6 1 5 2 o 24298.238 22540.072 0.00 1.22268 0.39
5 8 2 1 o 21.475 20.285 180.00 1.21922 0.00
2 9 4 1 o 51400.88 47870.61 0.00 1.21920 1.88
1 10 3 2 o 12111.248 11482.032 0.00 1.22169 0.26
2 4 7 2 o 447.048 430.436 0.00 1.22121 0.01
5 1 6 2 o 28053.350 27090.916 0.00 1.22101 0.45
4 9 2 2 o 440.574 423.875 180.00 1.22101 0.01
6 7 1 1 o 1231.111 1172.887 0.00 1.21752 0.04
5 8 2 2 o 21.053 20.285 180.00 1.21922 0.00
2 9 4 2 o 50115.53 47870.61 0.00 1.21920 0.91
2 8 5 1 o 35041.848 33782.266 0.00 1.21607 1.22
0 5 7 1 o 2315.208 2249.358 180.00 1.21469 0.04
6 7 1 2 o 1196.097 1172.887 0.00 1.21752 0.02
7 3 3 1 o 75250.02 77262.45 0.00 1.21386 2.43
2 8 5 2 o 31359.303 33782.266 0.00 1.21607 0.53
1 7 6 1 o 125.183 128.900 180.00 1.21230 0.00
7 5 1 1 o 90.377 90.523 0.00 1.21217 0.00
0 5 7 2 o 2260.346 2249.358 180.00 1.21469 0.02
7 3 3 2 o 77484.27 77262.45 0.00 1.21386 1.26
1 7 6 2 o 138.832 128.900 180.00 1.21230 0.00
7 5 1 2 o 90.940 90.523 0.00 1.21217 0.00
5 5 5 1 o 17399.645 17105.379 180.00 1.20863 0.60
3 3 7 1 o 106168.77 109591.20 0.00 1.20795 3.38
6 2 5 1 o 40310.36 42690.97 180.00 1.20760 1.25
5 2 6 1 o 9554.230 9559.390 0.00 1.20599 0.30
5 5 5 2 o 17038.219 17105.379 180.00 1.20863 0.29
1 5 7 1 o 5790.254 5865.727 180.00 1.20512 0.18
3 3 7 2 o 107464.94 109591.20 0.00 1.20795 1.71
6 2 5 2 o 41160.92 42690.97 180.00 1.20760 0.64
0 11 1 1 o 88870.03 92176.73 180.00 1.20463 1.68
6 6 3 1 o 6775.274 7165.138 0.00 1.20427 0.22
5 2 6 2 o 9943.387 9559.390 0.00 1.20599 0.16
8 0 0 1 o 102923.54 100186.39 0.00 1.20248 0.80
1 5 7 2 o 5938.337 5865.727 180.00 1.20512 0.09
0 11 1 2 o 91976.45 92176.73 180.00 1.20463 0.87
6 6 3 2 o 7004.199 7165.138 0.00 1.20427 0.11
3 6 6 1 o 45251.92 45604.50 180.00 1.20037 1.45
8 0 0 2 o 101029.75 100186.39 0.00 1.20248 0.39
8 1 0 1 o 22433.725 21724.676 0.00 1.19764 0.37
3 6 6 2 o 47126.08 45604.50 180.00 1.20037 0.76
1 11 1 1 o 14351.433 12743.330 180.00 1.19529 0.55
8 1 0 2 o 23948.088 21724.676 0.00 1.19764 0.20
3 10 2 1 o 53392.87 49838.70 180.00 1.19387 1.91
0 0 8 1 o 49088.58 46458.25 0.00 1.19334 0.40
2 10 3 1 o 3017.319 2846.543 0.00 1.19316 0.11
1 11 1 2 o 13567.280 12743.330 180.00 1.19529 0.26
6 5 4 1 o 30205.225 29340.215 0.00 1.19125 0.91
7 0 4 1 o 29124.473 28646.141 180.00 1.19095 0.44
3 10 2 2 o 50616.57 49838.70 180.00 1.19387 0.89
0 0 8 2 o 44683.52 46458.25 0.00 1.19334 0.18
2 10 3 2 o 2713.656 2846.543 0.00 1.19316 0.05
4 8 4 1 o 55856.68 59854.66 0.00 1.18918 1.91
6 7 2 1 o 1804.485 2044.337 0.00 1.18886 0.08
4 5 6 1 o 462.865 490.241 180.00 1.18845 0.01
8 1 1 1 o 744.944 795.254 180.00 1.18833 0.02
6 5 4 2 o 27621.402 29340.215 0.00 1.19125 0.40
7 0 4 2 o 27585.143 28646.141 180.00 1.19095 0.21
7 1 4 1 o 86.523 85.304 0.00 1.18624 0.00
4 8 4 2 o 60792.72 59854.66 0.00 1.18918 1.05
6 7 2 2 o 2271.632 2044.337 0.00 1.18886 0.05
4 5 6 2 o 556.922 490.241 180.00 1.18845 0.01
8 1 1 2 o 968.117 795.254 180.00 1.18833 0.02
2 7 6 1 o 714.105 447.567 0.00 1.18441 0.03
1 0 8 1 o 1033.313 658.490 0.00 1.18426 0.02
7 5 2 1 o 4533.009 2860.503 180.00 1.18388 0.15
6 3 5 1 o 1212.150 720.488 180.00 1.18365 0.04
8 2 0 1 o 6450.824 3887.242 0.00 1.18346 0.10
7 1 4 2 o 134.090 85.304 0.00 1.18624 0.00
5 3 6 1 o 9362.335 6286.872 0.00 1.18214 0.31
4 1 7 1 o 2263.073 1545.829 180.00 1.18169 0.07
2 7 6 2 o 726.982 447.567 0.00 1.18441 0.01
1 0 8 2 o 1023.253 658.490 0.00 1.18426 0.01
7 5 2 2 o 4197.686 2860.503 180.00 1.18388 0.07
6 3 5 2 o 1060.969 720.488 180.00 1.18365 0.02
8 2 0 2 o 5457.194 3887.242 0.00 1.18346 0.04
7 4 3 1 o 858.559 630.624 180.00 1.18022 0.03
1 1 8 1 o 13879.979 11006.516 180.00 1.17964 0.44
5 3 6 2 o 7755.402 6286.872 0.00 1.18214 0.12
4 1 7 2 o 1890.618 1545.829 180.00 1.18169 0.03
5 7 4 1 o 4.533 2.840 0.00 1.17825 0.00
2 5 7 1 o 1013.928 793.742 0.00 1.17772 0.03
7 4 3 2 o 798.266 630.624 180.00 1.18022 0.01
2 11 0 1 o 20341.377 15929.644 0.00 1.17739 0.39
4 7 5 1 o 24539.102 20378.402 0.00 1.17703 0.82
1 1 8 2 o 12736.077 11006.516 180.00 1.17964 0.20
5 7 4 2 o 4.697 2.840 0.00 1.17825 0.00
2 5 7 2 o 911.145 793.742 0.00 1.17772 0.01
3 4 7 1 o 3234.850 2820.632 180.00 1.17480 0.10
0 2 8 1 o 369.337 332.135 180.00 1.17473 0.00
8 2 1 1 o 11500.127 10864.870 0.00 1.17447 0.35
2 11 0 2 o 16989.576 15929.644 0.00 1.17739 0.16
4 7 5 2 o 20691.486 20378.402 0.00 1.17703 0.33
4 9 3 1 o 16144.869 16058.210 180.00 1.17395 0.54
3 9 4 1 o 2818.827 2597.266 180.00 1.17301 0.10
7 2 4 1 o 4293.065 4002.199 180.00 1.17245 0.13
5 8 3 1 o 26723.572 25334.441 180.00 1.17235 0.89
3 4 7 2 o 2711.711 2820.632 180.00 1.17480 0.04
0 2 8 2 o 317.632 332.135 180.00 1.17473 0.00
0 9 5 1 o 202.461 215.626 180.00 1.17180 0.00
8 2 1 2 o 10047.771 10864.870 0.00 1.17447 0.15
4 9 3 2 o 15118.604 16058.210 180.00 1.17395 0.25
3 8 5 1 o 1418.132 1422.581 0.00 1.17021 0.05
3 9 4 2 o 2598.561 2597.266 180.00 1.17301 0.04
7 2 4 2 o 4162.561 4002.199 180.00 1.17245 0.06
5 8 3 2 o 26509.914 25334.441 180.00 1.17235 0.44
0 9 5 2 o 229.044 215.626 180.00 1.17180 0.00
2 11 1 1 o 8479.155 8029.843 0.00 1.16854 0.30
4 2 7 1 o 108.670 101.041 180.00 1.16805 0.00
1 11 2 1 o 7271.766 6789.819 180.00 1.16814 0.26
4 10 0 1 o 111115.17 104575.63 0.00 1.16774 1.93
3 8 5 2 o 1478.188 1422.581 0.00 1.17021 0.03
5 9 1 1 o 858.717 761.286 0.00 1.16636 0.04
8 0 2 1 o 20258.213 18782.846 0.00 1.16605 0.30
1 2 8 1 o 21014.971 19442.693 0.00 1.16607 0.63
2 11 1 2 o 8445.688 8029.843 0.00 1.16854 0.15
0 10 4 1 o 99388.06 94669.95 0.00 1.16563 1.74
4 2 7 2 o 101.598 101.041 180.00 1.16805 0.00
1 11 2 2 o 6888.256 6789.819 180.00 1.16814 0.12
4 10 0 2 o 101422.13 104575.63 0.00 1.16774 0.86
5 9 1 2 o 807.607 761.286 0.00 1.16636 0.02
8 0 2 2 o 19974.748 18782.846 0.00 1.16605 0.15
1 2 8 2 o 20673.160 19442.693 0.00 1.16607 0.31
1 9 5 1 o 4762.291 4493.788 180.00 1.16320 0.15
0 10 4 2 o 101967.00 94669.95 0.00 1.16563 0.90
8 1 2 1 o 49.728 26.926 180.00 1.16164 0.00
8 3 0 1 o 14353.021 9906.842 0.00 1.16089 0.25
7 6 1 1 o 326.000 246.869 180.00 1.16073 0.01
1 9 5 2 o 6625.884 4493.788 180.00 1.16320 0.11
4 10 1 1 o 1246.910 751.507 180.00 1.15910 0.05
8 1 2 2 o 75.302 26.926 180.00 1.16164 0.00
2 0 8 1 o 2787.055 2187.691 0.00 1.15823 0.05
8 3 0 2 o 11848.461 9906.842 0.00 1.16089 0.10
7 6 1 2 o 275.537 246.869 180.00 1.16073 0.00
5 6 5 1 o 866.718 776.635 180.00 1.15763 0.02
1 10 4 1 o 847.851 664.731 0.00 1.15716 0.03
6 8 0 1 o 28154.586 25524.967 180.00 1.15647 0.44
4 10 1 2 o 780.585 751.507 180.00 1.15910 0.01
2 0 8 2 o 2288.767 2187.691 0.00 1.15823 0.02
5 6 5 2 o 794.286 776.635 180.00 1.15763 0.01
1 6 7 1 o 9201.249 8958.835 0.00 1.15454 0.24
1 10 4 2 o 694.300 664.731 0.00 1.15716 0.01
2 1 8 1 o 13791.676 13261.573 180.00 1.15390 0.39
6 8 0 2 o 26281.352 25524.967 180.00 1.15647 0.20
8 3 1 1 o 61507.31 57886.83 180.00 1.15241 1.81
6 4 5 1 o 7402.289 6970.884 0.00 1.15241 0.22
0 8 6 1 o 4690.067 4613.440 180.00 1.15187 0.09
1 6 7 2 o 9198.639 8958.835 0.00 1.15454 0.12
2 1 8 2 o 15068.513 13261.573 180.00 1.15390 0.22
5 4 6 1 o 2045.278 1777.129 0.00 1.15101 0.06
7 3 4 1 o 481.385 404.989 0.00 1.15050 0.02
3 10 3 1 o 84.093 82.366 180.00 1.14976 0.00
8 3 1 2 o 63636.91 57886.83 180.00 1.15241 0.94
6 4 5 2 o 7654.352 6970.884 0.00 1.15241 0.11
0 8 6 2 o 5261.049 4613.440 180.00 1.15187 0.05
8 2 2 1 o 12121.506 10750.550 0.00 1.14868 0.36
5 4 6 2 o 2035.256 1777.129 0.00 1.15101 0.03
6 8 1 1 o 18422.389 16116.602 0.00 1.14808 0.60
7 3 4 2 o 500.784 404.989 0.00 1.15050 0.01
3 10 3 2 o 88.322 82.366 180.00 1.14976 0.00
4 3 7 1 o 514.580 349.320 180.00 1.14635 0.02
8 2 2 2 o 14059.183 10750.550 0.00 1.14868 0.22
6 7 3 1 o 24775.875 20992.816 0.00 1.14528 0.78
6 8 1 2 o 18964.717 16116.602 0.00 1.14808 0.31
1 3 8 1 o 3821.730 3324.580 180.00 1.14447 0.12
1 8 6 1 o 1122.520 784.349 0.00 1.14370 0.04
4 3 7 2 o 520.340 349.320 180.00 1.14635 0.01
2 11 2 1 o 33.658 30.886 0.00 1.14313 0.00
6 7 3 2 o 24174.943 20992.816 0.00 1.14528 0.38
6 6 4 1 o 454.196 402.492 180.00 1.14233 0.01
3 7 6 1 o 24.187 21.019 180.00 1.14193 0.00
1 3 8 2 o 3664.762 3324.580 180.00 1.14447 0.06
2 2 8 1 o 174.885 159.330 180.00 1.14119 0.00
5 9 2 1 o 41918.10 37893.09 180.00 1.14109 1.36
7 5 3 1 o 17935.404 16568.529 0.00 1.14083 0.58
1 8 6 2 o 849.912 784.349 0.00 1.14370 0.01
2 11 2 2 o 31.228 30.886 0.00 1.14313 0.00
4 6 6 1 o 18235.471 17540.678 0.00 1.13986 0.55
6 6 4 2 o 417.084 402.492 180.00 1.14233 0.01
3 7 6 2 o 23.150 21.019 180.00 1.14193 0.00
2 9 5 1 o 6298.544 5747.958 0.00 1.13850 0.20
2 2 8 2 o 171.518 159.330 180.00 1.14119 0.00
5 9 2 2 o 40902.22 37893.09 180.00 1.14109 0.66
7 5 3 2 o 17646.871 16568.529 0.00 1.14083 0.28
4 6 6 2 o 19577.680 17540.678 0.00 1.13986 0.30
3 5 7 1 o 29537.432 28373.330 0.00 1.13592 0.91
7 6 2 1 o 30170.301 29550.625 180.00 1.13582 0.89
2 9 5 2 o 5755.124 5747.958 0.00 1.13850 0.09
0 11 3 1 o 39.346 38.492 0.00 1.13454 0.00
4 10 2 1 o 16007.736 16163.971 0.00 1.13429 0.49
3 5 7 2 o 29326.701 28373.330 0.00 1.13592 0.45
7 6 2 2 o 30741.289 29550.625 180.00 1.13582 0.45
2 10 4 1 o 1270.968 1211.865 180.00 1.13284 0.03
2 6 7 1 o 93.141 54.658 0.00 1.13038 0.00
2 10 4 2 o 2451.903 1211.865 180.00 1.13284 0.04
0 11 3 2 o 51.849 38.492 0.00 1.13454 0.00
6 0 6 1 o 613.895 225.575 180.00 1.12938 0.01
8 4 0 1 o 3129.918 2291.693 180.00 1.13137 0.05
4 10 2 2 o 20981.031 16163.971 0.00 1.13429 0.35
8 4 0 2 o 4136.246 2291.693 180.00 1.13137 0.03
8 3 2 1 o 819.732 425.639 180.00 1.12801 0.03
2 6 7 2 o 67.421 54.658 0.00 1.13038 0.00
3 11 1 1 o 11439.925 8071.983 180.00 1.12768 0.41
6 0 6 2 o 274.305 225.575 180.00 1.12938 0.00
1 11 3 1 o 28788.959 24991.129 180.00 1.12673 0.97
6 1 6 1 o 13854.859 11957.386 180.00 1.12536 0.43
8 3 2 2 o 517.996 425.639 180.00 1.12801 0.01
3 11 1 2 o 9099.932 8071.983 180.00 1.12768 0.16
6 8 2 1 o 18955.117 19650.670 180.00 1.12396 0.60
1 11 3 2 o 24167.020 24991.129 180.00 1.12673 0.39
0 4 8 1 o 29039.172 31053.230 180.00 1.12374 0.44
8 4 1 1 o 1844.475 1980.797 180.00 1.12351 0.05
6 1 6 2 o 12135.906 11957.386 180.00 1.12536 0.18
7 4 4 1 o 121.201 116.106 180.00 1.12174 0.00
6 8 2 2 o 21292.205 19650.670 180.00 1.12396 0.35
0 4 8 2 o 32871.453 31053.230 180.00 1.12374 0.26
8 1 3 1 o 19302.400 18646.861 180.00 1.12089 0.53
2 3 8 1 o 3282.824 3156.077 180.00 1.12092 0.09
8 4 1 2 o 1989.894 1980.797 180.00 1.12351 0.03
2 8 6 1 o 9328.830 10130.557 180.00 1.12020 0.32
7 4 4 2 o 133.699 116.106 180.00 1.12174 0.00
3 0 8 1 o 55459.98 53651.66 180.00 1.11840 0.76
8 1 3 2 o 17894.404 18646.861 180.00 1.12089 0.24
2 3 8 2 o 3059.932 3156.077 180.00 1.12092 0.04
4 4 7 1 o 0.062 0.093 0.00 1.11789 0.00
2 8 6 2 o 9300.230 10130.557 180.00 1.12020 0.16
4 9 4 1 o 6806.506 6254.393 0.00 1.11635 0.23
1 4 8 1 o 36453.00 34464.262 0.00 1.11615 1.02
3 0 8 2 o 52588.36 53651.66 180.00 1.11840 0.36
6 5 5 1 o 1762.805 1798.947 0.00 1.11565 0.05
4 4 7 2 o 0.083 0.093 0.00 1.11789 0.00
5 8 4 1 o 2903.712 2943.519 0.00 1.11498 0.09
3 1 8 1 o 3788.051 3747.389 0.00 1.11450 0.10
5 5 6 1 o 28237.404 27922.830 180.00 1.11438 0.80
4 8 5 1 o 2499.386 2461.256 0.00 1.11394 0.07
6 2 6 1 o 5220.280 5159.317 180.00 1.11357 0.15
4 9 4 2 o 6344.995 6254.393 0.00 1.11635 0.10
1 4 8 2 o 34382.043 34464.262 0.00 1.11615 0.47
0 12 0 1 o 1373.526 1409.301 0.00 1.11314 0.01
6 5 5 2 o 1692.271 1798.947 0.00 1.11565 0.02
5 8 4 2 o 2910.627 2943.519 0.00 1.11498 0.04
3 1 8 2 o 4001.870 3747.389 0.00 1.11450 0.06
5 5 6 2 o 30059.430 27922.830 180.00 1.11438 0.43
7 1 5 1 o 27883.207 25772.973 0.00 1.11152 0.83
4 8 5 2 o 2639.485 2461.256 0.00 1.11394 0.04
6 2 6 2 o 5880.412 5159.317 180.00 1.11357 0.09
0 12 0 2 o 1611.848 1409.301 0.00 1.11314 0.01
0 7 7 1 o 1.682 1.640 180.00 1.10957 0.00
8 2 3 1 o 3443.246 2749.603 180.00 1.10923 0.10
7 1 5 2 o 32248.953 25772.973 0.00 1.11152 0.49
5 1 7 1 o 7362.085 5841.588 180.00 1.10879 0.23
7 7 1 1 o 8316.800 7536.180 180.00 1.10764 0.23
0 7 7 2 o 1.655 1.640 180.00 1.10957 0.00
8 2 3 2 o 3255.817 2749.603 180.00 1.10923 0.04
5 1 7 2 o 8543.173 5841.588 180.00 1.10879 0.13
5 7 5 1 o 1946.386 1590.316 180.00 1.10494 0.05
7 7 1 2 o 9348.077 7536.180 180.00 1.10764 0.13
3 11 2 1 o 3760.822 2988.416 0.00 1.10480 0.13
2 11 3 1 o 13175.201 11224.063 0.00 1.10424 0.44
3 2 8 1 o 5640.674 5180.033 180.00 1.10305 0.15
5 9 3 1 o 5988.846 5790.225 180.00 1.10239 0.21
1 7 7 1 o 57744.77 57695.61 180.00 1.10226 1.67
5 7 5 2 o 1580.185 1590.316 180.00 1.10494 0.02
3 11 2 2 o 2865.114 2988.416 0.00 1.10480 0.05
2 11 3 2 o 9906.428 11224.063 0.00 1.10424 0.15
8 4 2 1 o 4972.004 5322.314 0.00 1.10087 0.14
3 9 5 1 o 12443.245 13104.041 0.00 1.10062 0.39
3 2 8 2 o 4948.912 5180.033 180.00 1.10305 0.07
7 2 5 1 o 765.657 810.429 180.00 1.10016 0.02
5 9 3 2 o 5347.167 5790.225 180.00 1.10239 0.09
1 7 7 2 o 53560.58 57695.61 180.00 1.10226 0.76
1 12 1 1 o 14478.832 14952.339 180.00 1.09842 0.50
8 4 2 2 o 5058.223 5322.314 0.00 1.10087 0.07
3 9 5 2 o 12199.825 13104.041 0.00 1.10062 0.19
7 6 3 1 o 2041.561 2261.561 180.00 1.09764 0.06
5 2 7 1 o 41236.39 46208.59 0.00 1.09751 1.13
7 2 5 2 o 704.722 810.429 180.00 1.10016 0.01
8 5 0 1 o 21514.531 23124.943 180.00 1.09653 0.31
4 10 3 1 o 209.261 219.190 0.00 1.09626 0.01
1 12 1 2 o 13971.000 14952.339 180.00 1.09842 0.24
3 10 4 1 o 15865.274 17426.014 180.00 1.09549 0.47
7 6 3 2 o 1961.650 2261.561 180.00 1.09764 0.03
5 2 7 2 o 40562.60 46208.59 0.00 1.09751 0.55
6 3 6 1 o 4942.139 5707.919 180.00 1.09471 0.15
2 4 8 1 o 5726.593 6734.299 180.00 1.09428 0.19
8 5 0 2 o 19191.684 23124.943 180.00 1.09653 0.14
4 10 3 2 o 184.998 219.190 0.00 1.09626 0.00
3 6 7 1 o 11531.461 13569.740 180.00 1.09327 0.35
3 10 4 2 o 14562.250 17426.014 180.00 1.09549 0.21
6 3 6 2 o 5689.680 5707.919 180.00 1.09471 0.09
6 7 4 1 o 1818.783 1801.124 180.00 1.09162 0.07
2 4 8 2 o 6767.660 6734.299 180.00 1.09428 0.11
8 3 3 1 o 203.185 202.299 180.00 1.09059 0.01
3 6 7 2 o 13668.994 13569.740 180.00 1.09327 0.21
5 10 1 1 o 4716.011 4314.017 180.00 1.09007 0.16
4 7 6 1 o 338.903 286.033 0.00 1.08946 0.01
8 5 1 1 o 18735.541 16588.072 180.00 1.08936 0.53
6 9 0 1 o 41212.90 36529.89 0.00 1.08916 0.64
6 7 4 2 o 2090.252 1801.124 180.00 1.09162 0.04
8 3 3 2 o 229.745 202.299 180.00 1.09059 0.00
7 5 4 1 o 327.354 285.569 180.00 1.08776 0.01
1 10 5 1 o 5691.193 4818.334 180.00 1.08750 0.22
5 10 1 2 o 4965.773 4314.017 180.00 1.09007 0.08
6 8 3 1 o 5870.104 5399.438 180.00 1.08692 0.17
4 7 6 2 o 319.266 286.033 0.00 1.08946 0.01
8 5 1 2 o 17981.225 16588.072 180.00 1.08936 0.25
6 9 0 2 o 40436.52 36529.89 0.00 1.08916 0.31
7 7 2 1 o 71.718 58.408 180.00 1.08593 0.00
7 5 4 2 o 286.533 285.569 180.00 1.08776 0.00
3 3 8 1 o 770.637 806.982 0.00 1.08471 0.02
1 10 5 2 o 4619.690 4818.334 180.00 1.08750 0.09
2 12 0 1 o 20934.539 22894.729 180.00 1.08448 0.36
4 5 7 1 o 919.983 1053.884 180.00 1.08424 0.03
6 8 3 2 o 4760.806 5399.438 180.00 1.08692 0.07
3 8 6 1 o 27707.100 33370.195 180.00 1.08405 0.76
0 12 2 1 o 12890.862 15835.948 0.00 1.08405 0.22
4 11 0 1 o 2241.983 2873.099 0.00 1.08399 0.04
7 7 2 2 o 32.255 58.408 180.00 1.08593 0.00
1 5 8 1 o 9835.270 12977.560 0.00 1.08266 0.25
6 9 1 1 o 11430.030 13621.271 0.00 1.08214 0.31
3 3 8 2 o 690.755 806.982 0.00 1.08471 0.01
7 3 5 1 o 0.848 11.451 180.00 1.08196 0.00
2 12 0 2 o 19582.891 22894.729 180.00 1.08448 0.17
4 5 7 2 o 910.544 1053.884 180.00 1.08424 0.01
3 8 6 2 o 28688.113 33370.195 180.00 1.08405 0.40
0 12 2 2 o 13397.912 15835.948 0.00 1.08405 0.12
4 11 0 2 o 2382.571 2873.099 0.00 1.08399 0.02
2 7 7 1 o 870.434 1043.697 0.00 1.08117 0.02
1 5 8 2 o 12553.793 12977.560 0.00 1.08266 0.17
5 3 7 1 o 19764.330 20182.668 180.00 1.07944 0.49
6 9 1 2 o 13356.817 13621.271 0.00 1.08214 0.19
7 3 5 2 o 9.000 11.451 180.00 1.08196 0.00
2 7 7 2 o 1086.064 1043.697 0.00 1.08117 0.02
1 9 6 1 o 14518.767 13897.810 180.00 1.07847 0.42
2 12 1 1 o 24275.059 21428.004 0.00 1.07755 0.78
1 12 2 1 o 477.241 430.679 0.00 1.07724 0.02
4 11 1 1 o 1343.451 1243.664 0.00 1.07707 0.04
5 3 7 2 o 20757.873 20182.668 180.00 1.07944 0.26
1 9 6 2 o 12911.269 13897.810 180.00 1.07847 0.18
1 11 4 1 o 1269.830 1302.366 180.00 1.07551 0.04
6 6 5 1 o 17663.283 17677.268 0.00 1.07516 0.49
2 12 1 2 o 21200.154 21428.004 0.00 1.07755 0.33
1 12 2 2 o 419.880 430.679 0.00 1.07724 0.01
4 11 1 2 o 1203.003 1243.664 0.00 1.07707 0.02
5 6 6 1 o 14824.009 16028.225 0.00 1.07402 0.39
8 0 4 1 o 4167.984 4605.380 180.00 1.07388 0.05
1 11 4 2 o 1113.936 1302.366 180.00 1.07551 0.02
6 6 5 2 o 13058.235 17677.268 0.00 1.07516 0.16
5 6 6 2 o 10622.878 16028.225 0.00 1.07402 0.12
8 0 4 2 o 2916.357 4605.380 180.00 1.07388 0.02
8 1 4 1 o 2222.136 2850.117 180.00 1.07043 0.04
6 4 6 1 o 4261.159 4824.318 180.00 1.06985 0.10
3 11 3 1 o 4155.614 4681.505 180.00 1.06957 0.11
5 10 2 1 o 9348.911 11029.735 0.00 1.06936 0.26
4 0 8 1 o 7305.545 9417.284 180.00 1.06898 0.07
8 5 2 1 o -1.608 0.869 180.00 1.06869 0.00
8 1 4 2 o 3082.270 2850.117 180.00 1.07043 0.03
6 4 6 2 o 4940.433 4824.318 180.00 1.06985 0.06
2 10 5 1 o 5480.280 5320.744 0.00 1.06723 0.16
3 11 3 2 o 4470.745 4681.505 180.00 1.06957 0.06
5 10 2 2 o 9963.576 11029.735 0.00 1.06936 0.14
4 0 8 2 o 7828.508 9417.284 180.00 1.06898 0.04
8 5 2 2 o -1.077 0.869 180.00 1.06869 0.00
8 4 3 1 o 352.995 426.199 0.00 1.06600 0.01
4 1 8 1 o 68.207 67.068 180.00 1.06557 0.00
2 10 5 2 o 5027.233 5320.744 0.00 1.06723 0.07
8 4 3 2 o 378.316 426.199 0.00 1.06600 0.00
4 1 8 2 o 67.952 67.068 180.00 1.06557 0.00
2 5 8 1 o 15849.514 15574.061 0.00 1.06265 0.41
6 9 2 1 o 413.936 439.111 0.00 1.06187 0.01
3 4 8 1 o 32.400 27.542 0.00 1.06051 0.00
8 2 4 1 o 13279.199 11776.525 0.00 1.06027 0.36
2 5 8 2 o 16397.549 15574.061 0.00 1.06265 0.21
6 9 2 2 o 466.808 439.111 0.00 1.06187 0.01
9 1 1 1 o 385.609 336.929 0.00 1.05890 0.02
2 9 6 1 o 10997.665 10466.150 0.00 1.05870 0.32
8 6 0 1 o 36084.98 36695.77 0.00 1.05801 0.48
7 4 5 1 o 96.034 98.177 0.00 1.05794 0.00
3 4 8 2 o 27.007 27.542 0.00 1.06051 0.00
8 2 4 2 o 11194.222 11776.525 0.00 1.06027 0.14
0 1 9 1 o 11594.873 12518.298 0.00 1.05742 0.14
2 12 2 1 o 3344.291 3534.328 180.00 1.05753 0.08
4 11 2 1 o 477.594 522.750 180.00 1.05707 0.02
9 1 1 2 o 377.428 336.929 0.00 1.05890 0.01
2 9 6 2 o 10941.948 10466.150 0.00 1.05870 0.16
2 11 4 1 o 5511.560 5425.519 180.00 1.05590 0.15
5 4 7 1 o 5714.367 5845.144 180.00 1.05559 0.15
4 2 8 1 o 2154.722 2222.916 0.00 1.05554 0.06
8 6 0 2 o 34835.719 36695.77 0.00 1.05801 0.23
7 4 5 2 o 91.236 98.177 0.00 1.05794 0.00
0 1 9 2 o 11504.676 12518.298 0.00 1.05742 0.07
2 12 2 2 o 3268.966 3534.328 180.00 1.05753 0.04
7 8 1 1 o 775.701 829.052 0.00 1.05459 0.02
4 11 2 2 o 482.408 522.750 180.00 1.05707 0.01
5 9 4 1 o 3927.825 4160.350 180.00 1.05429 0.11
4 9 5 1 o 9409.601 11503.011 180.00 1.05341 0.25
2 11 4 2 o 4512.213 5425.519 180.00 1.05590 0.06
5 4 7 2 o 4987.731 5845.144 180.00 1.05559 0.06
4 2 8 2 o 1890.675 2222.916 0.00 1.05554 0.02
7 7 3 1 o 15975.944 17515.789 180.00 1.05242 0.45
5 8 5 1 o 3352.450 3649.299 0.00 1.05226 0.10
7 8 1 2 o 769.219 829.052 0.00 1.05459 0.01
0 6 8 1 o 7515.820 8061.863 0.00 1.05177 0.09
5 9 4 2 o 3852.332 4160.350 180.00 1.05429 0.05
8 6 1 1 o 4357.602 4737.314 180.00 1.05158 0.11
1 1 9 1 o 9420.493 10417.073 180.00 1.05109 0.23
4 9 5 2 o 10369.467 11503.011 180.00 1.05341 0.14
7 6 4 1 o 11978.067 12183.928 180.00 1.05013 0.32
1 8 7 1 o 17633.869 17938.391 180.00 1.04994 0.51
7 7 3 2 o 17126.029 17515.789 180.00 1.05242 0.24
5 8 5 2 o 3541.776 3649.299 0.00 1.05226 0.05
0 6 8 2 o 7979.001 8061.863 0.00 1.05177 0.05
9 2 1 1 o 14882.391 15009.763 0.00 1.04905 0.39
8 6 1 2 o 4697.838 4737.314 180.00 1.05158 0.06
4 10 4 1 o 4649.554 4691.308 180.00 1.04892 0.12
3 7 7 1 o 6658.941 7011.333 180.00 1.04857 0.19
1 1 9 2 o 9812.146 10417.073 180.00 1.05109 0.12
7 6 4 2 o 12126.406 12183.928 180.00 1.05013 0.16
1 8 7 2 o 17910.451 17938.391 180.00 1.04994 0.26
4 6 7 1 o 0.012 0.000 0.00 1.04697 0.00
9 2 1 2 o 16052.419 15009.763 0.00 1.04905 0.21
4 10 4 2 o 4972.625 4691.308 180.00 1.04892 0.07
3 7 7 2 o 7358.342 7011.333 180.00 1.04857 0.11
1 6 8 1 o 1721.647 1662.585 0.00 1.04554 0.05
3 12 1 1 o 1745.762 1591.564 0.00 1.04526 0.05
4 6 7 2 o 0.196 0.000 0.00 1.04697 0.00
1 12 3 1 o 13605.321 11007.164 180.00 1.04450 0.41
8 3 4 1 o 46.350 46.332 180.00 1.04395 0.00
9 0 2 1 o 2429.550 2315.346 0.00 1.04304 0.03
1 6 8 2 o 1738.990 1662.585 0.00 1.04554 0.02
3 12 1 2 o 1682.748 1591.564 0.00 1.04526 0.02
1 12 3 2 o 13588.101 11007.164 180.00 1.04450 0.20
1 2 9 1 o 3342.321 2717.357 180.00 1.04146 0.11
8 3 4 2 o 46.351 46.332 180.00 1.04395 0.00
6 8 4 1 o 3.361 2.582 180.00 1.04073 0.00
9 0 2 2 o 2584.254 2315.346 0.00 1.04304 0.02
6 5 6 1 o 11507.318 10960.691 0.00 1.04024 0.32
7 0 6 1 o 4194.233 4276.063 0.00 1.04004 0.05
9 1 2 1 o 18816.330 20168.572 0.00 1.03988 0.47
4 3 8 1 o 131.475 193.658 0.00 1.03944 0.01
1 2 9 2 o 2046.560 2717.357 180.00 1.04146 0.03
4 8 6 1 o 5210.301 6228.028 0.00 1.03886 0.12
6 8 4 2 o 2.173 2.582 180.00 1.04073 0.00
6 5 6 2 o 10641.843 10960.691 0.00 1.04024 0.15
7 0 6 2 o 4280.645 4276.063 0.00 1.04004 0.03
9 1 2 2 o 20235.883 20168.572 0.00 1.03988 0.26
5 10 3 1 o 1072.493 1070.161 180.00 1.03732 0.02
7 1 6 1 o 626.748 653.723 180.00 1.03690 0.02
4 3 8 2 o 176.685 193.658 0.00 1.03944 0.00
8 5 3 1 o 4160.245 4440.263 180.00 1.03671 0.11
4 8 6 2 o 5979.852 6228.028 0.00 1.03886 0.07
7 8 2 1 o 19501.105 19750.924 180.00 1.03580 0.53
3 10 5 1 o 409.637 417.833 180.00 1.03583 0.02
6 1 7 1 o 736.904 748.427 0.00 1.03570 0.02
5 10 3 2 o 1239.293 1070.161 180.00 1.03732 0.01
7 1 6 2 o 768.012 653.723 180.00 1.03690 0.01
8 5 3 2 o 4862.421 4440.263 180.00 1.03671 0.06
9 3 1 1 o 2244.727 2327.590 180.00 1.03324 0.07
7 8 2 2 o 19144.064 19750.924 180.00 1.03580 0.26
3 10 5 2 o 394.575 417.833 180.00 1.03583 0.01
6 1 7 2 o 728.833 748.427 0.00 1.03570 0.01
8 6 2 1 o 12535.016 12883.313 0.00 1.03295 0.33
2 1 9 1 o 11.778 11.967 0.00 1.03276 0.00
6 7 5 1 o 16633.357 17971.809 0.00 1.03255 0.43
0 3 9 1 o 21198.094 23932.623 180.00 1.03187 0.26
3 5 8 1 o 3807.162 4226.162 180.00 1.03165 0.09
2 8 7 1 o 401.809 450.966 180.00 1.03167 0.01
5 7 6 1 o 3.016 3.948 180.00 1.03155 0.00
9 3 1 2 o 2276.157 2327.590 180.00 1.03324 0.03
9 2 2 1 o 1070.406 1078.256 0.00 1.03055 0.03
6 9 3 1 o 4263.235 4286.546 0.00 1.03048 0.12
8 6 2 2 o 12816.463 12883.313 0.00 1.03295 0.17
2 1 9 2 o 11.964 11.967 0.00 1.03276 0.00
6 7 5 2 o 18208.242 17971.809 0.00 1.03255 0.24
0 3 9 2 o 25189.227 23932.623 180.00 1.03187 0.16
7 5 5 1 o 521.732 508.588 0.00 1.02928 0.01
3 5 8 2 o 4495.899 4226.162 180.00 1.03165 0.06
2 8 7 2 o 481.635 450.966 180.00 1.03167 0.01
5 7 6 2 o 4.647 3.948 180.00 1.03155 0.00
9 2 2 2 o 1173.313 1078.256 0.00 1.03055 0.02
3 9 6 1 o 7033.499 6459.314 0.00 1.02803 0.20
6 9 3 2 o 4594.256 4286.546 0.00 1.03048 0.06
7 2 6 1 o 14452.275 14261.021 180.00 1.02765 0.37
2 6 8 1 o 19.395 20.025 180.00 1.02749 0.00
5 5 7 1 o 4869.253 5026.541 180.00 1.02712 0.10
3 12 2 1 o 3077.151 3181.892 180.00 1.02696 0.09
7 5 5 2 o 500.051 508.588 0.00 1.02928 0.00
6 2 7 1 o 530.591 555.388 0.00 1.02648 0.01
2 12 3 1 o 6237.493 6494.026 180.00 1.02651 0.18
6 10 0 1 o 11.062 11.178 180.00 1.02627 0.00
4 11 3 1 o 20655.016 22302.795 180.00 1.02609 0.58
1 3 9 1 o 7658.861 8397.417 180.00 1.02598 0.20
3 9 6 2 o 6105.432 6459.314 0.00 1.02803 0.08
3 11 4 1 o 231.047 242.048 0.00 1.02546 0.01
7 2 6 2 o 14399.408 14261.021 180.00 1.02765 0.18
2 6 8 2 o 21.029 20.025 180.00 1.02749 0.00
5 5 7 2 o 5095.401 5026.541 180.00 1.02712 0.06
0 11 5 1 o 10462.018 10240.670 0.00 1.02466 0.15
3 12 2 2 o 3204.463 3181.892 180.00 1.02696 0.05
6 2 7 2 o 546.953 555.388 0.00 1.02648 0.01
2 12 3 2 o 6418.033 6494.026 180.00 1.02651 0.09
6 10 0 2 o 11.091 11.178 180.00 1.02627 0.00
2 2 9 1 o 28698.436 30533.898 180.00 1.02362 0.71
4 11 3 2 o 20798.510 22302.795 180.00 1.02609 0.29
1 3 9 2 o 7691.775 8397.417 180.00 1.02598 0.10
0 10 6 1 o 10953.051 11757.736 0.00 1.02305 0.14
3 11 4 2 o 227.577 242.048 0.00 1.02546 0.00
8 4 4 1 o 32749.521 34782.199 0.00 1.02232 0.82
0 11 5 2 o 9360.529 10240.670 0.00 1.02466 0.07
0 13 1 1 o 13.106 14.005 0.00 1.02161 0.00
2 2 9 2 o 27738.938 30533.898 180.00 1.02362 0.34
5 11 1 1 o 115.988 124.261 0.00 1.02101 0.00
0 10 6 2 o 11063.946 11757.736 0.00 1.02305 0.07
6 10 1 1 o 2269.063 2372.470 0.00 1.02039 0.06
8 4 4 2 o 35669.76 34782.199 0.00 1.02232 0.46
0 13 1 2 o 14.488 14.005 0.00 1.02161 0.00
1 11 5 1 o 1384.792 1281.494 180.00 1.01889 0.04
5 11 1 2 o 135.759 124.261 0.00 1.02101 0.00
4 4 8 1 o 7032.043 7103.173 0.00 1.01809 0.15
6 10 1 2 o 2210.134 2372.470 0.00 1.02039 0.03
8 7 0 1 o 1322.503 1611.092 180.00 1.01734 0.03
1 10 6 1 o 25840.355 29774.063 0.00 1.01731 0.69
1 11 5 2 o 1280.319 1281.494 180.00 1.01889 0.02
1 13 1 1 o 899.644 771.070 0.00 1.01590 0.03
9 3 2 1 o 4691.507 3917.622 0.00 1.01555 0.12
4 4 8 2 o 8376.425 7103.173 0.00 1.01809 0.10
8 7 0 2 o 2023.098 1611.092 180.00 1.01734 0.02
1 10 6 2 o 34999.031 29774.063 0.00 1.01731 0.51
8 1 5 1 o 24258.924 21289.846 180.00 1.01457 0.63
5 0 8 1 o 23155.939 20975.088 0.00 1.01411 0.30
1 13 1 2 o 1017.508 771.070 0.00 1.01590 0.02
9 3 2 2 o 4933.282 3917.622 0.00 1.01555 0.06
7 3 6 1 o 400.760 337.226 180.00 1.01278 0.01
9 4 1 1 o 3045.264 2532.748 180.00 1.01226 0.08
8 1 5 2 o 26772.572 21289.846 180.00 1.01457 0.36
6 3 7 1 o 1039.281 837.100 0.00 1.01166 0.03
5 0 8 2 o 26248.373 20975.088 0.00 1.01411 0.18
8 7 1 1 o 518.253 418.747 0.00 1.01161 0.01
5 1 8 1 o 8179.734 7157.756 0.00 1.01120 0.21
9 1 3 1 o 5780.916 4776.573 180.00 1.01034 0.17
7 7 4 1 o 8.736 7.084 0.00 1.01033 0.00
7 3 6 2 o 403.596 337.226 180.00 1.01278 0.01
4 12 0 1 o 10292.622 8716.987 0.00 1.01018 0.15
9 4 1 2 o 3278.772 2532.748 180.00 1.01226 0.04
6 3 7 2 o 1129.832 837.100 0.00 1.01166 0.01
8 7 1 2 o 571.642 418.747 0.00 1.01161 0.01
2 3 9 1 o 1336.032 952.893 180.00 1.00891 0.04
5 1 8 2 o 10216.239 7157.756 0.00 1.01120 0.14
0 12 4 1 o 4009.275 3030.504 0.00 1.00881 0.05
9 1 3 2 o 6557.386 4776.573 180.00 1.01034 0.10
7 7 4 2 o 9.963 7.084 0.00 1.01033 0.00
4 12 0 2 o 10984.564 8716.987 0.00 1.01018 0.08
4 7 7 1 o 1944.831 1552.850 180.00 1.00751 0.05
6 6 6 1 o 60.510 48.214 180.00 1.00719 0.00
7 8 3 1 o 1577.744 975.659 0.00 1.00660 0.05
2 3 9 2 o 1479.891 952.893 180.00 1.00891 0.02
0 12 4 2 o 4240.999 3030.504 0.00 1.00881 0.03
1 7 8 1 o 40.322 22.014 0.00 1.00624 0.00
8 2 5 1 o 15197.801 11413.425 180.00 1.00590 0.42
3 1 9 1 o 11301.889 8898.246 0.00 1.00423 0.31
0 9 7 1 o 868.436 701.245 180.00 1.00423 0.01
7 8 3 2 o 1204.149 975.659 0.00 1.00660 0.02
8 6 3 1 o 1397.047 1181.107 0.00 1.00398 0.04
5 11 2 1 o 8033.749 6801.986 0.00 1.00393 0.24
1 4 9 1 o 9.083 5.846 180.00 1.00543 0.00
1 7 8 2 o 27.382 22.014 0.00 1.00624 0.00
8 2 5 2 o 12678.842 11413.425 180.00 1.00590 0.17
4 7 7 2 o 2025.581 1552.850 180.00 1.00751 0.03
6 10 2 1 o 5778.700 5236.663 180.00 1.00334 0.17
1 12 4 1 o 2845.542 2592.901 0.00 1.00331 0.08
3 8 7 1 o 4721.207 4350.843 0.00 1.00323 0.12
6 6 6 2 o 59.874 48.214 180.00 1.00719 0.00
2 13 0 1 o 23198.666 17437.727 0.00 1.00484 0.38
1 4 9 2 o 6.544 5.846 180.00 1.00543 0.00
4 12 1 1 o 2815.265 2142.537 0.00 1.00457 0.09
7 9 1 1 o 7004.846 6862.167 0.00 1.00280 0.22
5 2 8 1 o 6099.353 6154.583 0.00 1.00262 0.15
2 13 0 2 o 17111.990 17437.727 0.00 1.00484 0.13
2 11 5 1 o 5569.969 5638.572 0.00 1.00217 0.16
4 12 1 2 o 2121.800 2142.537 0.00 1.00457 0.03
9 2 3 1 o 22884.355 22942.088 0.00 1.00178 0.57
3 1 9 2 o 8877.015 8898.246 0.00 1.00423 0.12
0 9 7 2 o 699.715 701.245 180.00 1.00423 0.00
8 6 3 2 o 1187.078 1181.107 0.00 1.00398 0.01
5 11 2 2 o 6862.537 6801.986 0.00 1.00393 0.10
6 10 2 2 o 5394.372 5236.663 180.00 1.00334 0.08
5 9 5 1 o 2257.588 2227.547 180.00 1.00079 0.05
1 12 4 2 o 2657.529 2592.901 0.00 1.00331 0.04
3 8 7 2 o 4398.335 4350.843 0.00 1.00323 0.06
2 10 6 1 o 1558.788 1563.969 180.00 1.00066 0.05
7 9 1 2 o 6671.932 6862.167 0.00 1.00280 0.11
5 2 8 2 o 5995.069 6154.583 0.00 1.00262 0.07
2 11 5 2 o 5468.763 5638.572 0.00 1.00217 0.08
9 2 3 2 o 21713.680 22942.088 0.00 1.00178 0.27
3 6 8 1 o 24061.416 25269.852 180.00 0.99938 0.62
2 13 1 1 o 9804.984 10360.425 0.00 0.99932 0.29
1 13 2 1 o 7676.003 8247.532 180.00 0.99907 0.22
1 9 7 1 o 3748.243 4023.813 180.00 0.99880 0.11
3 12 3 1 o 9430.549 9767.738 0.00 0.99848 0.29
5 9 5 2 o 2182.193 2227.547 180.00 1.00079 0.02
2 10 6 2 o 1509.426 1563.969 180.00 1.00066 0.02
7 6 5 1 o 500.601 482.912 0.00 0.99723 0.02
3 6 8 2 o 25504.947 25269.852 180.00 0.99938 0.33
5 10 4 1 o 7798.023 7708.584 0.00 0.99694 0.22
2 13 1 2 o 10352.783 10360.425 0.00 0.99932 0.16
1 13 2 2 o 7994.550 8247.532 180.00 0.99907 0.12
8 5 4 1 o 5465.737 5657.174 0.00 0.99640 0.12
1 9 7 2 o 3863.271 4023.813 180.00 0.99880 0.05
4 10 5 1 o 215.689 223.148 0.00 0.99620 0.01
3 12 3 2 o 9425.813 9767.738 0.00 0.99848 0.15
3 2 9 1 o 671.006 691.201 180.00 0.99582 0.03
9 4 2 1 o 526.768 525.488 0.00 0.99561 0.01
5 6 7 1 o 21226.973 20755.063 180.00 0.99526 0.58
8 7 2 1 o 1145.895 1112.953 0.00 0.99499 0.04
7 6 5 2 o 502.534 482.912 0.00 0.99723 0.01
5 10 4 2 o 8152.446 7708.584 0.00 0.99694 0.12
8 5 4 2 o 5744.547 5657.174 0.00 0.99640 0.07
4 10 5 2 o 227.011 223.148 0.00 0.99620 0.00
3 2 9 2 o 786.877 691.201 180.00 0.99582 0.01
9 4 2 2 o 577.728 525.488 0.00 0.99561 0.01
7 4 6 1 o 41964.65 39485.80 180.00 0.99299 1.07
5 6 7 2 o 20972.301 20755.063 180.00 0.99526 0.29
8 7 2 2 o 1038.652 1112.953 0.00 0.99499 0.02
4 5 8 1 o 704.995 738.838 0.00 0.99247 0.01
8 3 5 1 o 3999.838 4365.315 0.00 0.99194 0.10
6 4 7 1 o 95.017 104.394 180.00 0.99194 0.00
6 9 4 1 o 15555.254 15583.082 180.00 0.99086 0.41
7 4 6 2 o 38235.98 39485.80 180.00 0.99299 0.47
2 7 8 1 o 174.919 186.150 180.00 0.99012 0.01
4 5 8 2 o 709.209 738.838 0.00 0.99247 0.01
8 3 5 2 o 4213.928 4365.315 0.00 0.99194 0.05
6 4 7 2 o 100.493 104.394 180.00 0.99194 0.00
2 4 9 1 o 6563.696 6672.332 0.00 0.98935 0.17
4 9 6 1 o 158.885 159.912 0.00 0.98925 0.00
6 8 5 1 o 14017.106 14173.603 180.00 0.98918 0.37
5 3 8 1 o 1602.724 1673.476 0.00 0.98879 0.04
6 9 4 2 o 13912.096 15583.082 180.00 0.99086 0.17
5 8 6 1 o 9066.061 10534.155 0.00 0.98829 0.22
4 12 2 1 o 10329.047 12220.839 0.00 0.98829 0.32
9 3 3 1 o 951.560 1111.133 180.00 0.98799 0.02
2 7 8 2 o 149.471 186.150 180.00 0.99012 0.00
2 12 4 1 o 6961.140 7836.604 180.00 0.98733 0.22
9 5 1 1 o 2183.671 2419.149 180.00 0.98707 0.07
2 4 9 2 o 6193.622 6672.332 0.00 0.98935 0.08
4 11 4 1 o -0.526 2.419 0.00 0.98696 0.00
4 9 6 2 o 152.919 159.912 0.00 0.98925 0.00
6 8 5 2 o 13111.159 14173.603 180.00 0.98918 0.17
7 9 2 1 o 1183.420 1298.157 0.00 0.98660 0.03
5 3 8 2 o 1476.448 1673.476 0.00 0.98879 0.02
0 5 9 1 o 427.988 481.847 180.00 0.98588 0.00
5 8 6 2 o 9284.529 10534.155 0.00 0.98829 0.12
4 12 2 2 o 10607.523 12220.839 0.00 0.98829 0.16
9 3 3 2 o 1081.940 1111.133 180.00 0.98799 0.01
2 12 4 2 o 8851.127 7836.604 180.00 0.98733 0.15
9 5 1 2 o 2848.456 2419.149 180.00 0.98707 0.05
4 11 4 2 o 9.033 2.419 0.00 0.98696 0.00
7 9 2 2 o 1595.742 1298.157 0.00 0.98660 0.02
0 5 9 2 o 789.011 481.847 180.00 0.98588 0.01
2 13 2 1 o 1907.906 1015.247 0.00 0.98329 0.07
2 9 7 1 o 1535.207 799.143 0.00 0.98303 0.05
3 3 9 1 o 9701.383 6769.813 0.00 0.98226 0.25
2 13 2 2 o 1203.334 1015.247 0.00 0.98329 0.02
1 5 9 1 o 8298.093 7363.810 180.00 0.98074 0.22
2 9 7 2 o 883.898 799.143 0.00 0.98303 0.01
3 3 9 2 o 9534.184 6769.813 0.00 0.98226 0.12
1 5 9 2 o 10105.199 7363.810 180.00 0.98074 0.14
0 13 3 1 o 19880.852 17411.986 180.00 0.97781 0.31
5 11 3 1 o 170.039 164.118 0.00 0.97728 0.01
6 10 3 1 o 479.657 506.495 180.00 0.97673 0.01
3 11 5 1 o 10721.815 10309.738 0.00 0.97604 0.30
8 8 0 1 o 29546.850 28839.244 0.00 0.97578 0.40
9 0 4 1 o 4469.671 4472.571 0.00 0.97551 0.06
0 13 3 2 o 17667.156 17411.986 180.00 0.97781 0.13
5 11 3 2 o 205.628 164.118 0.00 0.97728 0.00
3 10 6 1 o 1417.169 1176.448 0.00 0.97465 0.04
6 10 3 2 o 622.627 506.495 180.00 0.97673 0.01
3 11 5 2 o 12119.211 10309.738 0.00 0.97604 0.18
8 8 0 2 o 31173.615 28839.244 0.00 0.97578 0.21
8 4 5 1 o 1852.906 1740.030 0.00 0.97333 0.05
3 13 1 1 o 3172.698 2945.739 0.00 0.97341 0.08
9 0 4 2 o 4552.614 4472.571 0.00 0.97551 0.03
9 1 4 1 o 2039.095 2023.318 0.00 0.97292 0.05
1 13 3 1 o 764.978 751.978 0.00 0.97279 0.02
3 10 6 2 o 1272.433 1176.448 0.00 0.97465 0.02
6 7 6 1 o 750.925 655.046 0.00 0.97191 0.03
9 5 2 1 o 26448.297 25375.986 180.00 0.97162 0.68
8 4 5 2 o 1768.826 1740.030 0.00 0.97333 0.02
3 13 1 2 o 2970.847 2945.739 0.00 0.97341 0.04
0 8 8 1 o 11360.554 11088.798 0.00 0.97087 0.17
8 8 1 1 o 3972.485 3837.250 0.00 0.97072 0.11
9 1 4 2 o 2108.742 2023.318 0.00 0.97292 0.03
5 4 8 1 o 1671.234 1606.591 0.00 0.97035 0.04
1 13 3 2 o 786.978 751.978 0.00 0.97279 0.01
9 4 3 1 o 3901.762 3792.452 180.00 0.96960 0.10
7 8 4 1 o 7726.124 7515.625 180.00 0.96958 0.20
6 7 6 2 o 679.378 655.046 0.00 0.97191 0.01
9 5 2 2 o 25324.480 25375.986 180.00 0.97162 0.32
7 5 6 1 o 872.265 879.088 0.00 0.96919 0.02
8 7 3 1 o 16449.365 17018.313 180.00 0.96903 0.42
0 8 8 2 o 10629.164 11088.798 0.00 0.97087 0.08
8 8 1 2 o 3737.637 3837.250 0.00 0.97072 0.05
6 5 7 1 o 369.693 375.958 0.00 0.96820 0.01
4 1 9 1 o 8930.742 9159.140 180.00 0.96798 0.23
5 4 8 2 o 1566.751 1606.591 0.00 0.97035 0.02
6 11 0 1 o 2089.124 2126.170 180.00 0.96802 0.02
9 4 3 2 o 3554.586 3792.452 180.00 0.96960 0.04
8 6 4 1 o 289.388 308.134 180.00 0.96724 0.01
7 8 4 2 o 7032.944 7515.625 180.00 0.96958 0.09
4 8 7 1 o 16.383 17.623 180.00 0.96709 0.00
7 5 6 2 o 866.134 879.088 0.00 0.96919 0.01
8 7 3 2 o 17487.635 17018.313 180.00 0.96903 0.23
1 8 8 1 o 1780.329 1613.654 0.00 0.96596 0.05
6 5 7 2 o 413.800 375.958 0.00 0.96820 0.00
2 5 9 1 o 35.541 33.081 180.00 0.96580 0.00
4 1 9 2 o 10023.992 9159.140 180.00 0.96798 0.13
6 11 0 2 o 2291.946 2126.170 180.00 0.96802 0.01
7 1 7 1 o 26199.648 24424.377 0.00 0.96551 0.63
9 2 4 1 o 2997.583 2828.879 0.00 0.96527 0.08
8 6 4 2 o 348.031 308.134 180.00 0.96724 0.00
3 7 8 1 o 68.963 59.217 0.00 0.96489 0.00
4 8 7 2 o 19.745 17.623 180.00 0.96709 0.00
3 4 9 1 o 69.847 71.742 180.00 0.96418 0.00
4 6 8 1 o 4479.682 4520.721 180.00 0.96365 0.12
1 8 8 2 o 1609.557 1613.654 0.00 0.96596 0.02
2 5 9 2 o 33.391 33.081 180.00 0.96580 0.00
7 1 7 2 o 24502.336 24424.377 0.00 0.96551 0.29
6 11 1 1 o 16680.697 16774.566 0.00 0.96308 0.47
7 7 5 1 o 15603.346 16229.017 0.00 0.96296 0.42
9 2 4 2 o 2680.071 2828.879 0.00 0.96527 0.03
4 12 3 1 o 512.480 549.297 180.00 0.96283 0.01
3 7 8 2 o 52.676 59.217 0.00 0.96489 0.00
3 12 4 1 o 3504.853 3620.690 180.00 0.96231 0.10
10 0 0 1 o 730.707 696.955 0.00 0.96199 0.00
3 4 9 2 o 76.449 71.742 180.00 0.96418 0.00
4 6 8 2 o 4349.999 4520.721 180.00 0.96365 0.06
7 9 3 1 o 2480.497 2555.241 0.00 0.96127 0.05
5 7 7 1 o 682.871 723.514 180.00 0.96118 0.02
6 11 1 2 o 16101.351 16774.566 0.00 0.96308 0.22
7 7 5 2 o 15311.784 16229.017 0.00 0.96296 0.21
4 2 9 1 o 2496.388 2716.088 180.00 0.96045 0.06
1 11 6 1 o 2917.083 3146.152 0.00 0.96050 0.08
4 12 3 2 o 508.075 549.297 180.00 0.96283 0.01
3 12 4 2 o 3293.118 3620.690 180.00 0.96231 0.05
10 0 0 2 o 686.961 696.955 0.00 0.96199 0.00
10 1 0 1 o 4253.796 4224.807 180.00 0.95950 0.05
8 0 6 1 o 1582.985 1535.548 180.00 0.95933 0.02
7 9 3 2 o 2703.317 2555.241 0.00 0.96127 0.03
5 7 7 2 o 784.431 723.514 180.00 0.96118 0.01
9 6 1 1 o 6915.257 6522.050 180.00 0.95870 0.18
5 12 1 1 o 7056.867 6749.884 0.00 0.95863 0.20
3 13 2 1 o 3718.617 3584.257 0.00 0.95857 0.11
3 9 7 1 o 9659.215 9599.844 0.00 0.95833 0.24
4 2 9 2 o 2750.871 2716.088 180.00 0.96045 0.04
2 13 3 1 o 3510.081 3498.071 0.00 0.95821 0.10
7 2 7 1 o 469.648 461.991 180.00 0.95803 0.01
1 11 6 2 o 3170.531 3146.152 0.00 0.96050 0.05
6 0 8 1 o 2125.673 2044.984 180.00 0.95729 0.02
10 1 0 2 o 4310.751 4224.807 180.00 0.95950 0.02
8 0 6 2 o 1574.681 1535.548 180.00 0.95933 0.01
8 1 6 1 o 5380.927 5168.041 180.00 0.95687 0.16
1 12 5 1 o 259.701 254.687 0.00 0.95688 0.00
9 6 1 2 o 7238.188 6522.050 180.00 0.95870 0.10
5 12 1 2 o 7426.245 6749.884 0.00 0.95863 0.10
3 13 2 2 o 3937.048 3584.257 0.00 0.95857 0.06
8 8 2 1 o 7619.816 7311.937 0.00 0.95601 0.20
3 9 7 2 o 9872.509 9599.844 0.00 0.95833 0.13
2 13 3 2 o 3435.144 3498.071 0.00 0.95821 0.05
7 2 7 2 o 432.504 461.991 180.00 0.95803 0.00
6 0 8 2 o 2113.240 2044.984 180.00 0.95729 0.01
6 1 8 1 o 11151.158 10552.893 0.00 0.95484 0.31
10 1 1 1 o 20640.828 19558.563 0.00 0.95469 0.53
0 0 10 1 o 5771.130 5530.218 0.00 0.95467 0.03
8 1 6 2 o 5397.276 5168.041 180.00 0.95687 0.08
1 12 5 2 o 260.422 254.687 0.00 0.95688 0.00
0 14 0 1 o 47613.80 48976.42 0.00 0.95412 0.35
8 8 2 2 o 6597.417 7311.937 0.00 0.95601 0.08
7 10 1 1 o 6.237 6.408 0.00 0.95307 0.00
9 3 4 1 o 685.772 702.976 0.00 0.95291 0.02
1 6 9 1 o 1266.039 1291.883 0.00 0.95289 0.04
6 1 8 2 o 12186.646 10552.893 0.00 0.95484 0.17
10 1 1 2 o 22154.357 19558.563 0.00 0.95469 0.29
0 0 10 2 o 6099.186 5530.218 0.00 0.95467 0.02
10 2 0 1 o 14859.346 13774.161 180.00 0.95216 0.20
2 8 8 1 o 865.954 897.995 0.00 0.95168 0.03
0 14 0 2 o 48370.96 48976.42 0.00 0.95412 0.18
5 10 5 1 o 0.010 1.592 180.00 0.95134 0.00
8 5 5 1 o 626.960 578.902 180.00 0.95088 0.02
7 10 1 2 o 6.747 6.408 0.00 0.95307 0.00
9 3 4 2 o 896.965 702.976 0.00 0.95291 0.01
1 6 9 2 o 1780.454 1291.883 0.00 0.95289 0.03
1 0 10 1 o 24401.545 19334.521 0.00 0.95000 0.33
10 2 0 2 o 16449.348 13774.161 180.00 0.95216 0.11
8 2 6 1 o 2623.212 2386.134 0.00 0.94959 0.07
1 10 7 1 o 140.596 137.641 180.00 0.94963 0.00
2 8 8 2 o 974.920 897.995 0.00 0.95168 0.02
5 10 5 2 o 3.319 1.592 180.00 0.95134 0.00
6 11 2 1 o 1749.405 1645.343 180.00 0.94871 0.06
8 5 5 2 o 598.937 578.902 180.00 0.95088 0.01
4 3 9 1 o 21811.047 21335.516 0.00 0.94827 0.56
5 5 8 1 o 9161.967 8994.609 180.00 0.94810 0.23
1 0 10 2 o 19667.701 19334.521 0.00 0.95000 0.12
6 2 8 1 o 88.087 86.697 0.00 0.94760 0.00
1 1 10 1 o 3515.347 3465.939 0.00 0.94761 0.09
10 2 1 1 o 6591.734 6588.347 180.00 0.94746 0.16
9 5 3 1 o 208.473 209.005 180.00 0.94739 0.00
8 2 6 2 o 2337.502 2386.134 0.00 0.94959 0.03
1 10 7 2 o 137.204 137.641 180.00 0.94963 0.00
2 11 6 1 o 3335.505 3088.773 180.00 0.94645 0.11
6 11 2 2 o 1815.829 1645.343 180.00 0.94871 0.03
6 9 5 1 o 1032.734 982.506 0.00 0.94606 0.03
7 3 7 1 o 1777.482 1747.199 180.00 0.94594 0.04
4 3 9 2 o 21779.350 21335.516 0.00 0.94827 0.28
5 5 8 2 o 8921.817 8994.609 180.00 0.94810 0.11
6 2 8 2 o 86.872 86.697 0.00 0.94760 0.00
1 1 10 2 o 3473.922 3465.939 0.00 0.94761 0.05
5 9 6 1 o 15125.947 15084.317 0.00 0.94529 0.42
10 2 1 2 o 6486.465 6588.347 180.00 0.94746 0.08
9 5 3 2 o 206.994 209.005 180.00 0.94739 0.00
0 2 10 1 o 2828.915 2904.510 180.00 0.94507 0.04
4 13 0 1 o 805.657 844.222 0.00 0.94489 0.01
1 14 1 1 o 1299.722 1413.800 0.00 0.94480 0.05
9 6 2 1 o 975.285 1056.136 0.00 0.94452 0.02
5 12 2 1 o 1278.051 1394.902 0.00 0.94445 0.04
2 11 6 2 o 2649.089 3088.773 180.00 0.94645 0.04
6 9 5 2 o 885.082 982.506 0.00 0.94606 0.01
7 3 7 2 o 1677.087 1747.199 180.00 0.94594 0.02
5 11 4 1 o 762.989 691.731 0.00 0.94329 0.02
10 0 2 1 o 2128.541 1898.591 180.00 0.94303 0.03
5 9 6 2 o 16892.209 15084.317 0.00 0.94529 0.24
2 12 5 1 o 24179.053 21511.641 180.00 0.94299 0.72
6 10 4 1 o 13974.369 13083.060 180.00 0.94280 0.39
0 2 10 2 o 3044.584 2904.510 180.00 0.94507 0.02
4 11 5 1 o 32014.777 31416.594 180.00 0.94266 0.92
4 13 0 2 o 831.026 844.222 0.00 0.94489 0.01
3 5 9 1 o 3800.804 4055.347 0.00 0.94234 0.09
1 14 1 2 o 1332.001 1413.800 0.00 0.94480 0.03
7 6 6 1 o 256.408 279.298 0.00 0.94229 0.01
9 6 2 2 o 973.033 1056.136 0.00 0.94452 0.01
5 12 2 2 o 1284.568 1394.902 0.00 0.94445 0.02
6 6 7 1 o 325.722 287.700 180.00 0.94138 0.01
4 10 6 1 o 3033.965 2702.958 180.00 0.94141 0.09
5 11 4 2 o 767.887 691.731 0.00 0.94329 0.01
10 0 2 2 o 2005.827 1898.591 180.00 0.94303 0.01
10 1 2 1 o 1697.626 1587.021 180.00 0.94069 0.05
2 12 5 2 o 22610.402 21511.641 180.00 0.94299 0.33
1 2 10 1 o 4145.399 4090.574 0.00 0.94054 0.11
6 10 4 2 o 13011.627 13083.060 180.00 0.94280 0.18
10 3 0 1 o 326.412 338.953 180.00 0.94029 0.00
4 11 5 2 o 29681.193 31416.594 180.00 0.94266 0.42
4 13 1 1 o 20643.910 22267.434 180.00 0.94029 0.59
3 5 9 2 o 3533.002 4055.347 0.00 0.94234 0.04
7 6 6 2 o 235.301 279.298 0.00 0.94229 0.00
2 6 9 1 o 13091.678 14191.871 0.00 0.93917 0.34
1 13 4 1 o 978.136 1035.364 180.00 0.93926 0.03
7 10 2 1 o 10217.892 11199.779 0.00 0.93913 0.27
6 6 7 2 o 252.723 287.700 180.00 0.94138 0.00
4 10 6 2 o 2407.063 2702.958 180.00 0.94141 0.04
10 1 2 2 o 1286.797 1587.021 180.00 0.94069 0.02
1 2 10 2 o 3374.444 4090.574 0.00 0.94054 0.04
10 3 0 2 o 300.557 338.953 180.00 0.94029 0.00
4 13 1 2 o 17284.369 22267.434 180.00 0.94029 0.23
8 3 6 1 o 2023.720 2928.168 180.00 0.93781 0.06
2 6 9 2 o 13241.115 14191.871 0.00 0.93917 0.17
1 13 4 2 o 961.946 1035.364 180.00 0.93926 0.01
7 10 2 2 o 10468.940 11199.779 0.00 0.93913 0.14
9 4 4 1 o 1529.638 1673.173 0.00 0.93638 0.04
2 0 10 1 o 143.444 147.470 0.00 0.93641 0.00
2 10 7 1 o 24.700 26.772 180.00 0.93605 0.00
6 3 8 1 o 4173.027 4555.672 0.00 0.93590 0.12
8 7 4 1 o 971.275 1075.152 180.00 0.93587 0.04
10 3 1 1 o 36.563 39.607 180.00 0.93576 0.00
2 14 0 1 o 5355.710 5817.906 180.00 0.93589 0.09
8 3 6 2 o 2715.332 2928.168 180.00 0.93781 0.04
0 14 2 1 o 14218.558 15120.312 0.00 0.93561 0.23
6 8 6 1 o 539.257 581.251 180.00 0.93548 0.02
3 13 3 1 o 17402.943 18795.998 0.00 0.93529 0.54
8 9 0 1 o 10669.346 10157.058 0.00 0.93432 0.15
2 1 10 1 o 11747.065 11302.001 180.00 0.93411 0.31
9 4 4 2 o 1723.868 1673.173 0.00 0.93638 0.02
2 0 10 2 o 149.105 147.470 0.00 0.93641 0.00
10 2 2 1 o 5153.547 5267.479 180.00 0.93377 0.13
2 10 7 2 o 26.184 26.772 180.00 0.93605 0.00
6 3 8 2 o 4340.868 4555.672 0.00 0.93590 0.06
8 7 4 2 o 1009.530 1075.152 180.00 0.93587 0.02
10 3 1 2 o 36.981 39.607 180.00 0.93576 0.00
2 14 0 2 o 5544.670 5817.906 180.00 0.93589 0.05
0 14 2 2 o 14029.960 15120.312 0.00 0.93561 0.11
6 8 6 2 o 521.086 581.251 180.00 0.93548 0.01
8 8 3 1 o 834.934 933.019 180.00 0.93290 0.02
3 13 3 2 o 16678.947 18795.998 0.00 0.93529 0.26
4 7 8 1 o 473.621 507.776 180.00 0.93261 0.02
8 9 0 2 o 12247.425 10157.058 0.00 0.93432 0.09
4 4 9 1 o 414.337 350.420 0.00 0.93197 0.01
2 1 10 2 o 13121.819 11302.001 180.00 0.93411 0.18
10 2 2 2 o 5615.896 5267.479 180.00 0.93377 0.07
2 14 1 1 o 50.302 47.691 180.00 0.93142 0.00
1 14 2 1 o 16916.045 16534.104 0.00 0.93122 0.53
8 8 3 2 o 955.649 933.019 180.00 0.93290 0.01
9 1 5 1 o 1168.731 1103.107 180.00 0.93041 0.02
4 7 8 2 o 586.747 507.776 180.00 0.93261 0.01
4 12 4 1 o 225.968 212.923 0.00 0.93028 0.00
8 9 1 1 o 11159.021 9706.161 180.00 0.92987 0.32
7 4 7 1 o 278.911 244.139 0.00 0.92976 0.01
4 4 9 2 o 393.704 350.420 0.00 0.93197 0.01
9 1 5 2 o 1241.593 1103.107 180.00 0.93041 0.01
9 7 1 1 o 100.969 75.636 0.00 0.92813 0.00
4 12 4 2 o 234.572 212.923 0.00 0.93028 0.00
3 8 8 1 o 16324.959 15828.706 180.00 0.92921 0.44
1 3 10 1 o 1350.655 1342.851 0.00 0.92909 0.04
2 14 1 2 o 48.231 47.691 180.00 0.93142 0.00
8 9 1 2 o 11214.437 9706.161 180.00 0.92987 0.16
7 4 7 2 o 276.520 244.139 0.00 0.92976 0.00
7 9 4 1 o 109.657 110.590 0.00 0.92887 0.00
7 8 5 1 o 29.206 26.484 180.00 0.92749 0.00
1 14 2 2 o 16366.395 16534.104 0.00 0.93122 0.25
2 2 10 1 o 106.501 98.815 0.00 0.92733 0.00
0 7 9 1 o 22988.891 22440.777 0.00 0.92713 0.30
3 8 8 2 o 15545.812 15828.706 180.00 0.92921 0.21
1 3 10 2 o 1317.453 1342.851 0.00 0.92909 0.02
4 13 2 1 o 150.529 154.109 0.00 0.92690 0.01
5 1 9 1 o 2574.082 2564.480 180.00 0.92668 0.06
4 9 7 1 o 239.152 238.194 180.00 0.92668 0.01
7 9 4 2 o 113.906 110.590 0.00 0.92887 0.00
6 11 3 1 o 1639.364 1471.021 0.00 0.92612 0.05
2 13 4 1 o 12296.509 11067.869 180.00 0.92611 0.38
5 8 7 1 o 10710.655 10274.931 0.00 0.92590 0.28
9 7 1 2 o 78.922 75.636 0.00 0.92813 0.00
1 9 8 1 o 5907.569 6101.533 180.00 0.92569 0.16
8 6 5 1 o 4311.143 4722.106 0.00 0.92543 0.11
7 8 5 2 o 24.495 26.484 180.00 0.92749 0.00
2 2 10 2 o 91.414 98.815 0.00 0.92733 0.00
0 7 9 2 o 21063.961 22440.777 0.00 0.92713 0.14
4 13 2 2 o 148.170 154.109 0.00 0.92690 0.00
10 4 0 1 o 26038.086 27090.891 180.00 0.92440 0.33
5 1 9 2 o 2480.822 2564.480 180.00 0.92668 0.03
4 9 7 2 o 229.467 238.194 180.00 0.92668 0.00
3 11 6 1 o 846.544 887.712 180.00 0.92434 0.02
6 11 3 2 o 1330.985 1471.021 0.00 0.92612 0.02
9 2 5 1 o 1473.459 1605.794 180.00 0.92371 0.04
2 13 4 2 o 10029.578 11067.869 180.00 0.92611 0.15
5 8 7 2 o 9562.994 10274.931 0.00 0.92590 0.12
1 9 8 2 o 5993.110 6101.533 180.00 0.92569 0.08
8 6 5 2 o 5070.456 4722.106 0.00 0.92543 0.07
5 6 8 1 o 11558.657 10303.284 0.00 0.92287 0.32
1 7 9 1 o 6398.784 5723.322 180.00 0.92286 0.17
10 3 2 1 o 1477.208 1283.016 180.00 0.92256 0.05
9 6 3 1 o 9806.732 9408.949 180.00 0.92222 0.26
10 4 0 2 o 27011.777 27090.891 180.00 0.92440 0.17
5 12 3 1 o 17410.314 17138.887 0.00 0.92216 0.53
8 4 6 1 o 9064.594 9489.566 0.00 0.92204 0.24
3 11 6 2 o 861.996 887.712 180.00 0.92434 0.01
9 2 5 2 o 1408.342 1605.794 180.00 0.92371 0.02
3 12 5 1 o 1153.990 1117.421 180.00 0.92112 0.04
5 6 8 2 o 11775.812 10303.284 0.00 0.92287 0.16
1 7 9 2 o 6508.684 5723.322 180.00 0.92286 0.09
10 3 2 2 o 1465.692 1283.016 180.00 0.92256 0.03
6 4 8 1 o 320.241 301.980 0.00 0.92022 0.01
10 4 1 1 o 1436.610 1345.267 0.00 0.92009 0.04
5 2 9 1 o 150.203 134.547 180.00 0.92006 0.01
9 6 3 2 o 9750.853 9408.949 180.00 0.92222 0.13
5 12 3 2 o 17572.816 17138.887 0.00 0.92216 0.27
8 4 6 2 o 9531.860 9489.566 0.00 0.92204 0.13
3 12 5 2 o 1055.218 1117.421 180.00 0.92112 0.02
10 1 3 1 o 903.025 1004.911 0.00 0.91865 0.02
2 14 2 1 o 1634.304 1911.362 180.00 0.91840 0.04
6 4 8 2 o 258.057 301.980 0.00 0.92022 0.00
0 4 10 1 o 6510.302 8035.626 180.00 0.91790 0.06
10 4 1 2 o 1050.147 1345.267 0.00 0.92009 0.01
5 2 9 2 o 79.218 134.547 180.00 0.92006 0.00
3 6 9 1 o 307.385 468.070 0.00 0.91756 0.01
7 10 3 1 o 316.033 534.014 0.00 0.91720 0.01
8 9 2 1 o 27.941 31.136 0.00 0.91692 0.00
10 1 3 2 o 956.417 1004.911 0.00 0.91865 0.01
9 5 4 1 o 2882.588 3057.076 180.00 0.91633 0.08
2 3 10 1 o 3277.631 3470.670 180.00 0.91636 0.09
2 14 2 2 o 1743.435 1911.362 180.00 0.91840 0.02
0 4 10 2 o 5954.576 8035.626 180.00 0.91790 0.03
3 6 9 2 o 205.358 468.070 0.00 0.91756 0.01
9 7 2 1 o 11.691 17.119 0.00 0.91524 0.00
3 0 10 1 o 2.418 3.584 180.00 0.91498 0.00
7 10 3 2 o 428.151 534.014 0.00 0.91720 0.01
8 9 2 2 o 30.700 31.136 0.00 0.91692 0.00
3 10 7 1 o 3421.967 3566.741 0.00 0.91465 0.12
6 12 0 1 o 4580.142 4623.217 180.00 0.91437 0.07
9 5 4 2 o 3023.747 3057.076 180.00 0.91633 0.04
2 3 10 2 o 3417.575 3470.670 180.00 0.91636 0.05
1 4 10 1 o 505.849 429.063 0.00 0.91375 0.01
7 7 6 1 o 38.611 25.493 180.00 0.91321 0.00
2 9 8 1 o 10530.951 7859.732 180.00 0.91310 0.31
9 7 2 2 o 21.845 17.119 0.00 0.91524 0.00
9 3 5 1 o 7632.204 6171.841 180.00 0.91286 0.23
3 1 10 1 o 1262.459 1058.313 180.00 0.91284 0.03
3 0 10 2 o 4.390 3.584 180.00 0.91498 0.00
6 7 7 1 o 315.548 312.662 0.00 0.91239 0.01
3 10 7 2 o 3609.924 3566.741 0.00 0.91465 0.06
10 2 3 1 o 2458.498 2456.760 0.00 0.91220 0.07
4 5 9 1 o 1240.679 1239.941 0.00 0.91221 0.03
6 12 0 2 o 4663.354 4623.217 180.00 0.91437 0.04
0 12 6 1 o 5934.386 5849.128 0.00 0.91209 0.10
1 4 10 2 o 564.090 429.063 0.00 0.91375 0.01
7 7 6 2 o 37.378 25.493 180.00 0.91321 0.00
2 9 8 2 o 10476.179 7859.732 180.00 0.91310 0.15
9 3 5 2 o 8650.136 6171.841 180.00 0.91286 0.13
3 1 10 2 o 1428.952 1058.313 180.00 0.91284 0.02
2 7 9 1 o 331.009 248.651 0.00 0.91037 0.01
3 14 1 1 o 964.086 640.160 0.00 0.91033 0.04
7 5 7 1 o 6295.993 4766.834 0.00 0.91013 0.20
6 7 7 2 o 407.159 312.662 0.00 0.91239 0.01
6 12 1 1 o 13153.472 10079.576 180.00 0.91021 0.42
10 2 3 2 o 3008.698 2456.760 0.00 0.91220 0.04
4 5 9 2 o 1523.853 1239.941 0.00 0.91221 0.02
0 12 6 2 o 7183.789 5849.128 0.00 0.91209 0.06
1 14 3 1 o 541.666 413.504 180.00 0.90983 0.03
5 3 9 1 o 9022.347 8817.274 180.00 0.90934 0.26
2 7 9 2 o 238.697 248.651 0.00 0.91037 0.00
3 14 1 2 o 607.315 640.160 0.00 0.91033 0.01
1 12 6 1 o 5611.990 5761.363 0.00 0.90802 0.17
7 5 7 2 o 4682.363 4766.834 0.00 0.91013 0.07
6 12 1 2 o 9865.282 10079.576 180.00 0.91021 0.15
10 4 2 1 o 8814.042 8806.250 180.00 0.90754 0.24
1 14 3 2 o 413.871 413.504 180.00 0.90983 0.01
5 3 9 2 o 8673.024 8817.274 180.00 0.90934 0.12
0 11 7 1 o 1106.975 1115.132 180.00 0.90693 0.02
3 2 10 1 o 8409.243 7789.890 180.00 0.90651 0.23
7 11 1 1 o 7555.687 6504.875 0.00 0.90587 0.22
4 13 3 1 o 635.872 542.120 180.00 0.90580 0.02
1 12 6 2 o 6662.898 5761.363 0.00 0.90802 0.10
10 4 2 2 o 9379.702 8806.250 180.00 0.90754 0.13
3 13 4 1 o 296.831 275.749 0.00 0.90537 0.01
10 5 0 1 o 6324.696 6372.895 0.00 0.90510 0.08
0 13 5 1 o 15107.042 16514.406 180.00 0.90481 0.22
0 11 7 2 o 996.790 1115.132 180.00 0.90693 0.01
5 11 5 1 o 5562.941 6392.395 180.00 0.90440 0.16
3 2 10 2 o 6871.135 7789.890 180.00 0.90651 0.09
6 10 5 1 o 2541.271 2842.915 180.00 0.90396 0.07
7 11 1 2 o 5498.967 6504.875 0.00 0.90587 0.07
4 13 3 2 o 437.090 542.120 180.00 0.90580 0.01
5 10 6 1 o 384.394 455.022 0.00 0.90329 0.01
8 8 4 1 o 31.309 34.731 180.00 0.90321 0.00
3 13 4 2 o 248.545 275.749 0.00 0.90537 0.00
10 5 0 2 o 6132.405 6372.895 0.00 0.90510 0.04
8 5 6 1 o 3955.963 4158.178 0.00 0.90289 0.12
1 11 7 1 o 178.389 187.966 0.00 0.90292 0.01
0 13 5 2 o 16138.791 16514.406 180.00 0.90481 0.12
5 13 1 1 o 3648.286 3618.673 180.00 0.90230 0.13
5 11 5 2 o 6570.409 6392.395 180.00 0.90440 0.10
10 3 3 1 o 11954.775 11903.239 0.00 0.90175 0.32
6 10 5 2 o 2844.641 2842.915 180.00 0.90396 0.04
2 4 10 1 o 914.474 966.236 0.00 0.90163 0.04
6 5 8 1 o 8249.322 10089.011 180.00 0.90118 0.22
10 5 1 1 o 2040.595 2499.645 0.00 0.90106 0.05
7 0 8 1 o 920.795 1161.918 0.00 0.90104 0.01
5 10 6 2 o 370.641 455.022 0.00 0.90329 0.00
8 8 4 2 o 29.649 34.731 180.00 0.90321 0.00
1 13 5 1 o 5206.776 6439.243 180.00 0.90084 0.15
8 5 6 2 o 3391.725 4158.178 0.00 0.90289 0.05
1 11 7 2 o 154.434 187.966 0.00 0.90292 0.00
4 8 8 1 o 662.802 678.483 180.00 0.90028 0.01
5 13 1 2 o 3947.749 3618.673 180.00 0.90230 0.07
8 1 7 1 o 223.043 188.472 180.00 0.89991 0.01
10 3 3 2 o 14922.781 11903.239 0.00 0.90175 0.21
2 4 10 2 o 1300.025 966.236 0.00 0.90163 0.02
7 1 8 1 o 342.764 297.809 180.00 0.89900 0.01
6 5 8 2 o 11504.528 10089.011 180.00 0.90118 0.17
10 5 1 2 o 2708.161 2499.645 0.00 0.90106 0.04
7 0 8 2 o 1265.697 1161.918 0.00 0.90104 0.01
6 9 6 1 o 6519.401 6115.065 180.00 0.89876 0.20
1 13 5 2 o 6740.669 6439.243 180.00 0.90084 0.11
9 4 5 1 o 430.946 390.934 0.00 0.89830 0.01
3 14 2 1 o 9344.331 8333.675 0.00 0.89816 0.31
4 8 8 2 o 735.285 678.483 180.00 0.90028 0.01
6 12 2 1 o 2781.258 2504.954 180.00 0.89804 0.08
8 7 5 1 o 25676.375 23582.529 180.00 0.89784 0.74
2 14 3 1 o 15.708 14.489 0.00 0.89786 0.00
8 1 7 2 o 197.923 188.472 180.00 0.89991 0.00
6 11 4 1 o 7195.408 7399.222 0.00 0.89705 0.24
7 1 8 2 o 298.147 297.809 180.00 0.89900 0.00
6 9 6 2 o 6439.574 6115.065 180.00 0.89876 0.10
8 9 3 1 o 2427.790 2277.197 180.00 0.89648 0.07
3 3 10 1 o 145.207 134.696 180.00 0.89625 0.00
9 8 1 1 o 4540.080 4151.088 0.00 0.89624 0.13
9 4 5 2 o 429.476 390.934 0.00 0.89830 0.01
2 12 6 1 o 17.779 17.616 180.00 0.89612 0.00
3 14 2 2 o 8989.578 8333.675 0.00 0.89816 0.15
4 11 6 1 o 1027.618 959.790 180.00 0.89585 0.04
6 12 2 2 o 2620.962 2504.954 180.00 0.89804 0.04
8 7 5 2 o 23340.486 23582.529 180.00 0.89784 0.33
2 14 3 2 o 14.428 14.489 0.00 0.89786 0.00
5 7 8 1 o 34.947 37.543 0.00 0.89551 0.00
1 5 10 1 o 3635.065 4602.913 180.00 0.89510 0.10
5 4 9 1 o 29.804 39.931 180.00 0.89494 0.00
9 7 3 1 o 1228.632 1643.909 180.00 0.89491 0.04
6 11 4 2 o 5589.483 7399.222 0.00 0.89705 0.09
8 9 3 2 o 2065.399 2277.197 180.00 0.89648 0.03
3 3 10 2 o 123.538 134.696 180.00 0.89625 0.00
9 8 1 2 o 3742.026 4151.088 0.00 0.89624 0.05
8 2 7 1 o 181.908 200.491 0.00 0.89384 0.01
7 11 2 1 o 337.208 371.911 180.00 0.89388 0.01
2 12 6 2 o 17.464 17.616 180.00 0.89612 0.00
8 10 0 1 o 1018.669 1070.205 180.00 0.89370 0.01
4 11 6 2 o 916.488 959.790 180.00 0.89585 0.02
9 6 4 1 o 2500.576 2501.735 0.00 0.89350 0.07
5 12 4 1 o 2559.392 2521.930 0.00 0.89344 0.08
5 7 8 2 o 40.002 37.543 0.00 0.89551 0.00
3 9 8 1 o 2459.296 2288.934 0.00 0.89320 0.07
7 2 8 1 o 8490.505 8054.559 180.00 0.89295 0.23
1 5 10 2 o 4764.197 4602.913 180.00 0.89510 0.07
4 12 5 1 o 2106.377 2022.528 180.00 0.89291 0.07
5 4 9 2 o 38.889 39.931 180.00 0.89494 0.00
9 7 3 2 o 1584.343 1643.909 180.00 0.89491 0.03
10 0 4 1 o 21214.357 22608.346 180.00 0.89224 0.29
8 2 7 2 o 191.215 200.491 0.00 0.89384 0.00
7 9 5 1 o 5206.496 5456.340 0.00 0.89166 0.18
7 11 2 2 o 356.553 371.911 180.00 0.89388 0.01
8 10 0 2 o 1020.208 1070.205 180.00 0.89370 0.01
1 8 9 1 o 9.649 11.068 0.00 0.89149 0.00
9 6 4 2 o 2426.860 2501.735 0.00 0.89350 0.03
5 12 4 2 o 2483.851 2521.930 0.00 0.89344 0.04
2 11 7 1 o 315.516 317.997 0.00 0.89122 0.01
3 9 8 2 o 2452.379 2288.934 0.00 0.89320 0.04
7 2 8 2 o 8974.604 8054.559 180.00 0.89295 0.13
4 12 5 2 o 2259.448 2022.528 180.00 0.89291 0.04
3 7 9 1 o 5037.182 4523.500 0.00 0.89065 0.15
5 13 2 1 o 9279.356 8616.114 0.00 0.89045 0.30
10 1 4 1 o 8585.647 8158.253 0.00 0.89025 0.26
5 9 7 1 o 11023.952 10475.619 180.00 0.89025 0.35
