#------------------------------------------------------------------------------
#$Date: 2016-03-21 01:21:50 +0200 (Mon, 21 Mar 2016) $
#$Revision: 178377 $
#$URL: svn://www.crystallography.net/cod/cif/4/00/12/4001204.cif $
#------------------------------------------------------------------------------
#
# This file is available in the Crystallography Open Database (COD),
# http://www.crystallography.net/
#
# All data on this site have been placed in the public domain by the
# contributors.
#
data_4001204
loop_
_publ_author_name
'Zhou, Yongkai'
'Adams, Stefan'
'Rao, R. Prasada'
'Edwards, Doreen D.'
'Neiman, Arkady'
'Pestereva, N.'
_publ_section_title
;
 Charge Transport by Polyatomic Anion Diffusion in Sc2(WO4)3
;
_journal_issue                   20
_journal_name_full               'Chemistry of Materials'
_journal_page_first              6335
_journal_paper_doi               10.1021/cm800466y
_journal_volume                  20
_journal_year                    2008
_chemical_formula_moiety         ' Sc2(WO4)3 '
_chemical_formula_sum            'O12 Sc2 W3'
_chemical_formula_weight         833.45
_chemical_melting_point          1913
_chemical_name_common            ' Scandium Tungstate '
_chemical_name_systematic        ' Scandium Tungstate '
_space_group_IT_number           60
_symmetry_cell_setting           orthorhombic
_symmetry_space_group_name_Hall  '-P 2a 2n'
_symmetry_space_group_name_H-M   'P n c a'
_audit_creation_date             2008-01-25T12:03
_audit_creation_method           'from EXP file using GSAS2CIF'
_audit_update_record
' 2008-01-25T12:03  Initial CIF as created by GSAS2CIF'
_cell_angle_alpha                90.0
_cell_angle_beta                 90.0
_cell_angle_gamma                90.0
_cell_formula_units_Z            4
_cell_length_a                   9.62166(6)
_cell_length_b                   13.35709(8)
_cell_length_c                   9.54792(6)
_cell_measurement_temperature    1150
_cell_volume                     1227.074(13)
_computing_structure_refinement  GSAS
_diffrn_radiation_polarisn_ratio 0.68
_diffrn_radiation_probe          x-ray
_exptl_absorpt_correction_T_max  1.00000
_exptl_absorpt_correction_T_min  1.00000
_exptl_absorpt_process_details
;   GSAS Absorption/surface roughness correction: function number 0
 No correction is applied.
;
_pd_block_id
2008-01-25T12:03|T11K|Zhou_Yongkai|Philips_Xpert
_pd_calc_method                  'Rietveld Refinement'
_pd_instr_location               ' ?'
_pd_meas_2theta_range_inc        0.017
_pd_meas_2theta_range_max        119.9874
_pd_meas_2theta_range_min        10.0144
_pd_meas_number_of_points        6470
_pd_proc_2theta_range_inc        0.017
_pd_proc_2theta_range_max        119.9874
_pd_proc_2theta_range_min        10.0144
_pd_proc_info_datetime           2008-01-25T12:31:36
_pd_proc_info_excluded_regions   ' ?'
_pd_proc_ls_background_function
;   GSAS Background function number 1 with 12 terms.
 Shifted Chebyshev function of 1st kind
      1:    391.716     2:   -17.2727     3:   -17.5763     4:    60.8251    
      5:   -7.69767     6:    10.7459     7:   -12.1459     8:    5.44036    
      9:    10.5752    10:   -24.9005    11:    20.9706    12:   -5.99013    
;
_pd_proc_ls_peak_cutoff          0.00250
_pd_proc_ls_pref_orient_corr
;   March-Dollase
 AXIS  1 Ratio=   0.95556  h= 0.000  k= 1.000  l= 0.000
 Prefered orientation correction range: Min=   0.93410, Max=   1.14609
;
_pd_proc_ls_profile_function
;
 CW Profile function number 3 with  19 terms
 Pseudovoigt profile coefficients as parameterized in
 P. Thompson, D.E. Cox & J.B. Hastings (1987). J. Appl. Cryst.,20,79-83.
 Asymmetry correction of L.W. Finger, D.E. Cox & A. P. Jephcoat (1994).
 J. Appl. Cryst.,27,892-900.
 Peak tails are ignored  where the intensity is below 0.0025 times the peak
   Aniso. broadening axis   0.0   0.0   1.0
;
_pd_proc_ls_prof_R_factor        0.0490
_pd_proc_ls_prof_wR_expected     0.0365
_pd_proc_ls_prof_wR_factor       0.0639
_pd_proc_number_of_points        6470
_pd_spec_mounting                ' ?'
_refine_ls_goodness_of_fit_all   1.85
_refine_ls_matrix_type           full
_refine_ls_number_parameters     51
_refine_ls_number_restraints     0
_refine_ls_R_Fsqd_factor         0.07284
_refine_ls_shift/su_max          0.03
_refine_ls_shift/su_mean         0.01
_reflns_d_resolution_high        0.890
_reflns_d_resolution_low         6.679
_reflns_limit_h_max              10
_reflns_limit_h_min              0
_reflns_limit_k_max              15
_reflns_limit_k_min              0
_reflns_limit_l_max              10
_reflns_limit_l_min              0
_reflns_number_total             1823
_cod_data_source_file            cm800466y_si_024.cif
_cod_data_source_block           T1150K
_cod_depositor_comments
;
The following automatic conversions were performed:

'_chemical_melting_point' value ' 1913K ' was changed to '1913' - the
value should be numeric and without a unit
designator.

'_geom_bond_publ_flag' value 'N' changed to 'n'
according to /home/saulius/struct/CIF-dictionaries/cif_core.dic
dictionary named 'cif_core.dic' version 2.4.1 from 2010-06-29 (26
times).

'_geom_angle_publ_flag' value 'N' changed to 'n' according
to /home/saulius/struct/CIF-dictionaries/cif_core.dic dictionary
named 'cif_core.dic' version 2.4.1 from 2010-06-29 (33 times).

Automatic conversion script
Id: cif_fix_values 1715 2011-07-08 13:25:40Z adriana 
;
_cod_original_cell_volume        1227.073(14)
_cod_database_code               4001204
#BEGIN Tags that were not found in dictionaries:
_gsas_exptl_extinct_corr_t_min   1.00000
_gsas_exptl_extinct_corr_t_max   1.00000
#END Tags that were not found in dictionaries
loop_
_symmetry_equiv_pos_site_id
_symmetry_equiv_pos_as_xyz
1 +x,+y,+z
2 -x+1/2,+y+1/2,+z+1/2
3 +x,-y+1/2,+z+1/2
4 -x+1/2,-y,+z
-1 -x,-y,-z
-2 +x+1/2,-y+1/2,-z+1/2
-3 -x,+y+1/2,-z+1/2
-4 +x+1/2,+y,-z
loop_
_atom_site_type_symbol
_atom_site_label
_atom_site_fract_x
_atom_site_fract_y
_atom_site_fract_z
_atom_site_occupancy
_atom_site_thermal_displace_type
_atom_site_U_iso_or_equiv
_atom_site_symmetry_multiplicity
Sc Sc1 0.4712(4) 0.38253(26) 0.2469(5) 1.0 Uiso 0.0284(12) 8
W W1 0.25 0.0 0.47091(17) 1.0 Uiso 0.0335(4) 4
W W2 0.11236(12) 0.35634(9) 0.39043(12) 1.0 Uiso 0.0335(4) 8
O O1 0.0937(14) 0.1277(10) 0.0671(14) 1.0 Uiso 0.0776(22) 8
O O2 0.1529(14) 0.0779(9) 0.3756(15) 1.0 Uiso 0.0776(22) 8
O O3 0.0034(14) 0.2635(11) 0.3131(13) 1.0 Uiso 0.0776(22) 8
O O4 0.3351(14) 0.4063(9) 0.0740(14) 1.0 Uiso 0.0776(22) 8
O O5 0.0512(13) 0.4734(10) 0.3212(14) 1.0 Uiso 0.0776(22) 8
O O6 0.2921(15) 0.3481(10) 0.3393(14) 1.0 Uiso 0.0776(22) 8
loop_
_atom_type_symbol
_atom_type_number_in_cell
_atom_type_scat_dispersion_real
_atom_type_scat_dispersion_imag
_atom_type_scat_Cromer_Mann_a1
_atom_type_scat_Cromer_Mann_a2
_atom_type_scat_Cromer_Mann_a3
_atom_type_scat_Cromer_Mann_a4
_atom_type_scat_Cromer_Mann_b1
_atom_type_scat_Cromer_Mann_b2
_atom_type_scat_Cromer_Mann_b3
_atom_type_scat_Cromer_Mann_b4
_atom_type_scat_Cromer_Mann_c
_atom_type_scat_source
Sc 8.0 0.000 0.000 9.18900 9.02130 7.36790 0.57290 1.64090 136.108 1.46800
51.3531 1.33290 International_Tables_Vol_C
W 12.0 0.000 0.000 29.0818 1.72029 15.4300 9.22590 14.4327 0.32170 5.11982
57.0560 9.88750 International_Tables_Vol_C
O 48.0 0.000 0.000 3.04850 13.2771 2.28680 5.70110 1.54630 0.32390 0.86700
32.9089 0.25080 International_Tables_Vol_C
loop_
_diffrn_radiation_wavelength
_diffrn_radiation_wavelength_wt
_diffrn_radiation_type
_diffrn_radiation_wavelength_id
1.540500 1.000 K\a~1~ 1
1.544300 0.000 K\a~2~ 2
loop_
_geom_angle_atom_site_label_1
_geom_angle_atom_site_label_2
_geom_angle_atom_site_label_3
_geom_angle
_geom_angle_site_symmetry_1
_geom_angle_site_symmetry_3
_geom_angle_publ_flag
O1 Sc1 O2 91.1(5) -2_666 -2_666 n
O1 Sc1 O3 95.0(5) -2_666 -2_666 n
O1 Sc1 O4 173.1(6) -2_666 1_555 n
O1 Sc1 O5 80.3(5) -2_666 4_565 n
O1 Sc1 O6 95.4(6) -2_666 1_555 n
O2 Sc1 O3 87.7(6) -2_666 -2_666 n
O2 Sc1 O4 92.4(6) -2_666 1_555 n
O2 Sc1 O5 92.4(5) -2_666 4_565 n
O2 Sc1 O6 173.5(6) -2_666 1_555 n
O3 Sc1 O4 91.0(5) -2_666 1_555 n
O3 Sc1 O5 175.3(6) -2_666 4_565 n
O3 Sc1 O6 92.0(5) -2_666 1_555 n
O4 Sc1 O5 93.6(5) 1_555 4_565 n
O4 Sc1 O6 81.1(5) 1_555 1_555 n
O5 Sc1 O6 88.4(5) 4_565 1_555 n
O2 W1 O2 113.9(10) 1_555 4_555 n
O2 W1 O4 118.7(6) 1_555 2_545 n
O2 W1 O4 96.9(6) 1_555 3_555 n
O2 W1 O4 96.9(6) 4_555 2_545 n
O2 W1 O4 118.7(6) 4_555 3_555 n
O4 W1 O4 113.3(8) 2_545 3_555 n
O1 W2 O3 115.7(6) 3_555 1_555 n
O1 W2 O5 102.7(6) 3_555 1_555 n
O1 W2 O6 112.1(6) 3_555 1_555 n
O3 W2 O5 105.1(7) 1_555 1_555 n
O3 W2 O6 114.2(6) 1_555 1_555 n
O5 W2 O6 105.5(6) 1_555 1_555 n
Sc1 O1 W2 152.4(8) -2_466 3_554 n
Sc1 O2 W1 153.8(8) -2_555 1_555 n
Sc1 O3 W2 149.7(8) -2_466 1_555 n
Sc1 O4 W1 144.2(8) 1_555 2_554 n
Sc1 O5 W2 166.6(8) 4_565 1_555 n
Sc1 O6 W2 159.7(8) 1_555 1_555 n
loop_
_geom_bond_atom_site_label_1
_geom_bond_atom_site_label_2
_geom_bond_distance
_geom_bond_site_symmetry_2
_geom_bond_publ_flag
Sc1 O1 2.136(14) -2_555 n
Sc1 O2 2.168(14) -2_555 n
Sc1 O3 2.056(14) -2_555 n
Sc1 O4 2.130(13) 1_555 n
Sc1 O5 2.063(13) 4_565 n
Sc1 O6 1.990(14) 1_555 n
W1 O2 1.669(13) 1_555 n
W1 O2 1.669(13) 4_555 n
W1 O4 1.791(12) 2_545 n
W1 O4 1.791(12) 3_555 n
W2 O1 1.710(13) 3_555 n
W2 O3 1.784(13) 1_555 n
W2 O5 1.796(13) 1_555 n
W2 O6 1.800(15) 1_555 n
O1 Sc1 2.136(14) -2_455 n
O1 W2 1.710(13) 3_554 n
O2 Sc1 2.168(14) -2_455 n
O2 W1 1.669(13) 1_555 n
O3 Sc1 2.056(14) -2_455 n
O3 W2 1.784(13) 1_555 n
O4 Sc1 2.130(13) 1_555 n
O4 W1 1.791(12) 2_554 n
O5 Sc1 2.063(13) 4_565 n
O5 W2 1.796(13) 1_555 n
O6 Sc1 1.990(14) 1_555 n
O6 W2 1.800(15) 1_555 n
loop_
_pd_meas_counts_total
_pd_proc_ls_weight
_pd_proc_intensity_bkg_calc
_pd_calc_intensity_total
300.0 0.0 628.72083 .
274.0 0.0 625.02985 .
277.0 0.0 621.36749 .
314.0 0.0 617.73352 .
315.0 0.0 614.12744 .
294.0 0.0 610.54999 .
305.0 0.0 607.00031 .
301.0 0.0 603.47821 .
289.0 0.0 599.98419 .
311.0 0.0 596.51703 .
304.0 0.0 593.07788 .
286.0 0.0 589.66559 .
311.0 0.0 586.28064 .
295.0 0.0 582.92261 .
323.0 0.0 579.59143 .
319.0 0.0 576.28693 .
300.0 0.0 573.00897 .
269.0 0.0 569.75708 .
260.0 0.0 566.53217 .
263.0 0.0 563.33325 .
283.0 0.0 560.16034 .
270.0 0.0 557.01318 .
294.0 0.0 553.89154 .
305.0 0.0 550.79596 .
288.0 0.0 547.72595 .
301.0 0.0 544.68109 .
294.0 0.0 541.66144 .
278.0 0.0 538.66687 .
295.0 0.0 535.69727 .
307.0 0.0 532.75299 .
295.0 0.0 529.83282 .
297.0 0.0 526.93750 .
312.0 0.0 524.06641 .
295.0 0.0 521.22009 .
302.0 0.0 518.39795 .
310.0 0.0 515.59967 .
311.0 0.0 512.82544 .
319.0 0.0 510.07480 .
287.0 0.0 507.34818 .
289.0 0.0 504.64520 .
315.0 0.0 501.96552 .
300.0 0.0 499.30917 .
313.0 0.0 496.67584 .
313.0 0.0 494.06589 .
316.0 0.0 491.47910 .
312.0 0.0 488.91486 .
327.0 0.0 486.37335 .
321.0 0.0 483.85431 .
282.0 0.0 481.35812 .
293.0 0.0 478.88419 .
294.0 0.0 476.43259 .
326.0 0.0 474.00281 .
333.0 0.0 471.59509 .
301.0 0.0 469.20938 .
284.0 0.0 466.84558 .
313.0 0.0 464.50330 .
307.0 0.0 462.18253 .
300.0 0.0 459.88306 .
312.0 0.0 457.60519 .
325.0 0.0 455.34857 .
303.0 0.0 453.11285 .
295.0 0.0 450.89792 .
303.0 0.0 448.70392 .
293.0 0.0 446.53079 .
263.0 0.0 444.37836 .
313.0 0.0 442.24640 .
287.0 0.0 440.13467 .
323.0 0.0 438.04327 .
315.0 0.0 435.97208 .
309.0 0.0 433.92108 .
292.0 0.0 431.89005 .
306.0 0.0 429.87863 .
316.0 0.0 427.88702 .
306.0 0.0 425.91507 .
298.0 0.0 423.96280 .
288.0 0.0 422.02975 .
295.0 0.0 420.11594 .
320.0 0.0 418.22150 .
318.0 0.0 416.34595 .
331.0 0.0 414.48953 .
357.0 0.0 412.65207 .
332.0 0.0 410.83322 .
300.0 0.0 409.03293 .
314.0 0.0 407.25131 .
325.0 0.0 405.48837 .
308.0 0.0 403.74353 .
301.0 0.0 402.01694 .
329.0 0.0 400.30856 .
322.0 0.0 398.61813 .
321.0 0.0 396.94574 .
337.0 0.0 395.29117 .
343.0 0.0 393.65421 .
333.0 0.0 392.03488 .
315.0 0.0 390.43317 .
309.0 0.0 388.84885 .
322.0 0.0 387.28204 .
318.0 0.0 385.73215 .
296.0 0.0 384.19949 .
301.0 0.0 382.68393 .
315.0 0.0 381.18527 .
326.0 0.0 379.70352 .
310.0 0.0 378.23831 .
309.0 0.0 376.78979 .
323.0 0.0 375.35797 .
317.0 0.0 373.94241 .
291.0 0.0 372.54340 .
302.0 0.0 371.16031 .
277.0 0.0 369.79367 .
290.0 0.0 368.44299 .
312.0 0.0 367.10822 .
364.0 0.0 365.78943 .
304.0 0.0 364.48627 .
318.0 0.0 363.19888 .
332.0 0.0 361.92719 .
334.0 0.0 360.67081 .
311.0 0.0 359.42987 .
307.0 0.0 358.20432 .
311.0 0.003215 356.99387 356.99951
303.0 0.003300 355.79861 355.80432
309.0 0.003236 354.61838 354.62402
314.0 0.003185 353.45313 353.45868
315.0 0.003175 352.30273 352.30826
273.0 0.00366 351.16696 351.17242
300.0 0.003333 350.04602 350.05142
343.0 0.002915 348.93967 348.94498
333.0 0.003003 347.84784 347.85297
306.0 0.003268 346.77026 346.77542
323.0 0.003096 345.70697 345.71216
334.0 0.002994 344.65808 344.66321
311.0 0.003215 343.62329 343.62830
309.0 0.003236 342.60260 342.60764
297.0 0.003367 341.59579 341.60080
303.0 0.003300 340.60284 340.60779
306.0 0.003268 339.62375 339.62863
316.0 0.003165 338.65839 338.66321
298.0 0.003356 337.70667 337.71136
298.0 0.003356 336.76849 336.77319
301.0 0.003322 335.84369 335.84830
295.0 0.003390 334.93231 334.93692
312.0 0.003205 334.03430 334.03879
302.0 0.003311 333.14941 333.15387
289.0 0.003460 332.27768 332.28210
307.0 0.003257 331.41882 331.42322
315.0 0.003175 330.57318 330.57739
317.0 0.003155 329.74026 329.74451
303.0 0.003300 328.92014 328.92441
285.0 0.00351 328.11276 328.11694
303.0 0.003300 327.31793 327.32211
321.0 0.003115 326.53583 326.53983
302.0 0.003311 325.76605 325.77014
316.0 0.003165 325.00867 325.01270
343.0 0.002915 324.26370 324.26764
326.0 0.003067 323.53085 323.53473
300.0 0.003333 322.81021 322.81406
308.0 0.003247 322.10162 322.10544
318.0 0.003145 321.40506 321.40881
303.0 0.003300 320.72040 320.72412
300.0 0.003333 320.04745 320.05115
313.0 0.003195 319.38644 319.39017
330.0 0.003030 318.73706 318.74069
298.0 0.003356 318.09927 318.10278
317.0 0.003155 317.47293 317.47653
314.0 0.003185 316.85812 316.86169
340.0 0.002941 316.25473 316.25821
349.0 0.002865 315.66263 315.66602
338.0 0.002959 315.08173 315.08514
352.0 0.002841 314.51196 314.51532
321.0 0.003115 313.95325 313.95657
351.0 0.002849 313.40564 317.15842
318.0 0.003145 312.86884 316.95621
348.0 0.002874 312.34296 318.69366
370.0 0.002703 311.82782 318.80331
362.0 0.002762 311.32343 319.04092
346.0 0.002890 310.82965 319.44720
347.0 0.002882 310.34650 320.09070
381.0 0.002625 309.87384 321.13870
365.0 0.002740 309.41153 323.27301
406.0 0.002463 308.95956 328.61465
400.0 0.002500 308.51785 339.90735
390.0 0.002564 308.08643 357.65182
410.0 0.002439 307.66513 380.94745
442.0 0.002262 307.25381 408.58920
455.0 0.002198 306.85254 439.47409
435.0 0.002299 306.46124 473.33273
491.0 0.002037 306.07974 510.39185
529.0 0.001890 305.70810 551.06256
551.0 0.001815 305.34613 595.92792
590.0 0.001695 304.99371 645.69055
646.0 0.001548 304.65100 701.23376
676.0 0.001479 304.31781 763.78314
751.0 0.001332 303.99405 834.85522
879.0 0.001138 303.67963 916.59308
981.0 0.001019 303.37451 1011.90192
1068.0 0.000936 303.07864 1125.00500
1254.0 0.000797 302.79202 1262.26001
1532.0 0.000653 302.51450 1433.90906
1810.0 0.000552 302.24597 1658.07056
2255.0 0.000443 301.98648 1973.05920
2922.0 0.0003422 301.73590 2473.12671
3660.0 0.0002732 301.49417 3249.82080
3959.0 0.0002526 301.26123 3790.35254
3293.0 0.0003037 301.03705 3146.52002
2202.0 0.000454 300.82141 2176.04297
1311.0 0.000763 300.61444 1265.11316
710.0 0.001408 300.41599 654.17969
439.0 0.002278 300.22607 447.03110
384.0 0.002604 300.04449 390.41238
381.0 0.002625 299.87128 365.07343
354.0 0.002825 299.70639 349.46155
341.0 0.002933 299.54965 338.92169
365.0 0.002740 299.40103 331.41989
358.0 0.002793 299.26065 325.86227
367.0 0.002725 299.12817 321.61319
346.0 0.002890 299.00372 318.28094
332.0 0.003012 298.88730 315.61197
342.0 0.002924 298.77856 313.43665
323.0 0.003096 298.67767 311.63696
319.0 0.003135 298.58447 310.12955
302.0 0.003311 298.49902 308.85342
345.0 0.002899 298.42120 307.76303
366.0 0.002732 298.35086 306.82404
336.0 0.002976 298.28802 306.01004
328.0 0.003049 298.23267 300.85608
321.0 0.003115 298.18472 300.58432
357.0 0.002801 298.14407 298.14609
390.0 0.002564 298.11063 298.11267
323.0 0.003096 298.08447 298.08643
337.0 0.002967 298.06543 298.06738
283.0 0.00353 298.05347 298.05545
308.0 0.003247 298.04855 298.05054
331.0 0.003021 298.05063 298.05258
372.0 0.002688 298.05963 298.06161
356.0 0.002809 298.07553 298.07742
332.0 0.003012 298.09814 298.10013
345.0 0.002899 298.12762 298.12958
357.0 0.002801 298.16376 298.16565
298.0 0.003356 298.20660 298.20847
308.0 0.003247 298.25595 298.25784
326.0 0.003067 298.31186 298.31378
357.0 0.002801 298.37433 298.37616
328.0 0.003049 298.44318 298.44495
332.0 0.003012 298.51837 298.52020
335.0 0.002985 298.59991 298.60175
357.0 0.002801 298.68777 298.68954
340.0 0.002941 298.78177 298.78354
349.0 0.002865 298.88199 298.88382
359.0 0.002786 298.98828 298.99014
334.0 0.002994 299.10074 299.10245
323.0 0.003096 299.21912 299.22086
326.0 0.003067 299.34351 299.34521
326.0 0.003067 299.47372 304.27646
328.0 0.003049 299.60986 304.80487
339.0 0.002950 299.75180 307.75711
363.0 0.002755 299.89948 308.60913
370.0 0.002703 300.05289 309.57486
361.0 0.002770 300.21191 310.68124
379.0 0.002639 300.37656 311.96588
404.0 0.002475 300.54678 313.48389
376.0 0.002660 300.72247 315.32111
389.0 0.002571 300.90363 317.63535
410.0 0.002439 301.09018 320.90405
415.0 0.002410 301.28217 327.02591
434.0 0.002304 301.47949 340.40656
462.0 0.002165 301.68195 364.31525
487.0 0.002053 301.88968 398.11053
509.0 0.001965 302.10263 440.71088
534.0 0.001873 302.32062 490.56851
587.0 0.001704 302.54373 546.35443
605.0 0.001653 302.77185 608.04346
654.0 0.001529 303.00494 676.43610
712.0 0.001404 303.24301 752.72058
782.0 0.001279 303.48593 838.34521
901.0 0.001110 303.73376 935.32922
998.0 0.001002 303.98627 1046.45508
1078.0 0.000928 304.24356 1175.35791
1241.0 0.000806 304.50555 1327.47644
1489.0 0.000672 304.77231 1510.73169
1770.0 0.000565 305.04361 1737.69189
2069.0 0.000483 305.31940 2029.88208
2549.0 0.000392 305.59979 2430.39307
3319.0 0.0003013 305.88464 3044.63135
4172.0 0.0002397 306.17395 4039.21558
4863.0 0.0002056 306.46765 5002.03613
4096.0 0.0002441 306.76569 4472.37744
2910.0 0.0003436 307.06805 3185.94409
1892.0 0.000529 307.37466 2121.75171
989.0 0.001011 307.68555 1077.14294
594.0 0.001684 308.00055 592.57959
463.0 0.002160 308.31970 459.60394
400.0 0.002500 308.64291 413.12570
404.0 0.002475 308.97021 387.12714
389.0 0.002571 309.30148 370.28366
381.0 0.002625 309.63675 358.70035
373.0 0.002681 309.97595 350.39484
362.0 0.002762 310.31903 344.24823
353.0 0.002833 310.66599 339.58759
345.0 0.002899 311.01666 335.98624
392.0 0.002551 311.37119 333.16299
380.0 0.002632 311.72934 330.92511
375.0 0.002667 312.09119 329.13681
323.0 0.003096 312.45670 327.70013
350.0 0.002857 312.82587 326.54291
350.0 0.002857 313.19858 325.61093
357.0 0.002801 313.57474 324.86273
351.0 0.002849 313.95441 317.83429
353.0 0.002833 314.33759 317.87775
368.0 0.002717 314.72415 314.72586
348.0 0.002874 315.11404 315.11578
359.0 0.002786 315.50726 315.50894
356.0 0.002809 315.90375 315.90546
319.0 0.003135 316.30353 316.30521
315.0 0.003175 316.70657 316.70825
305.0 0.003279 317.11276 317.11447
324.0 0.003086 317.52206 317.52377
319.0 0.003135 317.93445 317.93622
324.0 0.003086 318.34988 318.35165
354.0 0.002825 318.76846 318.77023
338.0 0.002959 319.18997 319.19168
336.0 0.002976 319.61441 319.61618
363.0 0.002755 320.04181 320.04358
335.0 0.002985 320.47211 320.47379
343.0 0.002915 320.90518 320.90695
358.0 0.002793 321.34113 321.34296
359.0 0.002786 321.77982 321.78159
367.0 0.002725 322.22125 322.22305
334.0 0.002994 322.66534 322.66711
332.0 0.003012 323.11215 323.11398
346.0 0.002890 323.56165 323.56351
314.0 0.003185 324.01370 324.01559
343.0 0.002915 324.46835 324.47015
396.0 0.002525 324.92545 324.92734
355.0 0.002817 325.38522 325.38702
335.0 0.002985 325.84741 325.84918
342.0 0.002924 326.31192 326.31378
339.0 0.002950 326.77884 326.78073
314.0 0.003185 327.24817 327.25003
336.0 0.002976 327.71988 327.72171
336.0 0.002976 328.19391 328.19568
345.0 0.002899 328.67007 328.67197
356.0 0.002809 329.14853 329.15042
307.0 0.003257 329.62921 329.63110
312.0 0.003205 330.11209 330.11398
328.0 0.003049 330.59708 330.59903
310.0 0.003226 331.08414 331.08612
362.0 0.002762 331.57336 331.57523
318.0 0.003145 332.06451 332.06641
340.0 0.002941 332.55783 332.55972
374.0 0.002674 333.05301 333.05499
349.0 0.002865 333.55017 333.55215
315.0 0.003175 334.04929 334.05127
341.0 0.002933 334.55026 334.55219
332.0 0.003012 335.05310 335.05511
329.0 0.003040 335.55789 335.55975
336.0 0.002976 336.06430 336.06622
351.0 0.002849 336.57251 336.57455
329.0 0.003040 337.08255 337.08459
335.0 0.002985 337.59418 337.59625
339.0 0.002950 338.10757 338.10962
320.0 0.003125 338.62268 338.62466
350.0 0.002857 339.13925 339.14130
357.0 0.002801 339.65753 339.65958
353.0 0.002833 340.17737 340.17947
332.0 0.003012 340.69879 340.70084
335.0 0.002985 341.22165 341.22369
320.0 0.003125 341.74597 341.74805
318.0 0.003145 342.27173 342.27383
312.0 0.003205 342.79907 342.80115
290.0 0.003448 343.32770 343.32980
313.0 0.003195 343.85770 343.85980
321.0 0.003115 344.38907 344.39114
344.0 0.002907 344.92172 344.92386
374.0 0.002674 345.45569 345.45779
336.0 0.002976 345.99100 345.99307
325.0 0.003077 346.52737 346.52954
335.0 0.002985 347.06503 347.06720
341.0 0.002933 347.60388 347.60608
340.0 0.002941 348.14395 348.14612
327.0 0.003058 348.68509 348.68726
329.0 0.003040 349.22736 349.22955
342.0 0.002924 349.77063 349.77286
359.0 0.002786 350.31500 350.31726
360.0 0.002778 350.86044 350.86261
331.0 0.003021 351.40686 351.40915
333.0 0.003003 351.95438 351.95648
341.0 0.002933 352.50266 352.50485
313.0 0.003195 353.05185 353.05408
328.0 0.003049 353.60211 353.60443
339.0 0.002950 354.15317 354.15546
360.0 0.002778 354.70514 354.70743
354.0 0.002825 355.25784 355.26016
330.0 0.003030 355.81137 355.81369
337.0 0.002967 356.36575 356.36798
304.0 0.003289 356.92087 356.92313
302.0 0.003311 357.47665 357.47903
337.0 0.002967 358.03323 358.03558
329.0 0.003040 358.59042 358.59277
356.0 0.002809 359.14847 359.15079
335.0 0.002985 359.70694 359.70935
344.0 0.002907 360.26614 360.26855
312.0 0.003205 360.82590 360.82822
321.0 0.003115 361.38626 361.38867
337.0 0.002967 361.94714 361.94949
341.0 0.002933 362.50854 362.51099
340.0 0.002941 363.07050 363.07294
354.0 0.002825 363.63293 363.63541
349.0 0.002865 364.19577 364.19818
325.0 0.003077 364.75919 364.76166
346.0 0.002890 365.32294 365.32541
353.0 0.002833 365.88705 365.88956
338.0 0.002959 366.45160 366.45404
332.0 0.003012 367.01645 367.01895
339.0 0.002950 367.58167 367.58420
348.0 0.002874 368.14725 368.14978
342.0 0.002924 368.71310 368.71564
335.0 0.002985 369.27921 369.28174
312.0 0.003205 369.84552 369.84808
351.0 0.002849 370.41214 370.41473
371.0 0.002695 370.97894 370.98160
359.0 0.002786 371.54596 371.54855
368.0 0.002717 372.11307 372.11566
345.0 0.002899 372.68051 372.68304
337.0 0.002967 373.24789 373.25055
360.0 0.002778 373.81549 373.81812
358.0 0.002793 374.38318 374.38577
347.0 0.002882 374.95096 374.95355
347.0 0.002882 375.51874 375.52133
338.0 0.002959 376.08655 376.08923
315.0 0.003175 376.65442 376.65710
344.0 0.002907 377.22229 377.22491
357.0 0.002801 377.79013 377.79279
359.0 0.002786 378.35800 378.36060
355.0 0.002817 378.92569 378.92838
362.0 0.002762 379.49335 379.49603
356.0 0.002809 380.06091 380.06369
372.0 0.002688 380.62845 380.63113
370.0 0.002703 381.19565 381.19839
358.0 0.002793 381.76291 381.76563
362.0 0.002762 382.32999 382.33276
344.0 0.002907 382.89679 382.89954
310.0 0.003226 383.46347 383.46622
339.0 0.002950 384.02991 384.03268
363.0 0.002755 384.59607 384.59894
341.0 0.002933 385.16208 385.16489
321.0 0.003115 385.72778 385.73059
338.0 0.002959 386.29318 386.29602
347.0 0.002882 386.85825 386.86105
366.0 0.002732 387.42307 387.42587
339.0 0.002950 387.98755 387.99042
321.0 0.003115 388.55154 388.55450
359.0 0.002786 389.11536 389.11829
350.0 0.002857 389.67877 389.68161
341.0 0.002933 390.24173 390.24460
335.0 0.002985 390.80429 390.80716
360.0 0.002778 391.36642 391.36926
358.0 0.002793 391.92801 391.93091
359.0 0.002786 392.48932 392.49216
343.0 0.002915 393.05002 393.05298
328.0 0.003049 393.61032 393.61325
381.0 0.002625 394.17007 394.17294
370.0 0.002703 394.72928 394.73227
384.0 0.002604 395.28796 395.29095
413.0 0.002421 395.84613 395.84912
350.0 0.002857 396.40375 396.40665
361.0 0.002770 396.96075 396.96375
335.0 0.002985 397.51712 397.52005
328.0 0.003049 398.07291 398.07590
336.0 0.002976 398.62808 398.63110
364.0 0.002747 399.18274 399.18573
346.0 0.002890 399.73657 399.73962
337.0 0.002967 400.28979 400.29285
327.0 0.003058 400.84238 400.84540
344.0 0.002907 401.39423 401.39722
331.0 0.003021 401.94537 401.95187
329.0 0.003040 402.49582 402.50253
348.0 0.002874 403.04550 403.05249
356.0 0.002809 403.59439 403.60345
353.0 0.002833 404.14264 404.15222
378.0 0.002646 404.69012 404.70013
368.0 0.002717 405.23669 405.24747
354.0 0.002825 405.78265 405.79407
368.0 0.002717 406.32767 406.33987
373.0 0.002681 406.87186 407.98483
388.0 0.002577 407.41525 408.61136
354.0 0.002825 407.95789 409.76785
352.0 0.002841 408.49948 410.45218
354.0 0.002825 409.04034 411.79889
352.0 0.002841 409.58020 412.57031
367.0 0.002725 410.11932 413.67850
387.0 0.002584 410.65741 414.54410
364.0 0.002747 411.19461 415.46609
364.0 0.002747 411.73087 416.45996
389.0 0.002571 412.26620 417.54028
392.0 0.002551 412.80063 418.72885
387.0 0.002584 413.33408 420.05850
383.0 0.002611 413.86639 421.58026
395.0 0.002532 414.39789 423.39676
421.0 0.002375 414.92841 425.84863
440.0 0.002273 415.45789 430.05124
447.0 0.002237 415.98621 437.72803
457.0 0.002188 416.51361 449.43903
471.0 0.002123 417.03992 464.95673
460.0 0.002174 417.56528 485.11417
496.0 0.002016 418.08954 510.97180
560.0 0.001786 418.61267 542.75159
573.0 0.001745 419.13474 580.55469
619.0 0.001616 419.65573 624.44952
640.0 0.001563 420.17560 675.28766
695.0 0.001439 420.69434 736.67047
792.0 0.001263 421.21207 811.71149
909.0 0.001100 421.72858 906.17419
1018.0 0.000982 422.24387 1032.87769
1249.0 0.000801 422.75812 1220.45593
1508.0 0.000663 423.27118 1507.31812
1845.0 0.000542 423.78308 1762.27222
1621.0 0.000617 424.29370 1627.47485
1432.0 0.000698 424.80319 1444.21167
1517.0 0.000659 425.31152 1474.58057
1395.0 0.000717 425.81863 1360.62659
1042.0 0.000960 426.32449 1052.08167
787.0 0.001271 426.82916 837.93195
715.0 0.001399 427.33249 751.79590
607.0 0.001647 427.83472 609.03094
495.0 0.002020 428.33563 505.03882
421.0 0.002375 428.83524 469.80658
434.0 0.002304 429.33356 458.17148
433.0 0.002309 429.83069 452.05896
409.0 0.002445 430.32645 448.14685
415.0 0.002410 430.82101 445.50568
405.0 0.002469 431.31421 443.66620
405.0 0.002469 431.80615 442.36252
435.0 0.002299 432.29663 441.43991
405.0 0.002469 432.78604 440.79208
365.0 0.002740 433.27390 440.34918
387.0 0.002584 433.76050 440.06317
394.0 0.002538 434.24561 439.89905
417.0 0.002398 434.72946 438.16418
419.0 0.002387 435.21194 438.30817
407.0 0.002457 435.69308 437.61487
409.0 0.002445 436.17285 437.91739
398.0 0.002513 436.65118 437.27362
382.0 0.002618 437.12811 437.69452
415.0 0.002410 437.60367 448.86011
419.0 0.002387 438.07782 449.59921
424.0 0.002358 438.55048 450.94119
448.0 0.002232 439.02179 457.77991
432.0 0.002315 439.49161 459.74057
422.0 0.002370 439.96005 461.89145
453.0 0.002208 440.42712 464.26859
481.0 0.002079 440.89261 466.91690
471.0 0.002123 441.35666 469.89462
444.0 0.002252 441.81921 473.27734
468.0 0.002137 442.28043 477.16605
490.0 0.002041 442.74011 481.69839
475.0 0.002105 443.19815 487.06949
524.0 0.001908 443.65494 493.56940
604.0 0.001656 444.11014 501.65604
592.0 0.001689 444.56384 512.17816
617.0 0.001621 445.01602 527.64410
642.0 0.001558 445.46671 557.20715
710.0 0.001408 445.91589 619.75867
833.0 0.001200 446.36346 725.82416
924.0 0.001082 446.80957 870.51422
1090.0 0.000917 447.25421 1054.71130
1216.0 0.000822 447.69717 1282.32068
1465.0 0.000683 448.13867 1552.35620
1673.0 0.000598 448.57858 1867.92590
1999.0 0.000500 449.01694 2239.75806
2479.0 0.000403 449.45383 2685.57471
3121.0 0.0003204 449.88907 3232.72998
3892.0 0.0002569 450.32272 3927.19409
4721.0 0.0002118 450.75476 4856.42432
6322.0 0.0001582 451.18536 6221.42529
8810.0 0.0001135 451.61432 8432.66992
11411.0 0.0000876 452.04163 11099.33105
10785.0 0.0000927 452.46735 10721.21582
7209.0 0.0001387 452.89145 7373.80762
5994.0 0.0001668 453.31409 6049.61279
4509.0 0.0002218 453.73502 4594.62793
2143.0 0.000467 454.15436 2265.64673
1049.0 0.000953 454.57202 1151.03760
790.0 0.001266 454.98804 837.61157
692.0 0.001445 455.40250 721.44775
590.0 0.001695 455.81537 655.30469
565.0 0.001770 456.22653 612.21875
561.0 0.001783 456.63608 582.38428
509.0 0.001965 457.04404 560.80609
520.0 0.001923 457.45026 544.67041
522.0 0.001916 457.85489 532.28534
533.0 0.001876 458.25784 522.57782
511.0 0.001957 458.65912 514.83600
512.0 0.001953 459.05872 508.57330
448.0 0.002232 459.45663 503.44604
431.0 0.002320 459.85303 499.20657
423.0 0.002364 460.24759 495.67163
421.0 0.002375 460.64059 492.70291
459.0 0.002179 461.03183 472.54218
449.0 0.002227 461.42145 471.85959
437.0 0.002288 461.80936 471.31946
433.0 0.002309 462.19562 462.19928
460.0 0.002174 462.58005 462.58371
455.0 0.002198 462.96292 462.96658
453.0 0.002208 463.34406 463.34769
440.0 0.002273 463.72354 463.72717
461.0 0.002169 464.10123 464.10489
473.0 0.002114 464.47720 464.48096
461.0 0.002169 464.85156 464.85526
451.0 0.002217 465.22415 465.22787
451.0 0.002217 465.59506 465.59866
461.0 0.002169 465.96423 465.96790
462.0 0.002165 466.33160 479.97806
467.0 0.002141 466.69736 481.32047
489.0 0.002045 467.06137 482.77219
482.0 0.002075 467.42365 491.12189
474.0 0.002110 467.78415 493.33316
482.0 0.002075 468.14301 495.77502
506.0 0.001976 468.50009 498.48929
513.0 0.001949 468.85544 501.52863
515.0 0.001942 469.20911 504.96054
495.0 0.002020 469.56091 508.86801
492.0 0.002033 469.91116 513.36523
544.0 0.001838 470.25946 518.59961
556.0 0.001799 470.60611 524.77893
585.0 0.001709 470.95102 532.19751
641.0 0.001560 471.29413 541.28638
653.0 0.001531 471.63559 552.74609
730.0 0.001370 471.97516 567.86829
803.0 0.001245 472.31299 590.50970
855.0 0.001170 472.64929 634.41064
932.0 0.001073 472.98361 726.89850
1052.0 0.000951 473.31628 881.83887
1218.0 0.000821 473.64703 1090.89392
1313.0 0.000762 473.97610 1356.97607
1551.0 0.000645 474.30359 1689.63806
1893.0 0.000528 474.62906 2090.41309
2310.0 0.000433 474.95294 2566.63940
2672.0 0.000374 475.27484 3137.82129
3301.0 0.0003029 475.59521 3839.14136
4213.0 0.0002374 475.91370 4729.86621
5617.0 0.0001780 476.23047 5918.37939
7568.0 0.0001321 476.54544 7658.75098
10638.0 0.0000940 476.85858 10471.16992
13902.0 0.0000719 477.17007 13907.46191
13102.0 0.0000763 477.47983 13498.98730
8699.0 0.0001150 477.78757 9113.93750
7009.0 0.0001427 478.09375 7517.90479
6017.0 0.0001662 478.39801 6277.99805
3085.0 0.0003241 478.70059 3262.26831
1283.0 0.000779 479.00146 1529.44458
927.0 0.001079 479.30045 1017.99872
780.0 0.001282 479.59766 844.76898
707.0 0.001414 479.89313 750.92456
675.0 0.001481 480.18674 690.68176
656.0 0.001524 480.47876 649.30542
615.0 0.001626 480.76892 619.54797
604.0 0.001656 481.05716 597.35535
601.0 0.001664 481.34369 580.34521
565.0 0.001770 481.62851 567.00427
579.0 0.001727 481.91159 556.34442
573.0 0.001745 482.19281 547.70007
551.0 0.001815 482.47226 540.59210
547.0 0.001828 482.74988 534.68530
572.0 0.001748 483.02579 529.72656
590.0 0.001695 483.29999 525.52844
599.0 0.001669 483.57227 498.89093
581.0 0.001721 483.84290 497.71658
567.0 0.001764 484.11160 509.91061
569.0 0.001757 484.37860 498.47925
606.0 0.001650 484.64389 499.77103
630.0 0.001587 484.90735 507.65558
651.0 0.001536 485.16898 509.65060
635.0 0.001575 485.42892 511.85434
612.0 0.001634 485.68698 528.11017
653.0 0.001531 485.94339 531.84100
646.0 0.001548 486.19800 536.03052
646.0 0.001548 486.45078 547.55170
707.0 0.001414 486.70181 553.43835
750.0 0.001333 486.95102 560.19385
722.0 0.001385 487.19858 568.02515
725.0 0.001379 487.44418 577.20386
799.0 0.001252 487.68823 588.12323
841.0 0.001189 487.93033 601.34015
876.0 0.001142 488.17075 617.73138
962.0 0.001040 488.40945 638.86145
1000.0 0.001000 488.64633 697.48267
1125.0 0.000889 488.88147 753.63354
1322.0 0.000756 489.11475 863.40411
1411.0 0.000709 489.34631 1056.60913
1601.0 0.000625 489.57614 1299.89331
1941.0 0.000515 489.80423 1611.03162
2166.0 0.000462 490.03052 2011.51538
2565.0 0.000390 490.25500 2531.38818
3141.0 0.0003184 490.47781 3207.36353
3959.0 0.0002526 490.69882 4068.08130
4796.0 0.0002085 490.91806 5153.95605
6325.0 0.0001581 491.13556 6563.40186
8204.0 0.0001219 491.35129 8492.29004
11613.0 0.0000861 491.56531 11382.32813
15918.0 0.0000628 491.77759 15448.76074
18037.0 0.0000554 491.98813 17675.86133
15122.0 0.0000661 492.19687 14671.79785
13746.0 0.0000727 492.40387 13338.18945
15301.0 0.0000654 492.60907 14915.44531
16557.0 0.0000604 492.81271 15761.66309
16909.0 0.0000591 493.01443 16527.07813
14072.0 0.0000711 493.21454 13961.91895
10130.0 0.0000987 493.41281 10141.83105
9424.0 0.0001061 493.60934 9823.36621
8835.0 0.0001132 493.80426 9278.13281
6697.0 0.0001493 493.99731 7277.80127
6091.0 0.0001642 494.18872 6914.43018
6842.0 0.0001462 494.37833 7950.62695
8433.0 0.0001186 494.56622 9700.61426
11371.0 0.0000879 494.75253 12198.70215
16282.0 0.0000614 494.93695 15990.47363
22262.0 0.0000449 495.11972 22134.65234
27232.0 0.0000367 495.30072 28811.79492
24714.0 0.0000405 495.48010 25983.04492
17581.0 0.0000569 495.65775 17007.39063
14194.0 0.0000705 495.83359 14689.76563
11680.0 0.0000856 496.00775 12717.95020
6738.0 0.0001484 496.18027 6567.89551
2915.0 0.0003431 496.35101 2840.60156
1634.0 0.000612 496.52008 1710.78638
1305.0 0.000766 496.68744 1317.89502
1204.0 0.000831 496.85315 1112.27502
1069.0 0.000935 497.01706 956.96533
949.0 0.001054 497.17929 867.30420
925.0 0.001081 497.34000 806.90009
884.0 0.001131 497.49887 747.15411
820.0 0.001220 497.65607 711.10773
775.0 0.001290 497.81155 684.99719
749.0 0.001335 497.96536 662.64435
721.0 0.001387 498.11755 644.60815
694.0 0.001441 498.26807 629.91241
666.0 0.001502 498.41690 620.66980
656.0 0.001524 498.56396 610.91888
637.0 0.001570 498.70944 602.93335
631.0 0.001585 498.85330 549.68805
673.0 0.001486 498.99542 548.55005
668.0 0.001497 499.13580 548.13367
655.0 0.001527 499.27460 523.96155
673.0 0.001486 499.41174 527.07501
708.0 0.001412 499.54736 530.83276
649.0 0.001541 499.68118 535.46997
721.0 0.001387 499.81335 541.38507
659.0 0.001517 499.94394 549.44928
727.0 0.001376 500.07285 562.67230
774.0 0.001292 500.20010 589.49951
775.0 0.001290 500.32578 639.30518
791.0 0.001264 500.44977 712.48157
888.0 0.001126 500.57208 806.76135
973.0 0.001028 500.69290 927.09991
1069.0 0.000935 500.81201 1079.24500
1292.0 0.000774 500.92947 1268.49365
1523.0 0.000657 501.04535 1508.89050
1715.0 0.000583 501.15964 1823.51868
2211.0 0.000452 501.27228 2245.24194
2925.0 0.0003419 501.38336 2846.94019
4198.0 0.0002382 501.49274 3790.72388
5160.0 0.0001938 501.60065 5008.10596
5115.0 0.0001955 501.70679 5168.28564
3942.0 0.0002537 501.81146 3866.46436
3396.0 0.0002945 501.91455 3460.04761
3561.0 0.0002808 502.01596 3639.23950
3189.0 0.0003136 502.11578 3191.58667
2914.0 0.0003432 502.21414 3013.33936
3235.0 0.0003091 502.31079 3455.38330
3101.0 0.0003225 502.40591 3278.16821
2304.0 0.000434 502.49945 2297.46948
1819.0 0.000550 502.59146 1956.91003
1717.0 0.000582 502.68182 1882.12891
1314.0 0.000761 502.77066 1315.85205
829.0 0.001206 502.85794 837.72607
664.0 0.001506 502.94370 671.67145
647.0 0.001546 503.02789 618.50067
623.0 0.001605 503.11044 591.24231
623.0 0.001605 503.19162 573.60205
589.0 0.001698 503.27112 561.25134
554.0 0.001805 503.34915 552.17346
562.0 0.001779 503.42557 545.24951
570.0 0.001754 503.50049 539.82245
563.0 0.001776 503.57385 527.77136
570.0 0.001754 503.64575 524.85962
578.0 0.001730 503.71616 522.48260
568.0 0.001761 503.78497 520.51477
563.0 0.001776 503.85223 515.24335
523.0 0.001912 503.91803 514.14368
521.0 0.001919 503.98233 513.21472
553.0 0.001808 504.04517 507.46033
540.0 0.001852 504.10638 507.19293
530.0 0.001887 504.16620 506.96964
554.0 0.001805 504.22446 506.78232
526.0 0.001901 504.28134 504.28387
533.0 0.001876 504.33667 504.33914
552.0 0.001812 504.39050 513.08948
520.0 0.001923 504.44284 513.75745
536.0 0.001866 504.49377 514.49268
543.0 0.001842 504.54321 519.48932
578.0 0.001730 504.59116 520.68384
536.0 0.001866 504.63770 522.01715
504.0 0.001984 504.68265 523.51306
537.0 0.001862 504.72629 525.20203
549.0 0.001821 504.76837 527.12195
553.0 0.001808 504.80908 529.31873
572.0 0.001748 504.84839 531.85455
559.0 0.001789 504.88614 534.80719
584.0 0.001712 504.92255 538.28253
597.0 0.001675 504.95749 542.42456
598.0 0.001672 504.99100 547.43036
595.0 0.001681 505.02310 553.59387
606.0 0.001650 505.05374 561.35571
628.0 0.001592 505.08298 571.44977
669.0 0.001495 505.11093 585.37415
750.0 0.001333 505.13727 607.93555
870.0 0.001149 505.16241 654.24652
922.0 0.001085 505.18594 746.57770
995.0 0.001005 505.20825 890.04529
1141.0 0.000876 505.22913 1077.75891
1408.0 0.000710 505.24854 1317.40662
1681.0 0.000595 505.26663 1624.88184
1997.0 0.000501 505.28336 2011.57703
2393.0 0.000418 505.29871 2496.96387
2995.0 0.0003339 505.31281 3124.04419
4010.0 0.0002494 505.32529 3983.59009
5630.0 0.0001776 505.33655 5294.70605
7983.0 0.0001253 505.34644 7339.62402
9192.0 0.0001088 505.35495 9016.52246
7668.0 0.0001304 505.36215 7224.46729
5125.0 0.0001951 505.36801 4812.00537
4641.0 0.0002155 505.37250 4558.42285
4169.0 0.0002399 505.37564 4189.55664
2556.0 0.000391 505.37750 2377.82031
1242.0 0.000805 505.37799 1221.99377
850.0 0.001176 505.37717 864.70642
787.0 0.001271 505.37509 745.59753
738.0 0.001355 505.37167 682.60144
695.0 0.001439 505.36682 659.02576
669.0 0.001495 505.36081 632.75159
654.0 0.001529 505.35345 614.32733
653.0 0.001531 505.34482 601.04352
632.0 0.001582 505.33481 599.75146
628.0 0.001592 505.32358 593.26996
617.0 0.001621 505.31110 588.78546
610.0 0.001639 505.29730 585.95386
598.0 0.001672 505.28217 584.52545
591.0 0.001692 505.26584 584.38153
604.0 0.001656 505.24823 585.41003
592.0 0.001689 505.22940 587.63904
631.0 0.001585 505.20923 576.51288
678.0 0.001475 505.18777 582.62616
697.0 0.001435 505.16522 590.25903
719.0 0.001391 505.14133 592.18250
730.0 0.001370 505.11621 604.88171
747.0 0.001339 505.08984 620.92218
807.0 0.001239 505.06226 641.84113
870.0 0.001149 505.03348 670.68726
1021.0 0.000979 505.00342 717.04767
1171.0 0.000854 504.97217 811.35687
1336.0 0.000749 504.93970 1001.14001
1612.0 0.000620 504.90610 1299.58606
1831.0 0.000546 504.87119 1691.65662
2186.0 0.000457 504.83502 2192.87109
2714.0 0.000368 504.79776 2841.32153
3401.0 0.0002940 504.75934 3667.70288
4270.0 0.0002342 504.71970 4719.56055
5684.0 0.0001759 504.67889 6103.98291
7773.0 0.0001287 504.63693 8066.99414
11298.0 0.0000885 504.59375 11170.47559
16277.0 0.0000614 504.54944 15520.77148
17990.0 0.0000556 504.50391 16863.37695
11472.0 0.0000872 504.45728 11447.21582
8174.0 0.0001223 504.40945 8276.40137
8716.0 0.0001147 504.36050 8571.01074
7438.0 0.0001344 504.31036 7025.42920
3487.0 0.0002868 504.25909 3454.49731
1509.0 0.000663 504.20679 1680.48853
1106.0 0.000904 504.15323 1160.37488
919.0 0.001088 504.09860 966.44501
803.0 0.001245 504.04285 849.37372
741.0 0.001350 503.98599 767.78058
711.0 0.001406 503.92798 713.80798
661.0 0.001513 503.86890 676.38892
620.0 0.001613 503.80872 648.63348
582.0 0.001718 503.74741 627.26538
564.0 0.001773 503.68503 610.39105
591.0 0.001692 503.62158 596.80878
576.0 0.001736 503.55704 585.69043
564.0 0.001773 503.49133 576.45959
578.0 0.001730 503.42462 568.70819
577.0 0.001733 503.35687 562.12463
548.0 0.001825 503.28806 525.54199
524.0 0.001908 503.21814 523.25989
500.0 0.002000 503.14716 521.29224
524.0 0.001908 503.07513 519.58264
504.0 0.001984 503.00204 503.16733
487.0 0.002053 502.92798 502.99069
498.0 0.002008 502.85287 502.90952
511.0 0.001957 502.77670 502.82806
507.0 0.001972 502.69943 502.74640
493.0 0.002028 502.62125 502.62222
499.0 0.002004 502.54199 502.54300
512.0 0.001953 502.46176 502.46262
505.0 0.001980 502.38049 502.38138
499.0 0.002004 502.29819 502.29907
481.0 0.002079 502.21481 502.21579
488.0 0.002049 502.13065 502.13153
482.0 0.002075 502.04541 502.04630
516.0 0.001938 501.95908 501.95999
513.0 0.001949 501.87192 501.87271
501.0 0.001996 501.78369 501.78448
501.0 0.001996 501.69452 501.69531
475.0 0.002105 501.60440 501.60519
486.0 0.002058 501.51328 501.51407
497.0 0.002012 501.42123 501.42200
512.0 0.001953 501.32828 501.32898
509.0 0.001965 501.23431 501.23502
512.0 0.001953 501.13934 501.14011
562.0 0.001779 501.04355 501.04416
502.0 0.001992 500.94675 500.94739
515.0 0.001942 500.84909 500.84970
519.0 0.001927 500.75046 500.75101
493.0 0.002028 500.65088 500.65155
510.0 0.001961 500.55038 500.55106
480.0 0.002083 500.44907 500.44965
497.0 0.002012 500.34677 500.34729
508.0 0.001969 500.24365 500.24414
463.0 0.002160 500.13959 500.14011
493.0 0.002028 500.03464 500.03516
534.0 0.001873 499.92877 499.92920
454.0 0.002203 499.82199 499.82248
450.0 0.002222 499.71439 499.71481
474.0 0.002110 499.60593 499.60632
501.0 0.001996 499.49658 499.49698
488.0 0.002049 499.38635 499.38678
492.0 0.002033 499.27527 505.50378
514.0 0.001946 499.16339 505.82364
485.0 0.002062 499.05060 506.18964
511.0 0.001957 498.93701 506.60895
534.0 0.001873 498.82254 510.21573
536.0 0.001866 498.70721 510.98666
520.0 0.001923 498.59113 511.86572
538.0 0.001859 498.47421 512.87280
500.0 0.002000 498.35638 514.03143
493.0 0.002028 498.23788 515.37061
525.0 0.001905 498.11847 516.92828
516.0 0.001938 497.99832 518.75140
523.0 0.001912 497.87729 520.90289
543.0 0.001842 497.75555 523.46552
559.0 0.001789 497.63293 526.54871
587.0 0.001704 497.50958 530.30975
593.0 0.001686 497.38541 534.96906
588.0 0.001701 497.26056 540.86267
587.0 0.001704 497.13477 548.52386
634.0 0.001577 497.00830 558.89606
672.0 0.001488 496.88104 574.42053
702.0 0.001425 496.75308 603.46930
813.0 0.001230 496.62436 664.69684
920.0 0.001087 496.49481 773.80566
987.0 0.001013 496.36456 923.60590
1137.0 0.000880 496.23355 1117.20764
1408.0 0.000710 496.10190 1368.58081
1717.0 0.000582 495.96951 1699.09143
2078.0 0.000481 495.83627 2131.07642
2643.0 0.000378 495.70236 2717.10059
3750.0 0.0002667 495.56769 3584.22827
5553.0 0.0001801 495.43250 4952.21387
7006.0 0.0001427 495.29645 6392.13281
6001.0 0.0001666 495.15964 5674.53125
3923.0 0.0002549 495.02222 3639.90894
3537.0 0.0002827 494.88412 3144.15137
3654.0 0.0002737 494.74533 3399.98779
2751.0 0.000364 494.60583 2631.76050
1515.0 0.000660 494.46564 1411.18091
903.0 0.001107 494.32480 888.20258
758.0 0.001319 494.18326 736.80450
675.0 0.001481 494.04105 676.45111
627.0 0.001595 493.89822 643.97595
635.0 0.001575 493.75470 626.68347
708.0 0.001412 493.61057 622.01971
679.0 0.001473 493.46573 635.71832
698.0 0.001433 493.32031 677.30652
796.0 0.001256 493.17422 749.27441
793.0 0.001261 493.02756 847.48328
931.0 0.001074 492.88016 976.55023
1118.0 0.000894 492.73221 1150.13721
1322.0 0.000756 492.58365 1380.90393
1652.0 0.000605 492.43439 1692.07629
2230.0 0.000448 492.28464 2141.41919
3139.0 0.0003186 492.13422 2842.92358
4136.0 0.0002418 491.98315 3762.42432
3929.0 0.0002545 491.83160 3808.99707
2646.0 0.000378 491.67938 2575.37695
2029.0 0.000493 491.52652 2010.07898
2177.0 0.000459 491.37317 2151.43384
1947.0 0.000514 491.21918 1974.00879
1266.0 0.000790 491.06473 1216.68677
781.0 0.001280 490.90964 780.40619
621.0 0.001610 490.75391 646.75842
578.0 0.001730 490.59778 599.74011
559.0 0.001789 490.44092 574.58417
505.0 0.001980 490.28366 558.98505
524.0 0.001908 490.12579 548.86035
503.0 0.001988 489.96735 542.28247
505.0 0.001980 489.80835 538.30530
540.0 0.001852 489.64886 536.62469
549.0 0.001821 489.48889 538.00513
553.0 0.001808 489.32834 545.26532
562.0 0.001779 489.16730 561.22742
581.0 0.001721 489.00574 586.68622
609.0 0.001642 488.84366 620.55518
624.0 0.001603 488.68112 664.95355
652.0 0.001534 488.51797 724.59698
717.0 0.001395 488.35443 799.28387
843.0 0.001186 488.19031 912.08386
1046.0 0.000956 488.02576 1084.19312
1317.0 0.000759 487.86072 1354.08240
1537.0 0.000651 487.69525 1618.70544
1438.0 0.000695 487.52914 1474.95642
1184.0 0.000845 487.36273 1202.47107
1176.0 0.000850 487.19580 1228.98425
1334.0 0.000750 487.02844 1393.20264
1362.0 0.000734 486.86053 1410.80310
1364.0 0.000733 486.69223 1415.56201
1636.0 0.000611 486.52350 1666.75537
2027.0 0.000493 486.35428 2083.92236
1920.0 0.000521 486.18469 2106.52588
1393.0 0.000718 486.01459 1504.24561
1094.0 0.000914 485.84399 1216.01196
1204.0 0.000831 485.67313 1282.52576
1127.0 0.000887 485.50180 1239.09180
844.0 0.001185 485.33002 878.69043
595.0 0.001681 485.15784 643.22302
522.0 0.001916 484.98523 567.55835
472.0 0.002119 484.81226 541.23834
482.0 0.002075 484.63879 527.03613
451.0 0.002217 484.46509 517.84985
467.0 0.002141 484.29095 511.44034
448.0 0.002232 484.11630 506.73019
475.0 0.002105 483.94135 501.17429
410.0 0.002439 483.76596 498.49850
489.0 0.002045 483.59030 496.34738
444.0 0.002252 483.41425 494.57932
437.0 0.002288 483.23776 492.12207
412.0 0.002427 483.06104 490.94312
433.0 0.002309 482.88385 489.92691
417.0 0.002398 482.70639 489.03970
470.0 0.002128 482.52850 484.96735
453.0 0.002208 482.35022 484.54230
421.0 0.002375 482.17169 484.15289
432.0 0.002315 481.99283 483.79218
470.0 0.002128 481.81366 481.81186
427.0 0.002342 481.63406 481.63232
441.0 0.002268 481.45422 481.45236
405.0 0.002469 481.27402 481.27216
437.0 0.002288 481.09351 481.09167
444.0 0.002252 480.91272 480.91086
456.0 0.002193 480.73169 480.72974
466.0 0.002146 480.55020 480.54825
452.0 0.002212 480.36847 480.36652
450.0 0.002222 480.18643 480.18448
479.0 0.002088 480.00421 480.00217
455.0 0.002198 479.82159 479.81955
437.0 0.002288 479.63867 479.63669
438.0 0.002283 479.45566 479.45355
412.0 0.002427 479.27216 479.27008
425.0 0.002353 479.08847 479.08636
455.0 0.002198 478.90454 478.90240
442.0 0.002262 478.72025 478.71817
415.0 0.002410 478.53580 478.53366
432.0 0.002315 478.35107 478.34888
455.0 0.002198 478.16611 478.16391
464.0 0.002155 477.98087 477.97870
454.0 0.002203 477.79532 477.79318
437.0 0.002288 477.60971 477.60745
443.0 0.002257 477.42374 477.42148
475.0 0.002105 477.23755 477.23538
481.0 0.002079 477.05127 477.04895
459.0 0.002179 476.86456 476.86227
460.0 0.002174 476.67773 476.67538
467.0 0.002141 476.49069 476.48837
447.0 0.002237 476.30350 476.30118
475.0 0.002105 476.11600 476.11368
462.0 0.002165 475.92834 475.92599
443.0 0.002257 475.74051 480.98163
450.0 0.002222 475.55249 481.15219
470.0 0.002128 475.36420 484.36374
465.0 0.002151 475.17584 484.81848
482.0 0.002075 474.98718 487.91132
514.0 0.001946 474.79840 488.69495
531.0 0.001883 474.60947 489.59418
522.0 0.001916 474.42032 494.27515
485.0 0.002062 474.23105 495.71982
503.0 0.001988 474.04160 497.37967
480.0 0.002083 473.85202 499.29422
490.0 0.002041 473.66223 502.53210
537.0 0.001862 473.47232 505.19327
489.0 0.002045 473.28226 508.31641
507.0 0.001972 473.09201 512.01263
517.0 0.001934 472.90164 516.42694
556.0 0.001799 472.71118 521.76453
516.0 0.001938 472.52063 528.30725
544.0 0.001838 472.32986 536.47528
592.0 0.001689 472.13895 546.91431
627.0 0.001595 471.94800 560.69318
670.0 0.001493 471.75681 580.14050
706.0 0.001416 471.56564 612.45245
817.0 0.001224 471.37436 675.70984
931.0 0.001074 471.18286 787.95282
1091.0 0.000917 470.99136 961.93744
1247.0 0.000802 470.79971 1205.19385
1447.0 0.000691 470.60803 1536.15015
1869.0 0.000535 470.41620 1986.01685
2435.0 0.000411 470.22427 2609.74097
3376.0 0.0002962 470.03229 3520.83911
4840.0 0.0002066 469.84018 4921.50049
6220.0 0.0001608 469.64807 6588.00586
6651.0 0.0001504 469.45584 6824.39941
6157.0 0.0001624 469.26358 5932.22119
5879.0 0.0001701 469.07123 5823.08350
5405.0 0.0001850 468.87878 5399.57910
5016.0 0.0001994 468.68640 4967.73535
4896.0 0.0002042 468.49387 4443.21387
4534.0 0.0002206 468.30118 4221.54932
3280.0 0.0003049 468.10861 3048.29321
2000.0 0.000500 467.91595 1857.53064
1680.0 0.000595 467.72333 1546.99158
1709.0 0.000585 467.53055 1579.99890
1444.0 0.000693 467.33777 1328.96350
974.0 0.001027 467.14490 899.27228
684.0 0.001462 466.95212 694.38287
599.0 0.001669 466.75928 625.65796
592.0 0.001689 466.56638 591.79590
557.0 0.001795 466.37344 570.12054
539.0 0.001855 466.18060 554.92493
535.0 0.001869 465.98770 543.78870
549.0 0.001821 465.79477 535.42194
559.0 0.001789 465.60187 529.05884
528.0 0.001894 465.40891 514.43195
525.0 0.001905 465.21603 511.66006
521.0 0.001919 465.02307 509.84723
527.0 0.001898 464.83023 503.42590
503.0 0.001988 464.63736 500.21658
536.0 0.001866 464.44449 501.96652
547.0 0.001828 464.25168 504.67578
529.0 0.001890 464.05881 502.16254
530.0 0.001887 463.86609 508.31216
574.0 0.001742 463.67337 517.67877
577.0 0.001733 463.48056 531.10327
685.0 0.001460 463.28793 554.90027
697.0 0.001435 463.09531 608.69574
772.0 0.001295 462.90268 698.99542
873.0 0.001145 462.71024 829.94318
1030.0 0.000971 462.51770 1001.41876
1225.0 0.000816 462.32532 1226.40259
1495.0 0.000669 462.13281 1537.13599
1957.0 0.000511 461.94058 1987.73926
2721.0 0.000368 461.74838 2687.42432
3911.0 0.0002557 461.55615 3688.81470
4220.0 0.0002370 461.36411 4160.64111
2923.0 0.0003421 461.17200 2967.11304
1923.0 0.000520 460.98007 2028.90332
2000.0 0.000500 460.78821 2033.11401
2255.0 0.000443 460.59641 2294.68384
1851.0 0.000540 460.40472 1861.18481
1071.0 0.000934 460.21304 1098.28857
718.0 0.001393 460.02158 775.03668
658.0 0.001520 459.83014 706.23859
659.0 0.001517 459.63882 712.82574
664.0 0.001506 459.44760 753.72754
761.0 0.001314 459.25647 825.54535
870.0 0.001149 459.06555 936.53796
1082.0 0.000924 458.87463 1109.06580
1372.0 0.000729 458.68381 1387.17993
1689.0 0.000592 458.49316 1739.84912
1700.0 0.000588 458.30264 1741.30420
1224.0 0.000817 458.11227 1253.58081
1022.0 0.000978 457.92197 1022.23474
1076.0 0.000929 457.73175 1079.56763
1118.0 0.000894 457.54181 1144.74280
931.0 0.001074 457.35187 915.71887
705.0 0.001418 457.16214 677.81879
607.0 0.001647 456.97250 594.81335
603.0 0.001658 456.78299 582.87836
653.0 0.001531 456.59366 604.55145
731.0 0.001368 456.40454 663.15033
805.0 0.001242 456.21564 770.93890
883.0 0.001133 456.02670 920.57123
1055.0 0.000948 455.83801 1121.25073
1342.0 0.000745 455.64948 1395.93396
1800.0 0.000556 455.46118 1784.32227
2560.0 0.000391 455.27295 2372.09302
3560.0 0.0002809 455.08496 3291.09961
4444.0 0.0002250 454.89706 4233.03076
3808.0 0.0002626 454.70938 3715.50439
2440.0 0.000410 454.52191 2343.11035
2014.0 0.000497 454.33466 1941.72424
2238.0 0.000447 454.14752 2205.29028
2281.0 0.000438 453.96051 2252.38452
1559.0 0.000641 453.77386 1472.07581
868.0 0.001152 453.58728 864.79498
647.0 0.001546 453.40097 657.24603
572.0 0.001748 453.21478 591.78369
581.0 0.001721 453.02881 562.20245
590.0 0.001695 452.84308 543.69525
542.0 0.001845 452.65750 523.24316
464.0 0.002155 452.47220 507.14609
469.0 0.002132 452.28711 498.85629
451.0 0.002217 452.10217 494.42496
482.0 0.002075 451.91748 488.43216
470.0 0.002128 451.73303 480.28073
463.0 0.002160 451.54886 474.80539
445.0 0.002247 451.36487 471.44174
442.0 0.002262 451.18100 468.92987
407.0 0.002457 450.99753 466.85852
440.0 0.002273 450.81412 457.24158
394.0 0.002538 450.63104 456.36884
400.0 0.002500 450.44824 455.60599
428.0 0.002336 450.26563 454.92963
433.0 0.002309 450.08328 450.23898
416.0 0.002404 449.90125 450.03513
427.0 0.002342 449.71939 449.83569
418.0 0.002392 449.53775 449.63980
447.0 0.002237 449.35638 449.44647
431.0 0.002320 449.17526 449.25543
438.0 0.002283 448.99448 449.06610
455.0 0.002198 448.81390 448.83914
386.0 0.002591 448.63361 448.65576
407.0 0.002457 448.45358 448.47302
400.0 0.002500 448.27377 448.29111
388.0 0.002577 448.09430 448.08923
402.0 0.002488 447.91510 447.91000
381.0 0.002625 447.73618 447.73105
407.0 0.002457 447.55750 447.55234
393.0 0.002545 447.37909 447.37393
401.0 0.002494 447.20096 447.19580
394.0 0.002538 447.02322 447.01804
398.0 0.002513 446.84564 446.84052
406.0 0.002463 446.66843 446.66318
420.0 0.002381 446.49149 446.48627
393.0 0.002545 446.31488 446.30963
402.0 0.002488 446.13858 446.13327
397.0 0.002519 445.96249 445.95721
426.0 0.002347 445.78668 445.78143
432.0 0.002315 445.61133 445.60596
418.0 0.002392 445.43616 445.43085
406.0 0.002463 445.26138 445.25604
405.0 0.002469 445.08679 445.08148
406.0 0.002463 444.91263 444.90723
422.0 0.002370 444.73880 444.73343
416.0 0.002404 444.56525 444.55981
393.0 0.002545 444.39203 444.38663
392.0 0.002551 444.21912 444.21365
376.0 0.002660 444.04648 444.04108
384.0 0.002604 443.87421 443.86874
398.0 0.002513 443.70227 443.69681
397.0 0.002519 443.53073 443.52518
385.0 0.002597 443.35950 443.35400
394.0 0.002538 443.18845 443.18298
402.0 0.002488 443.01794 443.01242
407.0 0.002457 442.84769 442.84207
384.0 0.002604 442.67783 442.67230
380.0 0.002632 442.50830 442.50262
391.0 0.002558 442.33902 442.33340
399.0 0.002506 442.17020 442.16452
403.0 0.002481 442.00165 441.99597
389.0 0.002571 441.83353 441.82785
384.0 0.002604 441.66574 441.66003
446.0 0.002242 441.49823 441.49258
449.0 0.002227 441.33118 441.32547
408.0 0.002451 441.16440 441.15869
424.0 0.002358 440.99808 440.99240
432.0 0.002315 440.83212 440.82639
440.0 0.002273 440.66644 440.66071
455.0 0.002198 440.50125 440.49539
427.0 0.002342 440.33633 440.33051
416.0 0.002404 440.17184 440.16595
427.0 0.002342 440.00769 440.00186
457.0 0.002188 439.84384 439.83804
457.0 0.002188 439.68057 439.67462
419.0 0.002387 439.51752 439.51157
421.0 0.002375 439.35492 439.34900
407.0 0.002457 439.19272 439.18674
402.0 0.002488 439.03076 439.02481
404.0 0.002475 438.86932 438.86337
419.0 0.002387 438.70822 438.70230
421.0 0.002375 438.54758 438.54163
430.0 0.002326 438.38733 438.38132
415.0 0.002410 438.22742 438.22134
434.0 0.002304 438.06790 438.06192
421.0 0.002375 437.90881 439.71606
409.0 0.002445 437.75015 439.67770
429.0 0.002331 437.59183 439.65192
447.0 0.002237 437.43396 439.64093
440.0 0.002273 437.27652 439.64667
420.0 0.002381 437.11938 440.58517
417.0 0.002398 436.96277 440.69327
402.0 0.002488 436.80649 440.83374
392.0 0.002551 436.65063 441.01184
417.0 0.002398 436.49524 441.23434
423.0 0.002364 436.34030 448.70377
420.0 0.002381 436.18567 449.51819
422.0 0.002370 436.03156 450.45764
425.0 0.002353 435.87775 451.54584
413.0 0.002421 435.72437 452.81183
412.0 0.002427 435.57153 457.91333
413.0 0.002421 435.41904 459.90363
437.0 0.002288 435.26700 462.25284
449.0 0.002227 435.11542 468.45187
447.0 0.002237 434.96420 472.07718
464.0 0.002155 434.81348 476.51624
481.0 0.002079 434.66312 482.07867
473.0 0.002114 434.51328 490.90051
467.0 0.002141 434.36380 502.24161
508.0 0.001969 434.21478 519.26697
558.0 0.001792 434.06625 551.69879
628.0 0.001592 433.91812 605.10394
667.0 0.001499 433.77054 685.45709
784.0 0.001276 433.62320 789.68475
941.0 0.001063 433.47647 930.39178
1202.0 0.000832 433.33011 1135.96558
1504.0 0.000665 433.18430 1453.03772
2080.0 0.000481 433.03882 1921.88306
2553.0 0.000392 432.89377 2242.15796
1968.0 0.000508 432.74930 1820.52087
1555.0 0.000643 432.60522 1432.56458
1583.0 0.000632 432.46161 1554.81433
1997.0 0.000501 432.31848 1997.33203
2376.0 0.000421 432.17575 2420.71460
2448.0 0.000408 432.03354 2617.87183
2903.0 0.0003445 431.89175 3130.09253
3984.0 0.0002510 431.75043 4257.29150
5887.0 0.0001699 431.60965 6052.10498
7086.0 0.0001411 431.46921 7257.36426
5016.0 0.0001994 431.32938 5479.76563
3142.0 0.0003183 431.18985 3670.80591
3185.0 0.0003140 431.05093 3619.36890
4287.0 0.0002333 430.91248 4542.44678
5156.0 0.0001939 430.77438 5268.46582
4957.0 0.0002017 430.63684 4790.50635
4466.0 0.0002239 430.49979 4253.30469
3145.0 0.0003180 430.36313 3095.84106
2060.0 0.000485 430.22708 2212.26318
2115.0 0.000473 430.09137 2202.02759
2697.0 0.000371 429.95624 2676.64160
2858.0 0.0003499 429.82159 2880.24438
2098.0 0.000477 429.68744 1996.37280
1205.0 0.000830 429.55371 1219.53235
974.0 0.001027 429.42047 1000.73279
1018.0 0.000982 429.28775 1018.08032
932.0 0.001073 429.15546 1006.05450
770.0 0.001299 429.02365 791.12598
580.0 0.001724 428.89246 617.52588
474.0 0.002110 428.76172 549.67450
439.0 0.002278 428.63141 521.74310
437.0 0.002288 428.50165 491.25717
423.0 0.002364 428.37231 480.73038
447.0 0.002237 428.24353 473.00925
467.0 0.002141 428.11517 467.11621
449.0 0.002227 427.98740 462.50284
452.0 0.002212 427.86008 452.01990
438.0 0.002283 427.73325 449.64413
425.0 0.002353 427.60696 441.68469
431.0 0.002320 427.48114 440.85980
429.0 0.002331 427.35583 440.51129
443.0 0.002257 427.23102 440.91754
463.0 0.002160 427.10678 442.96756
474.0 0.002110 426.98300 444.90698
484.0 0.002066 426.85965 453.77429
448.0 0.002232 426.73691 466.00095
430.0 0.002326 426.61469 482.98416
467.0 0.002141 426.49298 507.18091
516.0 0.001938 426.37167 544.73444
566.0 0.001767 426.25101 602.65625
584.0 0.001712 426.13071 651.01392
567.0 0.001764 426.01108 601.84149
488.0 0.002049 425.89185 527.06024
511.0 0.001957 425.77319 509.21521
498.0 0.002008 425.65503 525.94177
508.0 0.001969 425.53745 541.88092
469.0 0.002132 425.42035 509.11121
437.0 0.002288 425.30368 466.26669
453.0 0.002208 425.18762 449.26318
430.0 0.002326 425.07202 444.67743
474.0 0.002110 424.95703 443.49335
465.0 0.002151 424.84247 443.67538
426.0 0.002347 424.72852 444.82028
418.0 0.002392 424.61508 446.88358
490.0 0.002041 424.50211 451.41995
479.0 0.002088 424.38965 456.13428
510.0 0.001961 424.27780 463.24161
534.0 0.001873 424.16644 477.27463
593.0 0.001686 424.05563 502.71783
572.0 0.001748 423.94531 552.89813
657.0 0.001522 423.83554 631.60022
713.0 0.001403 423.72632 739.76746
820.0 0.001220 423.61758 889.79810
1131.0 0.000884 423.50943 1104.86060
1603.0 0.000624 423.40173 1441.58118
2144.0 0.000466 423.29468 1945.23486
2463.0 0.000406 423.18805 2288.60742
1882.0 0.000531 423.08206 1770.63135
1171.0 0.000854 422.97650 1189.84961
1146.0 0.000873 422.87152 1083.55627
1323.0 0.000756 422.76715 1237.40381
1414.0 0.000707 422.66324 1357.69568
1069.0 0.000935 422.55981 1057.13318
725.0 0.001379 422.45700 705.41370
550.0 0.001818 422.35474 567.32947
502.0 0.001992 422.25296 526.78125
542.0 0.001845 422.15173 512.92334
514.0 0.001946 422.05106 511.52737
541.0 0.001848 421.95093 524.14899
583.0 0.001715 421.85141 558.24280
659.0 0.001517 421.75241 612.78058
774.0 0.001292 421.65384 695.32062
871.0 0.001148 421.55594 823.25031
1053.0 0.000950 421.45850 1014.38837
1377.0 0.000726 421.36163 1318.67883
1820.0 0.000549 421.26532 1744.30798
2024.0 0.000494 421.16956 2042.37512
1917.0 0.000522 421.07434 1885.36328
2006.0 0.000499 420.97971 1922.74426
2451.0 0.000408 420.88550 2301.03613
2419.0 0.000413 420.79193 2304.83789
1857.0 0.000539 420.69891 1776.93445
1351.0 0.000740 420.60641 1319.66760
1183.0 0.000845 420.51447 1165.02417
1252.0 0.000799 420.42310 1243.04675
1220.0 0.000820 420.33221 1161.56470
901.0 0.001110 420.24197 817.58344
663.0 0.001508 420.15225 620.13989
583.0 0.001715 420.06308 564.95477
581.0 0.001721 419.97440 566.50665
580.0 0.001724 419.88635 597.39587
591.0 0.001692 419.79880 657.45258
692.0 0.001445 419.71179 744.34473
873.0 0.001145 419.62540 872.20734
1091.0 0.000917 419.53946 1082.36035
1417.0 0.000706 419.45416 1413.60596
1720.0 0.000581 419.36938 1698.01624
1401.0 0.000714 419.28519 1487.59485
1128.0 0.000887 419.20157 1193.97156
1178.0 0.000849 419.11841 1234.24902
1586.0 0.000631 419.03589 1527.23401
2079.0 0.000481 418.95386 1939.38525
2157.0 0.000464 418.87247 2029.13855
1463.0 0.000684 418.79156 1467.29272
933.0 0.001072 418.71121 982.32257
831.0 0.001203 418.63150 870.33325
934.0 0.001071 418.55225 944.30560
1109.0 0.000902 418.47360 1032.81702
888.0 0.001126 418.39554 875.19836
642.0 0.001558 418.31799 630.79633
494.0 0.002024 418.24097 523.33484
464.0 0.002155 418.16458 488.66278
464.0 0.002155 418.08871 473.99780
458.0 0.002183 418.01337 466.12982
452.0 0.002212 417.93863 461.68658
469.0 0.002132 417.86441 459.48108
484.0 0.002066 417.79077 459.64020
487.0 0.002053 417.71771 462.40091
527.0 0.001898 417.64517 466.42960
505.0 0.001980 417.57324 481.61389
558.0 0.001792 417.50189 514.79944
579.0 0.001727 417.43097 571.01782
657.0 0.001522 417.36069 658.33984
755.0 0.001325 417.29105 774.30212
944.0 0.001059 417.22183 938.47906
1209.0 0.000827 417.15320 1203.24341
1627.0 0.000615 417.08517 1602.06616
1866.0 0.000536 417.01773 1895.21753
1524.0 0.000656 416.95074 1503.68787
1017.0 0.000983 416.88437 1017.52313
860.0 0.001163 416.81860 908.55499
971.0 0.001030 416.75336 1015.63568
1125.0 0.000889 416.68866 1151.52405
984.0 0.001016 416.62460 993.19250
715.0 0.001399 416.56097 677.07330
523.0 0.001912 416.49799 528.87366
448.0 0.002232 416.43555 481.25208
447.0 0.002237 416.37366 461.42526
456.0 0.002193 416.31235 450.03149
441.0 0.002268 416.25153 442.62488
413.0 0.002421 416.19138 437.48505
379.0 0.002639 416.13174 433.73941
389.0 0.002571 416.07260 430.91037
414.0 0.002415 416.01410 428.70844
455.0 0.002198 415.95618 426.95322
435.0 0.002299 415.89877 425.52692
409.0 0.002445 415.84192 424.34747
421.0 0.002375 415.78561 424.73712
422.0 0.002370 415.72986 423.98987
446.0 0.002242 415.67468 420.04193
436.0 0.002294 415.62012 419.80530
448.0 0.002232 415.56607 419.62677
478.0 0.002092 415.51257 420.17111
414.0 0.002415 415.45959 420.13632
422.0 0.002370 415.40723 418.46011
419.0 0.002387 415.35544 418.66653
396.0 0.002525 415.30414 424.76398
428.0 0.002336 415.25348 425.44009
434.0 0.002304 415.20340 426.20746
392.0 0.002551 415.15375 427.08237
382.0 0.002618 415.10471 428.08478
439.0 0.002278 415.05627 432.08780
415.0 0.002410 415.00839 433.61957
412.0 0.002427 414.96103 435.40164
450.0 0.002222 414.91422 437.49570
451.0 0.002217 414.86798 439.98334
417.0 0.002398 414.82227 442.98380
460.0 0.002174 414.77716 446.66660
520.0 0.001923 414.73257 451.29782
468.0 0.002137 414.68854 457.67490
497.0 0.002012 414.64514 466.02490
491.0 0.002037 414.60223 479.34381
520.0 0.001923 414.55978 504.36868
573.0 0.001745 414.51801 548.40540
638.0 0.001567 414.47678 616.62366
739.0 0.001353 414.43610 709.40308
858.0 0.001166 414.39594 841.65295
1096.0 0.000912 414.35638 1043.03186
1458.0 0.000686 414.31735 1352.11963
1769.0 0.000565 414.27893 1643.25818
1638.0 0.000611 414.24094 1466.23633
1277.0 0.000783 414.20358 1136.46826
1239.0 0.000807 414.16669 1163.20410
1464.0 0.000683 414.13046 1470.15173
1855.0 0.000539 414.09473 1944.22998
2323.0 0.000430 414.05957 2417.71387
2966.0 0.0003372 414.02493 2923.37231
4216.0 0.0002372 413.99091 3956.90552
5203.0 0.0001922 413.95737 5176.56445
4483.0 0.0002231 413.92438 4624.57178
2763.0 0.000362 413.89197 2756.37891
1929.0 0.000518 413.86011 2012.53528
2130.0 0.000469 413.82877 2165.00781
2671.0 0.000374 413.79794 2687.80371
2618.0 0.000382 413.76773 2768.02051
1776.0 0.000563 413.73807 1766.09839
1032.0 0.000969 413.70895 1012.57214
721.0 0.001387 413.68030 760.60400
620.0 0.001613 413.65225 694.50000
659.0 0.001517 413.62476 690.15118
731.0 0.001368 413.59790 731.18652
814.0 0.001229 413.57138 789.51636
816.0 0.001225 413.54556 758.93262
692.0 0.001445 413.52020 638.14471
584.0 0.001712 413.49542 585.86694
582.0 0.001718 413.47119 597.70349
611.0 0.001637 413.44745 645.54700
710.0 0.001408 413.42429 689.97247
702.0 0.001425 413.40170 686.27191
689.0 0.001451 413.37955 709.82654
771.0 0.001297 413.35800 793.05920
956.0 0.001046 413.33701 976.32782
1193.0 0.000838 413.31656 1196.35986
1144.0 0.000874 413.29663 1187.90918
947.0 0.001056 413.27725 995.87659
996.0 0.001004 413.25839 1002.47693
1225.0 0.000816 413.24005 1201.50842
1643.0 0.000609 413.22229 1549.94421
1776.0 0.000563 413.20505 1774.82727
1368.0 0.000731 413.18829 1366.41553
873.0 0.001145 413.17218 908.16174
744.0 0.001344 413.15652 778.82611
821.0 0.001218 413.14139 827.71393
967.0 0.001034 413.12680 930.11926
868.0 0.001152 413.11276 880.49298
665.0 0.001504 413.09930 652.51984
508.0 0.001969 413.08624 518.92474
453.0 0.002208 413.07373 473.12457
449.0 0.002227 413.06183 455.10034
426.0 0.002347 413.05045 445.02676
396.0 0.002525 413.03952 438.47632
402.0 0.002488 413.02921 433.89874
433.0 0.002309 413.01941 430.18323
423.0 0.002364 413.01010 427.64716
431.0 0.002320 413.00131 425.66190
395.0 0.002532 412.99310 424.07312
396.0 0.002525 412.98529 422.77676
421.0 0.002375 412.97815 421.70291
436.0 0.002294 412.97150 420.62994
417.0 0.002398 412.96524 419.87482
398.0 0.002513 412.95959 419.22830
427.0 0.002342 412.95453 418.66980
413.0 0.002421 412.94995 418.33817
384.0 0.002604 412.94583 417.06628
398.0 0.002513 412.94226 416.75449
425.0 0.002353 412.93921 416.48203
415.0 0.002410 412.93671 416.24341
401.0 0.002494 412.93469 416.10803
377.0 0.002653 412.93314 414.19434
390.0 0.002564 412.93216 414.14661
398.0 0.002513 412.93173 414.11029
393.0 0.002545 412.93176 414.08481
407.0 0.002457 412.93228 414.07001
430.0 0.002326 412.93332 414.06595
425.0 0.002353 412.93494 413.44955
418.0 0.002392 412.93704 413.50674
399.0 0.002506 412.93954 413.57397
378.0 0.002646 412.94269 413.65335
392.0 0.002551 412.94626 413.74814
387.0 0.002584 412.95044 413.86249
392.0 0.002551 412.95499 414.48932
405.0 0.002469 412.96011 414.69598
408.0 0.002451 412.96576 414.95276
421.0 0.002375 412.97189 415.27969
407.0 0.002457 412.97852 415.71033
419.0 0.002387 412.98560 416.53635
420.0 0.002381 412.99335 417.45029
432.0 0.002315 413.00140 419.10492
379.0 0.002639 413.01004 423.70688
440.0 0.002273 413.01907 429.53632
436.0 0.002294 413.02872 438.72672
438.0 0.002283 413.03891 451.17291
480.0 0.002083 413.04950 469.97818
508.0 0.001969 413.06061 499.49625
604.0 0.001656 413.07220 535.49957
573.0 0.001745 413.08435 532.99518
484.0 0.002066 413.09695 484.26721
470.0 0.002128 413.10999 459.59894
498.0 0.002008 413.12354 460.55789
471.0 0.002123 413.13760 473.75095
493.0 0.002028 413.15213 485.82495
492.0 0.002033 413.16718 470.26187
436.0 0.002294 413.18265 446.35367
458.0 0.002183 413.19870 437.55463
432.0 0.002315 413.21518 437.86136
467.0 0.002141 413.23221 443.41339
453.0 0.002208 413.24960 456.26599
472.0 0.002119 413.26749 477.53946
502.0 0.001992 413.28601 510.47858
547.0 0.001828 413.30487 557.15070
652.0 0.001534 413.32422 627.59717
789.0 0.001267 413.34412 734.91229
869.0 0.001151 413.36441 826.19531
829.0 0.001206 413.38522 749.94824
686.0 0.001458 413.40649 642.18689
636.0 0.001572 413.42819 649.54669
718.0 0.001393 413.45047 743.25024
861.0 0.001161 413.47321 891.32483
1040.0 0.000962 413.49637 1061.60852
1230.0 0.000813 413.51996 1232.48950
1390.0 0.000719 413.54407 1423.71313
1225.0 0.000816 413.56866 1270.05969
882.0 0.001134 413.59375 883.91888
723.0 0.001383 413.61920 731.73956
762.0 0.001312 413.64514 754.99756
839.0 0.001192 413.67157 864.93115
876.0 0.001142 413.69852 944.75519
821.0 0.001218 413.72586 800.01227
680.0 0.001471 413.75369 635.85730
652.0 0.001534 413.78201 596.85498
723.0 0.001383 413.81067 630.56049
751.0 0.001332 413.83987 675.85266
684.0 0.001462 413.86951 622.86859
566.0 0.001767 413.89966 534.10260
506.0 0.001976 413.93024 502.81573
522.0 0.001916 413.96118 508.90540
553.0 0.001808 413.99274 534.52441
554.0 0.001805 414.02463 545.98285
534.0 0.001873 414.05701 503.34799
472.0 0.002119 414.08978 461.61023
437.0 0.002288 414.12311 445.37271
444.0 0.002252 414.15683 440.06512
442.0 0.002262 414.19095 437.89804
431.0 0.002320 414.22556 436.54846
437.0 0.002288 414.26056 436.50885
437.0 0.002288 414.29611 437.08334
478.0 0.002092 414.33203 438.20978
429.0 0.002331 414.36844 439.89908
446.0 0.002242 414.40518 441.97601
495.0 0.002020 414.44244 445.66846
468.0 0.002137 414.48013 449.81247
522.0 0.001916 414.51828 454.07269
525.0 0.001905 414.55685 461.58566
500.0 0.002000 414.59583 472.03781
546.0 0.001832 414.63525 487.44528
573.0 0.001745 414.67511 513.61652
693.0 0.001443 414.71539 565.76465
730.0 0.001370 414.75607 669.31708
904.0 0.001106 414.79727 838.58649
1087.0 0.000920 414.83887 1093.64551
1516.0 0.000660 414.88083 1468.89966
2245.0 0.000445 414.92319 2045.10425
3337.0 0.0002997 414.96600 2843.99756
3493.0 0.0002863 415.00928 3175.29297
2397.0 0.000417 415.05304 2185.52344
1385.0 0.000722 415.09708 1392.43176
1241.0 0.000806 415.14160 1247.14709
1515.0 0.000660 415.18655 1438.39917
1910.0 0.000524 415.23193 1766.11487
1899.0 0.000527 415.27771 1739.56677
1266.0 0.000790 415.32388 1130.25647
774.0 0.001292 415.37042 728.24994
634.0 0.001577 415.41748 587.83386
569.0 0.001757 415.46484 538.15759
514.0 0.001946 415.51266 515.31213
527.0 0.001898 415.56091 510.20142
544.0 0.001838 415.60956 516.48303
549.0 0.001821 415.65866 536.09021
592.0 0.001689 415.70804 575.06592
665.0 0.001504 415.75793 631.43341
786.0 0.001272 415.80814 724.96875
948.0 0.001055 415.85889 856.90063
1001.0 0.000999 415.90985 919.74231
827.0 0.001209 415.96133 761.08600
670.0 0.001493 416.01321 624.74927
632.0 0.001582 416.06543 597.85602
675.0 0.001481 416.11804 630.44116
739.0 0.001353 416.17105 690.24561
769.0 0.001300 416.22455 704.98535
693.0 0.001443 416.27838 614.99060
654.0 0.001529 416.33255 551.63940
625.0 0.001600 416.38718 538.99908
626.0 0.001597 416.44211 549.63916
677.0 0.001477 416.49747 575.31836
801.0 0.001248 416.55319 622.72333
917.0 0.001091 416.60938 731.22247
1020.0 0.000980 416.66589 943.44928
1253.0 0.000798 416.72272 1273.72314
1714.0 0.000583 416.78006 1791.29065
2543.0 0.000393 416.83765 2545.55029
3839.0 0.0002605 416.89566 3702.84473
5420.0 0.0001845 416.95413 5069.73633
5073.0 0.0001971 417.01297 4890.81738
3050.0 0.0003279 417.07205 2937.78003
1859.0 0.000538 417.13159 1941.85779
1812.0 0.000552 417.19147 1910.65991
2386.0 0.000419 417.25174 2348.01514
2988.0 0.0003347 417.31232 2909.89551
2782.0 0.000359 417.37332 2621.28223
1705.0 0.000587 417.43469 1565.90759
1101.0 0.000908 417.49643 1019.33643
1010.0 0.000990 417.55847 896.10608
991.0 0.001009 417.62091 929.76855
1167.0 0.000857 417.68375 1069.85498
1466.0 0.000682 417.74695 1310.49902
1816.0 0.000551 417.81042 1495.46375
1584.0 0.000631 417.87433 1314.64001
1181.0 0.000847 417.93857 1148.15015
1278.0 0.000782 418.00308 1214.68030
1610.0 0.000621 418.06812 1455.11841
2044.0 0.000489 418.13336 1756.33447
2012.0 0.000497 418.19901 1656.41699
1363.0 0.000734 418.26498 1180.97290
995.0 0.001005 418.33130 912.97906
964.0 0.001037 418.39798 875.99799
1053.0 0.000950 418.46500 949.92883
1230.0 0.000813 418.53241 1058.88074
1151.0 0.000869 418.60010 1022.63397
1075.0 0.000930 418.66809 949.59857
1120.0 0.000893 418.73654 1051.74194
1407.0 0.000711 418.80524 1332.98230
1852.0 0.000540 418.87433 1797.76379
2383.0 0.000420 418.94366 2363.52197
2558.0 0.000391 419.01337 2562.41211
2574.0 0.000389 419.08350 2634.89771
3057.0 0.0003271 419.15390 3120.83228
3108.0 0.0003218 419.22455 3220.34180
2785.0 0.000359 419.29565 2822.10986
2779.0 0.000360 419.36700 2837.87329
2458.0 0.000407 419.43872 2511.52588
1921.0 0.000521 419.51071 1965.66187
1759.0 0.000569 419.58307 1894.12598
1660.0 0.000602 419.65573 1775.54919
1461.0 0.000684 419.72870 1418.77979
1244.0 0.000804 419.80200 1265.78577
1028.0 0.000973 419.87558 1053.90710
811.0 0.001233 419.94952 770.05042
681.0 0.001468 420.02383 636.29767
607.0 0.001647 420.09836 597.02203
631.0 0.001585 420.17325 604.71497
712.0 0.001404 420.24835 648.49847
758.0 0.001319 420.32382 734.45459
905.0 0.001105 420.39966 866.91144
1181.0 0.000847 420.47577 1085.29639
1568.0 0.000638 420.55219 1385.44141
1679.0 0.000596 420.62897 1532.16479
1270.0 0.000787 420.70593 1188.51025
883.0 0.001133 420.78326 877.92303
852.0 0.001174 420.86081 830.22095
984.0 0.001016 420.93872 940.69159
1213.0 0.000824 421.01697 1140.91223
1414.0 0.000707 421.09549 1328.39734
1383.0 0.000723 421.17422 1311.77380
1175.0 0.000851 421.25330 1187.31433
903.0 0.001107 421.33276 907.61884
712.0 0.001404 421.41238 710.16870
674.0 0.001484 421.49231 660.41888
731.0 0.001368 421.57254 693.19495
792.0 0.001263 421.65308 767.62512
897.0 0.001115 421.73392 813.48553
843.0 0.001186 421.81491 734.70795
767.0 0.001304 421.89636 677.04480
775.0 0.001290 421.97797 731.76569
971.0 0.001030 422.05991 890.98260
1268.0 0.000789 422.14212 1166.44055
1655.0 0.000604 422.22458 1598.77087
2319.0 0.000431 422.30740 2240.63721
3208.0 0.0003117 422.39035 3008.61230
3493.0 0.0002863 422.47366 3224.22241
3021.0 0.0003310 422.55725 2704.25879
2016.0 0.000496 422.64105 1842.29077
1365.0 0.000733 422.72525 1421.89514
1455.0 0.000687 422.80951 1492.98999
1800.0 0.000556 422.89410 1784.95630
1888.0 0.000530 422.97906 1881.83350
1709.0 0.000585 423.06421 1595.09998
1257.0 0.000796 423.14957 1089.07129
757.0 0.001321 423.23529 734.70935
575.0 0.001739 423.32114 594.47131
540.0 0.001852 423.40741 540.28448
500.0 0.002000 423.49377 511.87698
464.0 0.002155 423.58044 494.11832
495.0 0.002020 423.66742 481.75934
501.0 0.001996 423.75458 473.69449
482.0 0.002075 423.84204 467.36319
474.0 0.002110 423.92966 463.92236
450.0 0.002222 424.01761 461.84323
454.0 0.002203 424.10577 461.33557
445.0 0.002247 424.19418 462.82913
432.0 0.002315 424.28287 468.01602
466.0 0.002146 424.37170 481.01370
492.0 0.002033 424.46088 507.83121
560.0 0.001786 424.55023 552.26947
648.0 0.001543 424.63983 619.36163
762.0 0.001312 424.72961 725.96539
921.0 0.001086 424.81976 874.18268
979.0 0.001021 424.91003 958.31512
829.0 0.001206 425.00055 792.34637
633.0 0.001580 425.09122 619.03143
592.0 0.001689 425.18228 573.49738
591.0 0.001692 425.27347 594.27777
622.0 0.001608 425.36493 653.49445
709.0 0.001410 425.45654 704.20410
662.0 0.001511 425.54834 637.98431
560.0 0.001786 425.64053 532.33734
508.0 0.001969 425.73282 490.36523
486.0 0.002058 425.82532 487.89767
512.0 0.001953 425.91803 506.11334
552.0 0.001812 426.01102 542.65210
575.0 0.001739 426.10413 601.55524
700.0 0.001429 426.19757 690.93610
748.0 0.001337 426.29108 772.21741
717.0 0.001395 426.38483 706.78497
573.0 0.001745 426.47882 574.16620
546.0 0.001832 426.57309 523.35913
531.0 0.001883 426.66745 526.93726
524.0 0.001908 426.76212 558.88092
581.0 0.001721 426.85687 599.88763
535.0 0.001869 426.95187 584.79187
450.0 0.002222 427.04709 508.86945
462.0 0.002165 427.14249 464.01492
423.0 0.002364 427.23810 448.03842
407.0 0.002457 427.33386 441.76755
389.0 0.002571 427.42981 438.37799
421.0 0.002375 427.52597 436.23938
421.0 0.002375 427.62238 434.79129
399.0 0.002506 427.71890 433.03558
407.0 0.002457 427.81564 432.32730
384.0 0.002604 427.91251 431.80130
444.0 0.002252 428.00958 431.40439
432.0 0.002315 428.10687 431.10208
414.0 0.002415 428.20438 430.87085
404.0 0.002475 428.30200 430.69455
442.0 0.002262 428.39978 430.21738
430.0 0.002326 428.49783 430.14026
402.0 0.002488 428.59592 430.08914
414.0 0.002415 428.69427 430.11105
393.0 0.002545 428.79272 430.10220
407.0 0.002457 428.89145 430.10864
430.0 0.002326 428.99030 430.26877
427.0 0.002342 429.08926 430.30896
435.0 0.002299 429.18848 430.36023
445.0 0.002247 429.28775 429.95615
441.0 0.002268 429.38724 430.08252
423.0 0.002364 429.48697 430.19104
427.0 0.002342 429.58673 430.37579
440.0 0.002273 429.68674 430.50537
445.0 0.002247 429.78693 430.64548
429.0 0.002331 429.88721 430.56268
432.0 0.002315 429.98758 430.74667
438.0 0.002283 430.08823 430.95145
402.0 0.002488 430.18900 431.18777
396.0 0.002525 430.28992 431.48099
404.0 0.002475 430.39087 431.90347
424.0 0.002358 430.49207 432.58994
444.0 0.002252 430.59344 433.59079
425.0 0.002353 430.69498 435.15558
411.0 0.002433 430.79648 437.32532
432.0 0.002315 430.89828 440.57965
432.0 0.002315 431.00021 443.46896
429.0 0.002331 431.10223 442.12064
444.0 0.002252 431.20438 438.81458
428.0 0.002336 431.30670 438.29559
434.0 0.002304 431.40915 440.16849
440.0 0.002273 431.51175 444.32214
439.0 0.002278 431.61447 451.06067
465.0 0.002151 431.71732 461.11121
468.0 0.002137 431.82022 474.04498
530.0 0.001887 431.92331 496.71744
588.0 0.001701 432.02655 522.67560
576.0 0.001736 432.12994 540.39990
611.0 0.001637 432.23334 549.63757
560.0 0.001786 432.33691 527.51843
507.0 0.001972 432.44058 489.96582
454.0 0.002203 432.54443 479.47501
486.0 0.002058 432.64838 486.01920
481.0 0.002079 432.75244 494.21127
516.0 0.001938 432.85654 498.75201
503.0 0.001988 432.96091 495.33328
433.0 0.002309 433.06519 472.35153
428.0 0.002336 433.16977 457.73248
450.0 0.002222 433.27435 453.04712
398.0 0.002513 433.37909 452.18246
420.0 0.002381 433.48380 452.70618
436.0 0.002294 433.58878 454.12189
460.0 0.002174 433.69379 456.48926
468.0 0.002137 433.79895 460.44620
442.0 0.002262 433.90414 467.65268
455.0 0.002198 434.00943 479.76895
491.0 0.002037 434.11487 499.03076
541.0 0.001848 434.22034 527.50592
589.0 0.001698 434.32593 570.09027
641.0 0.001560 434.43161 617.63635
628.0 0.001592 434.53741 618.25323
591.0 0.001692 434.64331 567.23633
562.0 0.001779 434.74927 548.60181
556.0 0.001799 434.85529 566.96600
644.0 0.001553 434.96133 610.87067
738.0 0.001355 435.06763 688.95343
860.0 0.001163 435.17392 811.29144
1024.0 0.000977 435.28030 982.44995
1312.0 0.000762 435.38675 1282.29407
1865.0 0.000536 435.49332 1777.66724
2630.0 0.000380 435.59988 2555.61255
3218.0 0.0003108 435.70654 3311.95190
2847.0 0.000351 435.81329 2934.33521
1807.0 0.000553 435.92014 1756.86768
1173.0 0.000853 436.02707 1211.74255
1108.0 0.000903 436.13397 1191.90588
1362.0 0.000734 436.24103 1408.61450
1752.0 0.000571 436.34821 1785.04297
1861.0 0.000537 436.45529 1931.73352
1451.0 0.000689 436.56250 1382.77686
926.0 0.001080 436.66977 870.17450
658.0 0.001520 436.77716 666.24152
595.0 0.001681 436.88458 601.51495
612.0 0.001634 436.99210 588.64154
624.0 0.001603 437.09958 604.48114
672.0 0.001488 437.20718 651.50226
794.0 0.001259 437.31479 735.19849
992.0 0.001008 437.42255 870.70117
1223.0 0.000818 437.53021 996.47894
1139.0 0.000878 437.63800 910.37115
802.0 0.001247 437.74582 701.70825
638.0 0.001567 437.85370 610.17743
635.0 0.001575 437.96170 609.04077
654.0 0.001529 438.06961 649.32129
802.0 0.001247 438.17767 717.42548
836.0 0.001196 438.28571 744.96539
701.0 0.001427 438.39374 649.73730
564.0 0.001773 438.50192 563.52441
498.0 0.002008 438.61011 533.31580
523.0 0.001912 438.71832 529.51007
560.0 0.001786 438.82657 536.69525
559.0 0.001789 438.93484 553.11096
644.0 0.001553 439.04315 579.76343
701.0 0.001427 439.15152 643.56152
807.0 0.001239 439.25983 778.75818
987.0 0.001013 439.36819 1011.37354
1315.0 0.000760 439.47668 1403.68152
1874.0 0.000534 439.58508 1989.62671
2785.0 0.000359 439.69360 2854.69922
3494.0 0.0002862 439.80203 3473.37451
2819.0 0.000355 439.91052 2698.17383
1639.0 0.000610 440.01910 1633.64270
1206.0 0.000829 440.12766 1286.00525
1259.0 0.000794 440.23618 1399.97058
1563.0 0.000640 440.34479 1699.02454
1900.0 0.000526 440.45334 2016.53503
1988.0 0.000503 440.56195 1991.53870
1441.0 0.000694 440.67056 1346.48389
894.0 0.001119 440.77921 878.43488
668.0 0.001497 440.88788 715.54041
633.0 0.001580 440.99649 675.20734
599.0 0.001669 441.10513 638.83374
561.0 0.001783 441.21384 573.02600
568.0 0.001761 441.32248 531.93286
520.0 0.001923 441.43112 517.21375
516.0 0.001938 441.53976 519.31097
537.0 0.001862 441.64841 531.30353
548.0 0.001825 441.75711 556.65112
587.0 0.001704 441.86575 598.65717
635.0 0.001575 441.97437 633.35278
577.0 0.001733 442.08298 596.77881
497.0 0.002012 442.19165 532.61462
469.0 0.002132 442.30026 505.83298
478.0 0.002092 442.40887 505.55630
463.0 0.002160 442.51746 517.85004
500.0 0.002000 442.62598 539.01654
538.0 0.001859 442.73462 548.62537
500.0 0.002000 442.84317 519.43323
454.0 0.002203 442.95169 493.03601
469.0 0.002132 443.06024 486.54977
484.0 0.002066 443.16873 486.97189
481.0 0.002079 443.27734 500.27716
546.0 0.001832 443.38568 521.55328
585.0 0.001709 443.49417 549.07141
598.0 0.001672 443.60257 555.24091
552.0 0.001812 443.71094 523.26996
483.0 0.002070 443.81931 501.38907
483.0 0.002070 443.92761 502.28580
531.0 0.001883 444.03595 515.54639
555.0 0.001802 444.14417 539.67493
635.0 0.001575 444.25241 575.79211
675.0 0.001481 444.36063 619.65448
718.0 0.001393 444.46872 691.38641
854.0 0.001171 444.57700 843.65356
1042.0 0.000960 444.68506 1094.38257
1409.0 0.000710 444.79309 1458.72717
1833.0 0.000546 444.90109 1806.46069
2054.0 0.000487 445.00903 1898.94385
1734.0 0.000577 445.11700 1566.66394
1071.0 0.000934 445.22488 1069.05127
857.0 0.001167 445.33264 885.39642
976.0 0.001025 445.44055 931.57843
1098.0 0.000911 445.54834 1082.25281
1249.0 0.000801 445.65604 1216.44434
1328.0 0.000753 445.76355 1223.71545
1127.0 0.000887 445.87115 1018.30450
879.0 0.001138 445.97873 830.87592
849.0 0.001178 446.08624 815.35461
935.0 0.001070 446.19366 900.21332
953.0 0.001049 446.30103 920.45306
790.0 0.001266 446.40836 749.83356
631.0 0.001585 446.51559 614.80273
590.0 0.001695 446.62286 575.40161
567.0 0.001764 446.72995 587.91266
615.0 0.001626 446.83707 628.60016
691.0 0.001447 446.94400 682.10699
704.0 0.001420 447.05096 674.31934
584.0 0.001712 447.15787 582.37427
522.0 0.001916 447.26468 521.97382
489.0 0.002045 447.37140 500.15585
473.0 0.002114 447.47809 493.24765
498.0 0.002008 447.58472 491.51318
466.0 0.002146 447.69119 492.96707
499.0 0.002004 447.79767 497.46219
528.0 0.001894 447.90408 506.42157
520.0 0.001923 448.01035 525.13135
558.0 0.001792 448.11658 560.55560
662.0 0.001511 448.22275 621.81677
817.0 0.001224 448.32886 725.29333
1003.0 0.000997 448.43469 890.07758
1223.0 0.000818 448.54062 1116.91174
1350.0 0.000741 448.64645 1239.82825
1310.0 0.000763 448.75220 1177.81616
1375.0 0.000727 448.85788 1263.77856
1586.0 0.000631 448.96335 1498.75378
1568.0 0.000638 449.06882 1503.05579
1250.0 0.000800 449.17422 1247.77734
1151.0 0.000869 449.27954 1202.51440
1113.0 0.000898 449.38474 1255.72900
1098.0 0.000911 449.48987 1183.89502
1079.0 0.000927 449.59488 1066.01404
1053.0 0.000950 449.69977 1051.06702
953.0 0.001049 449.80453 949.48523
737.0 0.001357 449.90930 764.48419
633.0 0.001580 450.01392 693.35522
632.0 0.001582 450.11850 698.86823
610.0 0.001639 450.22284 669.97284
569.0 0.001757 450.32721 588.02362
541.0 0.001848 450.43140 542.25586
560.0 0.001786 450.53546 529.74597
561.0 0.001783 450.63943 523.43195
499.0 0.002004 450.74332 518.07788
574.0 0.001742 450.84714 530.46478
559.0 0.001789 450.95084 566.73767
601.0 0.001664 451.05435 627.77368
726.0 0.001377 451.15781 738.64386
828.0 0.001208 451.26114 879.18439
1037.0 0.000964 451.36444 962.48279
819.0 0.001221 451.46750 808.50226
627.0 0.001595 451.57047 632.40448
553.0 0.001808 451.67334 573.49463
557.0 0.001795 451.77615 576.48145
604.0 0.001656 451.87878 618.53778
683.0 0.001464 451.98126 683.43903
687.0 0.001456 452.08368 714.34802
596.0 0.001678 452.18591 627.72327
552.0 0.001812 452.28809 538.14685
482.0 0.002075 452.39014 501.21014
473.0 0.002114 452.49203 487.25110
445.0 0.002247 452.59375 480.81653
446.0 0.002242 452.69540 479.06097
442.0 0.002262 452.79684 477.60049
486.0 0.002058 452.89828 476.42053
460.0 0.002174 452.99957 476.64648
473.0 0.002114 453.10071 477.43274
479.0 0.002088 453.20157 478.73230
489.0 0.002045 453.30246 480.28427
500.0 0.002000 453.40311 482.68839
505.0 0.001980 453.50375 485.75613
488.0 0.002049 453.60419 489.63959
479.0 0.002088 453.70435 494.53717
516.0 0.001938 453.80460 500.87372
517.0 0.001934 453.90463 509.15662
548.0 0.001825 454.00446 520.26587
579.0 0.001727 454.10419 535.70630
579.0 0.001727 454.20377 558.45020
623.0 0.001605 454.30319 596.17108
746.0 0.001340 454.40247 669.31238
882.0 0.001134 454.50159 811.99646
1135.0 0.000881 454.60056 1042.37146
1558.0 0.000642 454.69934 1466.11243
2165.0 0.000462 454.79800 2086.88867
2865.0 0.0003490 454.89661 2762.13525
2940.0 0.0003401 454.99496 2845.01001
2786.0 0.000359 455.09317 2608.34790
2784.0 0.000359 455.19125 2631.54541
2329.0 0.000429 455.28912 2133.77490
1730.0 0.000578 455.38684 1600.73901
1542.0 0.000649 455.48447 1559.03979
1754.0 0.000570 455.58191 1764.59033
1724.0 0.000580 455.67923 1751.28223
1681.0 0.000595 455.77628 1579.41675
1585.0 0.000631 455.87326 1540.33044
1289.0 0.000776 455.97003 1237.23303
889.0 0.001125 456.06665 854.43060
639.0 0.001565 456.16306 668.96649
540.0 0.001852 456.25937 597.12201
525.0 0.001905 456.35550 563.46497
505.0 0.001980 456.45148 543.75250
525.0 0.001905 456.54718 531.15723
493.0 0.002028 456.64282 522.88287
475.0 0.002105 456.73825 520.25604
531.0 0.001883 456.83347 517.19159
507.0 0.001972 456.92859 515.85846
509.0 0.001965 457.02347 516.06519
510.0 0.001961 457.11819 517.78601
526.0 0.001901 457.21277 521.15216
511.0 0.001957 457.30713 526.47461
527.0 0.001898 457.40137 535.67401
555.0 0.001802 457.49536 547.10889
541.0 0.001848 457.58917 563.78650
582.0 0.001718 457.68292 589.25732
655.0 0.001527 457.77640 631.32355
810.0 0.001235 457.86969 711.29834
930.0 0.001075 457.96280 886.65009
1129.0 0.000886 458.05566 1196.49084
1601.0 0.000625 458.14832 1708.91663
2338.0 0.000428 458.24100 2524.37158
3128.0 0.0003197 458.33331 3454.54272
3239.0 0.0003087 458.42545 3448.48438
2232.0 0.000448 458.51743 2170.62061
1316.0 0.000760 458.60928 1340.90137
1041.0 0.000961 458.70084 1140.38855
1141.0 0.000876 458.79227 1248.66968
1449.0 0.000690 458.88342 1581.57483
1819.0 0.000550 458.97446 2016.70325
1879.0 0.000532 459.06531 2107.82935
1506.0 0.000664 459.15588 1503.44568
1059.0 0.000944 459.24637 1047.88013
888.0 0.001126 459.33655 959.84827
995.0 0.001005 459.42657 1083.88171
1230.0 0.000813 459.51639 1398.26501
1645.0 0.000608 459.60605 1880.54749
2146.0 0.000466 459.69543 2359.44238
1974.0 0.000507 459.78467 2089.78149
1298.0 0.000770 459.87369 1327.71997
871.0 0.001148 459.96246 946.36145
791.0 0.001264 460.05103 879.92407
881.0 0.001135 460.13950 972.96637
1104.0 0.000906 460.22766 1184.49060
1386.0 0.000722 460.31561 1436.65649
1355.0 0.000738 460.40335 1395.65369
1042.0 0.000960 460.49097 1029.39441
808.0 0.001238 460.57837 814.41663
734.0 0.001362 460.66541 746.28094
630.0 0.001587 460.75235 672.42200
593.0 0.001686 460.83911 602.19373
569.0 0.001757 460.92554 573.18646
559.0 0.001789 461.01196 571.51758
579.0 0.001727 461.09799 585.63098
617.0 0.001621 461.18375 631.60840
717.0 0.001395 461.26938 713.33801
838.0 0.001193 461.35483 810.01031
985.0 0.001015 461.44000 976.50043
1259.0 0.000794 461.52499 1218.90820
1401.0 0.000714 461.60971 1396.00220
1231.0 0.000812 461.69424 1147.01990
820.0 0.001220 461.77856 806.62000
635.0 0.001575 461.86264 669.33911
577.0 0.001733 461.94647 658.56390
658.0 0.001520 462.03006 718.23657
794.0 0.001259 462.11353 827.06891
895.0 0.001117 462.19669 935.04095
896.0 0.001116 462.27969 859.69128
667.0 0.001499 462.36237 664.18414
540.0 0.001852 462.44479 558.27277
484.0 0.002066 462.52713 518.73047
481.0 0.002079 462.60910 502.36288
481.0 0.002079 462.69095 493.50638
457.0 0.002188 462.77255 488.24765
463.0 0.002160 462.85382 485.35800
474.0 0.002110 462.93491 482.93777
481.0 0.002079 463.01587 484.46954
508.0 0.001969 463.09641 488.17093
502.0 0.001992 463.17682 493.57330
489.0 0.002045 463.25690 496.98889
516.0 0.001938 463.33682 499.30887
519.0 0.001927 463.41653 509.29572
541.0 0.001848 463.49597 523.31885
538.0 0.001859 463.57516 522.63049
483.0 0.002070 463.65405 504.63776
486.0 0.002058 463.73282 493.60718
510.0 0.001961 463.81131 491.16617
480.0 0.002083 463.88953 490.76096
487.0 0.002053 463.96750 494.78140
517.0 0.001934 464.04520 502.57751
514.0 0.001946 464.12274 506.60892
494.0 0.002024 464.19995 503.00156
483.0 0.002070 464.27698 507.33124
501.0 0.001996 464.35370 522.92688
532.0 0.001880 464.43018 555.23145
557.0 0.001795 464.50644 600.58789
574.0 0.001742 464.58243 638.27356
534.0 0.001873 464.65817 606.74957
523.0 0.001912 464.73367 557.97894
557.0 0.001795 464.80893 550.61469
579.0 0.001727 464.88391 576.95374
624.0 0.001603 464.95862 630.35034
697.0 0.001435 465.03314 696.00964
729.0 0.001372 465.10739 711.49445
667.0 0.001499 465.18134 658.68988
583.0 0.001715 465.25507 618.21021
579.0 0.001727 465.32852 634.07391
682.0 0.001466 465.40179 706.48718
783.0 0.001277 465.47470 809.37720
844.0 0.001185 465.54736 859.43878
821.0 0.001218 465.61981 770.79431
724.0 0.001381 465.69193 674.27698
665.0 0.001504 465.76379 660.87439
734.0 0.001362 465.83545 735.07941
885.0 0.001130 465.90686 890.41272
1118.0 0.000894 465.97800 1162.72339
1498.0 0.000668 466.04886 1484.98132
1593.0 0.000628 466.11945 1580.67847
1178.0 0.000849 466.18970 1201.33240
849.0 0.001178 466.25977 873.41486
752.0 0.001330 466.32956 795.65900
867.0 0.001153 466.39911 876.98566
1017.0 0.000983 466.46838 1089.04395
1359.0 0.000736 466.53735 1422.96887
1818.0 0.000550 466.60608 1737.75452
1535.0 0.000651 466.67450 1567.84204
1145.0 0.000873 466.74271 1147.12708
1007.0 0.000993 466.81061 1013.71790
1126.0 0.000888 466.87830 1086.52490
1206.0 0.000829 466.94562 1136.26904
1020.0 0.000980 467.01263 1029.02515
974.0 0.001027 467.07953 975.37354
927.0 0.001079 467.14609 937.28558
823.0 0.001215 467.21228 796.65356
703.0 0.001422 467.27823 717.60706
752.0 0.001330 467.34402 730.45575
820.0 0.001220 467.40955 763.91522
734.0 0.001362 467.47470 704.38019
619.0 0.001616 467.53955 604.07373
534.0 0.001873 467.60410 552.76709
508.0 0.001969 467.66846 536.10474
544.0 0.001838 467.73257 533.86060
566.0 0.001767 467.79633 543.33728
618.0 0.001618 467.85977 569.77905
658.0 0.001520 467.92300 628.89270
825.0 0.001212 467.98593 731.09723
1041.0 0.000961 468.04865 908.39697
1313.0 0.000762 468.11099 1120.00549
1398.0 0.000715 468.17310 1182.26453
1098.0 0.000911 468.23486 919.08545
766.0 0.001305 468.29639 694.65900
602.0 0.001661 468.35764 618.17780
597.0 0.001675 468.41858 622.13586
688.0 0.001453 468.47922 674.28827
841.0 0.001189 468.53964 766.26849
958.0 0.001044 468.59967 849.30328
917.0 0.001091 468.65948 786.58600
726.0 0.001377 468.71899 639.99512
570.0 0.001754 468.77823 562.26337
509.0 0.001965 468.83710 536.90411
514.0 0.001946 468.89575 536.02106
554.0 0.001805 468.95419 553.82397
560.0 0.001786 469.01221 592.22528
612.0 0.001634 469.06995 664.49036
722.0 0.001385 469.12744 762.70740
727.0 0.001376 469.18463 828.06830
693.0 0.001443 469.24158 737.59741
606.0 0.001650 469.29816 620.66125
552.0 0.001812 469.35449 578.22772
565.0 0.001770 469.41049 589.08032
624.0 0.001603 469.46625 642.23566
732.0 0.001366 469.52173 751.00214
890.0 0.001124 469.57678 915.21771
1025.0 0.000976 469.63162 1101.96277
1171.0 0.000854 469.68613 1224.00562
1118.0 0.000894 469.74048 1121.64783
785.0 0.001274 469.79437 826.61920
604.0 0.001656 469.84805 657.26807
615.0 0.001626 469.90143 610.56866
579.0 0.001727 469.95441 625.06207
608.0 0.001645 470.00717 686.02655
689.0 0.001451 470.05963 777.62115
805.0 0.001242 470.11182 835.70087
777.0 0.001287 470.16364 736.44391
608.0 0.001645 470.21521 608.81183
497.0 0.002012 470.26645 549.87921
546.0 0.001832 470.31747 530.22955
507.0 0.001972 470.36810 527.45941
509.0 0.001965 470.41846 536.54272
547.0 0.001828 470.46844 558.92987
600.0 0.001667 470.51816 600.90985
694.0 0.001441 470.56766 659.60706
689.0 0.001451 470.61682 703.36334
684.0 0.001462 470.66559 671.13531
638.0 0.001567 470.71417 643.91425
734.0 0.001362 470.76236 689.44702
817.0 0.001224 470.81030 812.62152
1061.0 0.000943 470.85788 1006.42682
1237.0 0.000808 470.90521 1181.26843
1156.0 0.000865 470.95224 1091.98511
885.0 0.001130 470.99887 872.29053
763.0 0.001311 471.04523 762.41516
789.0 0.001267 471.09140 788.89624
975.0 0.001026 471.13712 936.07745
1231.0 0.000812 471.18259 1166.32349
1373.0 0.000728 471.22766 1323.94983
1218.0 0.000821 471.27249 1165.14087
879.0 0.001138 471.31708 863.51343
693.0 0.001443 471.36133 680.51324
631.0 0.001585 471.40521 628.87976
606.0 0.001650 471.44879 641.96643
659.0 0.001517 471.49207 701.08771
778.0 0.001285 471.53503 771.84882
783.0 0.001277 471.57773 758.08936
654.0 0.001529 471.62003 638.32153
541.0 0.001848 471.66211 555.89288
507.0 0.001972 471.70386 521.98657
487.0 0.002053 471.74521 509.39734
473.0 0.002114 471.78629 502.24786
488.0 0.002049 471.82709 497.91254
479.0 0.002088 471.86755 495.14932
474.0 0.002110 471.90775 493.39050
495.0 0.002020 471.94754 492.02670
487.0 0.002053 471.98709 491.53470
488.0 0.002049 472.02628 494.44052
497.0 0.002012 472.06522 495.01129
469.0 0.002132 472.10382 496.02130
475.0 0.002105 472.14206 497.51074
500.0 0.002000 472.17999 498.48526
464.0 0.002155 472.21759 501.28897
485.0 0.002062 472.25491 505.99731
518.0 0.001931 472.29190 510.98785
477.0 0.002096 472.32864 519.20081
516.0 0.001938 472.36493 528.64447
533.0 0.001876 472.40094 542.30640
534.0 0.001873 472.43668 564.85187
635.0 0.001575 472.47205 601.93384
700.0 0.001429 472.50720 683.12604
856.0 0.001168 472.54190 849.99811
1024.0 0.000977 472.57639 1112.07458
1453.0 0.000688 472.61050 1557.49646
1889.0 0.000529 472.64429 2017.63757
1963.0 0.000509 472.67776 1953.52722
1289.0 0.000776 472.71094 1314.82422
900.0 0.001111 472.74377 908.83453
730.0 0.001370 472.77628 788.97528
778.0 0.001285 472.80850 820.81055
888.0 0.001126 472.84039 936.96747
1107.0 0.000903 472.87192 1168.89014
1272.0 0.000786 472.90317 1364.07629
1248.0 0.000801 472.93411 1260.04871
985.0 0.001015 472.96463 969.63824
918.0 0.001089 472.99490 862.05902
998.0 0.001002 473.02484 952.78308
1200.0 0.000833 473.05444 1206.89209
1639.0 0.000610 473.08377 1641.11658
2337.0 0.000428 473.11273 2263.34692
2614.0 0.000383 473.14142 2474.07007
1974.0 0.000507 473.16974 1852.35303
1339.0 0.000747 473.19769 1308.34387
1183.0 0.000845 473.22537 1199.30859
1354.0 0.000739 473.25275 1409.42859
1663.0 0.000601 473.27969 1722.59497
1900.0 0.000526 473.30652 1899.95789
1994.0 0.000502 473.33279 1974.33215
1952.0 0.000512 473.35883 1970.34351
1793.0 0.000558 473.38458 1791.03821
1695.0 0.000590 473.41003 1698.55884
1468.0 0.000681 473.43509 1494.68542
1235.0 0.000810 473.45981 1253.67603
1165.0 0.000858 473.48425 1169.93713
1096.0 0.000912 473.50836 1086.31458
1018.0 0.000982 473.53217 1034.94324
1163.0 0.000860 473.55554 1147.66504
1519.0 0.000658 473.57867 1455.65723
1753.0 0.000570 473.60147 1708.80383
1575.0 0.000635 473.62390 1526.12024
1182.0 0.000846 473.64603 1114.62671
1024.0 0.000977 473.66782 961.59186
1114.0 0.000898 473.68936 1064.10632
1371.0 0.000729 473.71045 1349.45984
2039.0 0.000490 473.73126 1867.27136
2582.0 0.000387 473.75177 2323.58496
2234.0 0.000448 473.77194 2128.50293
1559.0 0.000641 473.79175 1450.79919
1062.0 0.000942 473.81134 990.59528
835.0 0.001198 473.83047 832.73926
890.0 0.001124 473.84933 847.00562
977.0 0.001024 473.86786 966.91650
1172.0 0.000853 473.88608 1205.88782
1459.0 0.000685 473.90396 1379.97107
1267.0 0.000789 473.92142 1206.17786
882.0 0.001134 473.93869 866.77496
648.0 0.001543 473.95557 680.01044
609.0 0.001642 473.97205 613.42621
501.0 0.001996 473.98834 592.86938
572.0 0.001748 474.00427 583.69385
541.0 0.001848 474.01978 572.55487
591.0 0.001692 474.03503 569.00543
550.0 0.001818 474.04993 561.00854
519.0 0.001927 474.06448 537.90851
567.0 0.001764 474.07874 520.63367
516.0 0.001938 474.09268 515.43561
507.0 0.001972 474.10623 515.78979
489.0 0.002045 474.11945 515.99774
477.0 0.002096 474.13242 508.28006
540.0 0.001852 474.14502 500.70880
503.0 0.001988 474.15723 498.41498
552.0 0.001812 474.16913 497.81711
506.0 0.001976 474.18082 498.10141
496.0 0.002016 474.19208 499.32300
525.0 0.001905 474.20300 501.37662
521.0 0.001919 474.21365 506.36353
526.0 0.001901 474.22397 510.07675
502.0 0.001992 474.23392 519.56860
542.0 0.001845 474.24350 532.85217
561.0 0.001783 474.25281 542.18500
535.0 0.001869 474.26178 543.01031
553.0 0.001808 474.27036 550.53418
592.0 0.001689 474.27869 574.24878
654.0 0.001529 474.28662 630.04889
788.0 0.001269 474.29431 746.00903
973.0 0.001028 474.30164 940.05640
1330.0 0.000752 474.30856 1256.41138
1680.0 0.000595 474.31519 1545.92847
1582.0 0.000632 474.32150 1432.36316
1121.0 0.000892 474.32751 1008.11029
775.0 0.001290 474.33322 765.00116
694.0 0.001441 474.33850 695.93793
702.0 0.001425 474.34354 720.82581
791.0 0.001264 474.34821 808.87640
987.0 0.001013 474.35251 974.61993
1197.0 0.000835 474.35648 1165.44177
1277.0 0.000783 474.36020 1227.85181
1264.0 0.000791 474.36356 1233.24866
1442.0 0.000693 474.36658 1449.83289
1822.0 0.000549 474.36923 1921.13354
1968.0 0.000508 474.37158 2145.02881
1597.0 0.000626 474.37363 1659.16296
1095.0 0.000913 474.37531 1102.95166
883.0 0.001133 474.37662 874.93652
851.0 0.001175 474.37769 861.40527
975.0 0.001026 474.37842 964.55487
1134.0 0.000882 474.37878 1126.26819
1400.0 0.000714 474.37885 1378.54431
1545.0 0.000647 474.37851 1567.71521
1495.0 0.000669 474.37793 1455.54175
1245.0 0.000803 474.37701 1214.91797
1041.0 0.000961 474.37567 1027.51990
1053.0 0.000950 474.37402 1002.13409
1172.0 0.000853 474.37213 1086.88501
1118.0 0.000894 474.36987 1057.44885
864.0 0.001157 474.36731 868.88843
743.0 0.001346 474.36432 761.53461
754.0 0.001326 474.36108 762.97565
824.0 0.001214 474.35751 782.33337
714.0 0.001401 474.35358 775.78693
825.0 0.001212 474.34933 818.11859
904.0 0.001106 474.34482 938.82660
1113.0 0.000898 474.33987 1016.53387
886.0 0.001129 474.33466 906.08417
691.0 0.001447 474.32907 719.65802
589.0 0.001698 474.32321 617.28772
576.0 0.001736 474.31699 582.41302
567.0 0.001764 474.31052 582.68195
588.0 0.001701 474.30362 606.19080
635.0 0.001575 474.29639 656.11438
720.0 0.001389 474.28891 732.35217
802.0 0.001247 474.28104 813.97534
892.0 0.001121 474.27286 905.20184
1052.0 0.000951 474.26434 1102.45911
1278.0 0.000782 474.25549 1340.20532
1233.0 0.000811 474.24634 1291.61572
939.0 0.001065 474.23685 941.40057
651.0 0.001536 474.22699 711.12744
582.0 0.001718 474.21689 628.03052
581.0 0.001721 474.20639 625.17194
639.0 0.001565 474.19559 672.92078
720.0 0.001389 474.18445 769.78619
822.0 0.001217 474.17303 898.59857
849.0 0.001178 474.16125 909.66241
740.0 0.001351 474.14914 741.08209
626.0 0.001597 474.13666 605.77063
541.0 0.001848 474.12396 547.44849
509.0 0.001965 474.11090 525.51782
486.0 0.002058 474.09741 513.96906
487.0 0.002053 474.08374 504.67886
474.0 0.002110 474.06970 498.00854
466.0 0.002146 474.05530 493.93707
470.0 0.002128 474.04059 491.06473
471.0 0.002123 474.02557 489.13458
496.0 0.002016 474.01025 488.53290
460.0 0.002174 473.99448 488.65799
456.0 0.002193 473.97849 488.66223
463.0 0.002160 473.96222 490.69949
472.0 0.002119 473.94553 489.88260
480.0 0.002083 473.92853 489.98630
504.0 0.001984 473.91119 490.86862
509.0 0.001965 473.89365 492.22275
478.0 0.002092 473.87570 494.85156
493.0 0.002028 473.85745 499.33658
523.0 0.001912 473.83884 507.71301
522.0 0.001916 473.81995 523.32709
550.0 0.001818 473.80075 549.62848
586.0 0.001706 473.78119 592.69348
619.0 0.001616 473.76126 638.89764
649.0 0.001541 473.74109 674.06653
692.0 0.001445 473.72055 735.16559
783.0 0.001277 473.69968 798.39960
764.0 0.001309 473.67850 788.42676
713.0 0.001403 473.65707 707.86200
644.0 0.001553 473.63531 620.81146
581.0 0.001721 473.61310 589.87646
575.0 0.001739 473.59070 594.27045
580.0 0.001724 473.56793 605.72217
574.0 0.001742 473.54486 629.15240
678.0 0.001475 473.52142 664.32397
691.0 0.001447 473.49768 675.71594
646.0 0.001548 473.47369 649.39539
603.0 0.001658 473.44934 609.23401
577.0 0.001733 473.42468 596.44281
636.0 0.001572 473.39966 616.00134
746.0 0.001340 473.37439 675.48907
848.0 0.001179 473.34872 813.12665
1044.0 0.000958 473.32281 1091.45959
1520.0 0.000658 473.29651 1541.44690
2123.0 0.000471 473.26993 2160.58203
2300.0 0.000435 473.24310 2361.19629
1674.0 0.000597 473.21588 1721.76477
1099.0 0.000910 473.18832 1096.18591
839.0 0.001192 473.16049 827.13550
737.0 0.001357 473.13239 766.05444
765.0 0.001307 473.10388 825.70703
937.0 0.001067 473.07510 987.44263
1203.0 0.000831 473.04599 1263.71326
1421.0 0.000704 473.01657 1468.36169
1333.0 0.000750 472.98685 1276.33679
968.0 0.001033 472.95682 911.91528
742.0 0.001348 472.92645 727.54584
666.0 0.001502 472.89581 685.53430
689.0 0.001451 472.86484 715.73022
721.0 0.001387 472.83353 787.47955
728.0 0.001374 472.80194 814.72363
713.0 0.001403 472.77002 746.71436
713.0 0.001403 472.73779 704.21021
769.0 0.001300 472.70526 735.53400
791.0 0.001264 472.67233 758.43500
709.0 0.001410 472.63919 701.35632
628.0 0.001592 472.60571 645.53613
634.0 0.001577 472.57205 646.58319
673.0 0.001486 472.53787 665.24780
627.0 0.001595 472.50351 643.89313
609.0 0.001642 472.46884 609.14685
643.0 0.001555 472.43369 610.28009
645.0 0.001550 472.39850 628.22418
593.0 0.001686 472.36279 612.91431
537.0 0.001862 472.32687 569.81024
517.0 0.001934 472.29065 541.67450
535.0 0.001869 472.25412 535.16858
559.0 0.001789 472.21722 537.63068
566.0 0.001767 472.18005 545.60382
576.0 0.001736 472.14264 559.41321
577.0 0.001733 472.10486 581.74658
644.0 0.001553 472.06674 619.59863
737.0 0.001357 472.02838 693.22345
860.0 0.001163 471.98969 849.29510
1223.0 0.000818 471.95065 1172.46521
1723.0 0.000580 471.91135 1702.59668
2541.0 0.000394 471.87180 2436.23828
2885.0 0.0003466 471.83191 2708.71313
2064.0 0.000484 471.79169 1981.39819
1153.0 0.000867 471.75113 1226.64685
812.0 0.001232 471.71027 889.19122
823.0 0.001215 471.66925 800.35974
823.0 0.001215 471.62787 850.79938
978.0 0.001022 471.58618 1025.07092
1275.0 0.000784 471.54413 1329.98938
1564.0 0.000639 471.50183 1615.70984
1508.0 0.000663 471.45914 1468.32068
1113.0 0.000898 471.41635 1016.20416
790.0 0.001266 471.37305 738.26392
617.0 0.001621 471.32950 622.21191
569.0 0.001757 471.28571 573.29413
541.0 0.001848 471.24164 547.39801
516.0 0.001938 471.19717 531.39160
508.0 0.001969 471.15253 520.62708
504.0 0.001984 471.10754 513.46240
531.0 0.001883 471.06223 508.69049
490.0 0.002041 471.01669 510.64084
463.0 0.002160 470.97076 509.61578
466.0 0.002146 470.92459 510.52002
475.0 0.002105 470.87814 514.44305
514.0 0.001946 470.83133 524.72687
564.0 0.001773 470.78427 549.01062
630.0 0.001587 470.73694 596.34717
689.0 0.001451 470.68927 671.31854
775.0 0.001290 470.64136 749.46198
794.0 0.001259 470.59314 732.20898
665.0 0.001504 470.54462 628.74615
551.0 0.001815 470.49582 557.53473
527.0 0.001898 470.44672 533.24530
546.0 0.001832 470.39728 530.94843
579.0 0.001727 470.34753 543.94537
596.0 0.001678 470.29761 571.99396
660.0 0.001515 470.24741 615.13367
676.0 0.001479 470.19681 642.48865
624.0 0.001603 470.14597 611.67053
597.0 0.001675 470.09485 572.50745
562.0 0.001779 470.04352 561.68060
534.0 0.001873 469.99176 575.92664
577.0 0.001733 469.93970 600.85925
606.0 0.001650 469.88745 611.67041
617.0 0.001621 469.83487 604.73987
635.0 0.001575 469.78201 612.88617
700.0 0.001429 469.72894 648.32056
779.0 0.001284 469.67551 723.59326
951.0 0.001052 469.62186 884.39880
1210.0 0.000826 469.56784 1225.13452
1797.0 0.000556 469.51358 1829.28113
2667.0 0.000375 469.45908 2699.68506
3149.0 0.0003176 469.40421 3288.77612
2572.0 0.000389 469.34912 2738.34619
1548.0 0.000646 469.29370 1700.06140
1017.0 0.000983 469.23801 1113.77844
863.0 0.001159 469.18210 909.98315
824.0 0.001214 469.12589 906.86237
1028.0 0.000973 469.06937 1060.58386
1339.0 0.000747 469.01254 1373.86194
1725.0 0.000580 468.95551 1788.44897
1765.0 0.000567 468.89819 1896.48792
1471.0 0.000680 468.84052 1452.50208
996.0 0.001004 468.78268 994.23236
740.0 0.001351 468.72449 781.08020
686.0 0.001458 468.66605 717.35681
695.0 0.001439 468.60730 735.35120
767.0 0.001304 468.54831 828.76050
959.0 0.001043 468.48898 1005.46936
1162.0 0.000861 468.42953 1251.88159
1247.0 0.000802 468.36972 1315.27441
938.0 0.001066 468.30960 1035.78076
759.0 0.001318 468.24921 775.44287
658.0 0.001520 468.18860 662.20795
621.0 0.001610 468.12772 635.19507
646.0 0.001548 468.06650 660.49146
741.0 0.001350 468.00504 742.37939
874.0 0.001144 467.94336 893.86676
1078.0 0.000928 467.88141 1084.79370
1167.0 0.000857 467.81906 1130.30811
1004.0 0.000996 467.75659 934.83270
696.0 0.001437 467.69382 718.82251
586.0 0.001706 467.63068 607.19037
550.0 0.001818 467.56738 558.35010
542.0 0.001845 467.50385 544.96643
545.0 0.001835 467.43994 550.21417
575.0 0.001739 467.37589 573.32733
635.0 0.001575 467.31149 612.55121
676.0 0.001479 467.24673 637.00189
632.0 0.001582 467.18188 603.80603
581.0 0.001721 467.11670 558.17114
562.0 0.001779 467.05127 541.68469
544.0 0.001838 466.98550 549.92297
568.0 0.001761 466.91962 590.98077
653.0 0.001531 466.85336 677.46777
780.0 0.001282 466.78690 815.40771
899.0 0.001112 466.72009 945.92780
827.0 0.001209 466.65317 895.01917
679.0 0.001473 466.58588 711.78375
565.0 0.001770 466.51834 598.32190
516.0 0.001938 466.45059 553.59473
531.0 0.001883 466.38254 546.44824
518.0 0.001931 466.31427 564.30939
541.0 0.001848 466.24570 609.56293
611.0 0.001637 466.17685 682.60370
712.0 0.001404 466.10782 738.08606
698.0 0.001433 466.03851 698.14075
644.0 0.001553 465.96893 631.44928
630.0 0.001587 465.89914 623.55157
728.0 0.001374 465.82904 662.77637
786.0 0.001272 465.75876 692.61560
710.0 0.001408 465.68820 646.73645
595.0 0.001681 465.61734 578.87500
536.0 0.001866 465.54623 545.24792
537.0 0.001862 465.47488 537.51202
511.0 0.001957 465.40335 544.96582
565.0 0.001770 465.33151 567.41504
568.0 0.001761 465.25937 607.35760
678.0 0.001475 465.18710 667.04230
802.0 0.001247 465.11447 755.01489
898.0 0.001114 465.04178 882.82764
1010.0 0.000990 464.96866 1098.89038
1296.0 0.000772 464.89526 1364.01086
1493.0 0.000670 464.82184 1486.50745
1235.0 0.000810 464.74802 1203.20581
1066.0 0.000938 464.67392 1044.94666
1151.0 0.000869 464.59970 1111.10132
1352.0 0.000740 464.52518 1286.09802
1492.0 0.000670 464.45035 1322.58362
1215.0 0.000823 464.37537 1106.79834
946.0 0.001057 464.30014 1007.84503
976.0 0.001025 464.22461 1044.86096
1002.0 0.000998 464.14890 1033.83594
914.0 0.001094 464.07291 865.07581
780.0 0.001282 463.99667 789.52997
824.0 0.001214 463.92029 822.46381
936.0 0.001068 463.84354 905.79858
963.0 0.001038 463.76663 894.50183
899.0 0.001112 463.68945 777.21423
765.0 0.001307 463.61203 727.42255
772.0 0.001295 463.53448 743.14575
789.0 0.001267 463.45663 732.89838
725.0 0.001379 463.37851 657.90924
633.0 0.001580 463.30014 582.77252
571.0 0.001751 463.22159 543.21899
533.0 0.001876 463.14285 529.95740
522.0 0.001916 463.06381 531.28375
543.0 0.001842 462.98453 547.04132
557.0 0.001795 462.90500 574.16919
589.0 0.001698 462.82532 606.67999
614.0 0.001629 462.74536 612.24481
607.0 0.001647 462.66522 586.80817
575.0 0.001739 462.58481 569.26904
610.0 0.001639 462.50418 587.58258
676.0 0.001479 462.42325 657.66339
803.0 0.001245 462.34219 789.41510
1020.0 0.000980 462.26089 941.07910
1078.0 0.000928 462.17932 1034.81152
885.0 0.001130 462.09760 862.28424
675.0 0.001481 462.01563 681.43469
587.0 0.001704 461.93347 600.13660
580.0 0.001724 461.85104 580.91327
589.0 0.001698 461.76840 594.68237
660.0 0.001515 461.68549 648.61243
793.0 0.001261 461.60236 760.00049
980.0 0.001020 461.51910 941.75061
1179.0 0.000848 461.43561 1183.47583
1389.0 0.000720 461.35187 1332.25500
1536.0 0.000651 461.26782 1434.14844
1209.0 0.000827 461.18369 1177.76245
899.0 0.001112 461.09933 851.18500
711.0 0.001406 461.01474 694.76691
628.0 0.001592 460.92984 661.23145
650.0 0.001538 460.84482 692.12408
754.0 0.001326 460.75952 768.41052
844.0 0.001185 460.67410 851.43616
914.0 0.001094 460.58841 907.27020
1024.0 0.000977 460.50247 964.49780
879.0 0.001138 460.41632 849.29016
738.0 0.001355 460.33008 699.81824
676.0 0.001479 460.24350 636.34552
626.0 0.001597 460.15683 629.69098
651.0 0.001536 460.06982 618.50079
647.0 0.001546 459.98270 603.94293
610.0 0.001639 459.89520 583.96210
568.0 0.001761 459.80774 549.19458
539.0 0.001855 459.71997 530.47528
538.0 0.001859 459.63205 529.45917
529.0 0.001890 459.54376 542.48053
595.0 0.001681 459.45532 573.84534
661.0 0.001513 459.36679 636.23602
755.0 0.001325 459.27802 730.74603
844.0 0.001185 459.18900 843.33136
956.0 0.001046 459.09973 949.52942
929.0 0.001076 459.01038 882.85577
822.0 0.001217 458.92075 782.72107
802.0 0.001247 458.83093 764.18030
803.0 0.001245 458.74091 761.91052
747.0 0.001339 458.65073 681.27832
641.0 0.001560 458.56036 626.61151
605.0 0.001653 458.46976 640.28479
650.0 0.001538 458.37897 691.90674
743.0 0.001346 458.28793 753.30768
759.0 0.001318 458.19672 743.98126
764.0 0.001309 458.10529 730.30981
791.0 0.001264 458.01382 806.77997
896.0 0.001116 457.92200 960.66351
1048.0 0.000954 457.83002 1089.74231
1075.0 0.000930 457.73788 1122.40576
875.0 0.001143 457.64548 893.01093
697.0 0.001435 457.55298 689.30646
565.0 0.001770 457.46027 595.90955
522.0 0.001916 457.36734 564.83118
526.0 0.001901 457.27423 566.08569
538.0 0.001859 457.18091 599.08252
638.0 0.001567 457.08737 670.32874
723.0 0.001383 456.99374 757.83545
791.0 0.001264 456.89993 818.57410
728.0 0.001374 456.80579 744.14044
694.0 0.001441 456.71158 673.31506
722.0 0.001385 456.61719 693.47711
795.0 0.001258 456.52255 810.63995
954.0 0.001048 456.42780 987.72058
1138.0 0.000879 456.33279 1171.96716
1101.0 0.000908 456.23767 1114.18298
808.0 0.001238 456.14236 889.66205
664.0 0.001506 456.04688 723.76367
601.0 0.001664 455.95117 620.62189
558.0 0.001792 455.85529 580.77014
601.0 0.001664 455.75925 586.18854
594.0 0.001684 455.66302 634.73224
673.0 0.001486 455.56662 716.66016
757.0 0.001321 455.47003 808.73358
738.0 0.001355 455.37329 810.02856
684.0 0.001462 455.27634 698.07153
617.0 0.001621 455.17923 608.32422
529.0 0.001890 455.08203 548.86023
532.0 0.001880 454.98459 521.06732
520.0 0.001923 454.88693 509.89249
472.0 0.002119 454.78912 505.82053
484.0 0.002066 454.69116 503.40027
520.0 0.001923 454.59314 513.08856
547.0 0.001828 454.49469 536.32880
539.0 0.001855 454.39627 563.37183
565.0 0.001770 454.29758 566.40131
517.0 0.001934 454.19885 528.51715
507.0 0.001972 454.09991 500.11023
469.0 0.002132 454.00076 488.06723
465.0 0.002151 453.90140 484.70602
468.0 0.002137 453.80197 482.88141
451.0 0.002217 453.70230 486.82874
470.0 0.002128 453.60254 497.78699
473.0 0.002114 453.50256 511.92145
513.0 0.001949 453.40250 518.81281
537.0 0.001862 453.30215 504.39362
502.0 0.001992 453.20175 490.19025
482.0 0.002075 453.10114 486.51999
472.0 0.002119 453.00037 491.38141
503.0 0.001988 452.89948 503.53571
504.0 0.001984 452.79843 523.88892
521.0 0.001919 452.69714 553.84497
561.0 0.001783 452.59570 590.07019
599.0 0.001669 452.49420 610.64819
606.0 0.001650 452.39249 622.79199
698.0 0.001433 452.29062 696.77991
809.0 0.001236 452.18866 820.18079
886.0 0.001129 452.08652 935.10614
830.0 0.001205 451.98413 863.42517
666.0 0.001502 451.88168 694.03296
562.0 0.001779 451.77905 602.54675
536.0 0.001866 451.67630 576.75806
547.0 0.001828 451.57343 576.36377
558.0 0.001792 451.47031 576.81958
606.0 0.001650 451.36707 609.10144
666.0 0.001502 451.26370 679.32471
743.0 0.001346 451.16025 753.62201
752.0 0.001330 451.05661 749.12964
645.0 0.001550 450.95276 646.59619
558.0 0.001792 450.84879 576.51874
551.0 0.001815 450.74478 563.19702
594.0 0.001684 450.64050 601.59149
644.0 0.001553 450.53616 684.28632
734.0 0.001362 450.43164 779.05328
782.0 0.001279 450.32697 807.31036
664.0 0.001506 450.22211 697.51270
570.0 0.001754 450.11722 598.44476
517.0 0.001934 450.01218 545.12231
512.0 0.001953 449.90698 521.50598
502.0 0.001992 449.80157 516.62299
512.0 0.001953 449.69608 530.08093
588.0 0.001701 449.59048 564.82623
569.0 0.001757 449.48471 611.18127
624.0 0.001603 449.37885 645.86206
575.0 0.001739 449.27280 609.33374
546.0 0.001832 449.16660 554.57263
509.0 0.001965 449.06024 529.34552
499.0 0.002004 448.95389 525.85529
549.0 0.001821 448.84735 535.51300
571.0 0.001751 448.74060 563.21844
664.0 0.001506 448.63376 624.69537
704.0 0.001420 448.52686 748.43073
935.0 0.001070 448.41977 935.46082
1151.0 0.000869 448.31253 1148.55933
1211.0 0.000826 448.20517 1203.32178
1181.0 0.000847 448.09775 1135.37219
984.0 0.001016 447.99020 949.03546
863.0 0.001159 447.88248 826.00311
884.0 0.001131 447.77457 867.01245
1173.0 0.000853 447.66656 1053.32629
1488.0 0.000672 447.55850 1321.55298
1763.0 0.000567 447.45038 1509.77209
1680.0 0.000595 447.34198 1498.81458
1572.0 0.000636 447.23358 1454.71533
1336.0 0.000749 447.12497 1221.92200
1035.0 0.000966 447.01627 963.20062
797.0 0.001255 446.90750 777.17017
707.0 0.001414 446.79861 713.14874
778.0 0.001285 446.68954 745.93439
903.0 0.001107 446.58035 832.64612
1023.0 0.000978 446.47104 925.06848
1021.0 0.000979 446.36166 903.24658
915.0 0.001093 446.25217 846.30005
823.0 0.001215 446.14258 772.57544
684.0 0.001462 446.03281 680.95740
603.0 0.001658 445.92300 659.34808
646.0 0.001548 445.81299 708.06116
725.0 0.001379 445.70294 780.81097
714.0 0.001401 445.59277 796.45868
639.0 0.001565 445.48245 703.90637
600.0 0.001667 445.37201 636.27942
573.0 0.001745 445.26160 614.42767
562.0 0.001779 445.15097 596.25714
593.0 0.001686 445.04022 595.94873
671.0 0.001490 444.92938 645.96063
721.0 0.001387 444.81845 752.23676
796.0 0.001256 444.70740 875.82318
833.0 0.001200 444.59628 912.07703
719.0 0.001391 444.48502 796.79919
692.0 0.001445 444.37369 691.72449
640.0 0.001563 444.26218 649.64728
637.0 0.001570 444.15067 628.16260
629.0 0.001590 444.03900 627.55945
667.0 0.001499 443.92725 688.37427
762.0 0.001312 443.81540 829.22723
996.0 0.001004 443.70340 1004.70355
1030.0 0.000971 443.59137 1099.96411
921.0 0.001086 443.47925 954.82587
787.0 0.001271 443.36694 812.85559
820.0 0.001220 443.25467 784.14667
832.0 0.001202 443.14218 846.47504
1064.0 0.000940 443.02969 1008.83319
1297.0 0.000771 442.91708 1259.05103
1482.0 0.000675 442.80432 1425.54688
1302.0 0.000768 442.69156 1446.63574
1132.0 0.000883 442.57864 1231.25464
896.0 0.001116 442.46564 962.86255
706.0 0.001416 442.35263 764.38843
646.0 0.001548 442.23938 676.41339
641.0 0.001560 442.12607 660.60107
710.0 0.001408 442.01279 700.33167
803.0 0.001245 441.89938 793.48828
911.0 0.001098 441.78586 902.74353
919.0 0.001088 441.67221 939.49292
883.0 0.001133 441.55850 896.46381
808.0 0.001238 441.44473 799.58417
739.0 0.001353 441.33090 777.92383
750.0 0.001333 441.21695 799.83386
703.0 0.001422 441.10291 741.48181
611.0 0.001637 440.98880 624.54553
531.0 0.001883 440.87460 551.29205
495.0 0.002020 440.76028 519.36517
498.0 0.002008 440.64603 508.51105
483.0 0.002070 440.53149 510.04858
507.0 0.001972 440.41708 526.22937
542.0 0.001845 440.30240 563.01941
610.0 0.001639 440.18781 612.89880
661.0 0.001513 440.07303 658.78027
718.0 0.001393 439.95825 672.08771
783.0 0.001277 439.84335 722.99225
856.0 0.001168 439.72830 815.64447
902.0 0.001109 439.61331 863.81476
777.0 0.001287 439.49823 740.68225
606.0 0.001650 439.38306 603.53033
523.0 0.001912 439.26773 531.66412
506.0 0.001976 439.15244 504.08487
499.0 0.002004 439.03711 496.19901
522.0 0.001916 438.92160 503.47922
548.0 0.001825 438.80603 531.66815
592.0 0.001689 438.69040 583.82764
642.0 0.001558 438.57474 638.64886
670.0 0.001493 438.45901 641.42816
583.0 0.001715 438.34317 568.79181
504.0 0.001984 438.22736 511.66876
485.0 0.002062 438.11139 485.95825
465.0 0.002151 437.99545 476.76730
474.0 0.002110 437.87946 475.42749
476.0 0.002101 437.76328 479.99411
458.0 0.002183 437.64706 493.58554
514.0 0.001946 437.53085 528.92822
581.0 0.001721 437.41449 599.97406
680.0 0.001471 437.29813 694.51221
682.0 0.001466 437.18173 760.30402
708.0 0.001412 437.06525 691.63934
572.0 0.001748 436.94870 579.25476
463.0 0.002160 436.83212 515.59253
480.0 0.002083 436.71542 489.80032
502.0 0.001992 436.59879 482.04306
444.0 0.002252 436.48193 485.04123
526.0 0.001901 436.36508 502.94141
500.0 0.002000 436.24820 540.52545
571.0 0.001751 436.13138 585.39825
535.0 0.001869 436.01440 606.13184
555.0 0.001802 435.89731 558.91400
497.0 0.002012 435.78021 507.73526
481.0 0.002079 435.66309 481.80936
437.0 0.002288 435.54593 472.17679
464.0 0.002155 435.42871 469.78671
434.0 0.002304 435.31140 471.08701
474.0 0.002110 435.19409 475.83826
483.0 0.002070 435.07666 484.24011
488.0 0.002049 434.95929 499.09207
532.0 0.001880 434.84189 529.81097
601.0 0.001664 434.72437 597.22144
670.0 0.001493 434.60678 734.84357
882.0 0.001134 434.48914 934.28253
1046.0 0.000956 434.37152 1099.12842
962.0 0.001040 434.25381 1017.42993
760.0 0.001316 434.13611 790.45575
625.0 0.001600 434.01837 664.21893
651.0 0.001536 433.90051 648.76434
715.0 0.001399 433.78268 693.37347
731.0 0.001368 433.66486 738.04474
699.0 0.001431 433.54688 715.57843
691.0 0.001447 433.42889 705.45660
717.0 0.001395 433.31088 756.80853
719.0 0.001391 433.19287 804.98169
686.0 0.001458 433.07486 732.08075
616.0 0.001623 432.95670 615.51758
564.0 0.001773 432.83853 556.18640
545.0 0.001835 432.72034 549.36261
586.0 0.001706 432.60214 567.32458
606.0 0.001650 432.48401 576.41156
544.0 0.001838 432.36566 541.69226
487.0 0.002053 432.24738 502.27328
479.0 0.002088 432.12900 481.54486
502.0 0.001992 432.01068 474.10239
486.0 0.002058 431.89227 474.13327
457.0 0.002188 431.77380 481.34116
504.0 0.001984 431.65546 503.02759
541.0 0.001848 431.53696 544.53510
607.0 0.001647 431.41849 600.04352
624.0 0.001603 431.29993 637.07172
591.0 0.001692 431.18140 599.64008
518.0 0.001931 431.06287 542.97919
515.0 0.001942 430.94418 516.41418
534.0 0.001873 430.82556 514.97931
552.0 0.001812 430.70691 536.71875
578.0 0.001730 430.58829 595.07513
697.0 0.001435 430.46960 724.91321
896.0 0.001116 430.35083 941.67908
1105.0 0.000905 430.23212 1159.04382
1130.0 0.000885 430.11337 1167.12219
866.0 0.001155 429.99466 901.73370
626.0 0.001597 429.87585 683.63379
575.0 0.001739 429.75702 579.83551
545.0 0.001835 429.63824 544.21332
541.0 0.001848 429.51944 540.40796
602.0 0.001661 429.40057 563.75720
593.0 0.001686 429.28168 621.98187
693.0 0.001443 429.16281 712.38141
747.0 0.001339 429.04391 797.43579
745.0 0.001342 428.92502 784.72504
632.0 0.001582 428.80606 663.36554
588.0 0.001701 428.68719 574.68207
585.0 0.001709 428.56824 538.54492
574.0 0.001742 428.44934 535.90906
563.0 0.001776 428.33032 555.20197
626.0 0.001597 428.21133 608.16248
741.0 0.001350 428.09238 727.30347
969.0 0.001032 427.97339 944.11005
1164.0 0.000859 427.85440 1197.00684
1220.0 0.000820 427.73541 1291.85352
1017.0 0.000983 427.61642 1043.11877
770.0 0.001299 427.49741 797.72449
673.0 0.001486 427.37833 685.07617
627.0 0.001595 427.25937 645.37579
609.0 0.001642 427.14041 610.01154
612.0 0.001634 427.02139 602.85291
652.0 0.001534 426.90234 647.94720
711.0 0.001406 426.78326 760.47913
844.0 0.001185 426.66425 908.37628
945.0 0.001058 426.54526 986.94916
870.0 0.001149 426.42621 884.76093
750.0 0.001333 426.30716 769.72198
717.0 0.001395 426.18814 761.41693
859.0 0.001164 426.06912 882.32379
1055.0 0.000948 425.95013 1137.33228
1304.0 0.000767 425.83109 1447.82214
1424.0 0.000702 425.71210 1559.20178
1254.0 0.000797 425.59308 1239.79480
992.0 0.001008 425.47412 934.16876
849.0 0.001178 425.35510 816.15082
845.0 0.001183 425.23615 806.96289
854.0 0.001171 425.11713 803.66028
816.0 0.001225 424.99811 765.45239
804.0 0.001244 424.87912 787.40173
899.0 0.001112 424.76028 919.19604
1031.0 0.000970 424.64124 1098.58655
1095.0 0.000913 424.52240 1162.38184
976.0 0.001025 424.40338 992.25012
848.0 0.001179 424.28452 833.67291
806.0 0.001241 424.16565 806.80176
872.0 0.001147 424.04669 892.51465
1081.0 0.000925 423.92783 1032.72424
1218.0 0.000821 423.80896 1183.65430
1433.0 0.000698 423.69012 1459.95667
1925.0 0.000519 423.57132 2034.02490
2802.0 0.000357 423.45248 2658.90454
2836.0 0.000353 423.33368 2649.90869
1894.0 0.000528 423.21487 1838.88269
1168.0 0.000856 423.09613 1193.94470
860.0 0.001163 422.97736 893.47711
768.0 0.001302 422.85861 799.65411
759.0 0.001318 422.73990 801.84021
858.0 0.001166 422.62125 854.02850
992.0 0.001008 422.50262 972.61749
1233.0 0.000811 422.38391 1237.10254
1532.0 0.000653 422.26532 1553.27148
1735.0 0.000576 422.14667 1608.52197
1341.0 0.000746 422.02814 1223.34460
927.0 0.001079 421.90955 860.99768
655.0 0.001527 421.79108 667.16461
561.0 0.001783 421.67255 579.27747
506.0 0.001976 421.55402 537.16583
495.0 0.002020 421.43546 515.53046
528.0 0.001894 421.31717 505.37701
492.0 0.002033 421.19867 502.69714
482.0 0.002075 421.08032 501.41531
479.0 0.002088 420.96194 492.15747
510.0 0.001961 420.84366 483.22244
525.0 0.001905 420.72543 480.85202
548.0 0.001825 420.60706 479.33698
521.0 0.001919 420.48889 483.98203
527.0 0.001898 420.37064 500.70816
559.0 0.001789 420.25244 542.04785
626.0 0.001597 420.13440 622.47034
732.0 0.001366 420.01633 719.04987
755.0 0.001325 419.89816 755.47131
661.0 0.001513 419.78018 657.36090
588.0 0.001701 419.66214 558.45422
533.0 0.001876 419.54419 508.46613
509.0 0.001965 419.42624 490.43146
485.0 0.002062 419.30829 490.20328
506.0 0.001976 419.19043 504.94962
578.0 0.001730 419.07260 538.89178
638.0 0.001567 418.95486 593.78156
732.0 0.001366 418.83713 651.58179
749.0 0.001335 418.71939 689.14984
751.0 0.001332 418.60168 691.97772
797.0 0.001255 418.48404 724.05212
887.0 0.001127 418.36646 806.26941
914.0 0.001094 418.24893 853.93604
826.0 0.001211 418.13141 792.94263
717.0 0.001395 418.01392 671.78174
632.0 0.001582 417.89648 604.96204
601.0 0.001664 417.77911 599.16022
634.0 0.001577 417.66180 624.93866
709.0 0.001410 417.54459 657.18378
730.0 0.001370 417.42725 706.10028
885.0 0.001130 417.31000 845.39960
1148.0 0.000871 417.19290 1133.25183
1535.0 0.000651 417.07581 1474.85352
1607.0 0.000622 416.95871 1591.09094
1209.0 0.000827 416.84171 1249.42627
871.0 0.001148 416.72473 877.86963
678.0 0.001475 416.60782 681.61597
566.0 0.001767 416.49100 606.01215
569.0 0.001757 416.37405 582.99744
624.0 0.001603 416.25735 576.89954
645.0 0.001550 416.14056 599.29083
688.0 0.001453 416.02390 683.20721
778.0 0.001285 415.90732 824.29871
905.0 0.001105 415.79071 933.80817
819.0 0.001221 415.67422 855.93445
695.0 0.001439 415.55777 679.71313
531.0 0.001883 415.44138 562.20844
497.0 0.002012 415.32501 505.01355
477.0 0.002096 415.20874 481.18951
493.0 0.002028 415.09250 472.02853
501.0 0.001996 414.97626 468.15536
528.0 0.001894 414.86017 460.82596
483.0 0.002070 414.74408 452.40506
489.0 0.002045 414.62808 449.32993
448.0 0.002232 414.51212 454.77625
496.0 0.002016 414.39618 465.41693
518.0 0.001931 414.28033 469.23105
467.0 0.002141 414.16461 457.54330
464.0 0.002155 414.04886 444.24097
461.0 0.002169 413.93314 438.28561
451.0 0.002217 413.81760 437.07089
461.0 0.002169 413.70206 435.96661
474.0 0.002110 413.58664 433.72867
493.0 0.002028 413.47122 432.04581
478.0 0.002092 413.35577 431.54211
480.0 0.002083 413.24054 438.07791
478.0 0.002092 413.12537 445.88034
479.0 0.002088 413.01022 449.58075
506.0 0.001976 412.89502 447.40845
496.0 0.002016 412.78003 440.41586
479.0 0.002088 412.66507 432.25958
476.0 0.002101 412.55023 427.57196
451.0 0.002217 412.43536 426.71854
454.0 0.002203 412.32059 426.44638
460.0 0.002174 412.20590 425.92786
438.0 0.002283 412.09125 427.41727
470.0 0.002128 411.97668 430.05814
474.0 0.002110 411.86224 434.32428
453.0 0.002208 411.74780 439.61667
470.0 0.002128 411.63354 444.28458
509.0 0.001965 411.51910 446.79291
487.0 0.002053 411.40494 451.93365
457.0 0.002188 411.29089 463.35797
485.0 0.002062 411.17676 487.59933
548.0 0.001825 411.06277 538.64941
638.0 0.001567 410.94876 638.38824
772.0 0.001295 410.83502 775.68665
814.0 0.001229 410.72125 863.06122
751.0 0.001332 410.60754 781.99860
652.0 0.001534 410.49393 650.62799
594.0 0.001684 410.38040 580.05713
606.0 0.001650 410.26700 574.60870
659.0 0.001517 410.15356 635.15234
817.0 0.001224 410.04025 778.19666
983.0 0.001017 409.92703 977.28906
1058.0 0.000945 409.81384 1107.73499
975.0 0.001026 409.70084 1032.39258
844.0 0.001185 409.58780 895.79144
726.0 0.001377 409.47485 735.40161
604.0 0.001656 409.36200 617.73163
576.0 0.001736 409.24927 562.80090
581.0 0.001721 409.13654 558.03522
589.0 0.001698 409.02396 606.40662
687.0 0.001456 408.91150 727.59705
813.0 0.001230 408.79901 892.22095
877.0 0.001140 408.68668 919.55188
840.0 0.001190 408.57443 763.24292
708.0 0.001412 408.46228 620.70599
597.0 0.001675 408.35016 554.72626
598.0 0.001672 408.23810 551.07025
558.0 0.001792 408.12607 594.23315
682.0 0.001466 408.01431 663.75305
711.0 0.001406 407.90259 674.62054
718.0 0.001393 407.79089 634.32385
720.0 0.001389 407.67929 636.63739
703.0 0.001422 407.56772 667.47467
742.0 0.001348 407.45639 663.51801
669.0 0.001495 407.34506 604.14020
592.0 0.001689 407.23383 544.77002
575.0 0.001739 407.12265 523.14368
557.0 0.001795 407.01157 532.94843
579.0 0.001727 406.90060 570.94452
629.0 0.001590 406.78976 618.79785
652.0 0.001534 406.67892 640.20892
670.0 0.001493 406.56827 671.02808
778.0 0.001285 406.45752 751.76062
900.0 0.001111 406.34705 940.65613
1108.0 0.000903 406.23663 1189.52405
1229.0 0.000814 406.12634 1189.71790
1074.0 0.000931 406.01605 951.28021
923.0 0.001083 405.90588 802.34967
863.0 0.001159 405.79581 809.38324
930.0 0.001075 405.68591 886.55005
997.0 0.001003 405.57599 847.19556
869.0 0.001151 405.46625 740.35077
732.0 0.001366 405.35657 689.26080
746.0 0.001340 405.24695 713.08240
838.0 0.001193 405.13748 821.14075
923.0 0.001083 405.02814 964.23474
1048.0 0.000954 404.91873 1017.81543
1121.0 0.000892 404.80954 1126.90894
1292.0 0.000774 404.70047 1431.71619
1529.0 0.000654 404.59149 1649.02686
1492.0 0.000670 404.48264 1411.60828
1213.0 0.000824 404.37378 1058.75549
960.0 0.001042 404.26511 843.26514
871.0 0.001148 404.15646 776.77362
906.0 0.001104 404.04794 830.42004
1085.0 0.000922 403.93948 1034.65552
1475.0 0.000678 403.83121 1465.67065
1936.0 0.000517 403.72302 2061.22974
2367.0 0.000422 403.61490 2484.21045
2412.0 0.000415 403.50690 2343.88379
1916.0 0.000522 403.39899 1788.47607
1374.0 0.000728 403.29120 1224.10303
928.0 0.001078 403.18347 888.86292
727.0 0.001376 403.07593 737.78003
762.0 0.001312 402.96848 688.03369
715.0 0.001399 402.86105 708.97839
846.0 0.001182 402.75378 825.14197
1045.0 0.000957 402.64658 1066.10413
1377.0 0.000726 402.53949 1344.49609
1529.0 0.000654 402.43265 1431.46033
1376.0 0.000727 402.32574 1215.11389
1084.0 0.000923 402.21899 971.42786
954.0 0.001048 402.11227 825.52460
750.0 0.001333 402.00574 691.52063
643.0 0.001555 401.89932 586.91663
567.0 0.001764 401.79303 527.98175
482.0 0.002075 401.68683 499.46414
506.0 0.001976 401.58063 489.52792
499.0 0.002004 401.47467 492.69498
529.0 0.001890 401.36880 497.25681
533.0 0.001876 401.26306 493.42331
523.0 0.001912 401.15729 495.49777
561.0 0.001783 401.05173 514.59814
570.0 0.001754 400.94635 521.14600
517.0 0.001934 400.84097 490.60931
486.0 0.002058 400.73581 459.27451
488.0 0.002049 400.63065 441.91098
465.0 0.002151 400.52563 433.43683
446.0 0.002242 400.42078 427.85355
442.0 0.002262 400.31592 422.12482
462.0 0.002165 400.21133 419.75446
461.0 0.002169 400.10678 419.43903
452.0 0.002212 400.00232 419.52975
463.0 0.002160 399.89801 420.13617
455.0 0.002198 399.79379 421.29504
435.0 0.002299 399.68967 423.09869
454.0 0.002203 399.58569 425.72272
463.0 0.002160 399.48181 429.46307
468.0 0.002137 399.37814 434.92914
475.0 0.002105 399.27444 440.49731
471.0 0.002123 399.17096 452.82346
488.0 0.002049 399.06750 474.26053
573.0 0.001745 398.96420 516.59515
619.0 0.001616 398.86111 601.39801
724.0 0.001381 398.75800 748.31714
907.0 0.001103 398.65506 907.42859
1011.0 0.000989 398.55225 1016.75793
1108.0 0.000903 398.44949 1069.90698
1057.0 0.000946 398.34692 909.30688
863.0 0.001159 398.24451 708.57532
660.0 0.001515 398.14212 602.08575
619.0 0.001616 398.03992 582.34174
631.0 0.001585 397.93781 617.95685
621.0 0.001610 397.83578 650.41425
645.0 0.001550 397.73401 643.58368
662.0 0.001511 397.63223 666.08551
667.0 0.001499 397.53061 716.53247
766.0 0.001305 397.42914 766.76593
843.0 0.001186 397.32770 805.96008
883.0 0.001133 397.22644 752.48474
742.0 0.001348 397.12540 659.26672
630.0 0.001587 397.02432 570.24109
577.0 0.001733 396.92337 525.79047
524.0 0.001908 396.82269 520.35626
526.0 0.001901 396.72202 515.75134
486.0 0.002058 396.62155 485.89316
482.0 0.002075 396.52109 458.60846
465.0 0.002151 396.42081 445.41040
439.0 0.002278 396.32071 445.23975
479.0 0.002088 396.22064 458.12143
473.0 0.002114 396.12079 482.95499
516.0 0.001938 396.02097 502.61792
574.0 0.001742 395.92139 507.27725
558.0 0.001792 395.82187 490.53397
524.0 0.001908 395.72244 458.61893
483.0 0.002070 395.62314 435.89542
460.0 0.002174 395.52399 423.81027
447.0 0.002237 395.42502 418.84341
431.0 0.002320 395.32611 415.53476
446.0 0.002242 395.22736 415.21060
439.0 0.002278 395.12872 416.82861
446.0 0.002242 395.03027 421.74329
443.0 0.002257 394.93182 431.70038
492.0 0.002033 394.83359 444.32001
487.0 0.002053 394.73550 447.21286
455.0 0.002198 394.63748 439.73605
461.0 0.002169 394.53961 436.01154
443.0 0.002257 394.44183 439.49170
464.0 0.002155 394.34433 451.89282
510.0 0.001961 394.24686 478.72620
562.0 0.001779 394.14948 540.62122
629.0 0.001590 394.05231 668.55804
753.0 0.001328 393.95514 860.91772
909.0 0.001100 393.85825 948.18121
842.0 0.001188 393.76144 791.98853
633.0 0.001580 393.66470 616.96429
523.0 0.001912 393.56812 517.38245
467.0 0.002141 393.47168 473.12442
439.0 0.002278 393.37537 455.54257
442.0 0.002262 393.27927 450.82858
469.0 0.002132 393.18323 457.16098
466.0 0.002146 393.08731 481.88257
489.0 0.002045 392.99155 541.05939
582.0 0.001718 392.89597 635.95294
704.0 0.001420 392.80048 697.11816
718.0 0.001393 392.70511 643.68439
617.0 0.001621 392.60989 576.63538
585.0 0.001709 392.51474 528.07690
552.0 0.001812 392.41980 480.04816
482.0 0.002075 392.32498 446.81558
445.0 0.002247 392.23029 428.63336
445.0 0.002247 392.13574 419.34814
392.0 0.002551 392.04126 414.44754
423.0 0.002364 391.94696 411.90131
435.0 0.002299 391.85284 411.82202
445.0 0.002247 391.75888 414.13159
471.0 0.002123 391.66495 420.99799
432.0 0.002315 391.57117 432.19525
473.0 0.002114 391.47760 437.23718
454.0 0.002203 391.38419 427.40198
467.0 0.002141 391.29077 416.42252
425.0 0.002353 391.19757 410.32907
467.0 0.002141 391.10455 407.96432
458.0 0.002183 391.01166 406.20883
412.0 0.002427 390.91885 407.07803
409.0 0.002445 390.82617 409.00784
424.0 0.002358 390.73367 412.39450
445.0 0.002247 390.64127 418.42621
436.0 0.002294 390.54910 428.96909
469.0 0.002132 390.45700 445.11105
454.0 0.002203 390.36502 460.85907
457.0 0.002188 390.27319 476.31931
527.0 0.001898 390.18149 516.97302
577.0 0.001733 390.09003 613.59546
653.0 0.001531 389.99857 775.52216
816.0 0.001225 389.90732 889.90082
815.0 0.001227 389.81619 785.06592
644.0 0.001553 389.72519 620.43219
545.0 0.001835 389.63431 518.36353
454.0 0.002203 389.54361 472.37616
441.0 0.002268 389.45309 456.43622
439.0 0.002278 389.36267 452.82169
474.0 0.002110 389.27240 452.62402
478.0 0.002092 389.18225 464.28082
503.0 0.001988 389.09229 502.70911
534.0 0.001873 389.00244 577.24011
600.0 0.001667 388.91263 651.12323
640.0 0.001563 388.82318 620.94568
571.0 0.001751 388.73364 531.69269
511.0 0.001957 388.64441 468.90366
478.0 0.002092 388.55533 436.64926
436.0 0.002294 388.46619 421.91431
419.0 0.002387 388.37732 414.79349
421.0 0.002375 388.28870 411.03094
446.0 0.002242 388.20010 409.43497
447.0 0.002237 388.11160 410.05048
440.0 0.002273 388.02332 413.00061
408.0 0.002451 387.93518 417.96011
404.0 0.002475 387.84720 423.29465
474.0 0.002110 387.75934 433.95047
498.0 0.002008 387.67160 459.76306
541.0 0.001848 387.58405 502.37103
630.0 0.001587 387.49661 524.88000
594.0 0.001684 387.40930 492.63745
530.0 0.001887 387.32214 452.71396
505.0 0.001980 387.23508 429.29623
456.0 0.002193 387.14822 421.81387
444.0 0.002252 387.06152 423.77014
462.0 0.002165 386.97498 429.76041
468.0 0.002137 386.88855 431.58252
470.0 0.002128 386.80225 432.73291
467.0 0.002141 386.71613 445.08017
497.0 0.002012 386.63010 474.83182
530.0 0.001887 386.54428 511.84317
571.0 0.001751 386.45865 515.89563
553.0 0.001808 386.37308 483.95972
483.0 0.002070 386.28763 456.70300
504.0 0.001984 386.20236 446.86234
488.0 0.002049 386.11728 456.56433
506.0 0.001976 386.03229 487.62250
518.0 0.001931 385.94742 552.95685
623.0 0.001605 385.86276 660.37427
757.0 0.001321 385.77820 753.12872
714.0 0.001401 385.69388 705.70648
607.0 0.001647 385.60959 603.19720
555.0 0.001802 385.52548 544.82513
532.0 0.001880 385.44150 522.80542
532.0 0.001880 385.35776 510.47385
462.0 0.002165 385.27399 487.58817
514.0 0.001946 385.19052 470.57297
472.0 0.002119 385.10715 473.78470
501.0 0.001996 385.02393 506.81027
557.0 0.001795 384.94086 576.54999
610.0 0.001639 384.85794 656.72473
625.0 0.001600 384.77521 651.08636
571.0 0.001751 384.69254 569.37457
525.0 0.001905 384.61005 505.64130
477.0 0.002096 384.52768 478.41922
472.0 0.002119 384.44550 474.02847
511.0 0.001957 384.36356 472.74203
510.0 0.001961 384.28168 472.55646
476.0 0.002101 384.19983 489.67880
525.0 0.001905 384.11823 537.09381
591.0 0.001692 384.03677 617.08167
680.0 0.001471 383.95554 687.09918
746.0 0.001340 383.87436 705.73248
745.0 0.001342 383.79330 741.73090
784.0 0.001276 383.71243 793.60437
764.0 0.001309 383.63177 734.12988
651.0 0.001536 383.55124 614.83698
537.0 0.001862 383.47083 534.18848
491.0 0.002037 383.39053 497.71243
466.0 0.002146 383.31036 489.74661
493.0 0.002028 383.23050 504.02658
544.0 0.001838 383.15063 538.99829
567.0 0.001764 383.07092 587.66675
645.0 0.001550 382.99146 630.86194
702.0 0.001425 382.91205 704.66846
867.0 0.001153 382.83279 869.15204
1021.0 0.000979 382.75381 1102.22449
1221.0 0.000819 382.67484 1273.82458
1232.0 0.000812 382.59604 1171.16968
999.0 0.001001 382.51740 942.67560
889.0 0.001125 382.43890 843.00702
922.0 0.001085 382.36066 909.25275
1035.0 0.000966 382.28241 1050.00403
1002.0 0.000998 382.20432 1036.52246
819.0 0.001221 382.12650 845.96271
684.0 0.001462 382.04880 693.56750
631.0 0.001585 381.97119 640.31958
637.0 0.001570 381.89377 679.71130
719.0 0.001391 381.81638 781.89636
832.0 0.001202 381.73926 834.25635
803.0 0.001245 381.66229 751.62225
766.0 0.001305 381.58545 672.28949
657.0 0.001522 381.50876 675.49121
797.0 0.001255 381.43222 753.72705
878.0 0.001139 381.35583 823.58771
809.0 0.001236 381.27960 787.11395
780.0 0.001282 381.20352 746.50995
802.0 0.001247 381.12759 809.51093
975.0 0.001026 381.05176 960.78381
1092.0 0.000916 380.97614 1017.41632
950.0 0.001053 380.90067 898.11218
788.0 0.001269 380.82526 801.71637
710.0 0.001408 380.75009 745.98462
657.0 0.001522 380.67505 657.80389
610.0 0.001639 380.60013 584.98822
567.0 0.001764 380.52536 554.88983
569.0 0.001757 380.45078 547.22504
570.0 0.001754 380.37634 541.44318
578.0 0.001730 380.30206 559.05341
624.0 0.001603 380.22791 621.47217
674.0 0.001484 380.15390 697.70868
712.0 0.001404 380.08005 688.01770
660.0 0.001515 380.00632 624.01819
584.0 0.001712 379.93280 588.10352
543.0 0.001842 379.85934 555.59564
485.0 0.002062 379.78610 509.31921
478.0 0.002092 379.71310 478.53235
471.0 0.002123 379.64008 468.08276
485.0 0.002062 379.56723 466.24649
519.0 0.001927 379.49466 467.86530
499.0 0.002004 379.42215 486.27576
524.0 0.001908 379.34976 540.35272
615.0 0.001626 379.27759 639.31238
724.0 0.001381 379.20554 732.65924
725.0 0.001379 379.13358 697.64227
656.0 0.001524 379.06183 590.88879
580.0 0.001724 378.99020 516.72021
532.0 0.001880 378.91876 476.74277
495.0 0.002020 378.84747 450.93127
466.0 0.002146 378.77634 436.07410
453.0 0.002208 378.70538 430.21301
453.0 0.002208 378.63443 434.11243
476.0 0.002101 378.56375 451.16568
504.0 0.001984 378.49319 488.79666
512.0 0.001953 378.42276 546.54138
561.0 0.001783 378.35254 584.86853
599.0 0.001669 378.28241 559.96637
545.0 0.001835 378.21243 530.18286
550.0 0.001818 378.14255 538.91650
583.0 0.001715 378.07294 571.02460
596.0 0.001678 378.00345 565.06757
501.0 0.001996 377.93405 509.51709
449.0 0.002227 377.86487 461.69760
432.0 0.002315 377.79572 435.17862
409.0 0.002445 377.72684 421.97189
431.0 0.002320 377.65808 415.55075
417.0 0.002398 377.58945 413.01343
407.0 0.002457 377.52090 413.25269
415.0 0.002410 377.45264 418.15311
437.0 0.002288 377.38446 431.33804
456.0 0.002193 377.31644 456.12329
483.0 0.002070 377.24860 484.82498
507.0 0.001972 377.18079 489.87399
504.0 0.001984 377.11322 474.81161
481.0 0.002079 377.04584 463.94446
516.0 0.001938 376.97845 473.10306
539.0 0.001855 376.91141 507.75552
527.0 0.001898 376.84439 547.85809
538.0 0.001859 376.77753 536.99481
472.0 0.002119 376.71082 489.49591
464.0 0.002155 376.64426 453.94904
390.0 0.002564 376.57791 438.40857
431.0 0.002320 376.51169 437.68451
493.0 0.002028 376.44556 449.63028
481.0 0.002079 376.37958 478.14008
524.0 0.001908 376.31369 532.03503
634.0 0.001577 376.24811 613.96948
711.0 0.001406 376.18259 693.68555
793.0 0.001261 376.11716 740.48480
799.0 0.001252 376.05191 785.75092
788.0 0.001269 375.98694 759.08606
658.0 0.001520 375.92203 648.05963
557.0 0.001795 375.85724 547.33624
480.0 0.002083 375.79254 491.40393
439.0 0.002278 375.72806 469.62744
437.0 0.002288 375.66379 469.80710
473.0 0.002114 375.59949 490.72586
524.0 0.001908 375.53549 544.33936
608.0 0.001645 375.47162 646.73059
740.0 0.001351 375.40784 788.47443
845.0 0.001183 375.34427 911.25928
838.0 0.001193 375.28085 896.35815
745.0 0.001342 375.21756 757.55811
612.0 0.001634 375.15433 612.82977
497.0 0.002012 375.09131 517.98688
447.0 0.002237 375.02850 469.41733
411.0 0.002433 374.96567 447.50485
421.0 0.002375 374.90317 439.83423
418.0 0.002392 374.84070 442.82971
416.0 0.002404 374.77835 458.90005
469.0 0.002132 374.71628 492.32458
507.0 0.001972 374.65427 544.81317
545.0 0.001835 374.59235 594.56171
560.0 0.001786 374.53067 576.29523
533.0 0.001876 374.46909 517.98962
491.0 0.002037 374.40768 481.26068
485.0 0.002062 374.34647 477.08942
498.0 0.002008 374.28528 497.97165
511.0 0.001957 374.22427 520.92377
535.0 0.001869 374.16348 531.82574
578.0 0.001730 374.10275 558.66132
590.0 0.001695 374.04224 612.15387
650.0 0.001538 373.98178 629.29559
602.0 0.001661 373.92154 580.03906
501.0 0.001996 373.86142 525.03143
458.0 0.002183 373.80142 477.28152
413.0 0.002421 373.74161 445.31708
426.0 0.002347 373.68192 431.23584
394.0 0.002538 373.62231 431.76331
445.0 0.002247 373.56296 442.60638
453.0 0.002208 373.50366 453.50415
437.0 0.002288 373.44455 458.96240
471.0 0.002123 373.38562 471.93475
522.0 0.001916 373.32678 499.27625
503.0 0.001988 373.26804 512.75824
502.0 0.001992 373.20953 498.69092
449.0 0.002227 373.15112 484.12167
465.0 0.002151 373.09290 463.32074
445.0 0.002247 373.03470 435.44876
400.0 0.002500 372.97668 414.19336
385.0 0.002597 372.91888 401.90070
390.0 0.002564 372.86127 394.92276
370.0 0.002703 372.80362 391.66135
369.0 0.002710 372.74619 390.40881
388.0 0.002577 372.68893 390.12720
373.0 0.002681 372.63190 391.10373
347.0 0.002882 372.57492 393.97696
375.0 0.002667 372.51788 399.62708
381.0 0.002625 372.46127 408.03638
400.0 0.002500 372.40469 413.71753
398.0 0.002513 372.34833 415.49176
387.0 0.002584 372.29199 421.57773
412.0 0.002427 372.23581 435.73825
435.0 0.002299 372.17984 450.33319
443.0 0.002257 372.12399 457.44281
455.0 0.002198 372.06824 473.00677
481.0 0.002079 372.01263 511.07623
538.0 0.001859 371.95721 569.24286
574.0 0.001742 371.90189 610.23682
573.0 0.001745 371.84671 602.99689
546.0 0.001832 371.79166 557.42175
489.0 0.002045 371.73679 503.86877
411.0 0.002433 371.68201 473.00198
372.0 0.002688 371.62738 458.98981
391.0 0.002558 371.57288 453.79706
400.0 0.002500 371.51855 454.98511
426.0 0.002347 371.46432 454.44357
441.0 0.002268 371.41031 459.51028
459.0 0.002179 371.35638 480.14655
514.0 0.001946 371.30261 518.74774
523.0 0.001912 371.24890 566.50177
547.0 0.001828 371.19547 618.77106
617.0 0.001621 371.14200 697.24115
707.0 0.001414 371.08881 808.59784
770.0 0.001299 371.03568 864.96906
720.0 0.001389 370.98270 758.66180
567.0 0.001764 370.92984 613.93823
465.0 0.002151 370.87717 519.58459
425.0 0.002353 370.82462 472.27881
418.0 0.002392 370.77216 452.33029
416.0 0.002404 370.71985 444.07611
419.0 0.002387 370.66772 439.81931
403.0 0.002481 370.61572 443.47406
422.0 0.002370 370.56378 462.57584
433.0 0.002309 370.51212 505.94913
506.0 0.001976 370.46042 575.38635
542.0 0.001845 370.40894 633.72028
602.0 0.001661 370.35767 616.92529
502.0 0.001992 370.30637 578.29114
544.0 0.001838 370.25531 587.19159
572.0 0.001748 370.20438 649.55115
672.0 0.001488 370.15347 704.10834
637.0 0.001570 370.10287 680.81616
584.0 0.001712 370.05231 617.51636
515.0 0.001942 370.00183 565.16370
480.0 0.002083 369.95157 551.12390
487.0 0.002053 369.90149 546.28040
482.0 0.002075 369.85138 510.26721
402.0 0.002488 369.80151 468.57828
404.0 0.002475 369.75177 444.94974
384.0 0.002604 369.70209 441.14557
397.0 0.002519 369.65271 457.70605
426.0 0.002347 369.60336 493.87390
506.0 0.001976 369.55408 531.44220
492.0 0.002033 369.50488 532.21936
475.0 0.002105 369.45596 505.81372
442.0 0.002262 369.40714 479.16425
422.0 0.002370 369.35843 470.36758
433.0 0.002309 369.30984 470.56677
407.0 0.002457 369.26135 454.83475
387.0 0.002584 369.21307 429.74771
407.0 0.002457 369.16486 411.82217
377.0 0.002653 369.11685 402.48087
376.0 0.002660 369.06885 399.19507
407.0 0.002457 369.02100 399.60822
403.0 0.002481 368.97342 403.92880
409.0 0.002445 368.92587 416.12061
438.0 0.002283 368.87839 442.74481
470.0 0.002128 368.83118 491.22278
507.0 0.001972 368.78387 552.96509
538.0 0.001859 368.73688 571.26117
485.0 0.002062 368.69000 520.27777
439.0 0.002278 368.64322 464.11520
431.0 0.002320 368.59656 430.61450
403.0 0.002481 368.54999 417.13751
391.0 0.002558 368.50363 418.08145
411.0 0.002433 368.45737 432.60052
425.0 0.002353 368.41119 461.59601
454.0 0.002203 368.36517 496.27606
478.0 0.002092 368.31924 505.43689
440.0 0.002273 368.27350 497.44043
441.0 0.002268 368.22784 502.35995
442.0 0.002262 368.18228 505.23627
425.0 0.002353 368.13690 476.70184
411.0 0.002433 368.09161 438.73892
374.0 0.002674 368.04648 413.00119
412.0 0.002427 368.00146 400.03629
399.0 0.002506 367.95651 395.67606
386.0 0.002591 367.91174 398.38168
378.0 0.002646 367.86703 408.27518
426.0 0.002347 367.82251 423.73001
427.0 0.002342 367.77814 432.07401
392.0 0.002551 367.73380 423.46457
401.0 0.002494 367.68961 412.87082
364.0 0.002747 367.64554 404.72006
361.0 0.002770 367.60168 394.98590
373.0 0.002681 367.55786 386.02274
385.0 0.002597 367.51413 380.37247
366.0 0.002732 367.47055 377.10312
350.0 0.002857 367.42715 375.29709
373.0 0.002681 367.38376 374.14005
375.0 0.002667 367.34064 373.48828
354.0 0.002825 367.29749 373.14136
364.0 0.002747 367.25455 373.13879
362.0 0.002762 367.21176 373.63821
383.0 0.002611 367.16901 374.79471
355.0 0.002817 367.12646 376.28427
347.0 0.002882 367.08389 376.54422
376.0 0.002660 367.04153 375.14621
386.0 0.002591 366.99930 373.76904
382.0 0.002618 366.95724 372.71140
367.0 0.002725 366.91513 372.53107
366.0 0.002732 366.87326 372.70886
401.0 0.002494 366.83145 373.13461
390.0 0.002564 366.78979 373.79526
386.0 0.002591 366.74823 374.73697
398.0 0.002513 366.70685 376.07101
378.0 0.002646 366.66547 377.93756
354.0 0.002825 366.62424 380.67923
364.0 0.002747 366.58316 384.94788
404.0 0.002475 366.54224 392.23477
404.0 0.002475 366.50137 406.48087
436.0 0.002294 366.46066 433.36694
489.0 0.002045 366.41995 477.31900
514.0 0.001946 366.37946 527.63660
571.0 0.001751 366.33911 556.98297
604.0 0.001656 366.29886 558.65198
563.0 0.001776 366.25873 517.30078
487.0 0.002053 366.21860 461.81418
427.0 0.002342 366.17862 423.56686
407.0 0.002457 366.13882 403.19394
385.0 0.002597 366.09912 393.88715
394.0 0.002538 366.05948 390.59256
389.0 0.002571 366.01999 391.78659
384.0 0.002604 365.98062 398.56808
424.0 0.002358 365.94138 413.58466
419.0 0.002387 365.90219 436.86462
455.0 0.002198 365.86313 457.93881
470.0 0.002128 365.82419 466.85538
448.0 0.002232 365.78534 459.13617
439.0 0.002278 365.74664 432.12097
429.0 0.002331 365.70807 406.29333
420.0 0.002381 365.66962 390.17740
393.0 0.002545 365.63120 381.59787
391.0 0.002558 365.59280 377.14258
380.0 0.002632 365.55472 374.60397
366.0 0.002732 365.51666 372.97784
395.0 0.002532 365.47876 371.84357
368.0 0.002717 365.44089 371.10303
359.0 0.002786 365.40317 370.60406
327.0 0.003058 365.36548 370.30725
355.0 0.002817 365.32800 370.16495
394.0 0.002538 365.29056 369.98309
373.0 0.002681 365.25323 369.87302
382.0 0.002618 365.21603 370.16391
350.0 0.002857 365.17896 370.86484
388.0 0.002577 365.14200 372.47363
355.0 0.002817 365.10507 375.37061
400.0 0.002500 365.06830 379.04761
377.0 0.002653 365.03159 381.20529
380.0 0.002632 364.99500 381.38147
386.0 0.002591 364.95862 381.01501
384.0 0.002604 364.92221 378.32846
356.0 0.002809 364.88596 375.05457
383.0 0.002611 364.84982 372.78656
366.0 0.002732 364.81372 371.72037
386.0 0.002591 364.77777 371.42120
367.0 0.002725 364.74191 371.94141
391.0 0.002558 364.70618 372.83612
392.0 0.002551 364.67056 374.91348
378.0 0.002646 364.63498 378.42450
390.0 0.002564 364.59952 383.69376
381.0 0.002625 364.56421 390.91086
395.0 0.002532 364.52899 401.54077
392.0 0.002551 364.49384 413.90344
414.0 0.002415 364.45880 419.88052
435.0 0.002299 364.42386 423.87433
407.0 0.002457 364.38901 435.83347
426.0 0.002347 364.35425 445.80969
431.0 0.002320 364.31961 433.47598
419.0 0.002387 364.28506 411.18787
395.0 0.002532 364.25064 395.18967
371.0 0.002695 364.21631 387.04962
378.0 0.002646 364.18207 384.54886
378.0 0.002646 364.14795 386.23642
391.0 0.002558 364.11386 392.54434
413.0 0.002421 364.07993 403.85269
421.0 0.002375 364.04602 417.39709
436.0 0.002294 364.01224 425.30197
427.0 0.002342 363.97861 428.31879
434.0 0.002304 363.94504 432.85297
434.0 0.002304 363.91153 438.09445
443.0 0.002257 363.87817 437.07932
431.0 0.002320 363.84491 434.26700
425.0 0.002353 363.81171 433.90628
412.0 0.002427 363.77856 441.06433
409.0 0.002445 363.74561 457.50412
413.0 0.002421 363.71268 465.27380
415.0 0.002410 363.67987 452.51178
406.0 0.002463 363.64709 441.73981
463.0 0.002160 363.61447 447.66553
425.0 0.002353 363.58197 469.87067
466.0 0.002146 363.54953 499.69211
470.0 0.002128 363.51721 514.32495
479.0 0.002088 363.48495 515.99310
496.0 0.002016 363.45270 527.67761
512.0 0.001953 363.42068 541.34723
477.0 0.002096 363.38870 521.95514
459.0 0.002179 363.35678 485.59988
464.0 0.002155 363.32498 462.07147
433.0 0.002309 363.29327 446.02649
411.0 0.002433 363.26169 429.22952
376.0 0.002660 363.23007 418.91101
392.0 0.002551 363.19870 419.53156
418.0 0.002392 363.16730 430.81348
426.0 0.002347 363.13602 448.50067
441.0 0.002268 363.10483 462.07849
442.0 0.002262 363.07373 476.92261
476.0 0.002101 363.04272 509.00024
536.0 0.001866 363.01181 552.60938
545.0 0.001835 362.98093 570.74207
490.0 0.002041 362.95020 539.37646
466.0 0.002146 362.91959 487.39230
442.0 0.002262 362.88901 450.55685
416.0 0.002404 362.85849 436.86835
432.0 0.002315 362.82806 445.24713
443.0 0.002257 362.79770 475.07516
510.0 0.001961 362.76752 518.89276
550.0 0.001818 362.73737 542.59259
514.0 0.001946 362.70724 522.37433
471.0 0.002123 362.67731 491.14810
450.0 0.002222 362.64740 471.18607
445.0 0.002247 362.61758 467.38278
450.0 0.002222 362.58783 469.23224
448.0 0.002232 362.55814 457.43280
448.0 0.002232 362.52863 437.16022
441.0 0.002268 362.49915 423.92679
437.0 0.002288 362.46967 422.37775
453.0 0.002208 362.44031 434.82819
471.0 0.002123 362.41113 465.63840
520.0 0.001923 362.38193 519.27606
589.0 0.001698 362.35291 587.21948
621.0 0.001610 362.32382 649.91272
640.0 0.001563 362.29492 666.13898
569.0 0.001757 362.26605 599.26813
466.0 0.002146 362.23734 515.08044
418.0 0.002392 362.20856 457.04788
414.0 0.002415 362.17996 425.31659
414.0 0.002415 362.15146 410.39883
393.0 0.002545 362.12302 404.21021
375.0 0.002667 362.09457 403.20752
391.0 0.002558 362.06631 407.30740
400.0 0.002500 362.03809 418.53818
426.0 0.002347 362.00995 440.25717
450.0 0.002222 361.98181 473.25897
476.0 0.002101 361.95389 513.18719
514.0 0.001946 361.92590 542.39240
504.0 0.001984 361.89804 544.67535
518.0 0.001931 361.87033 555.18695
493.0 0.002028 361.84256 590.90674
513.0 0.001949 361.81497 609.77850
481.0 0.002079 361.78748 564.65057
431.0 0.002320 361.75995 500.08316
429.0 0.002331 361.73251 457.17340
410.0 0.002439 361.70523 438.73941
457.0 0.002188 361.67792 433.39288
456.0 0.002193 361.65073 427.47009
448.0 0.002232 361.62360 420.25415
452.0 0.002212 361.59656 416.10849
423.0 0.002364 361.56964 419.74814
416.0 0.002404 361.54272 435.07486
485.0 0.002062 361.51584 462.72400
428.0 0.002336 361.48917 493.88715
458.0 0.002183 361.46243 506.56931
461.0 0.002169 361.43585 483.68729
434.0 0.002304 361.40924 447.91998
428.0 0.002336 361.38275 423.34586
433.0 0.002309 361.35635 412.56479
425.0 0.002353 361.33002 410.05017
434.0 0.002304 361.30371 408.99902
390.0 0.002564 361.27750 408.31314
421.0 0.002375 361.25134 412.54382
432.0 0.002315 361.22531 425.78659
444.0 0.002252 361.19925 455.16074
522.0 0.001916 361.17337 510.19635
675.0 0.001481 361.14746 596.31055
729.0 0.001372 361.12167 686.27637
732.0 0.001366 361.09589 694.46112
616.0 0.001623 361.07019 607.17908
550.0 0.001818 361.04462 516.66168
459.0 0.002179 361.01910 459.26627
430.0 0.002326 360.99356 430.26825
413.0 0.002421 360.96808 418.24298
400.0 0.002500 360.94278 415.84540
423.0 0.002364 360.91742 420.62781
473.0 0.002114 360.89221 435.69852
477.0 0.002096 360.86703 469.90964
508.0 0.001969 360.84192 535.99811
640.0 0.001563 360.81693 639.46265
744.0 0.001344 360.79190 739.47778
712.0 0.001404 360.76697 736.37201
642.0 0.001558 360.74216 633.70703
526.0 0.001901 360.71732 530.09607
422.0 0.002370 360.69257 463.64560
413.0 0.002421 360.66788 428.27603
402.0 0.002488 360.64325 410.91858
384.0 0.002604 360.61868 402.51917
390.0 0.002564 360.59415 399.21716
407.0 0.002457 360.56973 400.38776
415.0 0.002410 360.54538 407.97278
406.0 0.002463 360.52103 425.72330
458.0 0.002183 360.49680 455.51431
509.0 0.001965 360.47247 486.69177
459.0 0.002179 360.44836 488.11032
446.0 0.002242 360.42426 458.06619
449.0 0.002227 360.40021 428.71292
408.0 0.002451 360.37625 411.54300
415.0 0.002410 360.35229 405.77054
394.0 0.002538 360.32837 409.28452
423.0 0.002364 360.30453 423.84784
445.0 0.002247 360.28082 455.18063
500.0 0.002000 360.25714 508.05667
526.0 0.001901 360.23340 566.73468
572.0 0.001748 360.20981 578.33264
489.0 0.002045 360.18631 530.79041
415.0 0.002410 360.16278 479.20441
421.0 0.002375 360.13934 445.88083
399.0 0.002506 360.11597 430.77530
399.0 0.002506 360.09259 434.28494
433.0 0.002309 360.06931 455.78836
518.0 0.001931 360.04608 492.44052
528.0 0.001894 360.02283 522.84967
512.0 0.001953 359.99969 513.80402
484.0 0.002066 359.97665 487.08215
463.0 0.002160 359.95355 478.15582
449.0 0.002227 359.93060 489.50272
481.0 0.002079 359.90771 498.75787
454.0 0.002203 359.88477 480.05750
462.0 0.002165 359.86194 451.60818
443.0 0.002257 359.83914 431.90112
457.0 0.002188 359.81644 422.59378
392.0 0.002551 359.79373 425.45004
414.0 0.002415 359.77106 441.63068
465.0 0.002151 359.74844 476.41562
541.0 0.001848 359.72592 529.24713
590.0 0.001695 359.70340 587.16272
643.0 0.001555 359.68097 629.62665
662.0 0.001511 359.65851 621.57739
563.0 0.001776 359.63620 567.81305
574.0 0.001742 359.61380 526.66998
548.0 0.001825 359.59155 523.28967
553.0 0.001808 359.56934 556.33459
623.0 0.001605 359.54715 603.51886
608.0 0.001645 359.52502 637.05280
635.0 0.001575 359.50293 644.70087
623.0 0.001605 359.48080 601.98633
555.0 0.001802 359.45883 544.73462
504.0 0.001984 359.43686 514.78943
525.0 0.001905 359.41495 520.56671
590.0 0.001695 359.39310 560.17670
640.0 0.001563 359.37115 619.60004
710.0 0.001408 359.34937 684.55591
832.0 0.001202 359.32767 765.25421
845.0 0.001183 359.30597 811.20764
761.0 0.001314 359.28424 756.44531
653.0 0.001531 359.26263 672.96405
630.0 0.001587 359.24103 615.01660
566.0 0.001767 359.21948 581.98969
561.0 0.001783 359.19791 552.36853
528.0 0.001894 359.17645 514.01501
475.0 0.002105 359.15500 483.92789
507.0 0.001972 359.13364 469.54333
465.0 0.002151 359.11227 470.74469
512.0 0.001953 359.09091 494.68655
566.0 0.001767 359.06958 552.41229
671.0 0.001490 359.04834 652.45251
819.0 0.001221 359.02716 772.53839
846.0 0.001182 359.00595 817.80054
723.0 0.001383 358.98480 734.08704
639.0 0.001565 358.96371 619.88367
553.0 0.001808 358.94266 543.19019
483.0 0.002070 358.92160 511.08688
514.0 0.001946 358.90060 516.87970
576.0 0.001736 358.87961 560.57050
646.0 0.001548 358.85867 651.31494
817.0 0.001224 358.83777 790.21027
916.0 0.001092 358.81696 920.32788
959.0 0.001043 358.79611 905.29663
679.0 0.001473 358.77530 778.49658
653.0 0.001531 358.75452 674.13037
580.0 0.001724 358.73383 622.68475
574.0 0.001742 358.71310 583.07507
528.0 0.001894 358.69244 531.24670
480.0 0.002083 358.67178 487.99170
480.0 0.002083 358.65115 462.79175
470.0 0.002128 358.63062 455.24747
485.0 0.002062 358.61008 463.66739
524.0 0.001908 358.58954 491.56885
567.0 0.001764 358.56909 544.56604
614.0 0.001629 358.54865 617.45477
646.0 0.001548 358.52817 661.93689
604.0 0.001656 358.50781 623.35657
555.0 0.001802 358.48743 551.04260
507.0 0.001972 358.46710 496.59250
481.0 0.002079 358.44678 467.56641
474.0 0.002110 358.42645 459.17014
449.0 0.002227 358.40619 465.59982
466.0 0.002146 358.38599 485.37982
537.0 0.001862 358.36578 524.37695
581.0 0.001721 358.34561 592.60675
655.0 0.001527 358.32544 697.41888
824.0 0.001214 358.30533 835.09705
1004.0 0.000996 358.28528 1021.93109
1181.0 0.000847 358.26523 1249.66455
1281.0 0.000781 358.24512 1349.98108
1176.0 0.000850 358.22513 1220.90259
924.0 0.001082 358.20508 982.75739
696.0 0.001437 358.18512 766.81897
583.0 0.001715 358.16519 629.37000
549.0 0.001821 358.14526 561.23267
547.0 0.001828 358.12531 539.31110
563.0 0.001776 358.10550 548.44940
596.0 0.001678 358.08560 579.54468
601.0 0.001664 358.06573 619.38788
643.0 0.001555 358.04599 667.24731
720.0 0.001389 358.02618 740.72943
851.0 0.001175 358.00635 863.62506
1023.0 0.000978 357.98669 1018.97009
1100.0 0.000909 357.96692 1117.96729
1145.0 0.000873 357.94724 1138.06152
1091.0 0.000917 357.92755 1079.96497
875.0 0.001143 357.90790 920.52167
672.0 0.001488 357.88824 741.93964
552.0 0.001812 357.86862 616.72076
547.0 0.001828 357.84903 551.38660
552.0 0.001812 357.82935 531.61169
543.0 0.001842 357.80978 542.99261
612.0 0.001634 357.79028 571.84650
571.0 0.001751 357.77072 606.94196
626.0 0.001597 357.75128 617.69647
582.0 0.001718 357.73172 593.44727
571.0 0.001751 357.71222 575.63849
572.0 0.001748 357.69278 587.10925
648.0 0.001543 357.67334 624.79315
660.0 0.001515 357.65381 646.71539
647.0 0.001546 357.63446 622.05188
550.0 0.001818 357.61511 596.56525
603.0 0.001658 357.59567 612.53912
646.0 0.001548 357.57632 672.14368
754.0 0.001326 357.55695 725.10797
671.0 0.001490 357.53763 697.70996
608.0 0.001645 357.51828 627.47009
548.0 0.001825 357.49905 573.86713
546.0 0.001832 357.47968 530.21851
484.0 0.002066 357.46039 485.00748
443.0 0.002257 357.44116 451.58368
464.0 0.002155 357.42191 432.80231
433.0 0.002309 357.40259 426.04401
433.0 0.002309 357.38336 430.50467
479.0 0.002088 357.36417 448.35339
515.0 0.001942 357.34497 483.90240
552.0 0.001812 357.32571 532.10785
562.0 0.001779 357.30655 572.83270
568.0 0.001761 357.28735 581.03223
541.0 0.001848 357.26825 542.65979
517.0 0.001934 357.24908 488.13226
469.0 0.002132 357.22998 447.77667
428.0 0.002336 357.21078 425.07693
439.0 0.002278 357.19165 414.38174
446.0 0.002242 357.17249 412.83582
443.0 0.002257 357.15338 419.13818
450.0 0.002222 357.13428 434.90753
488.0 0.002049 357.11526 462.37000
540.0 0.001852 357.09613 499.99875
569.0 0.001757 357.07709 528.07312
530.0 0.001887 357.05795 529.95892
499.0 0.002004 357.03888 523.30786
521.0 0.001919 357.01984 533.85559
587.0 0.001704 357.00076 583.91266
696.0 0.001437 356.98175 677.51923
822.0 0.001217 356.96274 776.54718
820.0 0.001220 356.94366 790.19287
714.0 0.001401 356.92465 717.85736
599.0 0.001669 356.90567 628.04114
529.0 0.001890 356.88663 554.98206
514.0 0.001946 356.86765 509.42490
517.0 0.001934 356.84860 491.94342
507.0 0.001972 356.82959 495.44131
502.0 0.001992 356.81064 507.64508
531.0 0.001883 356.79166 524.39124
560.0 0.001786 356.77261 562.84711
618.0 0.001618 356.75360 636.81525
748.0 0.001337 356.73465 726.25586
792.0 0.001263 356.71567 781.05859
762.0 0.001312 356.69669 782.27771
655.0 0.001527 356.67770 728.66711
619.0 0.001616 356.65872 649.29919
606.0 0.001650 356.63971 584.32269
510.0 0.001961 356.62076 549.65863
542.0 0.001845 356.60178 553.89612
644.0 0.001553 356.58286 605.46490
731.0 0.001368 356.56387 705.52789
832.0 0.001202 356.54489 817.61652
827.0 0.001209 356.52591 841.86108
720.0 0.001389 356.50690 762.36151
603.0 0.001658 356.48801 678.72662
656.0 0.001524 356.46896 627.44427
582.0 0.001718 356.45001 583.49164
497.0 0.002012 356.43103 532.34290
451.0 0.002217 356.41211 484.48422
452.0 0.002212 356.39313 451.21716
462.0 0.002165 356.37415 433.66220
451.0 0.002217 356.35513 429.75763
458.0 0.002183 356.33618 440.01129
469.0 0.002132 356.31717 468.24771
522.0 0.001916 356.29819 516.69006
601.0 0.001664 356.27917 572.37463
570.0 0.001754 356.26019 588.16534
512.0 0.001953 356.24118 543.63251
486.0 0.002058 356.22226 485.39325
451.0 0.002217 356.20316 441.46765
408.0 0.002451 356.18420 414.43311
395.0 0.002532 356.16519 398.88025
374.0 0.002674 356.14618 391.60297
405.0 0.002469 356.12704 389.45978
444.0 0.002252 356.10806 391.00098
448.0 0.002232 356.08902 395.08740
425.0 0.002353 356.06998 400.28430
434.0 0.002304 356.05090 403.67889
430.0 0.002326 356.03195 401.79349
402.0 0.002488 356.01279 395.70013
391.0 0.002558 355.99371 388.54544
390.0 0.002564 355.97470 384.11850
399.0 0.002506 355.95557 384.06049
394.0 0.002538 355.93652 389.50085
407.0 0.002457 355.91745 399.71109
446.0 0.002242 355.89832 408.79739
429.0 0.002331 355.87912 409.04803
403.0 0.002481 355.86005 402.60150
410.0 0.002439 355.84088 395.88046
405.0 0.002469 355.82178 391.34393
396.0 0.002525 355.80261 390.10635
383.0 0.002611 355.78345 391.09012
376.0 0.002660 355.76437 392.42538
434.0 0.002304 355.74512 392.72052
418.0 0.002392 355.72592 396.19409
463.0 0.002160 355.70670 404.78604
451.0 0.002217 355.68750 420.09882
449.0 0.002227 355.66830 438.87680
449.0 0.002227 355.64902 446.58475
429.0 0.002331 355.62979 437.11530
443.0 0.002257 355.61053 421.42932
431.0 0.002320 355.59125 406.70160
430.0 0.002326 355.57202 396.71198
428.0 0.002336 355.55267 391.47968
427.0 0.002342 355.53339 390.98215
392.0 0.002551 355.51407 395.81519
460.0 0.002174 355.49472 408.09222
461.0 0.002169 355.47540 430.44479
499.0 0.002004 355.45605 467.37045
588.0 0.001701 355.43671 517.32263
647.0 0.001546 355.41736 562.29773
614.0 0.001629 355.39792 571.59564
560.0 0.001786 355.37848 535.97479
500.0 0.002000 355.35913 483.86304
469.0 0.002132 355.33960 441.70761
411.0 0.002433 355.32022 416.75095
391.0 0.002558 355.30069 404.13257
422.0 0.002370 355.28125 400.13345
438.0 0.002283 355.26175 402.62659
453.0 0.002208 355.24219 412.16953
452.0 0.002212 355.22272 431.30698
457.0 0.002188 355.20313 462.19830
498.0 0.002008 355.18356 501.78882
542.0 0.001845 355.16400 540.02179
579.0 0.001727 355.14438 567.82159
612.0 0.001634 355.12482 585.34253
581.0 0.001721 355.10519 583.14838
556.0 0.001799 355.08554 549.44934
484.0 0.002066 355.06580 503.65112
469.0 0.002132 355.04617 473.22244
475.0 0.002105 355.02649 466.75653
497.0 0.002012 355.00674 481.83139
522.0 0.001916 354.98703 514.36322
606.0 0.001650 354.96722 557.66400
632.0 0.001582 354.94751 585.67926
586.0 0.001706 354.92776 568.83679
501.0 0.001996 354.90787 529.16248
467.0 0.002141 354.88806 496.44000
470.0 0.002128 354.86819 473.36194
479.0 0.002088 354.84839 460.71591
467.0 0.002141 354.82849 458.59424
457.0 0.002188 354.80859 456.24768
458.0 0.002183 354.78867 444.63586
456.0 0.002193 354.76868 433.76733
458.0 0.002183 354.74878 431.59268
433.0 0.002309 354.72882 438.20172
444.0 0.002252 354.70874 450.94363
514.0 0.001946 354.68875 469.74365
542.0 0.001845 354.66870 489.56824
499.0 0.002004 354.64856 493.93494
458.0 0.002183 354.62851 481.25275
466.0 0.002146 354.60834 472.66840
435.0 0.002299 354.58826 481.60010
531.0 0.001883 354.56805 511.45120
605.0 0.001653 354.54794 557.27039
611.0 0.001637 354.52768 616.45154
750.0 0.001333 354.50748 694.05859
838.0 0.001193 354.48721 769.58954
825.0 0.001212 354.46692 779.47900
625.0 0.001600 354.44662 699.65826
572.0 0.001748 354.42636 605.06427
501.0 0.001996 354.40598 543.31683
540.0 0.001852 354.38565 523.03400
589.0 0.001698 354.36526 541.36743
638.0 0.001567 354.34482 592.99298
713.0 0.001403 354.32437 661.59375
758.0 0.001319 354.30389 718.76453
792.0 0.001263 354.28339 771.25958
831.0 0.001203 354.26294 826.92554
811.0 0.001233 354.24237 826.57440
724.0 0.001381 354.22186 766.33179
695.0 0.001439 354.20117 712.39612
659.0 0.001517 354.18060 675.54492
627.0 0.001595 354.16003 620.91101
512.0 0.001953 354.13931 551.90503
499.0 0.002004 354.11862 497.94537
515.0 0.001942 354.09790 468.82489
460.0 0.002174 354.07721 463.02621
494.0 0.002024 354.05637 478.04514
530.0 0.001887 354.03561 509.71597
611.0 0.001637 354.01474 544.11548
568.0 0.001761 353.99393 564.36725
592.0 0.001689 353.97308 576.35284
609.0 0.001642 353.95218 577.55560
544.0 0.001838 353.93124 543.24994
470.0 0.002128 353.91028 489.89496
451.0 0.002217 353.88934 446.00735
393.0 0.002545 353.86832 418.71368
376.0 0.002660 353.84723 404.86832
435.0 0.002299 353.82620 400.61008
449.0 0.002227 353.80508 402.77762
449.0 0.002227 353.78400 408.09940
429.0 0.002331 353.76288 409.86258
404.0 0.002475 353.74167 403.97458
425.0 0.002353 353.72046 397.17148
412.0 0.002427 353.69925 392.31049
385.0 0.002597 353.67795 387.20261
385.0 0.002597 353.65668 381.20032
375.0 0.002667 353.63535 376.55634
388.0 0.002577 353.61395 373.31696
423.0 0.002364 353.59259 373.04306
411.0 0.002433 353.57117 374.21323
408.0 0.002451 353.54968 375.96503
417.0 0.002398 353.52835 377.87418
432.0 0.002315 353.50671 381.30927
435.0 0.002299 353.48523 386.62280
428.0 0.002336 353.46365 390.93683
406.0 0.002463 353.44214 390.90491
402.0 0.002488 353.42041 387.18433
391.0 0.002558 353.39877 384.19162
396.0 0.002525 353.37714 383.01929
419.0 0.002387 353.35547 386.73730
443.0 0.002257 353.33371 395.79538
447.0 0.002237 353.31183 410.59262
466.0 0.002146 353.29001 429.58759
477.0 0.002096 353.26825 443.15677
450.0 0.002222 353.24640 436.90564
439.0 0.002278 353.22446 418.46301
414.0 0.002415 353.20251 402.30981
388.0 0.002577 353.18054 393.10193
437.0 0.002288 353.15863 390.20599
379.0 0.002639 353.13654 391.82333
391.0 0.002558 353.11447 397.91776
451.0 0.002217 353.09241 410.04321
440.0 0.002273 353.07025 428.29480
473.0 0.002114 353.04813 447.66376
464.0 0.002155 353.02585 462.58203
439.0 0.002278 353.00366 477.42526
457.0 0.002188 352.98145 492.85153
467.0 0.002141 352.95908 496.91251
505.0 0.001980 352.93677 489.77133
483.0 0.002070 352.91443 482.87628
497.0 0.002012 352.89203 491.98492
552.0 0.001812 352.86960 532.23138
684.0 0.001462 352.84717 608.11749
788.0 0.001269 352.82468 700.52271
766.0 0.001305 352.80215 742.06531
675.0 0.001481 352.77957 687.60779
609.0 0.001642 352.75699 601.21204
531.0 0.001883 352.73434 536.38483
516.0 0.001938 352.71176 496.67648
481.0 0.002079 352.68903 472.52557
459.0 0.002179 352.66626 460.84872
464.0 0.002155 352.64352 455.28555
464.0 0.002155 352.62070 445.38321
477.0 0.002096 352.59793 433.32748
457.0 0.002188 352.57507 427.98657
455.0 0.002198 352.55212 434.29956
481.0 0.002079 352.52914 456.61588
515.0 0.001942 352.50616 496.28571
547.0 0.001828 352.48318 543.11365
568.0 0.001761 352.46014 563.77087
572.0 0.001748 352.43707 540.21942
551.0 0.001815 352.41400 506.83377
516.0 0.001938 352.39075 489.74585
516.0 0.001938 352.36761 486.40329
527.0 0.001898 352.34445 483.58563
530.0 0.001887 352.32120 481.35953
555.0 0.001802 352.29785 487.45752
547.0 0.001828 352.27454 492.33084
509.0 0.001965 352.25122 476.51437
455.0 0.002198 352.22781 446.00629
449.0 0.002227 352.20438 418.96375
417.0 0.002398 352.18088 401.02164
417.0 0.002398 352.15741 391.23135
420.0 0.002381 352.13388 387.20410
391.0 0.002558 352.11026 387.19901
411.0 0.002433 352.08670 391.06381
416.0 0.002404 352.06299 399.17087
451.0 0.002217 352.03934 412.26428
446.0 0.002242 352.01566 431.16449
502.0 0.001992 351.99182 453.43692
544.0 0.001838 351.96808 482.45840
583.0 0.001715 351.94418 519.68494
613.0 0.001631 351.92035 543.02087
556.0 0.001799 351.89645 524.29419
480.0 0.002083 351.87250 481.84085
472.0 0.002119 351.84848 446.82977
419.0 0.002387 351.82452 424.23972
437.0 0.002288 351.80042 408.58054
366.0 0.002732 351.77634 397.14749
395.0 0.002532 351.75223 390.29739
359.0 0.002786 351.72806 388.04279
407.0 0.002457 351.70389 387.14529
417.0 0.002398 351.67960 387.31219
394.0 0.002538 351.65536 390.16788
379.0 0.002639 351.63098 397.76932
427.0 0.002342 351.60669 411.42633
479.0 0.002088 351.58228 429.82068
478.0 0.002092 351.55789 444.53378
473.0 0.002114 351.53339 445.23181
446.0 0.002242 351.50888 439.02432
450.0 0.002222 351.48434 441.36475
446.0 0.002242 351.45972 459.47513
489.0 0.002045 351.43512 498.76389
609.0 0.001642 351.41052 563.13300
693.0 0.001443 351.38586 643.29962
733.0 0.001364 351.36105 693.97577
686.0 0.001458 351.33630 668.33197
578.0 0.001730 351.31149 597.07269
502.0 0.001992 351.28665 535.04614
515.0 0.001942 351.26172 504.26453
521.0 0.001919 351.23679 500.76855
519.0 0.001927 351.21185 504.03513
504.0 0.001984 351.18680 489.47406
492.0 0.002033 351.16187 462.02969
459.0 0.002179 351.13678 439.51514
429.0 0.002331 351.11169 429.59555
466.0 0.002146 351.08649 434.36179
485.0 0.002062 351.06131 455.44586
504.0 0.001984 351.03607 492.44394
566.0 0.001767 351.01083 536.05505
590.0 0.001695 350.98553 562.26788
585.0 0.001709 350.96017 549.29309
548.0 0.001825 350.93475 509.60297
482.0 0.002075 350.90933 472.43848
436.0 0.002294 350.88394 452.75143
396.0 0.002525 350.85843 450.03683
449.0 0.002227 350.83289 456.19119
488.0 0.002049 350.80731 459.42160
498.0 0.002008 350.78177 461.44702
509.0 0.001965 350.75604 477.25729
533.0 0.001876 350.73035 518.61829
611.0 0.001637 350.70459 588.66785
743.0 0.001346 350.67889 668.59467
734.0 0.001362 350.65314 701.36969
609.0 0.001642 350.62720 652.56207
490.0 0.002041 350.60135 569.82922
466.0 0.002146 350.57541 499.70490
431.0 0.002320 350.54944 455.74545
432.0 0.002315 350.52347 435.21045
421.0 0.002375 350.49744 433.23712
438.0 0.002283 350.47141 445.48224
486.0 0.002058 350.44522 466.23480
471.0 0.002123 350.41913 481.27731
449.0 0.002227 350.39294 475.46655
450.0 0.002222 350.36664 461.81738
446.0 0.002242 350.34042 460.11545
505.0 0.001980 350.31409 476.90302
549.0 0.001821 350.28775 508.86334
589.0 0.001698 350.26135 531.81464
535.0 0.001869 350.23492 517.51331
478.0 0.002092 350.20850 477.86707
467.0 0.002141 350.18201 439.47501
413.0 0.002421 350.15543 412.60049
402.0 0.002488 350.12888 398.26328
355.0 0.002817 350.10226 394.01324
369.0 0.002710 350.07559 397.74829
446.0 0.002242 350.04889 407.39548
418.0 0.002392 350.02219 416.54779
413.0 0.002421 349.99542 414.77832
416.0 0.002404 349.96863 401.78641
395.0 0.002532 349.94174 387.73322
407.0 0.002457 349.91483 377.28848
389.0 0.002571 349.88794 371.14972
412.0 0.002427 349.86105 368.06824
421.0 0.002375 349.83398 366.72507
419.0 0.002387 349.80698 366.26901
388.0 0.002577 349.77988 365.95789
381.0 0.002625 349.75272 365.25354
373.0 0.002681 349.72568 364.89447
378.0 0.002646 349.69839 364.90979
378.0 0.002646 349.67123 365.46066
366.0 0.002732 349.64392 366.78882
360.0 0.002778 349.61658 368.92236
374.0 0.002674 349.58932 370.80606
384.0 0.002604 349.56189 374.46838
411.0 0.002433 349.53452 380.30640
413.0 0.002421 349.50702 389.74014
441.0 0.002268 349.47946 402.59930
454.0 0.002203 349.45193 417.88998
457.0 0.002188 349.42441 429.29742
448.0 0.002232 349.39682 433.32138
434.0 0.002304 349.36917 440.57101
478.0 0.002092 349.34143 461.07211
540.0 0.001852 349.31378 493.48270
552.0 0.001812 349.28598 519.83484
509.0 0.001965 349.25821 512.20074
453.0 0.002208 349.23038 479.49579
435.0 0.002299 349.20251 450.27258
429.0 0.002331 349.17462 436.57321
463.0 0.002160 349.14661 438.66589
495.0 0.002020 349.11862 450.39542
494.0 0.002024 349.09058 457.93994
462.0 0.002165 349.06256 452.85550
468.0 0.002137 349.03445 445.43228
463.0 0.002160 349.00632 444.38449
463.0 0.002160 348.97812 450.61346
466.0 0.002146 348.94995 468.59827
527.0 0.001898 348.92169 506.85321
548.0 0.001825 348.89340 566.27026
614.0 0.001629 348.86511 626.65833
603.0 0.001658 348.83679 643.68579
553.0 0.001808 348.80829 600.90820
493.0 0.002028 348.77991 534.59052
450.0 0.002222 348.75146 479.90347
403.0 0.002481 348.72296 446.95682
436.0 0.002294 348.69440 432.67123
410.0 0.002439 348.66580 427.83566
423.0 0.002364 348.63715 422.02921
474.0 0.002110 348.60852 413.06372
394.0 0.002538 348.57986 406.34766
403.0 0.002481 348.55121 405.72296
401.0 0.002494 348.52234 413.70923
449.0 0.002227 348.49359 433.41531
508.0 0.001969 348.46478 467.92441
552.0 0.001812 348.43591 516.01587
568.0 0.001761 348.40701 562.49054
554.0 0.001805 348.37802 577.78497
498.0 0.002008 348.34906 551.28796
490.0 0.002041 348.32013 511.31824
458.0 0.002183 348.29102 483.81296
447.0 0.002237 348.26196 470.80054
437.0 0.002288 348.23279 458.84247
416.0 0.002404 348.20361 439.66476
411.0 0.002433 348.17447 420.90009
423.0 0.002364 348.14523 408.72134
408.0 0.002451 348.11600 404.71915
408.0 0.002451 348.08670 409.35443
416.0 0.002404 348.05740 425.25912
465.0 0.002151 348.02802 454.38217
528.0 0.001894 347.99860 495.94031
559.0 0.001789 347.96915 536.55316
528.0 0.001894 347.93970 548.76263
501.0 0.001996 347.91022 525.56891
480.0 0.002083 347.88071 488.10846
423.0 0.002364 347.85114 457.50488
407.0 0.002457 347.82156 441.30243
413.0 0.002421 347.79187 435.49756
401.0 0.002494 347.76221 431.92084
419.0 0.002387 347.73257 429.55246
430.0 0.002326 347.70276 435.33536
451.0 0.002217 347.67300 455.54861
507.0 0.001972 347.64313 494.29385
582.0 0.001718 347.61334 549.12280
630.0 0.001587 347.58350 598.69525
576.0 0.001736 347.55356 609.71649
545.0 0.001835 347.52362 584.81360
490.0 0.002041 347.49365 550.86011
489.0 0.002045 347.46368 513.96588
502.0 0.001992 347.43362 481.63690
479.0 0.002088 347.40353 465.01761
453.0 0.002208 347.37344 466.94769
482.0 0.002075 347.34332 484.95270
519.0 0.001927 347.31311 515.33105
548.0 0.001825 347.28287 546.82239
575.0 0.001739 347.25266 555.29596
519.0 0.001927 347.22244 536.76575
528.0 0.001894 347.19211 517.91125
505.0 0.001980 347.16180 514.06494
514.0 0.001946 347.13150 521.31665
484.0 0.002066 347.10104 523.02698
481.0 0.002079 347.07065 503.94937
457.0 0.002188 347.04016 471.77209
420.0 0.002381 347.00967 443.46555
422.0 0.002370 346.97919 425.20221
390.0 0.002564 346.94867 417.99310
408.0 0.002451 346.91803 422.56104
434.0 0.002304 346.88742 439.96176
461.0 0.002169 346.85675 471.41791
552.0 0.001812 346.82617 516.36377
615.0 0.001626 346.79541 563.30249
614.0 0.001629 346.76468 579.39539
546.0 0.001832 346.73389 548.24884
484.0 0.002066 346.70309 498.74631
494.0 0.002024 346.67233 457.05777
438.0 0.002283 346.64145 427.74390
398.0 0.002513 346.61053 407.43402
381.0 0.002625 346.57962 393.66895
402.0 0.002488 346.54868 385.11429
389.0 0.002571 346.51776 380.49155
363.0 0.002755 346.48672 378.88092
372.0 0.002688 346.45575 380.42670
385.0 0.002597 346.42468 386.10626
404.0 0.002475 346.39359 396.84976
417.0 0.002398 346.36252 412.88614
466.0 0.002146 346.33133 433.18964
515.0 0.001942 346.30020 453.98831
518.0 0.001931 346.26889 462.80447
466.0 0.002146 346.23773 449.13959
428.0 0.002336 346.20651 425.12878
417.0 0.002398 346.17517 405.69821
414.0 0.002415 346.14392 395.62610
401.0 0.002494 346.11258 394.21304
427.0 0.002342 346.08118 398.02676
438.0 0.002283 346.04984 400.20490
419.0 0.002387 346.01837 394.90942
400.0 0.002500 345.98697 385.75177
370.0 0.002703 345.95547 377.69498
380.0 0.002632 345.92395 373.57169
395.0 0.002532 345.89246 373.05438
393.0 0.002545 345.86087 374.54297
375.0 0.002667 345.82932 376.76547
383.0 0.002611 345.79767 379.04410
400.0 0.002500 345.76605 380.21164
396.0 0.002525 345.73441 378.63116
392.0 0.002551 345.70270 376.25659
397.0 0.002519 345.67108 375.75632
383.0 0.002611 345.63931 378.57785
415.0 0.002410 345.60748 385.77591
441.0 0.002268 345.57578 396.62079
440.0 0.002273 345.54398 408.12546
401.0 0.002494 345.51215 416.20023
434.0 0.002304 345.48022 421.42041
452.0 0.002212 345.44843 427.78870
462.0 0.002165 345.41656 436.65665
423.0 0.002364 345.38461 440.81461
455.0 0.002198 345.35263 433.29514
399.0 0.002506 345.32065 421.16507
404.0 0.002475 345.28870 414.09140
415.0 0.002410 345.25674 415.45364
463.0 0.002160 345.22464 425.34198
462.0 0.002165 345.19257 442.61035
479.0 0.002088 345.16046 468.24237
511.0 0.001957 345.12836 509.90268
575.0 0.001739 345.09625 575.13458
665.0 0.001504 345.06406 654.21149
675.0 0.001481 345.03192 705.12830
606.0 0.001650 344.99979 682.43243
578.0 0.001730 344.96750 611.78491
476.0 0.002101 344.93533 544.50800
441.0 0.002268 344.90302 500.88300
444.0 0.002252 344.87073 478.78400
458.0 0.002183 344.83844 469.16922
466.0 0.002146 344.80609 468.85181
470.0 0.002128 344.77374 476.00293
509.0 0.001965 344.74139 486.29623
475.0 0.002105 344.70905 494.02393
456.0 0.002193 344.67664 490.81973
450.0 0.002222 344.64417 481.20239
450.0 0.002222 344.61176 478.83508
463.0 0.002160 344.57928 492.67355
505.0 0.001980 344.54684 520.82068
528.0 0.001894 344.51431 545.80957
520.0 0.001923 344.48181 540.91150
442.0 0.002262 344.44931 509.02814
433.0 0.002309 344.41672 476.80603
445.0 0.002247 344.38419 459.59973
439.0 0.002278 344.35147 461.47626
471.0 0.002123 344.31894 481.98822
554.0 0.001805 344.28629 516.55389
612.0 0.001634 344.25369 552.33148
583.0 0.001715 344.22101 580.18127
604.0 0.001656 344.18835 610.47504
659.0 0.001517 344.15558 646.15375
649.0 0.001541 344.12299 663.74554
553.0 0.001808 344.09021 633.82922
487.0 0.002053 344.05746 572.64197
475.0 0.002105 344.02472 518.08813
458.0 0.002183 343.99191 485.61633
453.0 0.002208 343.95917 473.09567
474.0 0.002110 343.92630 468.80777
454.0 0.002203 343.89349 460.44199
420.0 0.002381 343.86066 450.52856
439.0 0.002278 343.82776 448.72842
458.0 0.002183 343.79495 460.73114
485.0 0.002062 343.76205 487.67218
518.0 0.001931 343.72919 523.41431
513.0 0.001949 343.69629 552.15192
507.0 0.001972 343.66330 562.95892
506.0 0.001976 343.63043 566.79718
552.0 0.001812 343.59744 572.90582
524.0 0.001908 343.56451 567.03821
512.0 0.001953 343.53149 540.67432
468.0 0.002137 343.49847 510.50061
432.0 0.002315 343.46558 487.65018
458.0 0.002183 343.43256 470.43747
460.0 0.002174 343.39951 458.97275
407.0 0.002457 343.36652 452.72440
421.0 0.002375 343.33340 451.57431
417.0 0.002398 343.30035 457.18945
431.0 0.002320 343.26727 465.43347
469.0 0.002132 343.23422 464.87988
437.0 0.002288 343.20117 456.61490
426.0 0.002347 343.16797 448.70578
432.0 0.002315 343.13495 439.14258
413.0 0.002421 343.10178 425.97116
418.0 0.002392 343.06870 414.58557
372.0 0.002688 343.03552 408.76651
411.0 0.002433 343.00235 406.82721
411.0 0.002433 342.96921 406.47113
439.0 0.002278 342.93604 406.61581
414.0 0.002415 342.90289 403.63593
362.0 0.002762 342.86960 397.13861
411.0 0.002433 342.83646 392.24820
410.0 0.002439 342.80331 392.30527
413.0 0.002421 342.77008 397.70352
406.0 0.002463 342.73685 406.72900
393.0 0.002545 342.70361 413.91953
373.0 0.002681 342.67041 416.34076
422.0 0.002370 342.63718 419.08881
449.0 0.002227 342.60394 426.52194
444.0 0.002252 342.57062 438.56586
473.0 0.002114 342.53741 457.29678
518.0 0.001931 342.50415 484.16614
533.0 0.001876 342.47089 510.27252
557.0 0.001795 342.43756 520.91150
531.0 0.001883 342.40430 509.39066
471.0 0.002123 342.37103 478.67310
421.0 0.002375 342.33774 443.07800
387.0 0.002584 342.30450 414.68240
385.0 0.002597 342.27115 396.34662
393.0 0.002545 342.23788 386.87033
390.0 0.002564 342.20453 383.87186
373.0 0.002681 342.17126 386.30157
405.0 0.002469 342.13797 393.59119
432.0 0.002315 342.10461 405.39282
470.0 0.002128 342.07129 419.63095
455.0 0.002198 342.03799 431.60956
455.0 0.002198 342.00464 440.60751
438.0 0.002283 341.97134 450.94272
440.0 0.002273 341.93802 460.27570
453.0 0.002208 341.90466 462.61108
439.0 0.002278 341.87134 455.49536
442.0 0.002262 341.83798 439.43460
419.0 0.002387 341.80475 418.97293
387.0 0.002584 341.77133 401.18256
374.0 0.002674 341.73807 389.50278
367.0 0.002725 341.70465 383.39908
379.0 0.002639 341.67136 382.11475
406.0 0.002463 341.63806 384.86011
425.0 0.002353 341.60468 392.15585
412.0 0.002427 341.57135 405.22968
409.0 0.002445 341.53802 426.14459
471.0 0.002123 341.50461 456.39240
470.0 0.002128 341.47137 496.99939
564.0 0.001773 341.43802 547.31964
608.0 0.001645 341.40472 597.51538
584.0 0.001712 341.37146 630.82330
600.0 0.001667 341.33810 627.92859
547.0 0.001828 341.30481 582.78888
441.0 0.002268 341.27142 522.16315
490.0 0.002041 341.23813 472.63428
427.0 0.002342 341.20483 442.16922
421.0 0.002375 341.17151 429.84607
395.0 0.002532 341.13824 432.00693
443.0 0.002257 341.10492 444.05420
447.0 0.002237 341.07166 458.23450
454.0 0.002203 341.03833 466.46759
454.0 0.002203 341.00510 472.24261
487.0 0.002053 340.97183 480.88028
469.0 0.002132 340.93854 487.84299
465.0 0.002151 340.90530 490.78928
461.0 0.002169 340.87204 496.54715
498.0 0.002008 340.83881 505.52142
489.0 0.002045 340.80560 510.97742
460.0 0.002174 340.77237 501.59866
440.0 0.002273 340.73911 474.72086
432.0 0.002315 340.70590 443.67932
407.0 0.002457 340.67267 419.50815
409.0 0.002445 340.63950 405.81384
388.0 0.002577 340.60626 402.04822
405.0 0.002469 340.57309 407.13892
405.0 0.002469 340.53995 419.77155
436.0 0.002294 340.50677 437.10651
473.0 0.002114 340.47363 456.43222
511.0 0.001957 340.44043 477.53183
516.0 0.001938 340.40732 492.81760
512.0 0.001953 340.37421 487.11194
471.0 0.002123 340.34106 463.68875
422.0 0.002370 340.30801 440.86234
421.0 0.002375 340.27490 428.75751
443.0 0.002257 340.24182 429.16733
464.0 0.002155 340.20874 438.00970
459.0 0.002179 340.17563 445.38290
470.0 0.002128 340.14264 442.22498
449.0 0.002227 340.10962 434.03452
430.0 0.002326 340.07657 432.41766
453.0 0.002208 340.04355 442.83698
536.0 0.001866 340.01056 464.31311
570.0 0.001754 339.97763 486.79633
566.0 0.001767 339.94458 493.23938
520.0 0.001923 339.91168 481.70673
475.0 0.002105 339.87878 465.98010
459.0 0.002179 339.84573 450.78983
445.0 0.002247 339.81296 433.18204
421.0 0.002375 339.77997 415.57706
384.0 0.002604 339.74716 403.51004
397.0 0.002519 339.71423 399.21701
465.0 0.002151 339.68143 402.72256
430.0 0.002326 339.64859 412.63623
470.0 0.002128 339.61575 425.61203
437.0 0.002288 339.58298 438.87796
413.0 0.002421 339.55020 454.07187
468.0 0.002137 339.51743 471.34253
497.0 0.002012 339.48471 482.47742
479.0 0.002088 339.45193 482.03369
497.0 0.002012 339.41925 475.42096
479.0 0.002088 339.38663 464.91971
493.0 0.002028 339.35385 453.61237
481.0 0.002079 339.32129 448.81683
495.0 0.002020 339.28860 451.70517
479.0 0.002088 339.25607 453.46097
397.0 0.002519 339.22336 442.42621
409.0 0.002445 339.19083 421.31097
400.0 0.002500 339.15829 400.73120
325.0 0.003077 339.12576 385.97290
357.0 0.002801 339.09329 377.87292
353.0 0.002833 339.06079 375.76584
379.0 0.002639 339.02832 378.93933
398.0 0.002513 338.99591 385.81857
389.0 0.002571 338.96347 393.37195
387.0 0.002584 338.93103 396.10178
376.0 0.002660 338.89865 390.93207
355.0 0.002817 338.86633 382.52292
345.0 0.002899 338.83405 376.48917
356.0 0.002809 338.80170 375.10986
352.0 0.002841 338.76947 378.74088
358.0 0.002793 338.73718 385.80536
390.0 0.002564 338.70499 391.68222
392.0 0.002551 338.67276 390.80084
379.0 0.002639 338.64056 383.76523
357.0 0.002801 338.60840 376.45062
362.0 0.002762 338.57626 371.98770
373.0 0.002681 338.54413 370.92422
376.0 0.002660 338.51208 372.01630
363.0 0.002755 338.48001 374.13190
374.0 0.002674 338.44809 378.11020
397.0 0.002519 338.41595 385.51489
410.0 0.002439 338.38403 395.63266
447.0 0.002237 338.35217 407.27737
459.0 0.002179 338.32019 420.86346
441.0 0.002268 338.28830 433.55685
427.0 0.002342 338.25644 437.57608
379.0 0.002639 338.22464 428.62778
371.0 0.002695 338.19290 411.94708
376.0 0.002660 338.16107 393.62195
379.0 0.002639 338.12939 378.60626
390.0 0.002564 338.09769 368.37860
379.0 0.002639 338.06598 362.62476
336.0 0.002976 338.03433 360.35309
329.0 0.003040 338.00272 360.51898
337.0 0.002967 337.97110 362.45007
370.0 0.002703 337.93958 365.79767
380.0 0.002632 337.90805 371.21078
367.0 0.002725 337.87656 379.68979
413.0 0.002421 337.84509 390.18219
427.0 0.002342 337.81372 398.71063
422.0 0.002370 337.78232 402.82584
381.0 0.002625 337.75092 403.68732
420.0 0.002381 337.71964 401.51144
380.0 0.002632 337.68832 394.46289
340.0 0.002941 337.65714 384.28622
362.0 0.002762 337.62589 373.81766
395.0 0.002532 337.59467 364.70779
332.0 0.003012 337.56360 357.77960
325.0 0.003077 337.53250 353.05814
333.0 0.003003 337.50140 350.11740
312.0 0.003205 337.47031 348.44629
373.0 0.002681 337.43933 347.74203
369.0 0.002710 337.40839 347.94183
338.0 0.002959 337.37747 349.10352
356.0 0.002809 337.34659 351.23550
324.0 0.003086 337.31570 354.03998
337.0 0.002967 337.28491 356.24451
346.0 0.002890 337.25412 356.24997
368.0 0.002717 337.22336 354.07697
345.0 0.002899 337.19266 351.60251
337.0 0.002967 337.16199 349.89511
367.0 0.002725 337.13138 349.43918
371.0 0.002695 337.10083 350.24683
337.0 0.002967 337.07025 352.42978
360.0 0.002778 337.03976 356.48846
362.0 0.002762 337.00937 363.48969
375.0 0.002667 336.97885 374.24368
391.0 0.002558 336.94855 388.45731
409.0 0.002445 336.91818 402.38058
390.0 0.002564 336.88794 407.37552
375.0 0.002667 336.85764 399.12289
387.0 0.002584 336.82742 384.87643
354.0 0.002825 336.79724 372.04190
346.0 0.002890 336.76709 362.99664
350.0 0.002857 336.73709 357.52856
361.0 0.002770 336.70700 354.41879
362.0 0.002762 336.67700 352.81729
357.0 0.002801 336.64713 352.48840
345.0 0.002899 336.61716 353.28445
337.0 0.002967 336.58737 355.86996
361.0 0.002770 336.55750 360.88428
384.0 0.002604 336.52774 369.33936
405.0 0.002469 336.49805 381.95306
402.0 0.002488 336.46838 398.11612
412.0 0.002427 336.43872 412.92456
408.0 0.002451 336.40912 419.47705
394.0 0.002538 336.37961 415.85687
407.0 0.002457 336.35013 404.79996
380.0 0.002632 336.32068 391.07205
355.0 0.002817 336.29135 380.00558
381.0 0.002625 336.26193 373.80966
364.0 0.002747 336.23264 372.90033
370.0 0.002703 336.20343 377.05820
399.0 0.002506 336.17419 385.99530
410.0 0.002439 336.14508 399.16058
468.0 0.002137 336.11600 414.55124
444.0 0.002252 336.08691 427.39737
438.0 0.002283 336.05789 436.24603
439.0 0.002278 336.02902 446.43802
491.0 0.002037 336.00012 459.19974
455.0 0.002198 335.97125 466.25537
433.0 0.002309 335.94247 462.79205
477.0 0.002096 335.91370 453.50763
409.0 0.002445 335.88501 442.57065
389.0 0.002571 335.85645 429.74399
382.0 0.002618 335.82776 414.09424
360.0 0.002778 335.79926 398.57776
382.0 0.002618 335.77084 386.71390
384.0 0.002604 335.74237 379.25507
387.0 0.002584 335.71402 376.43753
390.0 0.002564 335.68567 378.60434
404.0 0.002475 335.65741 385.78918
408.0 0.002451 335.62927 398.01187
426.0 0.002347 335.60110 413.93530
426.0 0.002347 335.57300 430.14828
479.0 0.002088 335.54498 443.50174
464.0 0.002155 335.51697 450.87930
466.0 0.002146 335.48917 448.84921
444.0 0.002252 335.46118 436.84860
376.0 0.002660 335.43341 421.06946
394.0 0.002538 335.40564 408.66293
409.0 0.002445 335.37796 401.59924
383.0 0.002611 335.35037 397.64273
399.0 0.002506 335.32266 394.58322
371.0 0.002695 335.29520 392.62299
371.0 0.002695 335.26776 391.66278
384.0 0.002604 335.24030 390.22064
386.0 0.002591 335.21304 388.67111
366.0 0.002732 335.18573 390.20102
388.0 0.002577 335.15857 397.24527
412.0 0.002427 335.13129 409.99286
417.0 0.002398 335.10422 425.06955
416.0 0.002404 335.07718 435.31128
418.0 0.002392 335.05020 437.26126
434.0 0.002304 335.02332 435.45563
440.0 0.002273 334.99643 435.88269
428.0 0.002336 334.96964 442.62833
459.0 0.002179 334.94296 455.27335
466.0 0.002146 334.91626 465.11179
466.0 0.002146 334.88965 462.89999
443.0 0.002257 334.86310 452.14786
417.0 0.002398 334.83661 441.94104
402.0 0.002488 334.81018 437.25345
418.0 0.002392 334.78387 436.41699
421.0 0.002375 334.75757 435.34818
439.0 0.002278 334.73138 434.21362
465.0 0.002151 334.70526 435.92508
443.0 0.002257 334.67917 438.95694
412.0 0.002427 334.65311 439.44547
407.0 0.002457 334.62711 438.34070
405.0 0.002469 334.60126 438.98209
432.0 0.002315 334.57541 445.07928
447.0 0.002237 334.54968 460.99521
497.0 0.002012 334.52396 486.86804
533.0 0.001876 334.49838 514.57532
528.0 0.001894 334.47275 532.95654
513.0 0.001949 334.44730 532.25836
493.0 0.002028 334.42191 514.05737
495.0 0.002020 334.39651 493.58737
486.0 0.002058 334.37131 482.99829
497.0 0.002012 334.34604 482.81686
517.0 0.001934 334.32092 483.99121
475.0 0.002105 334.29584 478.78729
502.0 0.001992 334.27087 469.28549
433.0 0.002309 334.24591 458.88864
446.0 0.002242 334.22107 446.16092
401.0 0.002494 334.19632 428.92111
372.0 0.002688 334.17157 411.63181
374.0 0.002674 334.14688 399.78662
392.0 0.002551 334.12238 395.57227
399.0 0.002506 334.09784 398.73026
417.0 0.002398 334.07336 406.67615
430.0 0.002326 334.04910 414.56076
406.0 0.002463 334.02472 417.42709
386.0 0.002591 334.00055 412.88235
379.0 0.002639 333.97647 403.62134
385.0 0.002597 333.95236 395.87686
396.0 0.002525 333.92834 393.03421
378.0 0.002646 333.90445 394.14954
386.0 0.002591 333.88065 395.24884
412.0 0.002427 333.85690 393.24911
407.0 0.002457 333.83319 389.30603
383.0 0.002611 333.80960 384.93613
386.0 0.002591 333.78607 380.27533
379.0 0.002639 333.76266 375.02338
380.0 0.002632 333.73920 370.44171
376.0 0.002660 333.71594 367.00195
402.0 0.002488 333.69275 364.59900
388.0 0.002577 333.66956 363.30710
366.0 0.002732 333.64651 363.24890
358.0 0.002793 333.62344 364.72424
394.0 0.002538 333.60056 369.09042
406.0 0.002463 333.57779 376.48892
421.0 0.002375 333.55499 385.26819
425.0 0.002353 333.53235 390.16983
388.0 0.002577 333.50970 386.35587
370.0 0.002703 333.48721 376.40289
373.0 0.002681 333.46481 366.14859
371.0 0.002695 333.44241 358.29230
357.0 0.002801 333.42017 353.32806
350.0 0.002857 333.39792 351.06900
337.0 0.002967 333.37582 350.93814
343.0 0.002915 333.35376 351.74518
374.0 0.002674 333.33185 352.73984
368.0 0.002717 333.31003 353.01733
345.0 0.002899 333.28821 352.63647
341.0 0.002933 333.26648 352.19205
361.0 0.002770 333.24487 352.45038
353.0 0.002833 333.22330 353.43970
368.0 0.002717 333.20193 356.34299
372.0 0.002688 333.18051 361.34335
362.0 0.002762 333.15927 368.00983
373.0 0.002681 333.13806 374.19724
379.0 0.002639 333.11694 376.84457
347.0 0.002882 333.09592 375.86429
363.0 0.002755 333.07495 372.41907
380.0 0.002632 333.05411 368.06259
363.0 0.002755 333.03333 365.15689
344.0 0.002907 333.01266 365.75439
354.0 0.002825 332.99200 370.97226
377.0 0.002653 332.97147 381.66092
421.0 0.002375 332.95108 398.52246
455.0 0.002198 332.93076 420.30133
500.0 0.002000 332.91049 442.72775
450.0 0.002222 332.89035 458.65536
470.0 0.002128 332.87024 462.30963
400.0 0.002500 332.85034 450.36285
366.0 0.002732 332.83038 427.99573
342.0 0.002924 332.81061 405.75165
399.0 0.002506 332.79086 389.78305
380.0 0.002632 332.77124 380.96475
346.0 0.002890 332.75168 378.43634
400.0 0.002500 332.73221 380.00406
392.0 0.002551 332.71289 381.78906
384.0 0.002604 332.69360 379.81967
370.0 0.002703 332.67444 374.34958
363.0 0.002755 332.65527 368.85809
343.0 0.002915 332.63635 366.03812
367.0 0.002725 332.61740 367.02289
371.0 0.002695 332.59863 372.31866
384.0 0.002604 332.57986 381.68057
401.0 0.002494 332.56122 393.33472
409.0 0.002445 332.54276 403.80188
426.0 0.002347 332.52423 410.04892
429.0 0.002331 332.50595 409.74030
457.0 0.002188 332.48770 403.44720
429.0 0.002331 332.46951 395.89505
394.0 0.002538 332.45145 390.80087
384.0 0.002604 332.43344 388.24661
380.0 0.002632 332.41553 386.97144
378.0 0.002646 332.39783 387.33725
375.0 0.002667 332.38007 391.34830
393.0 0.002545 332.36255 399.64343
403.0 0.002481 332.34497 411.76236
439.0 0.002278 332.32761 426.02090
431.0 0.002320 332.31027 435.72809
409.0 0.002445 332.29303 431.51636
401.0 0.002494 332.27594 414.59830
372.0 0.002688 332.25891 394.88293
383.0 0.002611 332.24203 378.75818
354.0 0.002825 332.22519 367.57468
355.0 0.002817 332.20844 361.00919
341.0 0.002933 332.19183 357.93277
348.0 0.002874 332.17529 357.20706
360.0 0.002778 332.15887 358.00714
370.0 0.002703 332.14249 359.78247
380.0 0.002632 332.12631 362.06485
378.0 0.002646 332.11017 364.31284
366.0 0.002732 332.09412 366.58554
386.0 0.002591 332.07819 370.53970
365.0 0.002740 332.06232 378.31686
365.0 0.002740 332.04657 391.51794
415.0 0.002410 332.03098 410.41083
419.0 0.002387 332.01544 432.83646
443.0 0.002257 332.00003 452.60754
461.0 0.002169 331.98459 465.18201
467.0 0.002141 331.96948 470.19519
458.0 0.002183 331.95425 469.49832
528.0 0.001894 331.93921 467.00372
450.0 0.002222 331.92432 460.73779
411.0 0.002433 331.90948 448.34216
459.0 0.002179 331.89471 435.58691
435.0 0.002299 331.88016 428.59518
424.0 0.002358 331.86563 426.95303
387.0 0.002584 331.85123 424.78183
399.0 0.002506 331.83688 417.05231
386.0 0.002591 331.82269 404.78064
398.0 0.002513 331.80859 391.83768
384.0 0.002604 331.79462 381.80307
370.0 0.002703 331.78070 376.62906
395.0 0.002532 331.76691 377.05728
408.0 0.002451 331.75323 382.29037
420.0 0.002381 331.73965 391.54031
432.0 0.002315 331.72617 402.59930
447.0 0.002237 331.71283 412.02573
442.0 0.002262 331.69955 415.93829
411.0 0.002433 331.68643 414.86691
400.0 0.002500 331.67331 411.34109
435.0 0.002299 331.66040 405.12000
409.0 0.002445 331.64755 397.27332
388.0 0.002577 331.63480 390.88776
392.0 0.002551 331.62222 388.23447
397.0 0.002519 331.60974 387.76712
401.0 0.002494 331.59729 386.12164
364.0 0.002747 331.58502 381.68512
366.0 0.002732 331.57278 375.79700
377.0 0.002653 331.56079 370.59692
359.0 0.002786 331.54883 367.92429
382.0 0.002618 331.53693 368.69711
387.0 0.002584 331.52512 374.14087
380.0 0.002632 331.51349 384.33472
419.0 0.002387 331.50189 399.08002
453.0 0.002208 331.49054 415.99643
460.0 0.002174 331.47919 430.19275
469.0 0.002132 331.46802 436.80991
458.0 0.002183 331.45697 433.60373
456.0 0.002193 331.44592 423.30847
411.0 0.002433 331.43506 412.96362
420.0 0.002381 331.42429 406.96594
397.0 0.002519 331.41364 404.90228
396.0 0.002525 331.40308 405.69446
400.0 0.002500 331.39270 409.35315
409.0 0.002445 331.38239 416.72272
445.0 0.002247 331.37222 429.44736
463.0 0.002160 331.36209 447.67264
497.0 0.002012 331.35208 468.91846
514.0 0.001946 331.34222 489.49097
517.0 0.001934 331.33249 501.41260
475.0 0.002105 331.32285 494.37344
435.0 0.002299 331.31329 472.93390
457.0 0.002188 331.30389 450.68607
414.0 0.002415 331.29462 434.64865
420.0 0.002381 331.28540 425.01706
435.0 0.002299 331.27634 418.75601
413.0 0.002421 331.26736 413.41083
388.0 0.002577 331.25858 409.14249
422.0 0.002370 331.24982 408.00211
455.0 0.002198 331.24121 410.55078
442.0 0.002262 331.23270 414.34125
388.0 0.002577 331.22433 418.08716
390.0 0.002564 331.21613 423.78256
407.0 0.002457 331.20795 435.96786
443.0 0.002257 331.19986 457.55969
478.0 0.002092 331.19196 487.92746
568.0 0.001761 331.18417 520.20624
531.0 0.001883 331.17645 540.98309
512.0 0.001953 331.16891 538.32709
436.0 0.002294 331.16150 515.67871
448.0 0.002232 331.15417 487.63782
412.0 0.002427 331.14691 466.41299
444.0 0.002252 331.13983 455.73773
435.0 0.002299 331.13281 455.54724
484.0 0.002066 331.12607 465.47836
499.0 0.002004 331.11929 482.98648
540.0 0.001852 331.11261 497.88419
494.0 0.002024 331.10611 495.77798
441.0 0.002268 331.09979 475.17261
432.0 0.002315 331.09348 448.00525
377.0 0.002653 331.08734 423.72272
369.0 0.002710 331.08133 406.49719
376.0 0.002660 331.07550 397.69366
372.0 0.002688 331.06967 397.01099
392.0 0.002551 331.06396 402.62653
386.0 0.002591 331.05838 410.54871
401.0 0.002494 331.05298 414.52740
396.0 0.002525 331.04767 410.48312
390.0 0.002564 331.04245 402.11569
402.0 0.002488 331.03738 395.52374
392.0 0.002551 331.03250 393.18719
389.0 0.002571 331.02762 394.76163
401.0 0.002494 331.02289 398.69159
393.0 0.002545 331.01837 404.38635
399.0 0.002506 331.01392 411.75629
437.0 0.002288 331.00958 417.34311
436.0 0.002294 331.00537 414.73196
409.0 0.002445 331.00125 403.02548
397.0 0.002519 330.99725 388.33337
374.0 0.002674 330.99344 375.68448
353.0 0.002833 330.98969 366.79849
371.0 0.002695 330.98608 361.61194
364.0 0.002747 330.98260 359.11786
350.0 0.002857 330.97931 358.97797
366.0 0.002732 330.97604 360.03705
351.0 0.002849 330.97293 362.02106
366.0 0.002732 330.96991 365.48904
336.0 0.002976 330.96707 370.85623
358.0 0.002793 330.96439 377.53699
404.0 0.002475 330.96173 383.92657
366.0 0.002732 330.95926 389.47754
388.0 0.002577 330.95685 396.58771
422.0 0.002370 330.95459 408.39798
447.0 0.002237 330.95251 426.50262
507.0 0.001972 330.95053 448.90018
524.0 0.001908 330.94867 467.09177
421.0 0.002375 330.94693 468.28775
407.0 0.002457 330.94537 450.21939
374.0 0.002674 330.94388 424.35938
375.0 0.002667 330.94247 400.63708
376.0 0.002660 330.94125 383.32239
371.0 0.002695 330.94016 372.31345
381.0 0.002625 330.93912 366.60544
384.0 0.002604 330.93832 364.66861
375.0 0.002667 330.93756 365.50247
387.0 0.002584 330.93695 368.72491
388.0 0.002577 330.93652 374.07706
395.0 0.002532 330.93616 380.40958
420.0 0.002381 330.93591 385.27625
392.0 0.002551 330.93585 388.46509
386.0 0.002591 330.93585 392.44971
413.0 0.002421 330.93600 401.47861
428.0 0.002336 330.93625 418.25995
473.0 0.002114 330.93671 442.86719
474.0 0.002110 330.93726 470.67218
488.0 0.002049 330.93790 490.77847
478.0 0.002092 330.93875 492.00809
459.0 0.002179 330.93970 476.46527
461.0 0.002169 330.94077 455.57977
439.0 0.002278 330.94196 436.00818
393.0 0.002545 330.94321 416.92841
386.0 0.002591 330.94470 398.46658
368.0 0.002717 330.94623 383.04782
373.0 0.002681 330.94794 372.02209
368.0 0.002717 330.94977 365.13641
356.0 0.002809 330.95172 361.56165
348.0 0.002874 330.95383 360.27426
346.0 0.002890 330.95609 359.89444
375.0 0.002667 330.95831 360.00244
391.0 0.002558 330.96088 360.47595
386.0 0.002591 330.96344 362.41287
377.0 0.002653 330.96628 366.72314
389.0 0.002571 330.96909 373.87057
387.0 0.002584 330.97205 383.24561
412.0 0.002427 330.97522 392.53329
405.0 0.002469 330.97852 398.21899
410.0 0.002439 330.98187 398.50348
445.0 0.002247 330.98541 395.96805
411.0 0.002433 330.98904 393.70413
384.0 0.002604 330.99283 391.67206
383.0 0.002611 330.99673 389.15909
380.0 0.002632 331.00076 386.39590
385.0 0.002597 331.00497 383.09888
358.0 0.002793 331.00934 377.84235
369.0 0.002710 331.01376 372.03497
371.0 0.002695 331.01831 368.09628
354.0 0.002825 331.02301 367.32813
390.0 0.002564 331.02780 369.39557
401.0 0.002494 331.03278 372.86514
372.0 0.002688 331.03790 374.94406
374.0 0.002674 331.04315 375.13428
378.0 0.002646 331.04846 373.40277
377.0 0.002653 331.05399 369.50162
349.0 0.002865 331.05963 364.14728
391.0 0.002558 331.06543 358.78476
363.0 0.002755 331.07129 354.69824
356.0 0.002809 331.07736 352.32742
410.0 0.002439 331.08353 351.95166
369.0 0.002710 331.08981 353.31619
348.0 0.002874 331.09622 355.90811
380.0 0.002632 331.10284 358.98111
382.0 0.002618 331.10944 361.57574
363.0 0.002755 331.11630 361.80386
382.0 0.002618 331.12329 359.58066
366.0 0.002732 331.13037 356.62454
352.0 0.002841 331.13760 354.65280
338.0 0.002959 331.14490 354.43851
341.0 0.002933 331.15250 355.54266
380.0 0.002632 331.16013 357.29706
380.0 0.002632 331.16791 358.70990
377.0 0.002653 331.17572 359.29489
369.0 0.002710 331.18375 358.69550
355.0 0.002817 331.19196 356.59070
354.0 0.002825 331.20026 353.58105
355.0 0.002817 331.20868 350.90344
353.0 0.002833 331.21725 349.43588
372.0 0.002688 331.22595 349.36395
370.0 0.002703 331.23480 350.82721
357.0 0.002801 331.24377 353.77396
341.0 0.002933 331.25287 358.02167
365.0 0.002740 331.26215 363.57486
401.0 0.002494 331.27151 370.64435
387.0 0.002584 331.28101 378.72922
371.0 0.002695 331.29065 385.37244
398.0 0.002513 331.30048 387.18140
413.0 0.002421 331.31036 382.94864
391.0 0.002558 331.32047 375.80557
367.0 0.002725 331.33063 369.61447
357.0 0.002801 331.34094 366.39670
371.0 0.002695 331.35138 366.77679
382.0 0.002618 331.36203 371.00082
399.0 0.002506 331.37274 378.94125
425.0 0.002353 331.38361 389.81042
465.0 0.002151 331.39465 401.93637
463.0 0.002160 331.40576 412.17838
460.0 0.002174 331.41696 418.92392
467.0 0.002141 331.42841 423.41455
457.0 0.002188 331.44000 426.62448
452.0 0.002212 331.45166 427.83862
423.0 0.002364 331.46347 427.54468
454.0 0.002203 331.47543 427.30554
431.0 0.002320 331.48752 427.54547
421.0 0.002375 331.49982 428.86203
410.0 0.002439 331.51212 432.49329
432.0 0.002315 331.52463 437.40433
441.0 0.002268 331.53732 441.40591
423.0 0.002364 331.55005 442.55496
436.0 0.002294 331.56290 441.45361
460.0 0.002174 331.57596 441.14883
436.0 0.002294 331.58914 442.53314
433.0 0.002309 331.60248 443.49533
425.0 0.002353 331.61594 443.74783
434.0 0.002304 331.62949 446.68930
453.0 0.002208 331.64322 455.42279
492.0 0.002033 331.65710 468.94449
514.0 0.001946 331.67114 483.34705
472.0 0.002119 331.68521 492.94858
477.0 0.002096 331.69946 491.15768
439.0 0.002278 331.71393 476.11841
424.0 0.002358 331.72845 454.82547
445.0 0.002247 331.74316 434.84073
392.0 0.002551 331.75797 419.53815
391.0 0.002558 331.77298 409.32468
416.0 0.002404 331.78802 405.04846
422.0 0.002370 331.80328 405.85403
412.0 0.002427 331.81870 409.38144
420.0 0.002381 331.83417 412.21298
400.0 0.002500 331.84982 412.87186
391.0 0.002558 331.86554 412.58774
389.0 0.002571 331.88147 412.73816
403.0 0.002481 331.89752 413.53198
419.0 0.002387 331.91376 416.16534
408.0 0.002451 331.93005 423.85022
422.0 0.002370 331.94647 439.83206
501.0 0.001996 331.96307 465.28860
528.0 0.001894 331.97986 498.01291
564.0 0.001773 331.99670 530.33014
538.0 0.001859 332.01376 550.14343
523.0 0.001912 332.03088 549.54651
532.0 0.001880 332.04813 533.45782
474.0 0.002110 332.06564 511.32535
452.0 0.002212 332.08322 489.15897
457.0 0.002188 332.10086 469.65497
454.0 0.002203 332.11877 454.76410
443.0 0.002257 332.13666 444.43124
405.0 0.002469 332.15482 435.37582
393.0 0.002545 332.17300 423.75504
396.0 0.002525 332.19138 409.85278
390.0 0.002564 332.20996 396.95712
387.0 0.002584 332.22861 387.06195
386.0 0.002591 332.24741 381.34732
393.0 0.002545 332.26636 380.06555
389.0 0.002571 332.28543 383.62451
389.0 0.002571 332.30460 392.30597
415.0 0.002410 332.32391 406.33740
435.0 0.002299 332.34351 425.04593
459.0 0.002179 332.36304 445.74789
511.0 0.001957 332.38287 462.18930
483.0 0.002070 332.40271 468.25443
472.0 0.002119 332.42270 464.82541
464.0 0.002155 332.44290 456.60297
415.0 0.002410 332.46326 446.31412
431.0 0.002320 332.48364 434.89520
425.0 0.002353 332.50424 425.08289
424.0 0.002358 332.52490 418.67303
432.0 0.002315 332.54581 415.74033
419.0 0.002387 332.56674 415.08273
425.0 0.002353 332.58792 416.93375
406.0 0.002463 332.60916 422.47214
434.0 0.002304 332.63055 431.63284
431.0 0.002320 332.65216 439.83887
453.0 0.002208 332.67377 440.07693
393.0 0.002545 332.69562 430.32776
404.0 0.002475 332.71753 415.87128
414.0 0.002415 332.73956 402.40344
387.0 0.002584 332.76184 392.47290
421.0 0.002375 332.78424 386.64053
410.0 0.002439 332.80673 383.75174
374.0 0.002674 332.82938 381.87164
411.0 0.002433 332.85205 380.28201
414.0 0.002415 332.87494 379.43289
425.0 0.002353 332.89804 379.74936
378.0 0.002646 332.92126 381.42343
405.0 0.002469 332.94452 385.80969
406.0 0.002463 332.96799 394.82748
399.0 0.002506 332.99158 410.44379
470.0 0.002128 333.01526 433.60983
494.0 0.002024 333.03922 463.40274
545.0 0.001835 333.06317 494.47250
551.0 0.001815 333.08728 515.56891
530.0 0.001887 333.11151 516.28333
479.0 0.002088 333.13596 497.67249
418.0 0.002392 333.16055 469.39212
382.0 0.002618 333.18524 440.95377
400.0 0.002500 333.20996 417.60559
402.0 0.002488 333.23492 401.09729
406.0 0.002463 333.26001 390.95105
386.0 0.002591 333.28525 385.17502
372.0 0.002688 333.31061 381.07755
367.0 0.002725 333.33609 377.29724
369.0 0.002710 333.36166 374.10654
368.0 0.002717 333.38742 372.78528
352.0 0.002841 333.41336 374.40988
361.0 0.002770 333.43942 379.93021
381.0 0.002625 333.46558 390.17972
406.0 0.002463 333.49185 405.59814
430.0 0.002326 333.51828 425.22620
449.0 0.002227 333.54489 445.43521
484.0 0.002066 333.57162 459.92090
485.0 0.002062 333.59836 463.62247
467.0 0.002141 333.62543 455.38297
454.0 0.002203 333.65250 438.13943
405.0 0.002469 333.67981 418.84946
383.0 0.002611 333.70721 402.97375
367.0 0.002725 333.73465 392.68903
373.0 0.002681 333.76230 388.30261
374.0 0.002674 333.79013 389.64368
396.0 0.002525 333.81799 396.24588
412.0 0.002427 333.84610 406.99051
386.0 0.002591 333.87427 419.74182
462.0 0.002165 333.90265 431.42523
473.0 0.002114 333.93109 438.50601
413.0 0.002421 333.95969 438.71664
370.0 0.002703 333.98837 433.72784
404.0 0.002475 334.01724 429.00272
417.0 0.002398 334.04620 429.17169
460.0 0.002174 334.07538 436.23804
492.0 0.002033 334.10464 449.39255
455.0 0.002198 334.13406 464.19595
469.0 0.002132 334.16351 472.87393
433.0 0.002309 334.19324 468.93695
380.0 0.002632 334.22299 453.18634
411.0 0.002433 334.25299 433.05975
385.0 0.002597 334.28299 415.71732
376.0 0.002660 334.31323 404.61923
391.0 0.002558 334.34360 400.57358
445.0 0.002247 334.37399 402.67090
430.0 0.002326 334.40466 409.06946
418.0 0.002392 334.43536 415.72147
419.0 0.002387 334.46616 419.17072
418.0 0.002392 334.49719 418.87021
397.0 0.002519 334.52832 416.18503
424.0 0.002358 334.55954 411.44089
399.0 0.002506 334.59097 404.44077
397.0 0.002519 334.62247 396.25900
411.0 0.002433 334.65414 389.29337
402.0 0.002488 334.68588 385.27621
386.0 0.002591 334.71783 385.02231
359.0 0.002786 334.74988 388.17880
374.0 0.002674 334.78204 392.94293
384.0 0.002604 334.81439 395.77237
375.0 0.002667 334.84683 393.40952
364.0 0.002747 334.87946 386.31848
366.0 0.002732 334.91211 377.83606
382.0 0.002618 334.94492 370.59045
379.0 0.002639 334.97791 366.18478
365.0 0.002740 335.01102 364.53412
351.0 0.002849 335.04422 365.19125
355.0 0.002817 335.07767 366.72018
382.0 0.002618 335.11115 367.11066
377.0 0.002653 335.14471 365.04306
363.0 0.002755 335.17850 361.15543
376.0 0.002660 335.21234 356.95776
369.0 0.002710 335.24637 353.36481
371.0 0.002695 335.28046 350.62131
360.0 0.002778 335.31479 348.51202
362.0 0.002762 335.34915 346.92459
341.0 0.002933 335.38376 345.88434
349.0 0.002865 335.41843 345.42517
371.0 0.002695 335.45313 345.69574
346.0 0.002890 335.48810 346.33200
397.0 0.002519 335.52313 347.39264
368.0 0.002717 335.55832 348.64185
361.0 0.002770 335.59369 349.65640
359.0 0.002786 335.62903 350.41690
350.0 0.002857 335.66458 350.92120
360.0 0.002778 335.70032 351.87088
348.0 0.002874 335.73615 353.68863
384.0 0.002604 335.77213 356.52197
394.0 0.002538 335.80817 359.87088
428.0 0.002336 335.84442 362.35733
356.0 0.002809 335.88074 362.29236
333.0 0.003003 335.91724 359.50943
352.0 0.002841 335.95380 355.55673
337.0 0.002967 335.99048 351.89536
348.0 0.002874 336.02734 349.11325
345.0 0.002899 336.06427 347.49442
343.0 0.002915 336.10144 346.92065
370.0 0.002703 336.13864 347.60403
371.0 0.002695 336.17593 349.51517
360.0 0.002778 336.21347 352.78171
346.0 0.002890 336.25104 357.33765
394.0 0.002538 336.28885 362.70471
414.0 0.002415 336.32663 367.63034
415.0 0.002410 336.36462 369.89719
398.0 0.002513 336.40277 368.33823
373.0 0.002681 336.44092 364.28458
391.0 0.002558 336.47937 360.05698
364.0 0.002747 336.51779 356.92020
337.0 0.002967 336.55643 355.28452
334.0 0.002994 336.59521 354.84836
372.0 0.002688 336.63397 354.75589
369.0 0.002710 336.67300 353.95166
364.0 0.002747 336.71213 352.13431
371.0 0.002695 336.75131 349.90900
358.0 0.002793 336.79074 347.87659
355.0 0.002817 336.83014 346.57248
366.0 0.002732 336.86975 345.75833
348.0 0.002874 336.90952 345.51666
342.0 0.002924 336.94937 345.93515
329.0 0.003040 336.98932 347.01422
332.0 0.003012 337.02939 348.81516
348.0 0.002874 337.06964 351.39047
395.0 0.002532 337.11005 354.66528
398.0 0.002513 337.15042 358.34387
382.0 0.002618 337.19104 361.69351
359.0 0.002786 337.23175 364.32422
365.0 0.002740 337.27261 367.00552
383.0 0.002611 337.31357 370.74701
379.0 0.002639 337.35464 375.43796
377.0 0.002653 337.39584 379.52289
384.0 0.002604 337.43723 380.36484
386.0 0.002591 337.47864 376.93253
376.0 0.002660 337.52023 371.12915
365.0 0.002740 337.56186 365.37366
350.0 0.002857 337.60367 360.83649
341.0 0.002933 337.64563 357.89200
357.0 0.002801 337.68768 356.61755
377.0 0.002653 337.72989 356.78925
366.0 0.002732 337.77209 358.41098
376.0 0.002660 337.81464 361.73480
383.0 0.002611 337.85706 367.05414
387.0 0.002584 337.89972 375.23785
395.0 0.002532 337.94250 386.87564
394.0 0.002538 337.98538 401.80832
424.0 0.002358 338.02841 418.31647
461.0 0.002169 338.07150 432.40384
479.0 0.002088 338.11481 439.41263
460.0 0.002174 338.15823 437.19263
401.0 0.002494 338.20166 427.79846
424.0 0.002358 338.24527 415.52954
442.0 0.002262 338.28903 403.79358
398.0 0.002513 338.33286 393.38721
346.0 0.002890 338.37680 383.98792
371.0 0.002695 338.42078 375.86584
348.0 0.002874 338.46506 369.61411
356.0 0.002809 338.50934 365.33612
402.0 0.002488 338.55386 362.72845
361.0 0.002770 338.59836 361.14069
360.0 0.002778 338.64294 360.13696
345.0 0.002899 338.68781 359.69604
369.0 0.002710 338.73270 360.12100
386.0 0.002591 338.77768 361.88742
351.0 0.002849 338.82291 365.38641
365.0 0.002740 338.86801 371.13135
393.0 0.002545 338.91342 379.34164
433.0 0.002309 338.95889 389.52841
404.0 0.002475 339.00446 400.05624
414.0 0.002415 339.05026 408.14648
423.0 0.002364 339.09601 411.14359
421.0 0.002375 339.14197 408.23901
409.0 0.002445 339.18799 401.27942
410.0 0.002439 339.23416 392.75812
393.0 0.002545 339.28052 384.79858
374.0 0.002674 339.32681 378.37161
379.0 0.002639 339.37329 373.93781
373.0 0.002681 339.41998 371.60410
355.0 0.002817 339.46667 371.48672
371.0 0.002695 339.51355 374.00836
390.0 0.002564 339.56052 379.56595
397.0 0.002519 339.60760 388.48700
407.0 0.002457 339.65469 400.76157
440.0 0.002273 339.70209 415.61804
461.0 0.002169 339.74945 430.41782
443.0 0.002257 339.79697 440.03986
426.0 0.002347 339.84467 439.63123
407.0 0.002457 339.89233 430.44229
400.0 0.002500 339.94022 418.70410
419.0 0.002387 339.98816 409.50311
428.0 0.002336 340.03619 404.84515
415.0 0.002410 340.08444 404.44342
437.0 0.002288 340.13272 406.13272
428.0 0.002336 340.18118 406.90063
405.0 0.002469 340.22971 404.72318
403.0 0.002481 340.27826 399.87604
417.0 0.002398 340.32700 394.27423
401.0 0.002494 340.37589 389.72739
380.0 0.002632 340.42490 386.74652
368.0 0.002717 340.47394 386.32016
388.0 0.002577 340.52304 389.39526
423.0 0.002364 340.57233 396.43887
415.0 0.002410 340.62180 407.36807
396.0 0.002525 340.67126 421.08859
444.0 0.002252 340.72092 435.25906
477.0 0.002096 340.77051 447.82010
443.0 0.002257 340.82040 458.10254
501.0 0.001996 340.87030 464.99658
470.0 0.002128 340.92038 466.23651
406.0 0.002463 340.97052 460.31009
408.0 0.002451 341.02069 447.85468
400.0 0.002500 341.07114 432.63797
421.0 0.002375 341.12155 419.35257
405.0 0.002469 341.17218 410.37473
411.0 0.002433 341.22281 405.76337
380.0 0.002632 341.27362 404.30426
400.0 0.002500 341.32449 404.48312
408.0 0.002451 341.37555 405.22333
412.0 0.002427 341.42657 405.04120
359.0 0.002786 341.47781 402.22736
395.0 0.002532 341.52908 396.57239
394.0 0.002538 341.58054 390.40942
386.0 0.002591 341.63205 385.88089
386.0 0.002591 341.68365 383.84183
371.0 0.002695 341.73541 384.20111
370.0 0.002703 341.78717 385.97366
403.0 0.002481 341.83914 387.77829
356.0 0.002809 341.89111 388.96713
358.0 0.002793 341.94336 390.15347
389.0 0.002571 341.99561 391.94522
390.0 0.002564 342.04785 393.73300
406.0 0.002463 342.10034 393.89551
390.0 0.002564 342.15286 391.72025
370.0 0.002703 342.20557 388.72305
367.0 0.002725 342.25830 387.23193
378.0 0.002646 342.31110 388.81952
397.0 0.002519 342.36404 394.61096
410.0 0.002439 342.41711 404.58588
434.0 0.002304 342.47034 418.14291
450.0 0.002222 342.52350 433.61673
468.0 0.002137 342.57684 447.10773
453.0 0.002208 342.63031 452.95499
443.0 0.002257 342.68390 447.46152
430.0 0.002326 342.73755 433.45639
386.0 0.002591 342.79129 416.55344
366.0 0.002732 342.84509 400.74191
361.0 0.002770 342.89911 387.95346
396.0 0.002525 342.95309 378.62469
401.0 0.002494 343.00726 372.32446
344.0 0.002907 343.06165 368.39935
354.0 0.002825 343.11591 366.11194
348.0 0.002874 343.17038 365.35922
350.0 0.002857 343.22482 365.76932
379.0 0.002639 343.27957 367.34592
374.0 0.002674 343.33426 370.15140
373.0 0.002681 343.38904 374.49423
428.0 0.002336 343.44403 380.77289
420.0 0.002381 343.49896 389.34958
418.0 0.002392 343.55417 400.36288
413.0 0.002421 343.60938 413.64578
427.0 0.002342 343.66467 429.66144
426.0 0.002347 343.72015 449.26715
504.0 0.001984 343.77557 471.84769
514.0 0.001946 343.83121 493.54874
518.0 0.001931 343.88687 507.28503
492.0 0.002033 343.94260 506.51111
437.0 0.002288 343.99854 490.57095
418.0 0.002392 344.05453 466.31586
392.0 0.002551 344.11063 441.71967
423.0 0.002364 344.16681 421.44531
369.0 0.002710 344.22296 406.67499
388.0 0.002577 344.27936 396.74670
368.0 0.002717 344.33575 389.78162
402.0 0.002488 344.39233 384.36224
403.0 0.002481 344.44897 379.80255
353.0 0.002833 344.50565 376.46188
341.0 0.002933 344.56247 374.65829
376.0 0.002660 344.61932 374.53149
397.0 0.002519 344.67645 376.12949
384.0 0.002604 344.73349 379.31320
415.0 0.002410 344.79065 383.61319
370.0 0.002703 344.84793 388.34915
404.0 0.002475 344.90527 393.21408
426.0 0.002347 344.96274 399.02319
392.0 0.002551 345.02026 406.91150
428.0 0.002336 345.07785 416.81454
435.0 0.002299 345.13562 426.67465
463.0 0.002160 345.19339 432.55209
407.0 0.002457 345.25134 431.39639
390.0 0.002564 345.30933 423.76773
408.0 0.002451 345.36731 412.80484
394.0 0.002538 345.42557 401.84021
383.0 0.002611 345.48373 392.99106
378.0 0.002646 345.54221 386.96298
370.0 0.002703 345.60065 383.30460
366.0 0.002732 345.65909 381.20108
378.0 0.002646 345.71768 380.04572
387.0 0.002584 345.77640 379.44073
382.0 0.002618 345.83521 379.41599
387.0 0.002584 345.89410 380.26309
382.0 0.002618 345.95297 382.70654
385.0 0.002597 346.01208 387.46686
376.0 0.002660 346.07117 394.96436
388.0 0.002577 346.13037 405.03732
420.0 0.002381 346.18961 416.65714
440.0 0.002273 346.24905 428.05157
452.0 0.002212 346.30853 437.29819
472.0 0.002119 346.36807 443.48282
466.0 0.002146 346.42776 445.47684
438.0 0.002283 346.48749 443.06116
414.0 0.002415 346.54721 436.37390
402.0 0.002488 346.60715 426.23529
391.0 0.002558 346.66711 414.21893
391.0 0.002558 346.72720 402.37897
379.0 0.002639 346.78735 392.58563
386.0 0.002591 346.84747 385.71500
382.0 0.002618 346.90787 381.83508
381.0 0.002625 346.96823 380.59424
368.0 0.002717 347.02875 381.39594
372.0 0.002688 347.08926 383.53705
410.0 0.002439 347.14987 386.37671
398.0 0.002513 347.21060 389.34866
373.0 0.002681 347.27142 391.46207
386.0 0.002591 347.33228 392.49493
360.0 0.002778 347.39325 393.40659
393.0 0.002545 347.45432 395.71524
435.0 0.002299 347.51547 400.24698
405.0 0.002469 347.57666 406.77045
441.0 0.002268 347.63797 414.21652
425.0 0.002353 347.69934 421.30292
445.0 0.002247 347.76074 426.01663
461.0 0.002169 347.82224 426.67410
421.0 0.002375 347.88382 422.84537
398.0 0.002513 347.94559 415.98883
402.0 0.002488 348.00735 408.68423
385.0 0.002597 348.06915 403.21234
387.0 0.002584 348.13107 401.21414
382.0 0.002618 348.19305 403.81488
411.0 0.002433 348.25522 411.66046
447.0 0.002237 348.31738 424.31519
485.0 0.002062 348.37955 440.50238
508.0 0.001969 348.44183 457.03180
460.0 0.002174 348.50427 468.57263
486.0 0.002058 348.56677 470.51904
483.0 0.002070 348.62927 462.98447
453.0 0.002208 348.69186 450.56900
386.0 0.002591 348.75458 438.38046
400.0 0.002500 348.81735 429.78830
453.0 0.002208 348.88022 425.79965
473.0 0.002114 348.94312 425.28165
460.0 0.002174 349.00607 425.26294
413.0 0.002421 349.06924 422.63373
399.0 0.002506 349.13232 416.78949
411.0 0.002433 349.19556 409.11548
401.0 0.002494 349.25888 401.23074
382.0 0.002618 349.32217 394.03217
397.0 0.002519 349.38568 388.50024
382.0 0.002618 349.44919 385.29196
370.0 0.002703 349.51279 384.67200
389.0 0.002571 349.57642 386.54669
408.0 0.002451 349.64014 390.72031
397.0 0.002519 349.70395 396.90750
409.0 0.002445 349.76785 404.75128
414.0 0.002415 349.83191 413.93851
430.0 0.002326 349.89590 423.02234
464.0 0.002155 349.95990 429.46790
468.0 0.002137 350.02414 431.04425
449.0 0.002227 350.08838 427.51053
395.0 0.002532 350.15268 420.63065
367.0 0.002725 350.21716 412.72989
387.0 0.002584 350.28159 406.17221
393.0 0.002545 350.34610 401.94739
368.0 0.002717 350.41068 399.42191
406.0 0.002463 350.47540 396.81992
404.0 0.002475 350.54013 392.75638
399.0 0.002506 350.60489 387.38635
394.0 0.002538 350.66980 382.03082
373.0 0.002681 350.73480 377.58887
396.0 0.002525 350.79980 374.40045
396.0 0.002525 350.86493 372.54581
377.0 0.002653 350.93005 371.83655
343.0 0.002915 350.99536 372.11447
391.0 0.002558 351.06064 373.29990
409.0 0.002445 351.12601 375.42410
348.0 0.002874 351.19147 378.55206
386.0 0.002591 351.25693 382.82043
425.0 0.002353 351.32248 388.38156
422.0 0.002370 351.38815 394.87094
399.0 0.002506 351.45386 401.12436
388.0 0.002577 351.51968 405.03015
373.0 0.002681 351.58545 405.13812
436.0 0.002294 351.65143 401.94055
419.0 0.002387 351.71732 397.06201
377.0 0.002653 351.78342 391.93488
374.0 0.002674 351.84955 387.19153
367.0 0.002725 351.91571 383.64304
407.0 0.002457 351.98196 381.26666
393.0 0.002545 352.04825 380.53171
380.0 0.002632 352.11469 381.64966
361.0 0.002770 352.18112 384.92758
399.0 0.002506 352.24753 390.69812
391.0 0.002558 352.31418 399.28180
407.0 0.002457 352.38083 410.60034
450.0 0.002222 352.44754 424.26010
446.0 0.002242 352.51428 439.28720
479.0 0.002088 352.58105 453.43234
465.0 0.002151 352.64804 462.93127
453.0 0.002208 352.71497 464.72125
439.0 0.002278 352.78207 460.10165
413.0 0.002421 352.84918 452.23956
421.0 0.002375 352.91623 444.71661
431.0 0.002320 352.98349 439.04333
400.0 0.002500 353.05066 434.37598
382.0 0.002618 353.11813 428.72998
394.0 0.002538 353.18552 421.03653
401.0 0.002494 353.25293 412.01694
386.0 0.002591 353.32050 403.12689
374.0 0.002674 353.38809 395.35422
382.0 0.002618 353.45581 389.50967
384.0 0.002604 353.52356 385.93198
374.0 0.002674 353.59128 384.65460
394.0 0.002538 353.65912 385.38437
389.0 0.002571 353.72699 388.18613
376.0 0.002660 353.79498 392.93567
404.0 0.002475 353.86307 399.25491
423.0 0.002364 353.93103 406.45816
407.0 0.002457 353.99924 413.99265
443.0 0.002257 354.06744 421.65219
469.0 0.002132 354.13577 428.96152
445.0 0.002247 354.20416 434.33331
439.0 0.002278 354.27240 436.62375
448.0 0.002232 354.34091 436.54297
452.0 0.002212 354.40939 436.05911
442.0 0.002262 354.47803 437.38107
484.0 0.002066 354.54663 441.15741
482.0 0.002075 354.61533 445.90610
490.0 0.002041 354.68411 448.20834
458.0 0.002183 354.75290 445.06882
429.0 0.002331 354.82178 436.94528
411.0 0.002433 354.89069 426.89517
398.0 0.002513 354.95959 417.57803
388.0 0.002577 355.02863 410.25702
417.0 0.002398 355.09772 404.87527
402.0 0.002488 355.16702 400.92511
399.0 0.002506 355.23621 398.04431
432.0 0.002315 355.30545 395.87735
390.0 0.002564 355.37485 394.42688
390.0 0.002564 355.44415 393.69794
391.0 0.002558 355.51364 393.64896
405.0 0.002469 355.58319 394.21289
366.0 0.002732 355.65268 395.58527
419.0 0.002387 355.72235 398.22824
418.0 0.002392 355.79199 402.70682
417.0 0.002398 355.86176 409.81482
411.0 0.002433 355.93158 420.68399
433.0 0.002309 356.00134 436.69534
493.0 0.002028 356.07132 458.90869
546.0 0.001832 356.14127 487.55142
637.0 0.001570 356.21130 521.28333
692.0 0.001445 356.28137 555.93506
684.0 0.001462 356.35153 584.61011
643.0 0.001555 356.42172 601.17236
616.0 0.001623 356.49194 602.92346
559.0 0.001789 356.56223 589.75250
498.0 0.002008 356.63263 564.03522
447.0 0.002237 356.70297 531.79681
461.0 0.002169 356.77350 499.30350
436.0 0.002294 356.84396 470.62750
418.0 0.002392 356.91461 447.37607
414.0 0.002415 356.98526 430.02805
408.0 0.002451 357.05585 417.88962
408.0 0.002451 357.12671 410.00446
417.0 0.002398 357.19742 405.98593
420.0 0.002381 357.26837 404.48047
410.0 0.002439 357.33926 405.03024
398.0 0.002513 357.41016 406.86130
409.0 0.002445 357.48117 409.56583
442.0 0.002262 357.55225 413.47992
446.0 0.002242 357.62341 419.74164
435.0 0.002299 357.69458 429.68048
449.0 0.002227 357.76575 444.09509
508.0 0.001969 357.83707 463.11484
555.0 0.001802 357.90842 485.93982
574.0 0.001742 357.97986 510.13358
556.0 0.001799 358.05127 532.35370
588.0 0.001701 358.12268 549.39014
591.0 0.001692 358.19424 558.61743
520.0 0.001923 358.26590 556.79053
499.0 0.002004 358.33752 542.30341
471.0 0.002123 358.40933 518.65381
458.0 0.002183 358.48096 492.62949
409.0 0.002445 358.55286 469.83383
393.0 0.002545 358.62469 453.42908
424.0 0.002358 358.69662 444.45145
420.0 0.002381 358.76865 442.70444
481.0 0.002079 358.84058 447.27020
484.0 0.002066 358.91269 456.04095
498.0 0.002008 358.98483 465.64648
486.0 0.002058 359.05704 470.98846
467.0 0.002141 359.12927 468.25427
452.0 0.002212 359.20157 457.97394
431.0 0.002320 359.27390 444.14630
427.0 0.002342 359.34622 430.77762
374.0 0.002674 359.41873 420.28992
416.0 0.002404 359.49127 413.45102
421.0 0.002375 359.56369 410.27060
433.0 0.002309 359.63638 410.30005
417.0 0.002398 359.70901 412.85449
425.0 0.002353 359.78177 417.26093
402.0 0.002488 359.85455 422.71356
413.0 0.002421 359.92722 427.81616
451.0 0.002217 360.00018 430.29031
412.0 0.002427 360.07306 428.22845
403.0 0.002481 360.14603 422.16580
411.0 0.002433 360.21906 414.66159
396.0 0.002525 360.29205 408.06744
395.0 0.002532 360.36526 403.86594
387.0 0.002584 360.43842 402.31860
415.0 0.002410 360.51163 403.64536
413.0 0.002421 360.58490 407.49640
434.0 0.002304 360.65814 413.00073
432.0 0.002315 360.73160 418.55133
423.0 0.002364 360.80496 421.93790
408.0 0.002451 360.87845 421.74854
408.0 0.002451 360.95203 418.66550
418.0 0.002392 361.02551 414.64526
371.0 0.002695 361.09918 411.30191
369.0 0.002710 361.17282 409.83435
413.0 0.002421 361.24661 410.69916
442.0 0.002262 361.32034 413.92404
439.0 0.002278 361.39417 419.85349
421.0 0.002375 361.46805 427.46106
413.0 0.002421 361.54196 435.72400
420.0 0.002381 361.61603 444.04767
438.0 0.002283 361.69003 452.42978
444.0 0.002252 361.76404 460.92392
465.0 0.002151 361.83820 468.49265
479.0 0.002088 361.91241 474.03506
468.0 0.002137 361.98666 476.55600
476.0 0.002101 362.06097 474.54050
437.0 0.002288 362.13522 466.77954
381.0 0.002625 362.20966 454.49512
386.0 0.002591 362.28400 441.43527
398.0 0.002513 362.35858 430.63483
405.0 0.002469 362.43320 423.70285
399.0 0.002506 362.50766 421.12003
416.0 0.002404 362.58237 422.62665
449.0 0.002227 362.65698 427.39996
476.0 0.002101 362.73178 433.83951
443.0 0.002257 362.80661 439.76501
457.0 0.002188 362.88135 443.13788
443.0 0.002257 362.95630 443.13254
453.0 0.002208 363.03122 440.52631
458.0 0.002183 363.10629 436.54114
423.0 0.002364 363.18134 432.25745
381.0 0.002625 363.25632 428.50967
405.0 0.002469 363.33157 425.55725
447.0 0.002237 363.40665 423.83087
427.0 0.002342 363.48203 423.41550
379.0 0.002639 363.55728 424.42258
417.0 0.002398 363.63254 426.47690
425.0 0.002353 363.70801 428.64658
420.0 0.002381 363.78348 430.08081
389.0 0.002571 363.85901 429.60394
395.0 0.002532 363.93454 426.30634
416.0 0.002404 364.01004 420.51709
373.0 0.002681 364.08578 413.79965
409.0 0.002445 364.16150 407.78207
433.0 0.002309 364.23727 403.43558
394.0 0.002538 364.31314 401.23514
411.0 0.002433 364.38889 401.30072
416.0 0.002404 364.46484 403.25778
390.0 0.002564 364.54080 406.38232
437.0 0.002288 364.61685 409.83786
417.0 0.002398 364.69290 412.67014
415.0 0.002410 364.76889 414.56952
433.0 0.002309 364.84518 415.89200
460.0 0.002174 364.92133 417.66788
470.0 0.002128 364.99768 420.53485
468.0 0.002137 365.07404 425.01270
463.0 0.002160 365.15030 430.85327
472.0 0.002119 365.22681 436.89301
461.0 0.002169 365.30328 440.64688
446.0 0.002242 365.37976 439.50760
401.0 0.002494 365.45645 433.41269
375.0 0.002667 365.53296 424.89188
374.0 0.002674 365.60971 416.34750
399.0 0.002506 365.68640 409.30493
425.0 0.002353 365.76328 404.34225
422.0 0.002370 365.84015 401.55063
400.0 0.002500 365.91696 400.75696
380.0 0.002632 365.99390 401.81494
386.0 0.002591 366.07089 404.58032
437.0 0.002288 366.14798 408.74133
416.0 0.002404 366.22513 413.59344
392.0 0.002551 366.30222 417.99234
415.0 0.002410 366.37955 420.73114
412.0 0.002427 366.45676 421.95874
410.0 0.002439 366.53409 423.19168
416.0 0.002404 366.61151 425.92276
431.0 0.002320 366.68887 430.82715
439.0 0.002278 366.76645 437.46533
452.0 0.002212 366.84390 443.95895
445.0 0.002247 366.92157 447.82773
450.0 0.002222 366.99924 447.80762
439.0 0.002278 367.07681 444.69965
415.0 0.002410 367.15463 439.63837
439.0 0.002278 367.23239 433.24524
412.0 0.002427 367.31030 425.34445
406.0 0.002463 367.38828 416.82397
447.0 0.002237 367.46613 409.11572
471.0 0.002123 367.54425 402.80661
377.0 0.002653 367.62231 398.36798
405.0 0.002469 367.70050 395.72537
391.0 0.002558 367.77866 394.45834
404.0 0.002475 367.85687 394.49890
380.0 0.002632 367.93518 395.94119
447.0 0.002237 368.01352 398.66980
409.0 0.002445 368.09204 402.57767
412.0 0.002427 368.17050 407.44901
392.0 0.002551 368.24893 412.79822
401.0 0.002494 368.32755 418.27185
415.0 0.002410 368.40619 424.19437
454.0 0.002203 368.48492 430.84561
448.0 0.002232 368.56372 437.84186
452.0 0.002212 368.64246 443.66983
438.0 0.002283 368.72134 446.80759
462.0 0.002165 368.80026 446.60593
452.0 0.002212 368.87930 443.48593
430.0 0.002326 368.95837 438.49506
424.0 0.002358 369.03738 433.15747
443.0 0.002257 369.11655 429.29837
413.0 0.002421 369.19577 428.17941
409.0 0.002445 369.27509 430.60986
436.0 0.002294 369.35446 436.74231
492.0 0.002033 369.43375 445.93484
505.0 0.001980 369.51324 456.56033
510.0 0.001961 369.59277 465.84784
496.0 0.002016 369.67233 471.01407
516.0 0.001938 369.75201 470.96472
484.0 0.002066 369.83163 466.57263
453.0 0.002208 369.91144 459.59424
432.0 0.002315 369.99121 451.28772
412.0 0.002427 370.07117 442.59311
414.0 0.002415 370.15106 434.41129
414.0 0.002415 370.23096 427.65387
426.0 0.002347 370.31116 423.17468
441.0 0.002268 370.39117 421.42508
426.0 0.002347 370.47137 422.32483
421.0 0.002375 370.55164 425.15231
428.0 0.002336 370.63190 429.28177
456.0 0.002193 370.71231 433.78699
485.0 0.002062 370.79266 438.25821
467.0 0.002141 370.87320 442.08438
435.0 0.002299 370.95377 443.91699
440.0 0.002273 371.03433 442.71805
459.0 0.002179 371.11505 439.11978
416.0 0.002404 371.19574 435.08273
403.0 0.002481 371.27655 432.39752
392.0 0.002551 371.35745 432.03275
446.0 0.002242 371.43829 434.03458
447.0 0.002237 371.51935 437.53229
457.0 0.002188 371.60037 441.11917
469.0 0.002132 371.68158 443.37408
446.0 0.002242 371.76279 443.96655
429.0 0.002331 371.84393 443.67026
443.0 0.002257 371.92529 443.58011
417.0 0.002398 372.00665 444.51270
463.0 0.002160 372.08820 446.80688
489.0 0.002045 372.16971 450.83939
557.0 0.001795 372.25116 456.10474
489.0 0.002045 372.33286 461.43652
495.0 0.002020 372.41461 465.43073
446.0 0.002242 372.49640 468.00635
455.0 0.002198 372.57828 470.82941
500.0 0.002000 372.66016 476.18915
552.0 0.001812 372.74222 485.22183
549.0 0.001821 372.82425 497.50089
618.0 0.001618 372.90634 510.61557
619.0 0.001616 372.98856 520.26257
537.0 0.001862 373.07074 521.86383
514.0 0.001946 373.15320 513.22968
449.0 0.002227 373.23553 496.44031
421.0 0.002375 373.31802 476.23849
427.0 0.002342 373.40057 456.77332
377.0 0.002653 373.48309 440.29391
413.0 0.002421 373.56589 427.42078
394.0 0.002538 373.64859 418.11380
393.0 0.002545 373.73148 411.80396
402.0 0.002488 373.81436 408.00281
408.0 0.002451 373.89728 406.23969
432.0 0.002315 373.98038 405.99026
425.0 0.002353 374.06348 407.04553
418.0 0.002392 374.14676 408.98874
416.0 0.002404 374.23004 411.82672
427.0 0.002342 374.31323 415.28613
447.0 0.002237 374.39670 418.85336
456.0 0.002193 374.48019 421.71985
437.0 0.002288 374.56381 423.57669
429.0 0.002331 374.64740 425.02609
444.0 0.002252 374.73105 427.08734
428.0 0.002336 374.81488 430.32471
437.0 0.002288 374.89880 434.65405
452.0 0.002212 374.98273 439.35651
456.0 0.002193 375.06677 442.93188
442.0 0.002262 375.15076 444.03601
438.0 0.002283 375.23502 441.18817
438.0 0.002283 375.31927 434.47928
428.0 0.002336 375.40359 425.65421
405.0 0.002469 375.48807 416.71008
393.0 0.002545 375.57242 408.83740
389.0 0.002571 375.65704 402.54984
385.0 0.002597 375.74170 397.94955
404.0 0.002475 375.82642 394.88135
407.0 0.002457 375.91125 393.06790
387.0 0.002584 375.99609 392.23602
390.0 0.002564 376.08112 392.03494
372.0 0.002688 376.16611 392.23428
380.0 0.002632 376.25131 392.51520
354.0 0.002825 376.33655 392.66766
380.0 0.002632 376.42169 393.04205
399.0 0.002506 376.50717 393.67996
396.0 0.002525 376.59259 394.59412
390.0 0.002564 376.67819 395.67123
385.0 0.002597 376.76389 396.75882
382.0 0.002618 376.84949 397.78271
408.0 0.002451 376.93533 398.59171
391.0 0.002558 377.02118 398.82281
422.0 0.002370 377.10721 398.14862
433.0 0.002309 377.19324 396.63232
406.0 0.002463 377.27939 394.88007
383.0 0.002611 377.36563 393.16382
393.0 0.002545 377.45187 391.65244
371.0 0.002695 377.53839 390.50595
355.0 0.002817 377.62482 389.74722
389.0 0.002571 377.71130 389.40414
394.0 0.002538 377.79813 389.33627
397.0 0.002519 377.88474 389.63098
399.0 0.002506 377.97174 390.41046
386.0 0.002591 378.05869 391.81216
382.0 0.002618 378.14560 393.89160
426.0 0.002347 378.23279 396.62488
435.0 0.002299 378.31998 399.79773
413.0 0.002421 378.40732 402.96640
435.0 0.002299 378.49475 405.22760
409.0 0.002445 378.58212 405.88495
362.0 0.002762 378.66974 404.87274
383.0 0.002611 378.75739 402.85181
405.0 0.002469 378.84521 400.57629
397.0 0.002519 378.93314 398.50034
379.0 0.002639 379.02103 396.81940
385.0 0.002597 379.10910 395.58173
396.0 0.002525 379.19714 394.53830
414.0 0.002415 379.28549 393.80768
383.0 0.002611 379.37384 393.09183
375.0 0.002667 379.46222 392.44073
369.0 0.002710 379.55084 391.99655
371.0 0.002695 379.63943 391.88055
386.0 0.002591 379.72818 392.18494
404.0 0.002475 379.81702 393.00220
385.0 0.002597 379.90585 394.41791
399.0 0.002506 379.99496 396.49109
419.0 0.002387 380.08411 399.03564
431.0 0.002320 380.17334 401.99582
410.0 0.002439 380.26263 404.91824
383.0 0.002611 380.35208 407.35925
386.0 0.002591 380.44162 409.02441
379.0 0.002639 380.53122 409.97128
410.0 0.002439 380.62103 410.32626
410.0 0.002439 380.71082 410.06552
396.0 0.002525 380.80078 409.03653
418.0 0.002392 380.89084 407.30161
422.0 0.002370 380.98096 405.17865
407.0 0.002457 381.07135 403.01755
405.0 0.002469 381.16168 401.57382
414.0 0.002415 381.25204 400.97748
385.0 0.002597 381.34274 401.47760
391.0 0.002558 381.43341 403.14905
417.0 0.002398 381.52426 406.21127
413.0 0.002421 381.61508 410.67123
439.0 0.002278 381.70605 416.31879
456.0 0.002193 381.79727 422.59930
456.0 0.002193 381.88846 428.46484
483.0 0.002070 381.97983 432.54352
447.0 0.002237 382.07135 433.88843
450.0 0.002222 382.16278 432.44370
404.0 0.002475 382.25458 429.29221
388.0 0.002577 382.34637 425.72861
443.0 0.002257 382.43826 423.05771
408.0 0.002451 382.53030 421.68793
425.0 0.002353 382.62228 421.51328
424.0 0.002358 382.71466 421.86237
418.0 0.002392 382.80692 421.99542
417.0 0.002398 382.89954 421.40311
439.0 0.002278 382.99219 419.83035
424.0 0.002358 383.08475 417.24265
402.0 0.002488 383.17764 413.82416
374.0 0.002674 383.27060 410.09842
431.0 0.002320 383.36374 406.65878
375.0 0.002667 383.45688 403.89102
389.0 0.002571 383.55014 402.01849
398.0 0.002513 383.64355 400.96451
374.0 0.002674 383.73709 400.78717
401.0 0.002494 383.83087 401.52112
406.0 0.002463 383.92459 403.18970
416.0 0.002404 384.01840 405.73532
441.0 0.002268 384.11258 409.18600
427.0 0.002342 384.20667 413.35449
431.0 0.002320 384.30109 417.98752
466.0 0.002146 384.39542 422.56335
459.0 0.002179 384.48981 426.76782
454.0 0.002203 384.58463 430.68967
462.0 0.002165 384.67935 434.83438
461.0 0.002169 384.77429 439.75021
467.0 0.002141 384.86932 445.59915
472.0 0.002119 384.96439 451.67966
466.0 0.002146 385.05981 456.38876
474.0 0.002110 385.15509 457.92984
468.0 0.002137 385.25082 455.74838
451.0 0.002217 385.34650 451.03506
456.0 0.002193 385.44214 445.62930
467.0 0.002141 385.53818 440.73483
462.0 0.002165 385.63422 436.97888
461.0 0.002169 385.73056 434.47458
468.0 0.002137 385.82681 432.93524
443.0 0.002257 385.92319 431.66425
432.0 0.002315 386.01987 429.56870
420.0 0.002381 386.11655 426.11053
421.0 0.002375 386.21356 421.60486
414.0 0.002415 386.31061 416.92844
376.0 0.002660 386.40759 412.78494
402.0 0.002488 386.50494 409.49664
404.0 0.002475 386.60229 407.19928
401.0 0.002494 386.69998 406.00803
381.0 0.002625 386.79767 405.84720
364.0 0.002747 386.89542 406.81625
396.0 0.002525 386.99344 409.02634
409.0 0.002445 387.09155 412.55972
417.0 0.002398 387.18982 417.55396
428.0 0.002336 387.28833 424.01813
446.0 0.002242 387.38675 431.73972
475.0 0.002105 387.48547 440.16519
465.0 0.002151 387.58435 447.95007
439.0 0.002278 387.68329 453.58505
484.0 0.002066 387.78253 456.15292
466.0 0.002146 387.88165 455.98087
444.0 0.002252 387.98114 453.87350
487.0 0.002053 388.08063 450.35913
459.0 0.002179 388.18045 445.76965
421.0 0.002375 388.28024 440.77667
430.0 0.002326 388.38016 436.30469
446.0 0.002242 388.48038 432.80847
437.0 0.002288 388.58063 430.17218
405.0 0.002469 388.68121 428.07611
423.0 0.002364 388.78186 426.44293
438.0 0.002283 388.88245 425.48117
422.0 0.002370 388.98343 425.37787
415.0 0.002410 389.08441 426.07925
405.0 0.002469 389.18579 427.17838
411.0 0.002433 389.28714 428.00986
404.0 0.002475 389.38855 427.98596
417.0 0.002398 389.49030 427.04623
454.0 0.002203 389.59210 425.90714
431.0 0.002320 389.69412 425.34821
479.0 0.002088 389.79623 425.94492
437.0 0.002288 389.89847 427.87073
419.0 0.002387 390.00104 430.86343
459.0 0.002179 390.10358 434.24869
431.0 0.002320 390.20648 437.08438
440.0 0.002273 390.30945 438.65948
438.0 0.002283 390.41248 438.85431
419.0 0.002387 390.51578 438.25577
440.0 0.002273 390.61917 437.57153
440.0 0.002273 390.72281 437.05551
415.0 0.002410 390.82663 436.66971
412.0 0.002427 390.93048 436.34534
432.0 0.002315 391.03458 436.24811
441.0 0.002268 391.13876 436.65527
447.0 0.002237 391.24329 437.90060
453.0 0.002208 391.34790 440.15918
459.0 0.002179 391.45258 443.17694
460.0 0.002174 391.55750 446.23169
451.0 0.002217 391.66266 448.60703
458.0 0.002183 391.76788 450.09421
439.0 0.002278 391.87335 450.75925
437.0 0.002288 391.97891 450.76282
444.0 0.002252 392.08475 449.63245
459.0 0.002179 392.19058 447.01950
447.0 0.002237 392.29678 443.32513
429.0 0.002331 392.40308 439.40286
421.0 0.002375 392.50946 435.90244
420.0 0.002381 392.61621 432.98056
430.0 0.002326 392.72293 430.58289
409.0 0.002445 392.82996 428.67783
412.0 0.002427 392.93716 427.25089
379.0 0.002639 393.04440 426.01886
395.0 0.002532 393.15204 424.88614
412.0 0.002427 393.25967 424.05438
407.0 0.002457 393.36761 423.74274
420.0 0.002381 393.47571 424.26776
406.0 0.002463 393.58383 425.64581
427.0 0.002342 393.69235 427.67773
422.0 0.002370 393.80090 430.03232
432.0 0.002315 393.90979 432.25015
410.0 0.002439 394.01874 433.94067
385.0 0.002597 394.12784 435.29190
439.0 0.002278 394.23724 436.77451
447.0 0.002237 394.34665 438.87430
422.0 0.002370 394.45648 441.55594
432.0 0.002315 394.56641 444.62009
455.0 0.002198 394.67636 448.05264
470.0 0.002128 394.78668 451.56900
426.0 0.002347 394.89709 455.02740
466.0 0.002146 395.00787 458.15274
513.0 0.001949 395.11871 460.88406
516.0 0.001938 395.22952 463.24591
494.0 0.002024 395.34094 464.90421
457.0 0.002188 395.45224 465.17944
447.0 0.002237 395.56390 463.83472
475.0 0.002105 395.67578 461.48123
464.0 0.002155 395.78766 459.28320
451.0 0.002217 395.89993 458.19958
416.0 0.002404 396.01227 458.60239
436.0 0.002294 396.12491 460.00754
445.0 0.002247 396.23770 461.36560
464.0 0.002155 396.35059 461.74316
457.0 0.002188 396.46381 460.70258
433.0 0.002309 396.57712 458.84216
405.0 0.002469 396.69073 456.69858
410.0 0.002439 396.80457 454.30670
419.0 0.002387 396.91843 451.20056
428.0 0.002336 397.03265 447.04095
422.0 0.002370 397.14703 442.11755
416.0 0.002404 397.26166 437.27383
422.0 0.002370 397.37637 433.18732
424.0 0.002358 397.49127 430.20581
422.0 0.002370 397.60648 428.40027
450.0 0.002222 397.72189 427.68951
446.0 0.002242 397.83755 427.85846
426.0 0.002347 397.95331 428.59500
422.0 0.002370 398.06915 429.75598
420.0 0.002381 398.18555 431.22501
438.0 0.002283 398.30194 432.91827
449.0 0.002227 398.41858 434.66342
453.0 0.002208 398.53543 436.09726
450.0 0.002222 398.65234 436.91370
442.0 0.002262 398.76974 437.39789
444.0 0.002252 398.88712 438.10843
447.0 0.002237 399.00491 439.57733
446.0 0.002242 399.12280 442.08038
475.0 0.002105 399.24078 445.63120
444.0 0.002252 399.35928 449.74319
487.0 0.002053 399.47763 453.85040
484.0 0.002066 399.59653 457.23111
455.0 0.002198 399.71555 459.73193
453.0 0.002208 399.83459 461.34726
460.0 0.002174 399.95404 462.40341
440.0 0.002273 400.07358 463.58594
485.0 0.002062 400.19354 465.64355
507.0 0.001972 400.31363 469.30270
474.0 0.002110 400.43381 475.09995
479.0 0.002088 400.55429 483.12088
559.0 0.001789 400.67508 492.67645
561.0 0.001783 400.79599 502.05673
578.0 0.001730 400.91718 509.18491
572.0 0.001748 401.03845 511.86438
534.0 0.001873 401.16013 508.78085
476.0 0.002101 401.28192 500.38025
458.0 0.002183 401.40402 488.86499
496.0 0.002016 401.52637 476.85471
452.0 0.002212 401.64874 466.26840
415.0 0.002410 401.77158 458.08569
452.0 0.002212 401.89441 452.70166
455.0 0.002198 402.01776 449.91760
473.0 0.002114 402.14111 449.28717
479.0 0.002088 402.26465 450.01660
448.0 0.002232 402.38870 451.07040
442.0 0.002262 402.51270 451.54065
453.0 0.002208 402.63708 451.24545
461.0 0.002169 402.76166 450.55606
463.0 0.002160 402.88632 450.20197
459.0 0.002179 403.01141 450.48166
460.0 0.002174 403.13660 451.13831
480.0 0.002083 403.26224 451.91617
470.0 0.002128 403.38794 452.68652
455.0 0.002198 403.51376 453.47858
444.0 0.002252 403.64011 454.45767
480.0 0.002083 403.76645 455.88788
490.0 0.002041 403.89322 458.08914
481.0 0.002079 404.02008 461.25595
487.0 0.002053 404.14716 465.11316
498.0 0.002008 404.27460 468.96600
508.0 0.001969 404.40216 471.65701
487.0 0.002053 404.53015 472.19827
477.0 0.002096 404.65820 470.22296
464.0 0.002155 404.78638 466.23401
431.0 0.002320 404.91510 461.32999
426.0 0.002347 405.04385 456.87534
469.0 0.002132 405.17307 453.52423
457.0 0.002188 405.30231 451.40198
457.0 0.002188 405.43185 450.20853
460.0 0.002174 405.56161 449.36792
423.0 0.002364 405.69156 448.41031
418.0 0.002392 405.82199 447.05679
431.0 0.002320 405.95251 445.10059
418.0 0.002392 406.08319 442.59225
426.0 0.002347 406.21429 439.73843
442.0 0.002262 406.34549 436.99179
430.0 0.002326 406.47705 434.74625
417.0 0.002398 406.60889 433.23560
399.0 0.002506 406.74075 432.43146
408.0 0.002451 406.87314 432.23599
408.0 0.002451 407.00558 432.55203
426.0 0.002347 407.13834 433.17197
417.0 0.002398 407.27139 433.99380
441.0 0.002268 407.40454 434.98737
414.0 0.002415 407.53812 436.25928
456.0 0.002193 407.67178 437.95059
465.0 0.002151 407.80588 440.22406
462.0 0.002165 407.94019 442.89914
452.0 0.002212 408.07452 445.88312
446.0 0.002242 408.20944 449.03079
438.0 0.002283 408.34436 452.19724
463.0 0.002160 408.47974 455.34647
508.0 0.001969 408.61526 458.57312
466.0 0.002146 408.75098 461.76831
487.0 0.002053 408.88705 464.62482
459.0 0.002179 409.02335 466.64529
439.0 0.002278 409.15994 467.27316
459.0 0.002179 409.29678 466.41064
462.0 0.002165 409.43372 464.49786
437.0 0.002288 409.57120 462.30588
481.0 0.002079 409.70865 460.55084
483.0 0.002070 409.84662 459.76019
499.0 0.002004 409.98471 459.90665
458.0 0.002183 410.12299 460.44739
427.0 0.002342 410.26169 460.70404
436.0 0.002294 410.40048 459.71674
440.0 0.002273 410.53973 457.58649
425.0 0.002353 410.67920 454.98822
445.0 0.002247 410.81870 452.82535
441.0 0.002268 410.95868 451.51651
460.0 0.002174 411.09882 451.23761
469.0 0.002132 411.23935 451.77478
459.0 0.002179 411.38010 452.67615
424.0 0.002358 411.52103 453.18597
424.0 0.002358 411.66235 453.08542
444.0 0.002252 411.80380 452.83838
446.0 0.002242 411.94565 452.65991
447.0 0.002237 412.08768 452.94833
446.0 0.002242 412.22989 453.92554
454.0 0.002203 412.37250 455.75851
469.0 0.002132 412.51529 458.61511
475.0 0.002105 412.65848 462.68045
473.0 0.002114 412.80188 468.06104
475.0 0.002105 412.94537 474.69995
492.0 0.002033 413.08942 482.42816
482.0 0.002075 413.23349 490.88937
516.0 0.001938 413.37802 499.91592
529.0 0.001890 413.52274 509.17010
548.0 0.001825 413.66760 518.11938
590.0 0.001695 413.81299 525.63214
547.0 0.001828 413.95831 529.98492
518.0 0.001931 414.10422 529.74988
552.0 0.001812 414.25037 524.82373
533.0 0.001876 414.39648 516.34338
497.0 0.002012 414.54315 505.88730
460.0 0.002174 414.68997 495.20883
425.0 . . .
loop_
_refln_index_h
_refln_index_k
_refln_index_l
_pd_refln_wavelength_id
_refln_observed_status
_refln_F_squared_meas
_refln_F_squared_calc
_refln_phase_calc
_refln_d_spacing
_gsas_i100_meas
0 2 0 1 o 41692.24 38568.67 0.00 6.67854 14.95
0 2 0 2 o 41344.25 38568.67 0.00 6.67854 7.37
1 1 1 1 o 18767.709 18239.930 0.00 6.04384 18.85
1 1 1 2 o 18097.064 18239.930 0.00 6.04384 9.01
2 0 0 1 o 555.049 634.295 180.00 4.81083 0.00
2 0 0 2 o 555.049 634.295 180.00 4.81083 0.00
0 0 2 1 o 32894.664 35358.97 0.00 4.77396 3.70
0 0 2 2 o 33245.855 35358.97 0.00 4.77396 1.87
1 2 1 1 o 6043.412 6345.567 0.00 4.75698 2.18
1 2 1 2 o 5603.466 6345.567 0.00 4.75698 0.92
2 1 0 1 o 159193.23 159861.75 180.00 4.52620 40.47
2 1 0 2 o 156291.80 159861.75 180.00 4.52620 19.70
1 0 2 1 o 220069.58 224937.91 0.00 4.27649 49.77
1 0 2 2 o 217074.75 224937.91 0.00 4.27649 24.37
2 1 1 1 o 122643.12 117254.39 0.00 4.08992 52.38
2 1 1 2 o 121440.54 117254.39 0.00 4.08992 25.77
1 1 2 1 o 122574.50 119431.39 0.00 4.07284 51.61
1 1 2 2 o 118399.13 119431.39 0.00 4.07284 24.67
0 3 1 1 o 425428.7 438995.1 180.00 4.03520 100.00
0 3 1 2 o 430727.6 438995.1 180.00 4.03520 50.47
2 2 0 1 o 85568.33 80254.21 180.00 3.90352 17.12
2 2 0 2 o 82409.06 80254.21 180.00 3.90352 8.15
0 2 2 1 o 52310.21 52345.27 0.00 3.88375 10.28
0 2 2 2 o 52747.04 52345.27 0.00 3.88375 5.16
1 3 1 1 o 81714.99 76915.71 180.00 3.72119 32.59
1 3 1 2 o 80768.31 76915.71 180.00 3.72119 16.00
2 2 1 1 o 180385.05 175645.84 180.00 3.61322 61.45
2 2 1 2 o 178497.36 175645.84 180.00 3.61322 30.20
1 2 2 1 o 492.734 488.429 0.00 3.60142 0.17
1 2 2 2 o 425.932 488.429 0.00 3.60142 0.07
2 0 2 1 o 154696.50 142181.42 180.00 3.38866 23.37
2 0 2 2 o 155019.78 142181.42 180.00 3.38866 11.65
0 4 0 1 o 143373.86 137857.55 180.00 3.33927 12.97
0 4 0 2 o 139322.89 137857.55 180.00 3.33927 6.26
2 1 2 1 o 12029.410 13186.066 180.00 3.28461 3.35
2 1 2 2 o 12214.412 13186.066 180.00 3.28461 1.69
2 3 0 1 o 38129.18 42342.43 180.00 3.26768 5.26
2 3 0 2 o 33339.215 42342.43 180.00 3.26768 2.22
0 1 3 1 o 147633.14 148925.09 180.00 3.09597 17.22
2 3 1 1 o 40711.95 40418.24 0.00 3.09164 10.32
0 1 3 2 o 152180.77 148925.09 180.00 3.09597 8.87
1 3 2 1 o 28131.674 26665.811 0.00 3.08424 7.13
2 3 1 2 o 42691.13 40418.24 0.00 3.09164 5.42
1 3 2 2 o 29061.770 26665.811 0.00 3.08424 3.68
2 2 2 1 o 59837.02 58117.88 180.00 3.02192 13.68
2 2 2 2 o 57224.11 58117.88 180.00 3.02192 6.46
1 4 1 1 o 17086.471 17964.781 180.00 2.99542 4.44
1 4 1 2 o 17919.021 17964.781 180.00 2.99542 2.33
3 1 1 1 o 64616.48 62445.56 0.00 2.96446 14.17
3 1 1 2 o 62838.93 62445.56 0.00 2.96446 6.83
1 1 3 1 o 204.281 435.689 0.00 2.94716 0.01
1 1 3 2 o 150.864 435.689 0.00 2.94716 0.00
3 2 1 1 o 31557.227 30306.174 180.00 2.76705 6.19
3 2 1 2 o 30051.348 30306.174 180.00 2.76705 2.91
1 2 3 1 o 116536.88 122808.77 0.00 2.75297 22.03
1 2 3 2 o 116816.40 122808.77 0.00 2.75297 10.99
2 4 0 1 o 98652.33 99976.54 180.00 2.74320 10.17
2 4 0 2 o 98309.33 99976.54 180.00 2.74320 5.04
0 4 2 1 o 31244.215 31778.980 0.00 2.73631 3.35
0 4 2 2 o 29304.318 31778.980 0.00 2.73631 1.55
2 3 2 1 o 3055.437 3921.856 180.00 2.69650 0.60
2 3 2 2 o 2961.457 3921.856 180.00 2.69650 0.29
3 0 2 1 o 87737.21 81371.86 0.00 2.66223 7.25
3 0 2 2 o 85803.89 81371.86 0.00 2.66223 3.51
2 4 1 1 o 23896.242 22736.803 0.00 2.63654 4.37
1 4 2 1 o 31549.879 30112.533 180.00 2.63195 5.77
2 4 1 2 o 23754.039 22736.803 0.00 2.63654 2.16
1 4 2 2 o 31678.852 30112.533 180.00 2.63195 2.88
3 1 2 1 o 25719.723 26283.586 180.00 2.61087 3.98
3 1 2 2 o 26741.371 26283.586 180.00 2.61087 2.08
2 1 3 1 o 27161.338 26703.508 0.00 2.60345 4.27
2 1 3 2 o 26939.533 26703.508 0.00 2.60345 2.10
0 3 3 1 o 30.604 33.066 0.00 2.58917 0.00
0 3 3 2 o 47.827 33.066 0.00 2.58917 0.00
0 5 1 1 o 59696.64 59451.16 180.00 2.57262 5.32
0 5 1 2 o 58121.68 59451.16 180.00 2.57262 2.56
3 3 1 1 o 29122.422 26516.621 180.00 2.51076 4.54
3 3 1 2 o 26931.877 26516.621 180.00 2.51076 2.06
1 3 3 1 o 114815.88 114362.08 180.00 2.50022 17.48
1 3 3 2 o 112279.66 114362.08 180.00 2.50022 8.46
1 5 1 1 o 6264.372 6120.954 180.00 2.48531 1.08
1 5 1 2 o 6077.761 6120.954 180.00 2.48531 0.52
3 2 2 1 o 17694.227 18239.023 180.00 2.47299 2.43
3 2 2 2 o 18059.031 18239.023 180.00 2.47299 1.24
2 2 3 1 o 26296.887 26601.871 0.00 2.46668 3.60
2 2 3 2 o 24923.676 26601.871 0.00 2.46668 1.67
4 0 0 1 o 15742.037 15837.717 180.00 2.40542 0.45
4 0 0 2 o 16891.756 15837.717 180.00 2.40542 0.25
0 0 4 1 o 48399.62 44808.68 180.00 2.38698 1.53
0 0 4 2 o 44527.61 44808.68 180.00 2.38698 0.68
2 4 2 1 o 26852.293 27202.270 180.00 2.37849 3.50
2 4 2 2 o 27329.117 27202.270 180.00 2.37849 1.78
4 1 0 1 o 15653.387 12921.847 180.00 2.36733 1.04
4 1 0 2 o 14660.725 12921.847 180.00 2.36733 0.48
2 5 0 1 o 160556.94 143527.91 0.00 2.33550 11.64
2 5 0 2 o 157222.42 143527.91 0.00 2.33550 5.65
1 0 4 1 o 34646.902 30268.576 0.00 2.31675 2.02
1 0 4 2 o 36460.67 30268.576 0.00 2.31675 1.07
4 1 1 1 o 157113.48 149483.97 180.00 2.29776 18.96
4 1 1 2 o 156003.00 149483.97 180.00 2.29776 9.35
3 3 2 1 o 26965.986 22867.604 180.00 2.28492 3.69
1 1 4 1 o 2845.726 2563.690 0.00 2.28267 0.29
2 3 3 1 o 31399.186 27317.947 0.00 2.27994 3.81
3 3 2 2 o 27003.039 22867.604 180.00 2.28492 1.84
1 1 4 2 o 2912.160 2563.690 0.00 2.28267 0.15
2 3 3 2 o 31683.828 27317.947 0.00 2.27994 1.92
2 5 1 1 o 36489.36 35196.55 0.00 2.26862 4.90
1 5 2 1 o 58500.95 58767.20 180.00 2.26569 7.43
4 2 0 1 o 71906.45 72836.30 0.00 2.26310 4.15
2 5 1 2 o 34733.680 35196.55 0.00 2.26862 2.30
1 5 2 2 o 57283.26 58767.20 180.00 2.26569 3.60
4 2 0 2 o 72990.02 72836.30 0.00 2.26310 2.10
3 4 1 1 o 4679.798 4230.970 0.00 2.24809 0.59
0 2 4 1 o 63839.16 57910.21 0.00 2.24773 3.78
3 4 1 2 o 4512.178 4230.970 0.00 2.24809 0.28
0 2 4 2 o 61650.92 57910.21 0.00 2.24773 1.81
1 4 3 1 o 17823.211 17099.633 180.00 2.24052 2.22
1 4 3 2 o 19351.326 17099.633 180.00 2.24052 1.22
3 1 3 1 o 60750.22 56852.89 0.00 2.22747 6.53
0 6 0 1 o 188565.06 175768.97 0.00 2.22618 6.36
3 1 3 2 o 58122.50 56852.89 0.00 2.22747 3.07
0 6 0 2 o 184264.11 175768.97 0.00 2.22618 3.08
4 2 1 1 o 17126.143 16370.110 180.00 2.20209 2.02
4 2 1 2 o 16548.854 16370.110 180.00 2.20209 0.96
1 2 4 1 o 10659.195 11556.998 0.00 2.18880 1.14
1 2 4 2 o 7808.546 11556.998 0.00 2.18880 0.38
4 0 2 1 o -481.358 140.568 180.00 2.14814 0.00
4 0 2 2 o -121.196 140.568 180.00 2.14814 0.01
3 2 3 1 o 2944.245 2747.523 180.00 2.13999 0.17
2 0 4 1 o 11343.989 9889.264 180.00 2.13825 0.46
3 2 3 2 o 2608.812 2747.523 180.00 2.13999 0.06
2 0 4 2 o 8603.375 9889.264 180.00 2.13825 0.15
4 1 2 1 o 4819.082 4652.720 180.00 2.12089 0.58
4 3 0 1 o 1552.056 1447.478 180.00 2.11631 0.07
4 1 2 2 o 5091.362 4652.720 180.00 2.12089 0.30
1 6 1 1 o 145.229 142.389 180.00 2.11500 0.01
2 1 4 1 o 105647.59 105024.79 0.00 2.11136 10.84
4 3 0 2 o 1451.155 1447.478 180.00 2.11631 0.03
1 6 1 2 o 142.006 142.389 180.00 2.11500 0.00
2 1 4 2 o 104316.27 105024.79 0.00 2.11136 5.31
2 5 2 1 o 20012.545 15822.354 0.00 2.09791 2.48
2 5 2 2 o 18580.287 15822.354 0.00 2.09791 1.14
3 4 2 1 o 108442.03 109106.77 180.00 2.08164 10.98
2 4 3 1 o 7175.736 7612.292 180.00 2.07787 0.74
3 4 2 2 o 105699.33 109106.77 180.00 2.08164 5.29
2 4 3 2 o 7024.593 7612.292 180.00 2.07787 0.36
4 3 1 1 o 5441.221 5976.470 0.00 2.06617 0.54
4 3 1 2 o 4258.430 5976.470 0.00 2.06617 0.20
1 3 4 1 o 3673.119 3259.849 0.00 2.05517 0.38
1 3 4 2 o 3775.252 3259.849 0.00 2.05517 0.19
0 5 3 1 o 34952.512 34112.867 180.00 2.04615 1.94
4 2 2 1 o 47326.72 45279.18 0.00 2.04496 4.55
0 5 3 2 o 35729.80 34112.867 180.00 2.04615 0.99
4 2 2 2 o 48638.79 45279.18 0.00 2.04496 2.34
2 2 4 1 o 18219.084 17014.885 180.00 2.03642 1.71
2 2 4 2 o 17249.123 17014.885 180.00 2.03642 0.80
2 6 0 1 o 43092.03 37913.06 180.00 2.02035 2.45
0 6 2 1 o 66154.25 62137.57 0.00 2.01760 3.62
2 6 0 2 o 36564.03 37913.06 180.00 2.02035 1.01
3 3 3 1 o 14697.641 15374.313 180.00 2.01461 1.24
0 6 2 2 o 60141.26 62137.57 0.00 2.01760 1.61
3 3 3 2 o 13569.162 15374.313 180.00 2.01461 0.56
3 5 1 1 o 755.053 669.125 180.00 2.00679 0.09
3 5 1 2 o 656.868 669.125 180.00 2.00679 0.04
1 5 3 1 o 18632.268 18776.484 180.00 2.00139 1.80
1 5 3 2 o 17094.863 18776.484 180.00 2.00139 0.81
2 6 1 1 o 68844.31 64874.78 0.00 1.97659 7.19
1 6 2 1 o 66827.83 63074.67 0.00 1.97465 6.92
2 6 1 2 o 65913.48 64874.78 0.00 1.97659 3.40
1 6 2 2 o 64160.14 63074.67 0.00 1.97465 3.28
4 4 0 1 o 252521.31 266031.50 0.00 1.95176 11.07
4 4 0 2 o 244501.36 266031.50 0.00 1.95176 5.29
0 4 4 1 o 148469.70 163036.88 0.00 1.94187 6.13
0 4 4 2 o 153163.19 163036.88 0.00 1.94187 3.18
4 3 2 1 o 4673.846 5013.990 180.00 1.93473 0.49
4 3 2 2 o 4922.844 5013.990 180.00 1.93473 0.26
2 3 4 1 o 38118.81 37770.75 0.00 1.92749 3.42
2 3 4 2 o 34273.332 37770.75 0.00 1.92749 1.50
3 0 4 1 o 1165.040 1072.446 180.00 1.91485 0.06
4 4 1 1 o 2393.575 2200.891 0.00 1.91222 0.21
3 0 4 2 o 1069.651 1072.446 180.00 1.91485 0.03
4 4 1 2 o 2153.961 2200.891 0.00 1.91222 0.09
1 4 4 1 o 4406.112 6156.339 0.00 1.90349 0.39
4 1 3 1 o 6577.470 6753.814 180.00 1.89948 0.55
1 4 4 2 o 5955.281 6156.339 0.00 1.90349 0.27
3 1 4 1 o 11750.769 12187.601 180.00 1.89548 1.02
4 1 3 2 o 6872.515 6753.814 180.00 1.89948 0.29
3 1 4 2 o 12039.622 12187.601 180.00 1.89548 0.52
0 1 5 1 o 93138.25 94368.17 180.00 1.89036 3.56
0 1 5 2 o 93053.35 94368.17 180.00 1.89036 1.77
3 5 2 1 o 31181.781 31629.453 0.00 1.88572 2.63
2 5 3 1 o 21814.783 21275.277 0.00 1.88292 1.81
3 5 2 2 o 32098.420 31629.453 0.00 1.88572 1.35
2 5 3 2 o 22630.023 21275.277 0.00 1.88292 0.94
3 4 3 1 o 19325.215 15543.188 0.00 1.87113 1.75
0 7 1 1 o 32293.553 26030.564 0.00 1.87115 1.65
5 1 1 1 o 99.970 99.307 180.00 1.86786 0.00
3 4 3 2 o 18499.523 15543.188 0.00 1.87113 0.83
0 7 1 2 o 30889.688 26030.564 0.00 1.87115 0.78
5 1 1 2 o 98.442 99.307 180.00 1.86786 0.00
2 6 2 1 o 13432.309 15558.072 180.00 1.86060 1.02
2 6 2 2 o 14429.379 15558.072 180.00 1.86060 0.56
1 1 5 1 o 31676.787 34116.691 180.00 1.85490 2.31
1 1 5 2 o 30333.848 34116.691 180.00 1.85490 1.09
4 2 3 1 o 8261.775 8280.500 0.00 1.84436 0.68
3 2 4 1 o 31738.693 30222.248 180.00 1.84069 2.46
4 2 3 2 o 8620.268 8280.500 0.00 1.84436 0.35
1 7 1 1 o 23761.680 22910.713 0.00 1.83674 2.22
3 2 4 2 o 31190.480 30222.248 180.00 1.84069 1.20
1 7 1 2 o 21757.668 22910.713 0.00 1.83674 1.00
5 2 1 1 o 73294.36 77765.73 180.00 1.81537 5.60
5 2 1 2 o 73905.67 77765.73 180.00 1.81537 2.81
4 4 2 1 o 93547.09 90730.16 0.00 1.80661 7.47
1 2 5 1 o 33253.664 33712.617 180.00 1.80347 2.73
4 4 2 2 o 90368.63 90730.16 0.00 1.80661 3.57
2 4 4 1 o 34580.758 34782.055 180.00 1.80071 2.93
1 2 5 2 o 33626.035 33712.617 180.00 1.80347 1.38
2 4 4 2 o 36185.93 34782.055 180.00 1.80071 1.53
3 6 1 1 o 31984.143 30684.385 0.00 1.79615 2.88
1 6 3 1 o 72859.95 67429.67 180.00 1.79228 6.27
3 6 1 2 o 33235.246 30684.385 0.00 1.79615 1.49
1 6 3 2 o 69193.72 67429.67 180.00 1.79228 2.95
4 5 0 1 o 10648.748 10440.367 0.00 1.78755 0.39
5 0 2 1 o 3024.651 3591.891 180.00 1.78479 0.10
4 5 0 2 o 10126.068 10440.367 0.00 1.78755 0.18
5 0 2 2 o 3334.844 3591.891 180.00 1.78479 0.05
2 7 0 1 o 2262.834 2017.169 180.00 1.77373 0.11
5 1 2 1 o 65521.56 59790.09 180.00 1.76907 4.47
2 7 0 2 o 2245.787 2017.169 180.00 1.77373 0.05
5 1 2 2 o 61096.95 59790.09 180.00 1.76907 2.04
4 3 3 1 o 85815.92 88228.67 180.00 1.76227 5.86
2 1 5 1 o 4868.042 4846.185 0.00 1.75941 0.32
3 3 4 1 o 1672.401 1659.664 180.00 1.75907 0.12
4 3 3 2 o 89271.91 88228.67 180.00 1.76227 3.06
4 5 1 1 o 17335.563 16947.875 180.00 1.75702 1.27
2 1 5 2 o 5081.138 4846.185 0.00 1.75941 0.17
0 3 5 1 o 50673.64 48310.50 0.00 1.75498 1.78
3 3 4 2 o 1733.066 1659.664 180.00 1.75907 0.06
4 5 1 2 o 16819.049 16947.875 180.00 1.75702 0.61
0 3 5 2 o 47845.62 48310.50 0.00 1.75498 0.83
1 5 4 1 o 14545.858 14790.284 180.00 1.75025 1.08
1 5 4 2 o 13781.604 14790.284 180.00 1.75025 0.50
2 7 1 1 o 39982.83 43223.16 0.00 1.74389 3.00
1 7 2 1 o 16.171 17.985 0.00 1.74256 0.00
2 7 1 2 o 37393.68 43223.16 0.00 1.74389 1.37
1 7 2 2 o 16.400 17.985 0.00 1.74256 0.00
5 3 1 1 o 357.673 487.470 0.00 1.73693 0.01
5 3 1 2 o 205.030 487.470 0.00 1.73693 0.00
1 3 5 1 o 4395.862 4732.987 180.00 1.72650 0.28
3 5 3 1 o 7222.083 7901.218 0.00 1.72499 0.57
5 2 2 1 o 9818.408 10306.477 0.00 1.72428 0.64
1 3 5 2 o 4331.430 4732.987 180.00 1.72650 0.14
3 5 3 2 o 7388.397 7901.218 0.00 1.72499 0.29
5 2 2 2 o 10040.316 10306.477 0.00 1.72428 0.33
2 2 5 1 o 110671.47 112518.89 0.00 1.71533 7.09
2 2 5 2 o 110086.84 112518.89 0.00 1.71533 3.50
3 6 2 1 o 13001.332 14356.668 0.00 1.70778 0.88
2 6 3 1 o 12339.961 12096.651 180.00 1.70570 0.84
3 6 2 2 o 14142.705 14356.668 0.00 1.70778 0.48
2 6 3 2 o 11968.421 12096.651 180.00 1.70570 0.40
4 0 4 1 o 276338.63 268670.06 0.00 1.69433 8.87
4 0 4 2 o 266840.84 268670.06 0.00 1.69433 4.24
4 1 4 1 o 16619.480 15281.063 0.00 1.68086 1.11
4 1 4 2 o 17673.111 15281.063 0.00 1.68086 0.59
4 5 2 1 o 3029.693 3171.002 0.00 1.67405 0.23
4 5 2 2 o 3117.750 3171.002 0.00 1.67405 0.12
0 8 0 1 o 230587.75 237238.56 0.00 1.66964 4.43
2 5 4 1 o 94079.99 97815.35 180.00 1.66935 6.01
0 8 0 2 o 225290.95 237238.56 0.00 1.66964 2.15
2 5 4 2 o 93498.69 97815.35 180.00 1.66935 2.97
4 4 3 1 o 149.059 157.568 180.00 1.66382 0.01
2 7 2 1 o 630.527 720.413 0.00 1.66268 0.06
3 4 4 1 o 45593.00 49704.50 180.00 1.66112 2.78
4 4 3 2 o 150.159 157.568 180.00 1.66382 0.00
2 7 2 2 o 681.272 720.413 0.00 1.66268 0.03
3 4 4 2 o 49585.09 49704.50 180.00 1.66112 1.53
5 3 2 1 o 17410.008 17312.145 180.00 1.65664 1.05
5 3 2 2 o 18969.035 17312.145 180.00 1.65664 0.58
2 3 5 1 o 26662.855 29734.092 0.00 1.64870 1.59
2 3 5 2 o 26259.387 29734.092 0.00 1.64870 0.78
5 4 1 1 o 7708.792 6713.481 0.00 1.64244 0.46
4 2 4 1 o 6306.385 5419.289 0.00 1.64230 0.39
5 4 1 2 o 6665.686 6713.481 0.00 1.64244 0.19
4 2 4 2 o 5408.218 5419.289 0.00 1.64230 0.16
0 7 3 1 o 107315.41 108273.43 180.00 1.63655 3.58
5 1 3 1 o 49539.07 46318.92 180.00 1.63435 3.05
4 6 0 1 o 1732.643 1634.952 180.00 1.63384 0.06
1 4 5 1 o 272.524 264.256 0.00 1.63361 0.01
0 7 3 2 o 108119.56 108273.43 180.00 1.63655 1.80
5 1 3 2 o 50737.52 46318.92 180.00 1.63435 1.56
4 6 0 2 o 1854.505 1634.952 180.00 1.63384 0.03
1 4 5 2 o 290.725 264.256 0.00 1.63361 0.01
3 1 5 1 o 12310.847 10591.621 0.00 1.62853 0.76
0 6 4 1 o 9461.389 7971.798 180.00 1.62803 0.32
3 1 5 2 o 10490.534 10591.621 0.00 1.62853 0.31
0 6 4 2 o 8193.913 7971.798 180.00 1.62803 0.13
1 8 1 1 o 31066.479 29264.273 0.00 1.62117 2.25
1 8 1 2 o 30551.598 29264.273 0.00 1.62117 1.10
3 7 1 1 o 53632.20 51138.00 0.00 1.61620 3.52
1 7 3 1 o 8882.904 9044.163 0.00 1.61338 0.55
3 7 1 2 o 53755.75 51138.00 0.00 1.61620 1.76
4 6 1 1 o 4833.519 4362.482 0.00 1.61043 0.30
1 7 3 2 o 10301.063 9044.163 0.00 1.61338 0.33
4 6 1 2 o 4666.693 4362.482 0.00 1.61043 0.15
1 6 4 1 o 28753.707 27292.461 0.00 1.60521 1.76
6 0 0 1 o 73901.02 68097.74 180.00 1.60361 0.97
1 6 4 2 o 26690.555 27292.461 0.00 1.60521 0.80
6 0 0 2 o 65668.95 68097.74 180.00 1.60361 0.41
5 2 3 1 o 43755.97 46157.28 180.00 1.59884 2.20
5 2 3 2 o 42484.11 46157.28 180.00 1.59884 1.05
3 2 5 1 o 578.904 594.849 180.00 1.59339 0.06
6 1 0 1 o 83678.44 88906.96 0.00 1.59218 2.36
0 0 6 1 o 26070.016 29287.213 180.00 1.59132 0.38
3 2 5 2 o 481.931 594.849 180.00 1.59339 0.03
6 1 0 2 o 78643.88 88906.96 0.00 1.59218 1.09
0 0 6 2 o 26919.453 29287.213 180.00 1.59132 0.20
3 6 3 1 o 1575.608 1694.578 0.00 1.58566 0.05
4 3 4 1 o 5694.725 6354.347 0.00 1.58354 0.35
3 6 3 2 o 1376.642 1694.578 0.00 1.58566 0.02
4 3 4 2 o 5024.151 6354.347 0.00 1.58354 0.15
2 8 0 1 o 1915.761 2089.891 180.00 1.57734 0.03
0 8 2 1 o 12910.395 14525.908 0.00 1.57603 0.32
5 4 2 1 o 30056.656 32801.668 0.00 1.57406 1.64
2 8 0 2 o 1964.464 2089.891 180.00 1.57734 0.02
0 8 2 2 o 12664.760 14525.908 0.00 1.57603 0.15
6 1 1 1 o 3106.221 3264.726 0.00 1.57049 0.14
5 4 2 2 o 31165.836 32801.668 0.00 1.57406 0.85
1 0 6 1 o 3260.831 3445.109 180.00 1.56999 0.09
2 4 5 1 o 20788.414 23166.521 180.00 1.56725 1.12
6 1 1 2 o 2928.339 3264.726 0.00 1.57049 0.06
1 0 6 2 o 2925.305 3445.109 180.00 1.56999 0.04
2 4 5 2 o 20732.350 23166.521 180.00 1.56725 0.55
6 2 0 1 o 17964.797 17813.260 180.00 1.55929 0.47
1 1 6 1 o 24006.309 23788.727 180.00 1.55926 1.22
4 5 3 1 o 31827.920 30787.273 180.00 1.55855 1.77
3 5 4 1 o 2590.846 2326.899 0.00 1.55633 0.14
2 8 1 1 o 44451.55 39596.73 180.00 1.55625 2.76
6 2 0 2 o 19860.717 17813.260 180.00 1.55929 0.26
1 1 6 2 o 26443.125 23788.727 180.00 1.55926 0.68
1 8 2 1 o 32261.613 29097.865 0.00 1.55530 1.98
4 5 3 2 o 33741.754 30787.273 180.00 1.55855 0.94
0 5 5 1 o 1057.985 993.494 180.00 1.55350 0.03
3 5 4 2 o 2568.987 2326.899 0.00 1.55633 0.07
2 8 1 2 o 44075.92 39596.73 180.00 1.55625 1.36
1 8 2 2 o 31457.602 29097.865 0.00 1.55530 0.95
3 7 2 1 o 43.080 42.398 0.00 1.55092 0.00
0 5 5 2 o 875.506 993.494 180.00 1.55350 0.01
2 7 3 1 o 16292.523 19017.713 0.00 1.54936 0.95
0 2 6 1 o 8915.098 10249.874 0.00 1.54798 0.21
3 7 2 2 o 37.890 42.398 0.00 1.55092 0.00
4 6 2 1 o 17536.719 19435.961 0.00 1.54582 1.00
2 7 3 2 o 17103.703 19017.713 0.00 1.54936 0.50
5 3 3 1 o 2510.160 2662.673 0.00 1.54447 0.16
0 2 6 2 o 9910.185 10249.874 0.00 1.54798 0.12
2 6 4 1 o 28441.537 30161.750 180.00 1.54212 1.60
4 6 2 2 o 18344.406 19435.961 0.00 1.54582 0.52
5 5 1 1 o 3014.121 3067.398 180.00 1.54094 0.20
5 3 3 2 o 2646.007 2662.673 0.00 1.54447 0.08
3 3 5 1 o 30346.371 30370.338 0.00 1.53956 1.48
6 2 1 1 o 47976.02 50156.65 0.00 1.53890 2.41
2 6 4 2 o 27805.537 30161.750 180.00 1.54212 0.78
5 5 1 2 o 2796.551 3067.398 180.00 1.54094 0.09
3 3 5 2 o 29857.006 30370.338 0.00 1.53956 0.72
6 2 1 2 o 48798.25 50156.65 0.00 1.53890 1.22
1 5 5 1 o 18528.773 20284.033 180.00 1.53364 1.01
1 5 5 2 o 20254.814 20284.033 180.00 1.53364 0.56
1 2 6 1 o 34146.488 32097.492 0.00 1.52833 1.71
1 2 6 2 o 33408.988 32097.492 0.00 1.52833 0.83
6 0 2 1 o 43179.58 48835.10 180.00 1.52014 1.08
6 0 2 2 o 40215.55 48835.10 180.00 1.52014 0.49
4 4 4 1 o 32959.621 36228.20 180.00 1.51096 1.77
2 0 6 1 o 22614.943 24851.355 180.00 1.51081 0.60
6 1 2 1 o -3.305 0.193 180.00 1.51039 0.00
6 3 0 1 o 31577.125 32667.230 0.00 1.50873 0.84
4 4 4 2 o 33017.387 36228.20 180.00 1.51096 0.88
2 0 6 2 o 22689.063 24851.355 180.00 1.51081 0.30
6 1 2 2 o -2.215 0.193 180.00 1.51039 0.00
6 3 0 2 o 34151.570 32667.230 0.00 1.50873 0.46
2 1 6 1 o 14990.168 15411.741 0.00 1.50124 0.68
5 0 4 1 o 2967.220 3114.862 0.00 1.49813 0.07
2 1 6 2 o 14618.667 15411.741 0.00 1.50124 0.33
2 8 2 1 o 41751.02 44237.38 180.00 1.49771 2.51
4 7 0 1 o 2397.441 2431.515 180.00 1.49491 0.08
5 0 4 2 o 3002.873 3114.862 0.00 1.49813 0.03
2 8 2 2 o 42279.51 44237.38 180.00 1.49771 1.27
4 7 0 2 o 2566.149 2431.515 180.00 1.49491 0.04
6 3 1 1 o 68970.17 70172.77 0.00 1.49024 3.29
5 1 4 1 o 6318.739 6524.988 180.00 1.48879 0.29
6 3 1 2 o 66135.22 70172.77 0.00 1.49024 1.55
4 1 5 1 o 5307.959 5604.704 0.00 1.48631 0.24
5 1 4 2 o 6138.207 6524.988 180.00 1.48879 0.14
5 5 2 1 o 83042.35 86976.98 0.00 1.48405 4.07
4 1 5 2 o 5884.117 5604.704 0.00 1.48631 0.13
6 2 2 1 o 17040.918 16117.444 180.00 1.48223 0.78
1 3 6 1 o 8667.831 8867.539 180.00 1.48064 0.41
5 5 2 2 o 84759.34 86976.98 0.00 1.48405 2.08
6 2 2 2 o 16274.080 16117.444 180.00 1.48223 0.37
2 5 5 1 o 17402.949 17204.367 0.00 1.47833 0.89
1 3 6 2 o 9002.200 8867.539 180.00 1.48064 0.22
5 4 3 1 o 14685.300 14451.271 0.00 1.47691 0.71
4 7 1 1 o 164058.09 161469.47 180.00 1.47692 8.56
2 5 5 2 o 16906.078 17204.367 0.00 1.47833 0.43
2 2 6 1 o 4330.601 4237.281 180.00 1.47358 0.20
5 4 3 2 o 14980.481 14451.271 0.00 1.47691 0.36
4 7 1 2 o 167282.08 161469.47 180.00 1.47692 4.36
1 7 4 1 o 113.630 107.448 0.00 1.47289 0.01
3 4 5 1 o 944.276 901.958 180.00 1.47261 0.05
2 2 6 2 o 4324.811 4237.281 180.00 1.47358 0.10
1 7 4 2 o 136.384 107.448 0.00 1.47289 0.00
3 4 5 2 o 1224.457 901.958 180.00 1.47261 0.03
0 9 1 1 o 50386.53 46479.92 180.00 1.46651 1.41
3 8 1 1 o 5110.921 4371.632 180.00 1.46347 0.26
0 9 1 2 o 54942.35 46479.92 180.00 1.46651 0.78
5 2 4 1 o 13399.229 11732.151 0.00 1.46180 0.62
1 8 3 1 o 25677.795 22923.654 0.00 1.46138 1.33
3 8 1 2 o 4701.662 4371.632 180.00 1.46347 0.12
4 2 5 1 o 7081.715 6542.684 0.00 1.45945 0.32
5 2 4 2 o 12269.147 11732.151 0.00 1.46180 0.27
3 7 3 1 o 84887.76 82501.36 0.00 1.45774 4.16
1 8 3 2 o 23618.033 22923.654 0.00 1.46138 0.60
4 2 5 2 o 6801.390 6542.684 0.00 1.45945 0.15
3 7 3 2 o 84261.61 82501.36 0.00 1.45774 2.05
4 6 3 1 o 866.345 841.507 180.00 1.45350 0.04
3 6 4 1 o 2312.021 1523.764 180.00 1.45171 0.12
4 6 3 2 o 1259.610 841.507 180.00 1.45350 0.03
1 9 1 1 o 4313.700 2870.521 180.00 1.44977 0.24
3 6 4 2 o 3060.617 1523.764 180.00 1.45171 0.08
1 9 1 2 o 6202.475 2870.521 180.00 1.44977 0.18
6 4 0 1 o 6986.665 2730.993 180.00 1.44556 0.19
6 4 0 2 o 5469.511 2730.993 180.00 1.44556 0.07
5 6 1 1 o 36181.06 34095.547 0.00 1.43919 1.84
6 3 2 1 o 633.170 575.950 180.00 1.43860 0.05
0 4 6 1 o 100704.41 98651.38 0.00 1.43654 2.45
5 6 1 2 o 33684.996 34095.547 0.00 1.43919 0.84
6 3 2 2 o 583.682 575.950 180.00 1.43860 0.02
1 6 5 1 o 14033.419 13969.313 0.00 1.43323 0.77
0 4 6 2 o 102545.53 98651.38 0.00 1.43654 1.24
4 5 4 1 o 16355.038 14482.203 180.00 1.43081 0.81
2 3 6 1 o 2248.348 2017.025 0.00 1.43069 0.09
1 6 5 2 o 17197.029 13969.313 0.00 1.43323 0.47
6 4 1 1 o 13563.134 11172.863 180.00 1.42928 0.64
4 5 4 2 o 15674.436 14482.203 180.00 1.43081 0.38
2 3 6 2 o 2133.975 2017.025 0.00 1.43069 0.04
4 7 2 1 o 3525.296 3335.963 0.00 1.42660 0.22
6 4 1 2 o 11519.728 11172.863 180.00 1.42928 0.26
3 0 6 1 o 134444.78 127811.92 180.00 1.42550 2.90
6 1 3 1 o 36000.92 31205.861 0.00 1.42393 1.59
2 7 4 1 o 228.270 181.276 180.00 1.42369 0.02
4 7 2 2 o 3932.923 3335.963 0.00 1.42660 0.12
3 0 6 2 o 131572.72 127811.92 180.00 1.42550 1.40
1 4 6 1 o 88937.95 87283.71 0.00 1.42079 3.94
6 1 3 2 o 33227.867 31205.861 0.00 1.42393 0.72
2 7 4 2 o 209.028 181.276 180.00 1.42369 0.01
5 3 4 1 o 333.174 305.541 180.00 1.41990 0.01
2 9 0 1 o 85042.00 83022.77 180.00 1.41817 2.16
4 3 5 1 o 119896.50 116674.53 180.00 1.41775 5.16
3 1 6 1 o 14875.890 14207.111 0.00 1.41745 0.65
1 4 6 2 o 92225.92 87283.71 0.00 1.42079 2.05
5 3 4 2 o 322.242 305.541 180.00 1.41990 0.01
2 9 0 2 o 89062.45 83022.77 180.00 1.41817 1.14
3 8 2 1 o 7378.943 6805.908 0.00 1.41447 0.35
4 3 5 2 o 129177.26 116674.53 180.00 1.41775 2.81
3 1 6 2 o 16217.176 14207.111 0.00 1.41745 0.36
2 8 3 1 o 17263.875 14544.365 0.00 1.41329 0.87
3 8 2 2 o 8445.092 6805.908 0.00 1.41447 0.21
2 8 3 2 o 19990.287 14544.365 0.00 1.41329 0.51
2 9 1 1 o 24171.869 21674.012 0.00 1.40278 1.23
1 9 2 1 o 51002.48 44307.42 0.00 1.40209 2.57
5 5 3 1 o 94.781 93.556 180.00 1.40180 0.00
6 2 3 1 o 15495.216 14530.722 180.00 1.40026 0.64
2 9 1 2 o 22570.184 21674.012 0.00 1.40278 0.57
1 9 2 2 o 50009.07 44307.42 0.00 1.40209 1.25
5 5 3 2 o 94.701 93.556 180.00 1.40180 0.00
3 5 5 1 o 12752.280 10722.499 0.00 1.39812 0.53
6 2 3 2 o 16731.166 14530.722 180.00 1.40026 0.35
3 5 5 2 o 13250.434 10722.499 0.00 1.39812 0.28
3 2 6 1 o 9769.878 6587.559 180.00 1.39410 0.43
5 6 2 1 o 80.427 51.747 180.00 1.39251 0.00
3 2 6 2 o 9935.612 6587.559 180.00 1.39410 0.22
5 6 2 2 o 58.819 51.747 180.00 1.39251 0.00
2 6 5 1 o 51692.91 50647.55 180.00 1.38779 2.28
2 6 5 2 o 54569.13 50647.55 180.00 1.38779 1.21
6 4 2 1 o 9678.349 7548.447 180.00 1.38353 0.39
6 4 2 2 o 12496.918 7548.447 180.00 1.38353 0.27
2 4 6 1 o 1860.155 1464.909 0.00 1.37648 0.12
6 5 0 1 o 91809.30 92487.06 180.00 1.37491 1.99
2 4 6 2 o 1522.049 1464.909 0.00 1.37648 0.05
6 5 0 2 o 100842.02 92487.06 180.00 1.37491 1.10
4 8 0 1 o 1489.839 1347.026 0.00 1.37160 0.05
4 8 0 2 o 2007.115 1347.026 0.00 1.37160 0.03
0 8 4 1 o 375.585 198.519 0.00 1.36816 0.02
5 4 4 1 o 20908.453 13442.999 0.00 1.36687 0.89
4 4 5 1 o 2903.987 1824.009 180.00 1.36495 0.13
0 8 4 2 o 515.527 198.519 0.00 1.36816 0.01
5 4 4 2 o 17729.744 13442.999 0.00 1.36687 0.36
6 3 3 1 o 7559.452 5566.272 0.00 1.36331 0.32
4 4 5 2 o 2038.736 1824.009 180.00 1.36495 0.04
6 5 1 1 o 35386.04 33888.297 0.00 1.36087 1.49
6 3 3 2 o 5915.115 5566.272 0.00 1.36331 0.12
0 1 7 1 o 287.063 278.939 180.00 1.35693 0.00
2 9 2 1 o 4994.901 4687.305 180.00 1.35946 0.24
2 9 2 2 o 5185.502 4687.305 180.00 1.35946 0.13
3 3 6 1 o 3355.282 3438.726 0.00 1.35761 0.13
6 5 1 2 o 33196.523 33888.297 0.00 1.36087 0.69
4 8 1 1 o 4897.959 5029.121 180.00 1.35766 0.22
1 8 4 1 o 16541.217 16434.656 0.00 1.35453 0.71
3 3 6 2 o 3503.286 3438.726 0.00 1.35761 0.07
4 8 1 2 o 5114.585 5029.121 180.00 1.35766 0.12
0 1 7 2 o 285.680 278.939 180.00 1.35693 0.00
7 1 1 1 o 662.177 653.750 180.00 1.35349 0.01
1 5 6 1 o 34840.969 33900.402 0.00 1.35355 1.41
4 7 3 1 o 123.621 119.800 0.00 1.35308 0.01
3 7 4 1 o 111.229 115.860 0.00 1.35163 0.01
1 8 4 2 o 16181.977 16434.656 0.00 1.35453 0.34
7 1 1 2 o 649.167 653.750 180.00 1.35349 0.01
1 5 6 2 o 33352.375 33900.402 0.00 1.35355 0.67
4 7 3 2 o 120.114 119.800 0.00 1.35308 0.00
0 7 5 1 o 141567.33 141441.06 180.00 1.34977 3.00
5 1 5 1 o 6200.772 6176.552 180.00 1.34854 0.22
3 7 4 2 o 114.611 115.860 0.00 1.35163 0.00
4 6 4 1 o 57247.49 57835.41 0.00 1.34825 2.25
0 7 5 2 o 142354.20 141441.06 180.00 1.34977 1.50
5 1 5 2 o 6526.006 6176.552 180.00 1.34854 0.12
4 6 4 2 o 61121.13 57835.41 0.00 1.34825 1.22
0 9 3 1 o 7343.429 6929.734 180.00 1.34507 0.16
1 1 7 1 o 62252.18 59749.47 180.00 1.34364 2.36
3 8 3 1 o 19397.760 19075.400 180.00 1.34272 0.89
0 9 3 2 o 7383.822 6929.734 180.00 1.34507 0.08
5 7 1 1 o 5515.736 5172.392 180.00 1.34151 0.21
1 1 7 2 o 61742.19 59749.47 180.00 1.34364 1.16
3 8 3 2 o 19216.549 19075.400 180.00 1.34272 0.44
5 7 1 2 o 5708.132 5172.392 180.00 1.34151 0.11
1 7 5 1 o 37133.98 33893.816 180.00 1.33669 1.58
0 10 0 1 o 12526.696 9753.188 180.00 1.33571 0.14
3 9 1 1 o 384.049 345.936 0.00 1.33370 0.03
1 7 5 2 o 35631.57 33893.816 180.00 1.33669 0.75
7 2 1 1 o 548.016 522.827 0.00 1.33312 0.02
0 10 0 2 o 10291.204 9753.188 180.00 1.33571 0.06
1 9 3 1 o 15866.312 15174.002 180.00 1.33211 0.71
6 0 4 1 o 1060.325 1080.141 0.00 1.33111 0.02
3 9 1 2 o 365.468 345.936 0.00 1.33370 0.01
7 2 1 2 o 526.961 522.827 0.00 1.33312 0.01
1 9 3 2 o 16290.731 15174.002 180.00 1.33211 0.36
5 2 5 1 o 2908.482 2629.558 0.00 1.32838 0.10
6 0 4 2 o 1256.001 1080.141 0.00 1.33111 0.01
4 0 6 1 o 36945.68 36113.94 0.00 1.32718 0.65
5 2 5 2 o 2714.276 2629.558 0.00 1.32838 0.04
6 1 4 1 o 23370.092 22585.334 180.00 1.32455 0.81
4 0 6 2 o 37037.91 36113.94 0.00 1.32718 0.33
5 6 3 1 o 16293.837 15928.286 0.00 1.32389 0.57
1 2 7 1 o 19403.283 19141.838 180.00 1.32369 0.62
6 1 4 2 o 20423.563 22585.334 180.00 1.32455 0.34
6 5 2 1 o 97.481 99.572 180.00 1.32121 0.00
7 0 2 1 o 82674.01 91113.61 180.00 1.32086 1.45
3 6 5 1 o 79.707 107.755 0.00 1.32079 0.01
4 1 6 1 o 86.976 89.336 0.00 1.32068 0.00
5 6 3 2 o 14659.718 15928.286 0.00 1.32389 0.25
1 2 7 2 o 17681.354 19141.838 180.00 1.32369 0.27
4 8 2 1 o 1725.742 1991.609 0.00 1.31827 0.04
6 5 2 2 o 96.259 99.572 180.00 1.32121 0.00
7 0 2 2 o 81342.37 91113.61 180.00 1.32086 0.71
3 6 5 2 o 78.377 107.755 0.00 1.32079 0.01
4 1 6 2 o 87.324 89.336 0.00 1.32068 0.00
6 4 3 1 o 4615.606 4703.589 0.00 1.31616 0.18
2 8 4 1 o 5615.804 5700.606 180.00 1.31597 0.18
2 5 6 1 o 22591.420 23214.262 180.00 1.31507 0.85
4 8 2 2 o 1953.592 1991.609 0.00 1.31827 0.03
7 1 2 1 o 4750.782 5296.480 0.00 1.31445 0.18
6 4 3 2 o 4103.055 4703.589 0.00 1.31616 0.08
2 8 4 2 o 5220.050 5700.606 180.00 1.31597 0.08
2 5 6 2 o 21665.738 23214.262 180.00 1.31507 0.40
7 1 2 2 o 4617.842 5296.480 0.00 1.31445 0.09
3 4 6 1 o 3680.375 4259.958 0.00 1.31104 0.14
1 10 1 1 o 225.229 248.465 0.00 1.31050 0.00
3 4 6 2 o 2008.484 4259.958 0.00 1.31104 0.03
1 10 1 2 o 208.969 248.465 0.00 1.31050 0.00
5 5 4 1 o 3843.948 5124.026 0.00 1.30668 0.12
2 1 7 1 o 1230.820 1533.330 0.00 1.30598 0.04
6 2 4 1 o 14030.973 17151.422 180.00 1.30544 0.48
4 5 5 1 o 11174.774 13735.414 180.00 1.30500 0.37
0 3 7 1 o 2998.784 5158.704 180.00 1.30416 0.05
5 5 4 2 o 3306.055 5124.026 0.00 1.30668 0.05
5 7 2 1 o 420.242 771.506 180.00 1.30347 0.02
2 1 7 2 o 1196.899 1533.330 0.00 1.30598 0.02
6 2 4 2 o 13816.307 17151.422 180.00 1.30544 0.23
4 5 5 2 o 11026.615 13735.414 180.00 1.30500 0.18
4 2 6 1 o 336.468 410.312 0.00 1.30173 0.01
7 3 1 1 o 16667.797 20316.645 0.00 1.30111 0.51
6 6 0 1 o 51430.04 64465.14 180.00 1.30117 0.96
0 3 7 2 o 4118.981 5158.704 180.00 1.30416 0.04
5 7 2 2 o 525.053 771.506 180.00 1.30347 0.01
2 7 5 1 o 951.338 1347.715 0.00 1.29959 0.03
4 2 6 2 o 295.800 410.312 0.00 1.30173 0.00
7 3 1 2 o 15707.742 20316.645 0.00 1.30111 0.23
6 6 0 2 o 47533.30 64465.14 180.00 1.30117 0.43
5 3 5 1 o 21708.309 26935.066 180.00 1.29670 0.78
2 7 5 2 o 1109.242 1347.715 0.00 1.29959 0.02
3 9 2 1 o 8367.093 10133.298 180.00 1.29630 0.29
7 2 2 1 o 166.572 224.534 0.00 1.29576 0.01
2 9 3 1 o 9157.975 12756.479 0.00 1.29539 0.33
0 6 6 1 o 5.242 7.562 180.00 1.29458 0.00
5 3 5 2 o 18429.893 26935.066 180.00 1.29670 0.32
3 9 2 2 o 7564.142 10133.298 180.00 1.29630 0.13
7 2 2 2 o 149.965 224.534 0.00 1.29576 0.00
1 3 7 1 o 700.128 1076.540 0.00 1.29234 0.02
2 9 3 2 o 8402.678 12756.479 0.00 1.29539 0.15
0 6 6 2 o 5.632 7.562 180.00 1.29458 0.00
6 6 1 1 o 18436.094 22576.471 180.00 1.28926 0.66
1 3 7 2 o 871.133 1076.540 0.00 1.29234 0.02
2 2 7 1 o -8.054 1.062 0.00 1.28764 0.00
2 10 0 1 o 16938.832 23147.578 180.00 1.28702 0.30
0 10 2 1 o 2878.293 4115.683 0.00 1.28631 0.05
6 6 1 2 o 14917.792 22576.471 180.00 1.28926 0.25
2 2 7 2 o -7.456 1.062 0.00 1.28764 0.00
2 10 0 2 o 16497.549 23147.578 180.00 1.28702 0.14
1 6 6 1 o 474.785 1189.687 0.00 1.28302 0.01
0 10 2 2 o 2128.330 4115.683 0.00 1.28631 0.01
1 6 6 2 o 327.505 1189.687 0.00 1.28302 0.00
6 3 4 1 o 3242.294 3090.495 180.00 1.27534 0.09
2 10 1 1 o 9067.207 8639.894 180.00 1.27549 0.39
1 10 2 1 o 16099.605 14594.014 180.00 1.27497 0.69
6 3 4 2 o 3118.354 3090.495 180.00 1.27534 0.04
2 10 1 2 o 8580.522 8639.894 180.00 1.27549 0.18
4 3 6 1 o 49.682 41.530 180.00 1.27188 0.00
1 10 2 2 o 15825.271 14594.014 180.00 1.27497 0.34
4 3 6 2 o -37.768 41.530 180.00 1.27188 0.00
4 7 4 1 o 872.371 827.450 180.00 1.26695 0.04
7 3 2 1 o 1187.223 1155.127 0.00 1.26631 0.04
4 7 4 2 o 982.358 827.450 180.00 1.26695 0.02
7 3 2 2 o 1062.646 1155.127 0.00 1.26631 0.02
4 9 0 1 o 6683.158 7266.444 180.00 1.26306 0.13
6 5 3 1 o 8473.780 9285.747 0.00 1.26217 0.28
7 4 1 1 o 1474.661 1464.652 180.00 1.25994 0.06
4 9 0 2 o 7305.839 7266.444 180.00 1.26306 0.07
4 8 3 1 o 1720.387 1724.552 0.00 1.25961 0.07
6 5 3 2 o 8932.107 9285.747 0.00 1.26217 0.15
2 3 7 1 o 1392.180 1501.832 0.00 1.25873 0.05
3 8 4 1 o 1761.708 2020.464 180.00 1.25844 0.07
3 5 6 1 o 7475.382 10112.516 180.00 1.25765 0.23
7 4 1 2 o 1131.692 1464.652 180.00 1.25994 0.02
4 8 3 2 o 1363.691 1724.552 0.00 1.25961 0.03
7 1 3 1 o 8359.469 10698.953 180.00 1.25628 0.30
5 4 5 1 o 1599.495 2008.523 180.00 1.25594 0.06
2 3 7 2 o 1228.031 1501.832 0.00 1.25873 0.02
6 6 2 1 o 13515.773 16262.104 180.00 1.25538 0.44
3 8 4 2 o 1659.426 2020.464 180.00 1.25844 0.03
3 5 6 2 o 8292.016 10112.516 180.00 1.25765 0.13
7 1 3 2 o 8223.244 10698.953 180.00 1.25628 0.14
5 4 5 2 o 1600.034 2008.523 180.00 1.25594 0.03
6 6 2 2 o 13835.187 16262.104 180.00 1.25538 0.22
4 9 1 1 o 5298.501 6235.759 180.00 1.25215 0.19
1 4 7 1 o 9555.450 11322.224 0.00 1.25197 0.33
5 8 1 1 o 13016.083 14227.431 180.00 1.25026 0.46
2 6 6 1 o 4672.926 5080.730 180.00 1.25011 0.16
3 1 7 1 o 728.256 823.917 180.00 1.24969 0.03
1 9 4 1 o 2000.715 2182.995 0.00 1.24969 0.06
4 9 1 2 o 5742.191 6235.759 180.00 1.25215 0.11
1 4 7 2 o 10704.358 11322.224 0.00 1.25197 0.19
5 8 1 2 o 13898.929 14227.431 180.00 1.25026 0.25
2 6 6 2 o 4868.877 5080.730 180.00 1.25011 0.08
3 1 7 2 o 724.943 823.917 180.00 1.24969 0.01
5 7 3 1 o 27922.449 30817.424 180.00 1.24668 1.01
1 9 4 2 o 1995.129 2182.995 0.00 1.24969 0.03
1 8 5 1 o 645.369 721.215 180.00 1.24635 0.02
3 7 5 1 o 1678.611 2096.023 0.00 1.24409 0.06
5 7 3 2 o 25159.449 30817.424 180.00 1.24668 0.44
1 8 5 2 o 615.417 721.215 180.00 1.24635 0.01
5 6 4 1 o 1862.237 2349.021 0.00 1.24290 0.05
2 10 2 1 o 17427.025 23171.891 180.00 1.24266 0.67
4 6 5 1 o 3750.829 3554.997 180.00 1.24145 0.13
3 7 5 2 o 2443.324 2096.023 0.00 1.24409 0.05
3 9 3 1 o 264.652 252.663 180.00 1.24040 0.02
7 2 3 1 o 3595.761 3918.619 0.00 1.23993 0.12
5 6 4 2 o 2152.810 2349.021 0.00 1.24290 0.03
2 10 2 2 o 20846.906 23171.891 180.00 1.24266 0.41
4 6 5 2 o 3961.785 3554.997 180.00 1.24145 0.07
3 9 3 2 o 273.705 252.663 180.00 1.24040 0.01
7 2 3 2 o 4261.858 3918.619 0.00 1.23993 0.07
6 4 4 1 o 48750.12 45103.28 180.00 1.23649 1.68
3 2 7 1 o 30164.174 31042.965 0.00 1.23359 1.05
6 4 4 2 o 43508.87 45103.28 180.00 1.23649 0.73
4 4 6 1 o 516.582 528.457 180.00 1.23334 0.01
3 2 7 2 o 30067.568 31042.965 0.00 1.23359 0.52
4 4 6 2 o 521.557 528.457 180.00 1.23334 0.00
7 4 2 1 o 25883.277 29684.258 0.00 1.22827 0.81
6 7 0 1 o 1243.450 1782.278 180.00 1.22765 0.03
5 0 6 1 o 37868.77 40039.71 0.00 1.22633 0.59
7 4 2 2 o 27339.789 29684.258 0.00 1.22827 0.43
6 7 0 2 o 1797.331 1782.278 180.00 1.22765 0.02
5 0 6 2 o 39910.71 40039.71 0.00 1.22633 0.32
6 1 5 1 o 24318.697 23432.063 0.00 1.22287 0.78
3 10 1 1 o 5279.702 5061.892 180.00 1.22289 0.23
1 10 3 1 o 11889.818 11566.267 0.00 1.22167 0.50
2 4 7 1 o 412.289 406.886 0.00 1.22134 0.01
5 1 6 1 o 27708.459 27338.828 0.00 1.22119 0.89
4 9 2 1 o 380.368 373.361 180.00 1.22104 0.02
6 1 5 2 o 24722.359 23432.063 0.00 1.22287 0.40
3 10 1 2 o 5386.971 5061.892 180.00 1.22289 0.12
5 8 2 1 o 22.653 21.840 180.00 1.21929 0.00
2 9 4 1 o 50784.64 48660.81 0.00 1.21922 1.84
1 10 3 2 o 11798.569 11566.267 0.00 1.22167 0.25
2 4 7 2 o 415.421 406.886 0.00 1.22134 0.01
5 1 6 2 o 27995.443 27338.828 0.00 1.22119 0.45
4 9 2 2 o 385.971 373.361 180.00 1.22104 0.01
6 7 1 1 o 1311.092 1248.227 0.00 1.21763 0.05
5 8 2 2 o 22.573 21.840 180.00 1.21929 0.00
2 9 4 2 o 50611.63 48660.81 0.00 1.21922 0.91
2 8 5 1 o 36137.26 34906.551 0.00 1.21611 1.26
0 5 7 1 o 2183.396 2177.072 180.00 1.21480 0.04
6 7 1 2 o 1255.106 1248.227 0.00 1.21763 0.02
7 3 3 1 o 78237.41 78859.36 0.00 1.21405 2.53
2 8 5 2 o 33868.945 34906.551 0.00 1.21611 0.58
7 5 1 1 o 97.534 97.052 0.00 1.21233 0.00
1 7 6 1 o 107.779 101.729 180.00 1.21237 0.00
0 5 7 2 o 2362.026 2177.072 180.00 1.21480 0.02
7 3 3 2 o 80103.57 78859.36 0.00 1.21405 1.30
7 5 1 2 o 96.818 97.052 0.00 1.21233 0.00
1 7 6 2 o 98.594 101.729 180.00 1.21237 0.00
5 5 5 1 o 16860.752 17565.725 180.00 1.20877 0.58
3 3 7 1 o 106809.98 112244.10 0.00 1.20810 3.37
6 2 5 1 o 40393.79 42814.06 180.00 1.20778 1.24
5 2 6 1 o 9674.377 9816.841 0.00 1.20616 0.30
5 5 5 2 o 17076.572 17565.725 180.00 1.20877 0.29
1 5 7 1 o 6001.476 6117.219 180.00 1.20523 0.18
3 3 7 2 o 110075.29 112244.10 0.00 1.20810 1.74
6 2 5 2 o 41859.92 42814.06 180.00 1.20778 0.65
6 6 3 1 o 7156.703 7490.274 0.00 1.20441 0.23
0 11 1 1 o 91754.77 94863.08 180.00 1.20458 1.73
5 2 6 2 o 9887.483 9816.841 0.00 1.20616 0.16
8 0 0 1 o 102253.45 102821.80 0.00 1.20271 0.78
1 5 7 2 o 6067.178 6117.219 180.00 1.20523 0.09
6 6 3 2 o 7482.772 7490.274 0.00 1.20441 0.12
0 11 1 2 o 95284.48 94863.08 180.00 1.20458 0.90
3 6 6 1 o 46060.00 46770.11 180.00 1.20047 1.47
8 0 0 2 o 103460.60 102821.80 0.00 1.20271 0.39
8 1 0 1 o 23583.193 21771.238 0.00 1.19786 0.39
3 6 6 2 o 49858.41 46770.11 180.00 1.20047 0.81
1 11 1 1 o 14498.607 13037.788 180.00 1.19525 0.55
8 1 0 2 o 22920.383 21771.238 0.00 1.19786 0.19
3 10 2 1 o 52227.34 50810.41 180.00 1.19387 1.85
0 0 8 1 o 46786.81 46484.85 0.00 1.19349 0.37
2 10 3 1 o 2862.958 2861.894 0.00 1.19316 0.11
1 11 1 2 o 13309.276 13037.788 180.00 1.19525 0.25
6 5 4 1 o 30067.711 30241.336 0.00 1.19140 0.90
7 0 4 1 o 29625.721 30175.568 180.00 1.19115 0.44
3 10 2 2 o 49259.90 50810.41 180.00 1.19387 0.86
0 0 8 2 o 44894.09 46484.85 0.00 1.19349 0.18
2 10 3 2 o 2795.161 2861.894 0.00 1.19316 0.05
4 8 4 1 o 60663.45 61125.12 0.00 1.18925 2.10
6 7 2 1 o 1946.921 2015.526 0.00 1.18897 0.08
8 1 1 1 o 756.527 777.892 180.00 1.18854 0.02
4 5 6 1 o 536.294 547.861 180.00 1.18858 0.01
6 5 4 2 o 29495.609 30241.336 0.00 1.19140 0.44
7 0 4 2 o 29408.037 30175.568 180.00 1.19115 0.22
7 1 4 1 o 89.702 86.694 0.00 1.18644 0.00
4 8 4 2 o 63297.82 61125.12 0.00 1.18925 1.10
6 7 2 2 o 2084.584 2015.526 0.00 1.18897 0.05
8 1 1 2 o 812.804 777.892 180.00 1.18854 0.01
4 5 6 2 o 565.553 547.861 180.00 1.18858 0.01
1 0 8 1 o 936.571 588.734 0.00 1.18441 0.02
2 7 6 1 o 702.246 428.789 0.00 1.18449 0.03
7 5 2 1 o 4263.862 2959.782 180.00 1.18404 0.14
6 3 5 1 o 1042.922 752.061 180.00 1.18383 0.03
8 2 0 1 o 5143.344 3948.132 0.00 1.18367 0.08
7 1 4 2 o 106.559 86.694 0.00 1.18644 0.00
5 3 6 1 o 7942.035 6287.354 0.00 1.18230 0.25
4 1 7 1 o 1946.147 1609.676 180.00 1.18185 0.06
1 0 8 2 o 721.610 588.734 0.00 1.18441 0.01
2 7 6 2 o 539.507 428.789 0.00 1.18449 0.01
7 5 2 2 o 3497.199 2959.782 180.00 1.18404 0.06
6 3 5 2 o 938.005 752.061 180.00 1.18383 0.02
8 2 0 2 o 5088.970 3948.132 0.00 1.18367 0.04
7 4 3 1 o 891.602 636.034 180.00 1.18040 0.03
1 1 8 1 o 14118.221 11231.709 180.00 1.17978 0.45
5 3 6 2 o 8019.096 6287.354 0.00 1.18230 0.13
4 1 7 2 o 2246.084 1609.676 180.00 1.18185 0.03
5 7 4 1 o 1.352 0.583 0.00 1.17835 0.00
2 5 7 1 o 1201.588 903.474 0.00 1.17783 0.04
7 4 3 2 o 826.482 636.034 180.00 1.18040 0.01
2 11 0 1 o 20448.285 15992.988 0.00 1.17736 0.40
4 7 5 1 o 26311.795 21437.689 0.00 1.17711 0.88
1 1 8 2 o 13398.751 11231.709 180.00 1.17978 0.21
5 7 4 2 o 1.022 0.583 0.00 1.17835 0.00
3 4 7 1 o 3268.637 2956.815 180.00 1.17493 0.10
2 5 7 2 o 996.780 903.474 0.00 1.17783 0.01
0 2 8 1 o 354.591 327.011 180.00 1.17488 0.00
8 2 1 1 o 12068.059 11244.679 0.00 1.17467 0.36
2 11 0 2 o 17009.750 15992.988 0.00 1.17736 0.16
4 7 5 2 o 22523.623 21437.689 0.00 1.17711 0.36
4 9 3 1 o 17198.631 16578.563 180.00 1.17399 0.58
3 9 4 1 o 2800.477 2628.170 180.00 1.17304 0.10
7 2 4 1 o 4442.660 4123.885 180.00 1.17264 0.14
5 8 3 1 o 27590.635 25970.693 180.00 1.17243 0.92
3 4 7 2 o 3004.008 2956.815 180.00 1.17493 0.04
0 2 8 2 o 330.695 327.011 180.00 1.17488 0.00
8 2 1 2 o 11401.959 11244.679 0.00 1.17467 0.17
0 9 5 1 o 209.054 206.417 180.00 1.17182 0.00
4 9 3 2 o 17826.473 16578.563 180.00 1.17399 0.30
3 8 5 1 o 1622.540 1466.420 0.00 1.17027 0.06
3 9 4 2 o 2885.961 2628.170 180.00 1.17304 0.05
7 2 4 2 o 4522.112 4123.885 180.00 1.17264 0.07
5 8 3 2 o 27676.383 25970.693 180.00 1.17243 0.46
0 9 5 2 o 204.978 206.417 180.00 1.17182 0.00
2 11 1 1 o 8631.277 8319.750 0.00 1.16851 0.31
4 2 7 1 o 111.717 105.962 180.00 1.16821 0.00
1 11 2 1 o 7469.983 7101.975 180.00 1.16811 0.26
4 10 0 1 o 110272.09 107354.28 0.00 1.16775 1.90
3 8 5 2 o 1453.997 1466.420 0.00 1.17027 0.03
8 0 2 1 o 20366.648 18986.465 0.00 1.16627 0.30
5 9 1 1 o 877.966 785.899 0.00 1.16641 0.04
1 2 8 1 o 21262.631 19848.006 0.00 1.16621 0.63
0 10 4 1 o 98713.05 96919.84 0.00 1.16562 1.72
2 11 1 2 o 8475.943 8319.750 0.00 1.16851 0.15
4 2 7 2 o 106.068 105.962 180.00 1.16821 0.00
1 11 2 2 o 7093.900 7101.975 180.00 1.16811 0.12
4 10 0 2 o 107783.50 107354.28 0.00 1.16775 0.92
8 0 2 2 o 21008.301 18986.465 0.00 1.16627 0.15
5 9 1 2 o 911.108 785.899 0.00 1.16641 0.02
1 2 8 2 o 21981.594 19848.006 0.00 1.16621 0.33
1 9 5 1 o 5106.492 4658.369 180.00 1.16323 0.16
0 10 4 2 o 103574.87 96919.84 0.00 1.16562 0.91
8 1 2 1 o 28.624 18.826 180.00 1.16185 0.00
8 3 0 1 o 14001.634 10056.456 0.00 1.16109 0.24
7 6 1 1 o 324.519 257.826 180.00 1.16088 0.01
1 9 5 2 o 6102.938 4658.369 180.00 1.16323 0.10
8 1 2 2 o 105.039 18.826 180.00 1.16185 0.00
4 10 1 1 o 1679.413 802.919 180.00 1.15911 0.07
2 0 8 1 o 4512.371 2270.526 0.00 1.15838 0.08
8 3 0 2 o 17831.018 10056.456 0.00 1.16109 0.15
7 6 1 2 o 371.349 257.826 180.00 1.16088 0.01
5 6 5 1 o 1061.289 776.720 180.00 1.15774 0.03
1 10 4 1 o 1036.383 683.253 0.00 1.15716 0.04
6 8 0 1 o 34799.879 26257.414 180.00 1.15656 0.57
4 10 1 2 o 1035.885 802.919 180.00 1.15911 0.02
2 0 8 2 o 2894.059 2270.526 0.00 1.15838 0.03
5 6 5 2 o 866.931 776.720 180.00 1.15774 0.01
1 6 7 1 o 10115.815 9308.921 0.00 1.15464 0.27
1 10 4 2 o 695.525 683.253 0.00 1.15716 0.01
2 1 8 1 o 13494.854 13593.369 180.00 1.15404 0.37
6 8 0 2 o 26818.639 26257.414 180.00 1.15656 0.20
8 3 1 1 o 65038.45 59571.11 180.00 1.15260 1.92
6 4 5 1 o 7884.499 7249.742 0.00 1.15256 0.23
0 8 6 1 o 4958.912 4552.175 180.00 1.15192 0.10
1 6 7 2 o 9936.492 9308.921 0.00 1.15464 0.13
2 1 8 2 o 15440.969 13593.369 180.00 1.15404 0.22
5 4 6 1 o 2015.912 1745.848 0.00 1.15116 0.06
7 3 4 1 o 535.175 433.187 0.00 1.15068 0.02
8 3 1 2 o 67589.49 59571.11 180.00 1.15260 1.00
6 4 5 2 o 8225.273 7249.742 0.00 1.15256 0.12
3 10 3 1 o 131.199 126.002 180.00 1.14977 0.00
0 8 6 2 o 5679.205 4552.175 180.00 1.15192 0.06
8 2 2 1 o 13493.811 10992.471 0.00 1.14888 0.41
5 4 6 2 o 2227.708 1745.848 0.00 1.15116 0.04
6 8 1 1 o 21170.461 16734.697 0.00 1.14817 0.70
7 3 4 2 o 569.064 433.187 0.00 1.15068 0.01
3 10 3 2 o 139.410 126.002 180.00 1.14977 0.00
4 3 7 1 o 488.952 360.573 180.00 1.14649 0.02
8 2 2 2 o 14282.898 10992.471 0.00 1.14888 0.22
6 7 3 1 o 26160.641 21534.223 0.00 1.14539 0.83
6 8 1 2 o 20180.104 16734.697 0.00 1.14817 0.33
1 3 8 1 o 3569.051 3309.610 180.00 1.14461 0.11
4 3 7 2 o 406.083 360.573 180.00 1.14649 0.01
1 8 6 1 o 918.639 842.840 0.00 1.14376 0.03
2 11 2 1 o 35.488 33.994 0.00 1.14311 0.00
6 7 3 2 o 25304.063 21534.223 0.00 1.14539 0.40
6 6 4 1 o 498.960 429.226 180.00 1.14246 0.02
3 7 6 1 o 19.348 16.966 180.00 1.14201 0.00
1 3 8 2 o 3536.799 3309.610 180.00 1.14461 0.05
2 2 8 1 o 163.990 154.407 180.00 1.14133 0.00
5 9 2 1 o 41470.99 38961.83 180.00 1.14114 1.33
7 5 3 1 o 17757.779 16800.357 0.00 1.14098 0.57
1 8 6 2 o 884.205 842.840 0.00 1.14376 0.01
2 11 2 2 o 34.600 33.994 0.00 1.14311 0.00
4 6 6 1 o 19828.223 18158.232 0.00 1.13997 0.61
6 6 4 2 o 479.459 429.226 180.00 1.14246 0.01
3 7 6 2 o 20.673 16.966 180.00 1.14201 0.00
2 2 8 2 o 169.041 154.407 180.00 1.14133 0.00
2 9 5 1 o 6735.048 6063.476 0.00 1.13854 0.22
5 9 2 2 o 42845.39 38961.83 180.00 1.14114 0.69
7 5 3 2 o 18405.943 16800.357 0.00 1.14098 0.30
4 6 6 2 o 18825.922 18158.232 0.00 1.13997 0.28
3 5 7 1 o 29756.471 29024.988 0.00 1.13604 0.91
7 6 2 1 o 30450.418 30248.643 180.00 1.13596 0.89
2 9 5 2 o 5801.894 6063.476 0.00 1.13854 0.09
0 11 3 1 o 41.665 42.705 0.00 1.13451 0.00
4 10 2 1 o 16355.304 16591.795 0.00 1.13431 0.50
3 5 7 2 o 32386.969 29024.988 0.00 1.13604 0.50
7 6 2 2 o 33554.477 30248.643 180.00 1.13596 0.50
2 10 4 1 o 1257.517 1171.228 180.00 1.13284 0.03
8 4 0 1 o 2845.874 2367.131 180.00 1.13155 0.04
0 11 3 2 o 50.667 42.705 0.00 1.13451 0.00
4 10 2 2 o 20026.557 16591.795 0.00 1.13431 0.33
2 6 7 1 o 94.918 53.483 0.00 1.13048 0.00
2 10 4 2 o 2272.206 1171.228 180.00 1.13284 0.04
6 0 6 1 o 509.892 253.316 180.00 1.12955 0.01
8 4 0 2 o 3069.408 2367.131 180.00 1.13155 0.02
8 3 2 1 o 716.238 435.047 180.00 1.12820 0.03
2 6 7 2 o 63.646 53.483 0.00 1.13048 0.00
3 11 1 1 o 10474.240 8133.276 180.00 1.12767 0.37
6 0 6 2 o 296.183 253.316 180.00 1.12955 0.00
1 11 3 1 o 28385.559 25861.146 180.00 1.12671 0.94
6 1 6 1 o 14384.596 12379.992 180.00 1.12554 0.44
8 3 2 2 o 538.797 435.047 180.00 1.12820 0.01
3 11 1 2 o 8899.506 8133.276 180.00 1.12767 0.15
6 8 2 1 o 19599.922 20377.074 180.00 1.12405 0.62
0 4 8 1 o 29424.807 31565.154 180.00 1.12386 0.45
1 11 3 2 o 24526.479 25861.146 180.00 1.12671 0.39
8 4 1 1 o 1846.512 2010.640 180.00 1.12369 0.05
6 8 2 2 o 20591.447 20377.074 180.00 1.12405 0.33
8 1 3 1 o 18537.635 19104.279 180.00 1.12109 0.50
0 4 8 2 o 30613.393 31565.154 180.00 1.12386 0.23
2 3 8 1 o 3147.273 3258.342 180.00 1.12106 0.08
8 4 1 2 o 1892.320 2010.640 180.00 1.12369 0.03
6 1 6 2 o 12529.776 12379.992 180.00 1.12554 0.19
2 8 6 1 o 9240.318 10338.961 180.00 1.12026 0.31
7 4 4 1 o 105.004 100.258 180.00 1.12191 0.00
7 4 4 2 o 100.221 100.258 180.00 1.12191 0.00
3 0 8 1 o 54733.83 56076.24 180.00 1.11855 0.74
8 1 3 2 o 17925.707 19104.279 180.00 1.12109 0.24
2 3 8 2 o 3048.902 3258.342 180.00 1.12106 0.04
4 4 7 1 o -0.064 0.001 180.00 1.11803 0.00
2 8 6 2 o 8716.211 10338.961 180.00 1.12026 0.15
4 9 4 1 o 6089.552 6217.278 0.00 1.11640 0.20
1 4 8 1 o 34691.531 35792.32 0.00 1.11627 0.95
3 0 8 2 o 52881.89 56076.24 180.00 1.11855 0.35
6 5 5 1 o 1652.695 1747.558 0.00 1.11579 0.04
4 4 7 2 o -0.008 0.001 180.00 1.11803 0.00
5 8 4 1 o 2863.794 2902.398 0.00 1.11506 0.08
3 1 8 1 o 4017.506 4052.278 0.00 1.11465 0.11
5 5 6 1 o 27768.443 28043.145 180.00 1.11451 0.78
4 8 5 1 o 2368.654 2452.095 0.00 1.11401 0.07
6 2 6 1 o 5016.974 5351.202 180.00 1.11374 0.14
4 9 4 2 o 5764.838 6217.278 0.00 1.11640 0.09
1 4 8 2 o 33057.008 35792.32 0.00 1.11627 0.44
6 5 5 2 o 1585.367 1747.558 0.00 1.11579 0.02
0 12 0 1 o 1512.990 1625.288 0.00 1.11309 0.01
5 8 4 2 o 2827.589 2902.398 0.00 1.11506 0.04
3 1 8 2 o 4227.193 4052.278 0.00 1.11465 0.06
7 1 5 1 o 27721.045 26261.807 0.00 1.11171 0.82
5 5 6 2 o 29473.764 28043.145 180.00 1.11451 0.42
4 8 5 2 o 2568.942 2452.095 0.00 1.11401 0.04
6 2 6 2 o 5567.422 5351.202 180.00 1.11374 0.08
0 12 0 2 o 1648.481 1625.288 0.00 1.11309 0.01
0 7 7 1 o 17.095 16.161 180.00 1.10964 0.00
8 2 3 1 o 3198.657 2809.250 180.00 1.10942 0.09
7 1 5 2 o 32142.217 26261.807 0.00 1.11171 0.48
5 1 7 1 o 7371.123 5988.252 180.00 1.10896 0.23
7 7 1 1 o 10088.655 8005.702 180.00 1.10776 0.29
0 7 7 2 o 19.245 16.161 180.00 1.10964 0.00
8 2 3 2 o 3548.741 2809.250 180.00 1.10942 0.05
5 1 7 2 o 8004.250 5988.252 180.00 1.10896 0.12
7 7 1 2 o 9851.375 8005.702 180.00 1.10776 0.14
5 7 5 1 o 2158.285 1773.598 180.00 1.10504 0.06
3 11 2 1 o 3619.190 3057.229 0.00 1.10479 0.12
2 11 3 1 o 12427.152 11520.352 0.00 1.10422 0.40
3 2 8 1 o 5715.305 5356.351 180.00 1.10319 0.15
5 9 3 1 o 5569.786 5851.965 180.00 1.10245 0.20
5 7 5 2 o 1676.041 1773.598 180.00 1.10504 0.02
1 7 7 1 o 55626.83 59288.21 180.00 1.10234 1.57
3 11 2 2 o 2730.819 3057.229 0.00 1.10479 0.04
2 11 3 2 o 10201.648 11520.352 0.00 1.10422 0.16
8 4 2 1 o 5171.759 5550.118 0.00 1.10104 0.14
3 9 5 1 o 12115.907 13339.667 0.00 1.10066 0.37
3 2 8 2 o 4797.798 5356.351 180.00 1.10319 0.06
7 2 5 1 o 721.241 834.802 180.00 1.10033 0.02
5 9 3 2 o 5035.558 5851.965 180.00 1.10245 0.09
1 7 7 2 o 52014.41 59288.21 180.00 1.10234 0.72
8 4 2 2 o 5537.287 5550.118 0.00 1.10104 0.08
1 12 1 1 o 15524.581 15564.881 180.00 1.09838 0.54
3 9 5 2 o 12779.381 13339.667 0.00 1.10066 0.20
7 6 3 1 o 2224.069 2410.538 180.00 1.09778 0.07
5 2 7 1 o 42889.70 47326.73 0.00 1.09766 1.18
7 2 5 2 o 739.023 834.802 180.00 1.10033 0.01
8 5 0 1 o 21039.982 23416.607 180.00 1.09669 0.30
4 10 3 1 o 200.388 221.194 0.00 1.09629 0.01
1 12 1 2 o 13869.841 15564.881 180.00 1.09838 0.24
3 10 4 1 o 16015.847 18134.936 180.00 1.09551 0.47
7 6 3 2 o 2041.743 2410.538 180.00 1.09778 0.03
5 2 7 2 o 40441.53 47326.73 0.00 1.09766 0.55
6 3 6 1 o 4990.288 5972.333 180.00 1.09487 0.15
2 4 8 1 o 5624.814 6915.756 180.00 1.09440 0.18
8 5 0 2 o 19413.201 23416.607 180.00 1.09669 0.14
4 10 3 2 o 183.918 221.194 0.00 1.09629 0.00
3 6 7 1 o 11793.289 13930.861 180.00 1.09337 0.35
3 10 4 2 o 16345.361 18134.936 180.00 1.09551 0.24
6 3 6 2 o 5721.281 5972.333 180.00 1.09487 0.09
6 7 4 1 o 1852.175 1781.939 180.00 1.09172 0.07
2 4 8 2 o 7168.143 6915.756 180.00 1.09440 0.12
8 3 3 1 o 207.055 209.823 180.00 1.09077 0.01
3 6 7 2 o 13497.111 13930.861 180.00 1.09337 0.21
5 10 1 1 o 4504.599 4359.939 180.00 1.09011 0.15
8 5 1 1 o 18276.623 17210.424 180.00 1.08952 0.51
4 7 6 1 o 305.263 279.728 0.00 1.08955 0.01
6 9 0 1 o 37729.76 36845.05 0.00 1.08923 0.57
6 7 4 2 o 1750.702 1781.939 180.00 1.09172 0.03
8 3 3 2 o 220.196 209.823 180.00 1.09077 0.00
7 5 4 1 o 319.818 292.625 180.00 1.08790 0.01
1 10 5 1 o 5454.475 4731.396 180.00 1.08751 0.21
5 10 1 2 o 4870.741 4359.939 180.00 1.09011 0.08
6 8 3 1 o 5539.270 5517.440 180.00 1.08701 0.16
8 5 1 2 o 16821.521 17210.424 180.00 1.08952 0.23
4 7 6 2 o 271.991 279.728 0.00 1.08955 0.01
6 9 0 2 o 35169.88 36845.05 0.00 1.08923 0.26
7 7 2 1 o 54.113 59.703 180.00 1.08605 0.00
7 5 4 2 o 310.640 292.625 180.00 1.08790 0.00
3 3 8 1 o 1000.291 994.126 0.00 1.08484 0.03
1 10 5 2 o 4764.457 4731.396 180.00 1.08751 0.09
4 5 7 1 o 997.719 1044.126 180.00 1.08436 0.03
6 8 3 2 o 5270.525 5517.440 180.00 1.08701 0.08
2 12 0 1 o 22403.078 23239.740 180.00 1.08444 0.39
3 8 6 1 o 31666.605 34024.238 180.00 1.08412 0.89
4 11 0 1 o 2653.122 2929.611 0.00 1.08399 0.05
0 12 2 1 o 14574.146 15965.292 0.00 1.08402 0.25
7 7 2 2 o 51.784 59.703 180.00 1.08605 0.00
1 5 8 1 o 11963.707 13066.041 0.00 1.08276 0.32
3 3 8 2 o 913.270 994.126 0.00 1.08484 0.01
7 3 5 1 o 0.518 5.303 180.00 1.08213 0.00
6 9 1 1 o 12869.578 13994.065 0.00 1.08221 0.36
4 5 7 2 o 933.860 1044.126 180.00 1.08436 0.01
2 12 0 2 o 20752.520 23239.740 180.00 1.08444 0.18
3 8 6 2 o 30451.209 34024.238 180.00 1.08412 0.42
2 7 7 1 o 943.411 1051.290 0.00 1.08125 0.03
4 11 0 2 o 2572.607 2929.611 0.00 1.08399 0.02
0 12 2 2 o 14117.306 15965.292 0.00 1.08402 0.12
1 5 8 2 o 13175.652 13066.041 0.00 1.08276 0.18
5 3 7 1 o 22229.207 21078.922 180.00 1.07959 0.56
7 3 5 2 o 8.345 5.303 180.00 1.08213 0.00
6 9 1 2 o 14785.094 13994.065 0.00 1.08221 0.22
2 7 7 2 o 1160.591 1051.290 0.00 1.08125 0.02
1 9 6 1 o 15808.984 14257.707 180.00 1.07851 0.46
2 12 1 1 o 26701.668 22186.783 0.00 1.07751 0.88
1 12 2 1 o 509.445 436.516 0.00 1.07720 0.02
5 3 7 2 o 23223.471 21078.922 180.00 1.07959 0.30
4 11 1 1 o 1466.957 1292.174 0.00 1.07707 0.05
1 9 6 2 o 15886.964 14257.707 180.00 1.07851 0.23
1 11 4 1 o 1397.264 1336.606 180.00 1.07551 0.05
6 6 5 1 o 18575.244 17882.295 0.00 1.07528 0.51
2 12 1 2 o 23836.021 22186.783 0.00 1.07751 0.38
1 12 2 2 o 475.446 436.516 0.00 1.07720 0.01
4 11 1 2 o 1380.086 1292.174 0.00 1.07707 0.02
8 0 4 1 o 4442.597 4705.568 180.00 1.07407 0.05
5 6 6 1 o 15978.942 16451.492 0.00 1.07414 0.43
1 11 4 2 o 1099.426 1336.606 180.00 1.07551 0.02
6 6 5 2 o 14274.709 17882.295 0.00 1.07528 0.18
8 0 4 2 o 3856.210 4705.568 180.00 1.07407 0.02
5 6 6 2 o 13160.350 16451.492 0.00 1.07414 0.16
8 1 4 1 o 2825.055 2976.605 180.00 1.07061 0.06
6 4 6 1 o 5240.278 4941.083 180.00 1.07000 0.13
3 11 3 1 o 5017.730 4999.517 180.00 1.06957 0.15
5 10 2 1 o 10611.434 11292.745 0.00 1.06940 0.31
4 0 8 1 o 8788.495 9841.502 180.00 1.06912 0.10
8 5 2 1 o 3.316 3.754 180.00 1.06885 0.00
8 1 4 2 o 2430.015 2976.605 180.00 1.07061 0.02
6 4 6 2 o 4919.160 4941.083 180.00 1.07000 0.06
2 10 5 1 o 5587.283 5601.355 0.00 1.06725 0.16
3 11 3 2 o 4652.958 4999.517 180.00 1.06957 0.07
5 10 2 2 o 9797.826 11292.745 0.00 1.06940 0.14
4 0 8 2 o 7806.673 9841.502 180.00 1.06912 0.04
8 5 2 2 o 2.234 3.754 180.00 1.06885 0.00
8 4 3 1 o 287.831 437.756 0.00 1.06617 0.01
4 1 8 1 o 55.066 59.479 180.00 1.06572 0.00
2 10 5 2 o 4198.699 5601.355 0.00 1.06725 0.06
8 4 3 2 o 453.024 437.756 0.00 1.06617 0.01
4 1 8 2 o 59.169 59.479 180.00 1.06572 0.00
2 5 8 1 o 14661.438 16034.768 0.00 1.06276 0.37
6 9 2 1 o 468.851 499.771 0.00 1.06194 0.01
3 4 8 1 o 45.349 44.953 0.00 1.06063 0.00
8 2 4 1 o 11855.644 12120.041 0.00 1.06044 0.31
2 5 8 2 o 14988.281 16034.768 0.00 1.06276 0.19
6 9 2 2 o 499.653 499.771 0.00 1.06194 0.01
9 1 1 1 o 369.043 334.799 0.00 1.05909 0.02
2 9 6 1 o 11857.405 10959.669 0.00 1.05874 0.34
8 6 0 1 o 37388.43 37944.00 0.00 1.05816 0.49
7 4 5 1 o 91.066 93.865 0.00 1.05809 0.00
3 4 8 2 o 43.203 44.953 0.00 1.06063 0.00
8 2 4 2 o 11159.059 12120.041 0.00 1.06044 0.14
0 1 9 1 o 11431.129 13048.712 0.00 1.05755 0.13
2 12 2 1 o 3426.206 3845.671 180.00 1.05750 0.08
4 11 2 1 o 475.710 525.463 180.00 1.05708 0.02
9 1 1 2 o 383.657 334.799 0.00 1.05909 0.01
2 9 6 2 o 11754.461 10959.669 0.00 1.05874 0.17
2 11 4 1 o 5858.073 5582.548 180.00 1.05590 0.17
5 4 7 1 o 6066.531 5913.737 180.00 1.05572 0.16
4 2 8 1 o 2321.468 2276.264 0.00 1.05568 0.06
8 6 0 2 o 37615.72 37944.00 0.00 1.05816 0.25
7 4 5 2 o 91.461 93.865 0.00 1.05809 0.00
0 1 9 2 o 11941.759 13048.712 0.00 1.05755 0.07
2 12 2 2 o 3555.801 3845.671 180.00 1.05750 0.04
7 8 1 1 o 790.695 897.318 0.00 1.05469 0.02
4 11 2 2 o 426.972 525.463 180.00 1.05708 0.01
5 9 4 1 o 3833.750 4388.821 180.00 1.05435 0.10
4 9 5 1 o 10677.316 11665.249 180.00 1.05347 0.29
2 11 4 2 o 5187.822 5582.548 180.00 1.05590 0.07
5 4 7 2 o 5549.980 5913.737 180.00 1.05572 0.07
4 2 8 2 o 2132.790 2276.264 0.00 1.05568 0.03
7 7 3 1 o 16978.232 17936.684 180.00 1.05254 0.48
5 8 5 1 o 3492.150 3766.242 0.00 1.05234 0.10
7 8 1 2 o 812.428 897.318 0.00 1.05469 0.01
0 6 8 1 o 7371.959 8023.349 0.00 1.05186 0.09
8 6 1 1 o 4617.154 4972.874 180.00 1.05172 0.12
5 9 4 2 o 4058.573 4388.821 180.00 1.05435 0.06
1 1 9 1 o 10195.534 10852.285 180.00 1.05122 0.25
4 9 5 2 o 10596.329 11665.249 180.00 1.05347 0.15
7 6 4 1 o 12143.092 12562.033 180.00 1.05026 0.32
7 7 3 2 o 17483.846 17936.684 180.00 1.05254 0.25
1 8 7 1 o 18257.203 18752.814 180.00 1.05000 0.52
5 8 5 2 o 3701.382 3766.242 0.00 1.05234 0.06
9 2 1 1 o 15423.575 15253.809 0.00 1.04924 0.40
0 6 8 2 o 8111.447 8023.349 0.00 1.05186 0.05
8 6 1 2 o 5001.594 4972.874 180.00 1.05172 0.07
4 10 4 1 o 4658.936 4726.466 180.00 1.04895 0.12
1 1 9 2 o 10005.729 10852.285 180.00 1.05122 0.12
3 7 7 1 o 6635.283 7199.756 180.00 1.04865 0.19
7 6 4 2 o 12002.290 12562.033 180.00 1.05026 0.16
1 8 7 2 o 17445.615 18752.814 180.00 1.05000 0.25
4 6 7 1 o 0.437 0.438 0.00 1.04707 0.00
9 2 1 2 o 15437.639 15253.809 0.00 1.04924 0.20
4 10 4 2 o 5068.997 4726.466 180.00 1.04895 0.07
3 7 7 2 o 8230.742 7199.756 180.00 1.04865 0.12
1 6 8 1 o 2207.596 1741.268 0.00 1.04563 0.06
3 12 1 1 o 1976.852 1603.464 0.00 1.04524 0.05
4 6 7 2 o 0.440 0.438 0.00 1.04707 0.00
1 12 3 1 o 13663.086 11223.193 180.00 1.04448 0.41
8 3 4 1 o 50.730 50.699 180.00 1.04412 0.00
9 0 2 1 o 2797.584 2603.897 0.00 1.04324 0.04
1 6 8 2 o 1879.812 1741.268 0.00 1.04563 0.03
3 12 1 2 o 1682.215 1603.464 0.00 1.04524 0.02
1 12 3 2 o 10953.021 11223.193 180.00 1.04448 0.15
8 3 4 2 o 50.681 50.699 180.00 1.04412 0.00
1 2 9 1 o 2512.742 2795.781 180.00 1.04159 0.08
6 8 4 1 o 2.539 2.690 180.00 1.04082 0.00
9 0 2 2 o 2626.980 2603.897 0.00 1.04324 0.02
6 5 6 1 o 11231.739 11139.375 0.00 1.04037 0.31
7 0 6 1 o 4354.402 4548.774 0.00 1.04021 0.05
9 1 2 1 o 18804.188 20777.646 0.00 1.04007 0.46
4 3 8 1 o 150.422 206.945 0.00 1.03957 0.01
1 2 9 2 o 2653.764 2795.781 180.00 1.04159 0.04
4 8 6 1 o 6283.115 6500.854 0.00 1.03894 0.15
6 8 4 2 o 2.486 2.690 180.00 1.04082 0.00
6 5 6 2 o 11906.347 11139.375 0.00 1.04037 0.17
7 0 6 2 o 5009.078 4548.774 0.00 1.04021 0.03
9 1 2 2 o 23402.672 20777.646 0.00 1.04007 0.30
5 10 3 1 o 1237.771 1125.372 180.00 1.03736 0.03
7 1 6 1 o 727.959 676.430 180.00 1.03707 0.02
4 3 8 2 o 231.682 206.945 0.00 1.03957 0.01
8 5 3 1 o 4647.861 4594.118 180.00 1.03686 0.12
4 8 6 2 o 6162.256 6500.854 0.00 1.03894 0.07
6 1 7 1 o 717.171 786.273 0.00 1.03585 0.02
7 8 2 1 o 18600.982 20156.092 180.00 1.03590 0.49
3 10 5 1 o 368.809 425.737 180.00 1.03586 0.02
5 10 3 2 o 1088.360 1125.372 180.00 1.03736 0.01
7 1 6 2 o 717.257 676.430 180.00 1.03707 0.01
8 5 3 2 o 4972.043 4594.118 180.00 1.03686 0.07
9 3 1 1 o 2251.393 2344.261 180.00 1.03342 0.07
6 1 7 2 o 764.100 786.273 0.00 1.03585 0.01
7 8 2 2 o 19564.865 20156.092 180.00 1.03590 0.26
3 10 5 2 o 406.693 425.737 180.00 1.03586 0.01
8 6 2 1 o 13375.462 13492.018 0.00 1.03308 0.36
2 1 9 1 o 22.697 22.638 0.00 1.03289 0.00
6 7 5 1 o 18509.852 18452.832 0.00 1.03266 0.49
0 3 9 1 o 23896.150 24922.873 180.00 1.03199 0.30
3 5 8 1 o 4328.503 4461.810 180.00 1.03176 0.11
2 8 7 1 o 424.264 436.601 180.00 1.03173 0.01
5 7 6 1 o 3.530 3.618 180.00 1.03165 0.00
9 3 1 2 o 2871.644 2344.261 180.00 1.03342 0.04
9 2 2 1 o 1351.939 1131.503 0.00 1.03074 0.04
8 6 2 2 o 15791.254 13492.018 0.00 1.03308 0.22
6 9 3 1 o 5171.405 4437.082 0.00 1.03055 0.15
2 1 9 2 o 24.316 22.638 0.00 1.03289 0.00
6 7 5 2 o 20347.959 18452.832 0.00 1.03266 0.27
0 3 9 2 o 26111.813 24922.873 180.00 1.03199 0.17
7 5 5 1 o 552.188 540.570 0.00 1.02942 0.01
3 5 8 2 o 4588.080 4461.810 180.00 1.03176 0.06
2 8 7 2 o 449.559 436.601 180.00 1.03173 0.01
5 7 6 2 o 3.890 3.618 180.00 1.03165 0.00
9 2 2 2 o 1307.233 1131.503 0.00 1.03074 0.02
3 9 6 1 o 7684.430 6630.660 0.00 1.02808 0.22
6 9 3 2 o 5125.808 4437.082 0.00 1.03055 0.07
7 2 6 1 o 16834.176 14718.783 180.00 1.02781 0.44
2 6 8 1 o 25.128 20.982 180.00 1.02759 0.00
5 5 7 1 o 5336.792 5168.702 180.00 1.02724 0.12
7 5 5 2 o 545.536 540.570 0.00 1.02942 0.00
3 12 2 1 o 3332.160 3274.795 180.00 1.02694 0.10
6 2 7 1 o 518.050 497.751 0.00 1.02663 0.01
2 12 3 1 o 6991.243 6708.122 180.00 1.02649 0.21
6 10 0 1 o 9.584 9.541 180.00 1.02632 0.00
1 3 9 1 o 8544.709 8455.852 180.00 1.02610 0.22
4 11 3 1 o 23202.756 22957.646 180.00 1.02611 0.67
3 9 6 2 o 6527.350 6630.660 0.00 1.02808 0.09
3 11 4 1 o 300.422 303.587 0.00 1.02547 0.01
7 2 6 2 o 14766.799 14718.783 180.00 1.02781 0.19
2 6 8 2 o 21.738 20.982 180.00 1.02759 0.00
5 5 7 2 o 5204.346 5168.702 180.00 1.02724 0.06
0 11 5 1 o 10646.474 10660.316 0.00 1.02466 0.16
3 12 2 2 o 3101.187 3274.795 180.00 1.02694 0.04
6 2 7 2 o 461.615 497.751 0.00 1.02663 0.01
2 12 3 2 o 6281.842 6708.122 180.00 1.02649 0.09
2 2 9 1 o 28736.406 31181.629 180.00 1.02375 0.70
6 10 0 2 o 9.455 9.541 180.00 1.02632 0.00
1 3 9 2 o 7572.432 8455.852 180.00 1.02610 0.10
4 11 3 2 o 20647.375 22957.646 180.00 1.02611 0.29
0 10 6 1 o 10952.977 11994.924 0.00 1.02308 0.14
3 11 4 2 o 281.441 303.587 0.00 1.02547 0.00
8 4 4 1 o 33574.746 35851.68 0.00 1.02248 0.83
0 11 5 2 o 9097.766 10660.316 0.00 1.02466 0.06
0 13 1 1 o 6.868 8.015 0.00 1.02157 0.00
2 2 9 2 o 27219.531 31181.629 180.00 1.02375 0.33
5 11 1 1 o 147.302 158.652 0.00 1.02103 0.00
0 10 6 2 o 11537.382 11994.924 0.00 1.02308 0.07
6 10 1 1 o 2411.108 2493.853 0.00 1.02044 0.07
8 4 4 2 o 36362.59 35851.68 0.00 1.02248 0.46
0 13 1 2 o 7.754 8.015 0.00 1.02157 0.00
1 11 5 1 o 1241.129 1322.873 180.00 1.01890 0.03
5 11 1 2 o 144.677 158.652 0.00 1.02103 0.00
4 4 8 1 o 6790.193 7315.143 0.00 1.01821 0.14
6 10 1 2 o 2448.046 2493.853 0.00 1.02044 0.03
8 7 0 1 o 1653.661 1621.926 180.00 1.01746 0.03
1 10 6 1 o 30058.230 30546.102 0.00 1.01734 0.84
1 11 5 2 o 1503.920 1322.873 180.00 1.01890 0.02
9 3 2 1 o 4643.912 4030.380 0.00 1.01573 0.12
4 4 8 2 o 8296.388 7315.143 0.00 1.01821 0.10
1 13 1 1 o 958.887 822.002 0.00 1.01586 0.03
8 7 0 2 o 1731.133 1621.926 180.00 1.01746 0.02
8 1 5 1 o 22437.170 22115.455 180.00 1.01474 0.57
1 10 6 2 o 31407.713 30546.102 0.00 1.01734 0.44
5 0 8 1 o 20941.480 21691.516 0.00 1.01425 0.26
9 3 2 2 o 4465.038 4030.380 0.00 1.01573 0.05
1 13 1 2 o 861.670 822.002 0.00 1.01586 0.01
7 3 6 1 o 463.607 374.190 180.00 1.01293 0.01
9 4 1 1 o 3099.995 2610.473 180.00 1.01243 0.08
8 1 5 2 o 26011.926 22115.455 180.00 1.01474 0.34
6 3 7 1 o 954.855 870.386 0.00 1.01180 0.02
5 0 8 2 o 23710.707 21691.516 0.00 1.01425 0.15
8 7 1 1 o 469.332 433.913 0.00 1.01174 0.01
5 1 8 1 o 7631.437 7507.150 0.00 1.01134 0.19
9 1 3 1 o 5756.088 4945.600 180.00 1.01052 0.17
7 3 6 2 o 432.765 374.190 180.00 1.01293 0.01
7 7 4 1 o 8.560 7.211 0.00 1.01044 0.00
4 12 0 1 o 10708.220 9192.791 0.00 1.01018 0.15
9 4 1 2 o 3310.431 2610.473 180.00 1.01243 0.04
6 3 7 2 o 1237.552 870.386 0.00 1.01180 0.02
8 7 1 2 o 611.731 433.913 0.00 1.01174 0.01
2 3 9 1 o 1469.270 1084.363 180.00 1.00903 0.04
5 1 8 2 o 9706.920 7507.150 0.00 1.01134 0.13
0 12 4 1 o 3964.069 3258.722 0.00 1.00880 0.05
9 1 3 2 o 6103.229 4945.600 180.00 1.01052 0.09
7 7 4 2 o 9.262 7.211 0.00 1.01044 0.00
4 7 7 1 o 1896.916 1550.265 180.00 1.00760 0.05
4 12 0 2 o 11179.747 9192.791 0.00 1.01018 0.08
6 6 6 1 o 41.422 35.519 180.00 1.00731 0.00
7 8 3 1 o 1192.409 992.194 0.00 1.00670 0.03
2 3 9 2 o 1273.614 1084.363 180.00 1.00903 0.02
1 7 8 1 o 17.434 13.450 0.00 1.00631 0.00
0 12 4 2 o 3668.618 3258.722 0.00 1.00880 0.02
8 2 5 1 o 13697.156 11769.221 180.00 1.00607 0.36
1 4 9 1 o 7.221 5.056 180.00 1.00554 0.00
4 7 7 2 o 1954.474 1550.265 180.00 1.00760 0.03
6 6 6 2 o 42.870 35.519 180.00 1.00731 0.00
2 13 0 1 o 23652.539 18077.336 0.00 1.00481 0.38
4 12 1 1 o 2777.763 2189.062 0.00 1.00457 0.09
3 1 9 1 o 11035.646 9141.687 0.00 1.00436 0.30
7 8 3 2 o 1144.105 992.194 0.00 1.00670 0.02
0 9 7 1 o 933.269 803.428 180.00 1.00427 0.01
8 6 3 1 o 1406.589 1262.114 0.00 1.00411 0.04
5 11 2 1 o 7537.681 7002.768 0.00 1.00396 0.22
1 7 8 2 o 14.567 13.450 0.00 1.00631 0.00
8 2 5 2 o 11828.009 11769.221 180.00 1.00607 0.15
6 10 2 1 o 5422.321 5464.092 180.00 1.00339 0.15
3 8 7 1 o 4526.316 4567.863 0.00 1.00330 0.11
1 12 4 1 o 2664.031 2689.460 0.00 1.00330 0.08
1 4 9 2 o 4.904 5.056 180.00 1.00554 0.00
7 9 1 1 o 6907.842 7043.707 0.00 1.00288 0.22
5 2 8 1 o 6278.052 6402.730 0.00 1.00276 0.16
2 13 0 2 o 17863.531 18077.336 0.00 1.00481 0.13
2 11 5 1 o 5645.949 5746.087 0.00 1.00218 0.16
9 2 3 1 o 23106.199 24113.338 0.00 1.00196 0.57
4 12 1 2 o 2131.813 2189.062 0.00 1.00457 0.03
3 1 9 2 o 8664.687 9141.687 0.00 1.00436 0.11
0 9 7 2 o 760.208 803.428 180.00 1.00427 0.00
8 6 3 2 o 1187.983 1262.114 0.00 1.00411 0.01
5 11 2 2 o 6607.237 7002.768 0.00 1.00396 0.09
6 10 2 2 o 5326.457 5464.092 180.00 1.00339 0.08
5 9 5 1 o 2297.975 2354.483 180.00 1.00086 0.05
3 8 7 2 o 4423.044 4567.863 0.00 1.00330 0.06
1 12 4 2 o 2600.899 2689.460 0.00 1.00330 0.04
2 10 6 1 o 1547.092 1638.087 180.00 1.00070 0.05
7 9 1 2 o 6518.563 7043.707 0.00 1.00288 0.10
5 2 8 2 o 6039.153 6402.730 0.00 1.00276 0.07
2 11 5 2 o 5754.830 5746.087 0.00 1.00218 0.08
9 2 3 2 o 23823.916 24113.338 0.00 1.00196 0.30
3 6 8 1 o 25796.217 26144.260 180.00 0.99948 0.67
2 13 1 1 o 10299.235 10696.392 0.00 0.99929 0.31
1 13 2 1 o 7925.067 8433.976 180.00 0.99904 0.23
1 9 7 1 o 3885.092 4190.165 180.00 0.99885 0.11
5 9 5 2 o 2218.310 2354.483 180.00 1.00086 0.02
3 12 3 1 o 9448.403 10289.064 0.00 0.99847 0.29
2 10 6 2 o 1533.104 1638.087 180.00 1.00070 0.02
7 6 5 1 o 527.828 492.056 0.00 0.99736 0.02
3 6 8 2 o 27844.074 26144.260 180.00 0.99948 0.37
5 6 7 1 o 21529.564 21370.691 180.00 0.99537 0.59
5 10 4 1 o 8487.981 7985.120 0.00 0.99698 0.24
8 7 2 1 o 1195.729 1136.735 0.00 0.99511 0.04
2 13 1 2 o 11202.048 10696.392 0.00 0.99929 0.17
8 5 4 1 o 6039.021 5941.819 0.00 0.99654 0.14
7 6 5 2 o 549.939 492.056 0.00 0.99736 0.01
1 13 2 2 o 8603.819 8433.976 180.00 0.99904 0.13
1 9 7 2 o 4259.459 4190.165 180.00 0.99885 0.06
4 10 5 1 o 255.558 250.863 0.00 0.99624 0.01
5 10 4 2 o 9655.916 7985.120 0.00 0.99698 0.14
3 2 9 1 o 743.595 716.600 180.00 0.99595 0.03
3 12 3 2 o 10574.102 10289.064 0.00 0.99847 0.17
9 4 2 1 o 506.379 498.142 0.00 0.99577 0.01
8 5 4 2 o 7187.580 5941.819 0.00 0.99654 0.09
4 10 5 2 o 288.140 250.863 0.00 0.99624 0.00
3 2 9 2 o 848.211 716.600 180.00 0.99595 0.02
9 4 2 2 o 544.400 498.142 0.00 0.99577 0.01
7 4 6 1 o 42922.32 41147.95 180.00 0.99314 1.09
5 6 7 2 o 20837.527 21370.691 180.00 0.99537 0.28
8 7 2 2 o 1026.118 1136.735 0.00 0.99511 0.02
4 5 8 1 o 722.908 768.339 0.00 0.99258 0.02
8 3 5 1 o 4242.549 4583.273 0.00 0.99209 0.10
6 4 7 1 o 87.948 95.849 180.00 0.99207 0.00
6 9 4 1 o 16205.351 16326.193 180.00 0.99093 0.42
7 4 6 2 o 40673.48 41147.95 180.00 0.99314 0.51
2 7 8 1 o 165.155 189.633 180.00 0.99020 0.01
4 5 8 2 o 701.294 768.339 0.00 0.99258 0.01
8 3 5 2 o 4294.415 4583.273 0.00 0.99209 0.05
6 4 7 2 o 89.593 95.849 180.00 0.99207 0.00
2 4 9 1 o 6640.445 7025.612 0.00 0.98946 0.17
4 9 6 1 o 178.347 185.726 0.00 0.98931 0.00
6 8 5 1 o 13862.424 14827.509 180.00 0.98926 0.36
5 3 8 1 o 1688.803 1796.111 0.00 0.98892 0.04
6 9 4 2 o 15390.572 16326.193 180.00 0.99093 0.20
5 8 6 1 o 10233.322 11124.501 0.00 0.98837 0.26
9 3 3 1 o 1118.421 1226.373 180.00 0.98815 0.02
4 12 2 1 o 11128.687 12420.767 0.00 0.98829 0.34
2 7 8 2 o 176.313 189.633 180.00 0.99020 0.00
9 5 1 1 o 2505.041 2434.874 180.00 0.98722 0.08
2 12 4 1 o 8108.012 7887.302 180.00 0.98733 0.27
2 4 9 2 o 7162.622 7025.612 0.00 0.98946 0.09
4 11 4 1 o 2.427 1.672 0.00 0.98699 0.00
4 9 6 2 o 188.546 185.726 0.00 0.98931 0.00
6 8 5 2 o 15202.479 14827.509 180.00 0.98926 0.20
7 9 2 1 o 1412.390 1370.168 0.00 0.98668 0.04
5 3 8 2 o 1836.943 1796.111 0.00 0.98892 0.02
0 5 9 1 o 490.397 522.306 180.00 0.98598 0.01
5 8 6 2 o 10387.390 11124.501 0.00 0.98837 0.13
9 3 3 2 o 1182.931 1226.373 180.00 0.98815 0.01
4 12 2 2 o 11547.999 12420.767 0.00 0.98829 0.18
9 5 1 2 o 3230.220 2434.874 180.00 0.98722 0.05
2 12 4 2 o 9656.521 7887.302 180.00 0.98733 0.16
4 11 4 2 o 17.393 1.672 0.00 0.98699 0.00
7 9 2 2 o 2127.646 1370.168 0.00 0.98668 0.03
0 5 9 2 o 917.704 522.306 180.00 0.98598 0.01
2 13 2 1 o 1829.816 1029.426 0.00 0.98326 0.06
2 9 7 1 o 1218.668 751.128 0.00 0.98308 0.04
3 3 9 1 o 9498.907 7127.320 0.00 0.98239 0.24
1 5 9 1 o 11893.351 7640.965 180.00 0.98084 0.34
2 13 2 2 o 1638.114 1029.426 0.00 0.98326 0.03
2 9 7 2 o 1136.364 751.128 0.00 0.98308 0.02
3 3 9 2 o 9768.272 7127.320 0.00 0.98239 0.13
1 5 9 2 o 10110.205 7640.965 180.00 0.98084 0.14
0 13 3 1 o 19936.973 17911.898 180.00 0.97778 0.31
5 11 3 1 o 166.428 155.714 0.00 0.97731 0.01
6 10 3 1 o 641.024 538.131 180.00 0.97679 0.02
3 11 5 1 o 12094.625 10726.244 0.00 0.97606 0.35
8 8 0 1 o 33375.926 30067.092 0.00 0.97588 0.46
9 0 4 1 o 5014.062 4645.440 0.00 0.97568 0.07
0 13 3 2 o 18130.539 17911.898 180.00 0.97778 0.14
5 11 3 2 o 164.153 155.714 0.00 0.97731 0.00
3 10 6 1 o 1305.091 1210.821 0.00 0.97469 0.04
6 10 3 2 o 587.014 538.131 180.00 0.97679 0.01
3 11 5 2 o 12180.605 10726.244 0.00 0.97606 0.18
8 4 5 1 o 2019.368 1796.418 0.00 0.97348 0.05
8 8 0 2 o 33895.109 30067.092 0.00 0.97588 0.23
9 0 4 2 o 5174.300 4645.440 0.00 0.97568 0.03
3 13 1 1 o 3403.583 3089.836 0.00 0.97339 0.09
9 1 4 1 o 2300.772 2119.625 0.00 0.97309 0.06
1 13 3 1 o 811.624 776.336 0.00 0.97277 0.03
3 10 6 2 o 1283.466 1210.821 0.00 0.97469 0.02
6 7 6 1 o 754.974 681.071 0.00 0.97201 0.03
9 5 2 1 o 27606.814 26295.877 180.00 0.97176 0.71
8 4 5 2 o 1989.916 1796.418 0.00 0.97348 0.03
0 8 8 1 o 12580.336 11205.306 0.00 0.97094 0.19
3 13 1 2 o 3386.549 3089.836 0.00 0.97339 0.05
8 8 1 1 o 4318.202 3911.095 0.00 0.97082 0.12
9 1 4 2 o 2307.967 2119.625 0.00 0.97309 0.03
5 4 8 1 o 1807.006 1708.549 0.00 0.97048 0.04
1 13 3 2 o 813.669 776.336 0.00 0.97277 0.01
9 4 3 1 o 3963.034 3902.773 180.00 0.96975 0.10
7 8 4 1 o 8076.267 7987.929 180.00 0.96968 0.21
6 7 6 2 o 688.393 681.071 0.00 0.97201 0.01
9 5 2 2 o 25563.193 26295.877 180.00 0.97176 0.32
7 5 6 1 o 885.313 921.573 0.00 0.96931 0.02
8 7 3 1 o 16386.020 17674.971 180.00 0.96914 0.41
0 8 8 2 o 10183.874 11205.306 0.00 0.97094 0.07
8 8 1 2 o 3590.797 3911.095 0.00 0.97082 0.05
6 5 7 1 o 353.030 381.198 0.00 0.96832 0.01
4 1 9 1 o 8429.029 9237.144 180.00 0.96811 0.21
5 4 8 2 o 1565.002 1708.549 0.00 0.97048 0.02
6 11 0 1 o 2097.768 2253.597 180.00 0.96806 0.02
9 4 3 2 o 3428.650 3902.773 180.00 0.96975 0.04
8 6 4 1 o 292.543 334.170 180.00 0.96736 0.01
7 8 4 2 o 6957.008 7987.929 180.00 0.96968 0.09
4 8 7 1 o 11.158 12.870 180.00 0.96717 0.00
7 5 6 2 o 810.871 921.573 0.00 0.96931 0.01
8 7 3 2 o 15828.318 17674.971 180.00 0.96914 0.20
1 8 8 1 o 1631.696 1665.405 0.00 0.96603 0.04
6 5 7 2 o 376.880 381.198 0.00 0.96832 0.00
2 5 9 1 o 52.851 53.339 180.00 0.96590 0.00
4 1 9 2 o 9012.354 9237.144 180.00 0.96811 0.11
7 1 7 1 o 24675.500 25563.670 0.00 0.96565 0.57
6 11 0 2 o 2195.373 2253.597 180.00 0.96806 0.01
9 2 4 1 o 2727.886 2966.030 0.00 0.96544 0.07
8 6 4 2 o 300.630 334.170 180.00 0.96736 0.00
3 7 8 1 o 39.934 45.813 0.00 0.96498 0.00
4 8 7 2 o 11.425 12.870 180.00 0.96717 0.00
3 4 9 1 o 93.285 90.609 180.00 0.96430 0.00
4 6 8 1 o 5169.622 4702.942 180.00 0.96375 0.14
1 8 8 2 o 1787.214 1665.405 0.00 0.96603 0.02
2 5 9 2 o 54.939 53.339 180.00 0.96590 0.00
7 1 7 2 o 25119.199 25563.670 0.00 0.96565 0.29
9 2 4 2 o 2734.919 2966.030 0.00 0.96544 0.03
7 7 5 1 o 15170.938 16495.701 0.00 0.96307 0.40
6 11 1 1 o 16262.031 17306.410 0.00 0.96312 0.45
4 12 3 1 o 497.074 567.605 180.00 0.96284 0.01
3 7 8 2 o 37.986 45.813 0.00 0.96498 0.00
10 0 0 1 o 712.712 764.887 0.00 0.96217 0.00
3 12 4 1 o 3348.586 3700.043 180.00 0.96232 0.09
3 4 9 2 o 84.674 90.609 180.00 0.96430 0.00
4 6 8 2 o 5006.296 4702.942 180.00 0.96375 0.07
7 9 3 1 o 2840.770 2707.316 0.00 0.96135 0.06
5 7 7 1 o 722.362 675.190 180.00 0.96127 0.02
7 7 5 2 o 16055.090 16495.701 0.00 0.96307 0.22
6 11 1 2 o 17093.926 17306.410 0.00 0.96312 0.24
4 2 9 1 o 2557.455 2703.812 180.00 0.96057 0.06
1 11 6 1 o 2907.556 3117.680 0.00 0.96052 0.08
4 12 3 2 o 526.583 567.605 180.00 0.96284 0.01
10 0 0 2 o 717.386 764.887 0.00 0.96217 0.00
3 12 4 2 o 3361.718 3700.043 180.00 0.96232 0.05
10 1 0 1 o 4314.389 4507.146 180.00 0.95968 0.05
8 0 6 1 o 1589.101 1644.537 180.00 0.95949 0.02
7 9 3 2 o 2650.024 2707.316 0.00 0.96135 0.03
5 7 7 2 o 660.936 675.190 180.00 0.96127 0.01
9 6 1 1 o 6606.255 6676.180 180.00 0.95884 0.17
5 12 1 1 o 6895.840 6922.722 0.00 0.95865 0.19
3 13 2 1 o 3680.774 3725.449 0.00 0.95856 0.11
3 9 7 1 o 9660.064 10063.271 0.00 0.95839 0.24
4 2 9 2 o 2490.866 2703.812 180.00 0.96057 0.03
7 2 7 1 o 424.514 453.039 180.00 0.95817 0.01
1 11 6 2 o 2842.850 3117.680 0.00 0.96052 0.04
2 13 3 1 o 3417.967 3715.639 0.00 0.95819 0.10
6 0 8 1 o 1979.075 2071.057 180.00 0.95743 0.02
10 1 0 2 o 4337.471 4507.146 180.00 0.95968 0.02
8 0 6 2 o 1576.566 1644.537 180.00 0.95949 0.01
8 1 6 1 o 5079.125 5330.970 180.00 0.95703 0.15
1 12 5 1 o 228.456 232.549 0.00 0.95688 0.00
9 6 1 2 o 6996.936 6676.180 180.00 0.95884 0.09
5 12 1 2 o 7292.867 6922.722 0.00 0.95865 0.10
8 8 2 1 o 7809.754 7538.656 0.00 0.95611 0.20
3 13 2 2 o 3910.734 3725.449 0.00 0.95856 0.06
3 9 7 2 o 10259.746 10063.271 0.00 0.95839 0.13
7 2 7 2 o 444.967 453.039 180.00 0.95817 0.00
2 13 3 2 o 3637.897 3715.639 0.00 0.95819 0.05
6 0 8 2 o 2184.803 2071.057 180.00 0.95743 0.01
6 1 8 1 o 11467.849 10741.427 0.00 0.95498 0.31
10 1 1 1 o 21317.172 20242.248 0.00 0.95487 0.54
0 0 10 1 o 6292.610 6076.527 0.00 0.95479 0.03
8 1 6 2 o 5511.965 5330.970 180.00 0.95703 0.08
1 12 5 2 o 235.445 232.549 0.00 0.95688 0.00
0 14 0 1 o 52615.12 50550.23 0.00 0.95408 0.39
8 8 2 2 o 7568.755 7538.656 0.00 0.95611 0.10
9 3 4 1 o 750.407 724.064 0.00 0.95307 0.02
7 10 1 1 o 7.582 7.514 0.00 0.95313 0.00
1 6 9 1 o 1411.332 1330.894 0.00 0.95298 0.05
6 1 8 2 o 11403.127 10741.427 0.00 0.95498 0.16
10 1 1 2 o 21131.244 20242.248 0.00 0.95487 0.27
0 0 10 2 o 6209.544 6076.527 0.00 0.95479 0.02
10 2 0 1 o 14241.056 14312.658 180.00 0.95233 0.18
2 8 8 1 o 911.760 882.712 0.00 0.95175 0.03
0 14 0 2 o 52014.02 50550.23 0.00 0.95408 0.19
5 10 5 1 o 3.309 0.485 180.00 0.95140 0.00
8 5 5 1 o 682.551 590.069 180.00 0.95101 0.02
9 3 4 2 o 826.589 724.064 0.00 0.95307 0.01
7 10 1 2 o 7.857 7.514 0.00 0.95313 0.00
1 6 9 2 o 1574.231 1330.894 0.00 0.95298 0.03
1 0 10 1 o 21363.721 19974.773 0.00 0.95013 0.27
10 2 0 2 o 15028.380 14312.658 180.00 0.95233 0.10
8 2 6 1 o 2549.129 2490.439 0.00 0.94974 0.06
1 10 7 1 o 172.280 171.484 180.00 0.94967 0.00
2 8 8 2 o 906.469 882.712 0.00 0.95175 0.02
5 10 5 2 o 0.431 0.485 180.00 0.95140 0.00
8 5 5 2 o 590.821 590.069 180.00 0.95101 0.01
6 11 2 1 o 1665.089 1661.513 180.00 0.94875 0.06
4 3 9 1 o 21200.254 22030.947 0.00 0.94839 0.53
5 5 8 1 o 8760.843 9559.383 180.00 0.94821 0.21
1 0 10 2 o 16460.498 19974.773 0.00 0.95013 0.10
6 2 8 1 o 72.784 93.269 0.00 0.94774 0.00
1 1 10 1 o 2803.068 3441.623 0.00 0.94773 0.07
10 2 1 1 o 5530.433 6770.949 180.00 0.94763 0.13
9 5 3 1 o 201.859 216.481 180.00 0.94754 0.00
8 2 6 2 o 2077.226 2490.439 0.00 0.94974 0.02
1 10 7 2 o 164.783 171.484 180.00 0.94967 0.00
2 11 6 1 o 3367.704 3211.174 180.00 0.94647 0.11
6 11 2 2 o 1782.858 1661.513 180.00 0.94875 0.03
7 3 7 1 o 2013.217 1854.112 180.00 0.94608 0.04
6 9 5 1 o 1152.229 1045.070 0.00 0.94613 0.03
4 3 9 2 o 24392.900 22030.947 0.00 0.94839 0.32
5 5 8 2 o 10636.406 9559.383 180.00 0.94821 0.14
6 2 8 2 o 104.893 93.269 0.00 0.94774 0.00
1 1 10 2 o 3798.161 3441.623 0.00 0.94773 0.05
10 2 1 2 o 7296.254 6770.949 180.00 0.94763 0.09
5 9 6 1 o 16910.840 15482.043 0.00 0.94535 0.47
9 5 3 2 o 220.812 216.481 180.00 0.94754 0.00
0 2 10 1 o 3202.823 3050.859 180.00 0.94518 0.04
4 13 0 1 o 943.784 928.140 0.00 0.94488 0.01
9 6 2 1 o 1124.252 1076.459 0.00 0.94465 0.03
1 14 1 1 o 1420.219 1363.979 0.00 0.94476 0.06
5 12 2 1 o 1530.792 1443.839 0.00 0.94447 0.04
2 11 6 2 o 3385.060 3211.174 180.00 0.94647 0.05
7 3 7 2 o 1979.922 1854.112 180.00 0.94608 0.02
6 9 5 2 o 1125.180 1045.070 0.00 0.94613 0.02
10 0 2 1 o 2350.300 2030.607 180.00 0.94320 0.03
5 11 4 1 o 866.196 747.885 0.00 0.94333 0.03
5 9 6 2 o 17719.084 15482.043 0.00 0.94535 0.25
2 12 5 1 o 25369.744 22417.742 180.00 0.94299 0.76
0 2 10 2 o 3288.464 3050.859 180.00 0.94518 0.02
6 10 4 1 o 14548.885 13521.490 180.00 0.94286 0.40
4 11 5 1 o 32991.492 32913.973 180.00 0.94270 0.94
3 5 9 1 o 3937.849 4219.416 0.00 0.94245 0.09
4 13 0 2 o 885.192 928.140 0.00 0.94488 0.01
7 6 6 1 o 251.183 274.658 0.00 0.94240 0.01
9 6 2 2 o 989.161 1076.459 0.00 0.94465 0.01
1 14 1 2 o 1224.489 1363.979 0.00 0.94476 0.03
5 12 2 2 o 1348.925 1443.839 0.00 0.94447 0.02
6 6 7 1 o 269.380 247.585 180.00 0.94149 0.01
4 10 6 1 o 3222.590 2946.539 180.00 0.94146 0.10
10 0 2 2 o 2284.348 2030.607 180.00 0.94320 0.01
10 1 2 1 o 1893.521 1626.058 180.00 0.94086 0.06
5 11 4 2 o 849.183 747.885 0.00 0.94333 0.01
1 2 10 1 o 4710.508 4299.977 0.00 0.94065 0.12
2 12 5 2 o 24654.783 22417.742 180.00 0.94299 0.37
10 3 0 1 o 384.209 379.124 180.00 0.94046 0.00
6 10 4 2 o 14279.993 13521.490 180.00 0.94286 0.20
4 11 5 2 o 32692.750 32913.973 180.00 0.94270 0.47
4 13 1 1 o 22136.590 23085.389 180.00 0.94029 0.64
3 5 9 2 o 3876.111 4219.416 0.00 0.94245 0.04
7 6 6 2 o 245.241 274.658 0.00 0.94240 0.00
2 6 9 1 o 14659.502 14665.813 0.00 0.93926 0.38
6 6 7 2 o 245.345 247.585 180.00 0.94149 0.00
7 10 2 1 o 11573.159 11642.172 0.00 0.93920 0.32
1 13 4 1 o 1125.708 1127.923 180.00 0.93924 0.03
4 10 6 2 o 2907.238 2946.539 180.00 0.94146 0.04
10 1 2 2 o 1602.640 1626.058 180.00 0.94086 0.03
1 2 10 2 o 4239.375 4299.977 0.00 0.94065 0.05
10 3 0 2 o 371.873 379.124 180.00 0.94046 0.00
8 3 6 1 o 2770.579 2983.462 180.00 0.93796 0.09
4 13 1 2 o 21807.709 23085.389 180.00 0.94029 0.32
2 6 9 2 o 14125.025 14665.813 0.00 0.93926 0.18
7 10 2 2 o 11053.704 11642.172 0.00 0.93920 0.15
1 13 4 2 o 1082.059 1127.923 180.00 0.93924 0.02
9 4 4 1 o 1557.102 1726.107 0.00 0.93653 0.04
2 0 10 1 o 159.266 164.834 0.00 0.93653 0.00
6 3 8 1 o 4233.934 4638.677 0.00 0.93603 0.12
2 10 7 1 o 25.540 27.314 180.00 0.93609 0.00
10 3 1 1 o 34.294 38.379 180.00 0.93593 0.00
8 7 4 1 o 977.595 1099.707 180.00 0.93598 0.04
2 14 0 1 o 5588.618 6211.561 180.00 0.93585 0.09
8 3 6 2 o 2608.221 2983.462 180.00 0.93796 0.04
6 8 6 1 o 488.041 561.816 180.00 0.93557 0.02
0 14 2 1 o 14153.932 15984.632 0.00 0.93558 0.23
3 13 3 1 o 16274.171 19494.365 0.00 0.93528 0.49
8 9 0 1 o 10236.518 10253.744 0.00 0.93441 0.15
9 4 4 2 o 1733.398 1726.107 0.00 0.93653 0.02
2 1 10 1 o 11934.257 11872.314 180.00 0.93423 0.31
2 0 10 2 o 165.072 164.834 0.00 0.93653 0.00
10 2 2 1 o 5235.040 5464.998 180.00 0.93393 0.13
6 3 8 2 o 4194.209 4638.677 0.00 0.93603 0.06
2 10 7 2 o 25.499 27.314 180.00 0.93609 0.00
10 3 1 2 o 33.705 38.379 180.00 0.93593 0.00
8 7 4 2 o 962.047 1099.707 180.00 0.93598 0.02
2 14 0 2 o 5482.687 6211.561 180.00 0.93585 0.05
6 8 6 2 o 470.801 561.816 180.00 0.93557 0.01
0 14 2 2 o 13716.408 15984.632 0.00 0.93558 0.11
8 8 3 1 o 818.068 939.140 180.00 0.93301 0.02
3 13 3 2 o 16776.678 19494.365 0.00 0.93528 0.25
4 7 8 1 o 476.189 519.698 180.00 0.93270 0.02
4 4 9 1 o 393.966 351.949 0.00 0.93209 0.01
8 9 0 2 o 11555.312 10253.744 0.00 0.93441 0.08
2 1 10 2 o 13941.398 11872.314 180.00 0.93423 0.19
10 2 2 2 o 6692.077 5464.998 180.00 0.93393 0.09
2 14 1 1 o 55.363 47.703 180.00 0.93139 0.00
1 14 2 1 o 18238.590 17172.271 0.00 0.93119 0.58
8 8 3 2 o 896.742 939.140 180.00 0.93301 0.01
9 1 5 1 o 1176.573 1207.025 180.00 0.93057 0.02
4 7 8 2 o 492.287 519.698 180.00 0.93270 0.01
4 12 4 1 o 241.409 246.988 0.00 0.93030 0.00
8 9 1 1 o 9534.954 10094.203 180.00 0.92996 0.26
7 4 7 1 o 254.193 269.835 0.00 0.92989 0.01
4 4 9 2 o 333.862 351.949 0.00 0.93209 0.00
3 8 8 1 o 16588.658 16688.512 180.00 0.92929 0.44
1 3 10 1 o 1297.715 1295.792 0.00 0.92920 0.04
2 14 1 2 o 48.326 47.703 180.00 0.93139 0.00
7 9 4 1 o 116.676 112.338 0.00 0.92895 0.00
1 14 2 2 o 18169.896 17172.271 0.00 0.93119 0.29
9 1 5 2 o 1332.825 1207.025 180.00 0.93057 0.01
9 7 1 1 o 87.619 68.823 0.00 0.92825 0.00
4 12 4 2 o 264.121 246.988 0.00 0.93030 0.00
8 9 1 2 o 10659.140 10094.203 180.00 0.92996 0.15
7 4 7 2 o 282.642 269.835 0.00 0.92989 0.00
7 8 5 1 o 28.750 27.806 180.00 0.92758 0.00
2 2 10 1 o 102.663 99.363 0.00 0.92745 0.00
0 7 9 1 o 24627.158 23659.754 0.00 0.92721 0.33
3 8 8 2 o 17280.580 16688.512 180.00 0.92929 0.23
1 3 10 2 o 1341.890 1295.792 0.00 0.92920 0.02
5 1 9 1 o 2791.555 2719.791 180.00 0.92681 0.06
4 13 2 1 o 144.113 138.880 0.00 0.92690 0.01
4 9 7 1 o 271.368 263.215 180.00 0.92675 0.01
7 9 4 2 o 116.294 112.338 0.00 0.92895 0.00
6 11 3 1 o 1742.348 1546.995 0.00 0.92616 0.05
9 7 1 2 o 81.732 68.823 0.00 0.92825 0.00
2 13 4 1 o 12765.227 11370.900 180.00 0.92610 0.40
5 8 7 1 o 11621.293 10577.483 0.00 0.92598 0.31
1 9 8 1 o 6508.646 6275.638 180.00 0.92575 0.18
8 6 5 1 o 4815.854 4818.187 0.00 0.92555 0.13
7 8 5 2 o 28.220 27.806 180.00 0.92758 0.00
2 2 10 2 o 102.859 99.363 0.00 0.92745 0.00
0 7 9 2 o 25501.381 23659.754 0.00 0.92721 0.17
10 4 0 1 o 29928.820 28477.541 180.00 0.92455 0.39
5 1 9 2 o 2827.746 2719.791 180.00 0.92681 0.03
4 13 2 2 o 149.475 138.880 0.00 0.92690 0.00
4 9 7 2 o 271.056 263.215 180.00 0.92675 0.00
3 11 6 1 o 984.653 974.075 180.00 0.92437 0.03
9 2 5 1 o 1699.687 1650.756 180.00 0.92387 0.04
6 11 3 2 o 1590.067 1546.995 0.00 0.92616 0.02
2 13 4 2 o 11800.375 11370.900 180.00 0.92610 0.18
5 8 7 2 o 11106.928 10577.483 0.00 0.92598 0.15
1 9 8 2 o 6815.297 6275.638 180.00 0.92575 0.10
8 6 5 2 o 5477.550 4818.187 0.00 0.92555 0.08
9 2 5 2 o 1489.151 1650.756 180.00 0.92387 0.02
5 6 8 1 o 12545.852 10747.112 0.00 0.92298 0.35
1 7 9 1 o 7110.625 6127.210 180.00 0.92294 0.19
10 3 2 1 o 1622.148 1336.786 180.00 0.92272 0.06
9 6 3 1 o 11138.405 9934.673 180.00 0.92235 0.30
3 12 5 1 o 1376.500 1213.165 180.00 0.92113 0.05
10 4 0 2 o 30995.725 28477.541 180.00 0.92455 0.20
8 4 6 1 o 10333.557 9961.684 0.00 0.92218 0.28
5 12 3 1 o 18668.043 17957.686 0.00 0.92218 0.57
5 6 8 2 o 12565.017 10747.112 0.00 0.92298 0.17
3 11 6 2 o 965.609 974.075 180.00 0.92437 0.01
1 7 9 2 o 7103.353 6127.210 180.00 0.92294 0.10
10 3 2 2 o 1550.254 1336.786 180.00 0.92272 0.03
6 4 8 1 o 316.357 298.771 0.00 0.92034 0.01
10 4 1 1 o 1532.747 1430.688 0.00 0.92025 0.04
5 2 9 1 o 124.996 112.084 180.00 0.92019 0.01
9 6 3 2 o 10245.943 9934.673 180.00 0.92235 0.14
8 4 6 2 o 9832.199 9961.684 0.00 0.92218 0.13
5 12 3 2 o 17732.361 17957.686 0.00 0.92218 0.27
10 1 3 1 o 718.472 1068.315 0.00 0.91882 0.02
3 12 5 2 o 770.327 1213.165 180.00 0.92113 0.01
2 14 2 1 o 1640.131 1928.579 180.00 0.91837 0.04
6 4 8 2 o 294.089 298.771 0.00 0.92034 0.00
10 4 1 2 o 1447.249 1430.688 0.00 0.92025 0.02
0 4 10 1 o 8665.657 8622.885 180.00 0.91800 0.10
5 2 9 2 o 116.824 112.084 180.00 0.92019 0.00
3 6 9 1 o 393.995 447.760 0.00 0.91766 0.02
7 10 3 1 o 506.273 577.804 0.00 0.91727 0.02
8 9 2 1 o 52.198 50.682 0.00 0.91701 0.00
10 1 3 2 o 1158.253 1068.315 0.00 0.91882 0.02
9 5 4 1 o 3369.777 3276.837 180.00 0.91647 0.09
2 3 10 1 o 3799.219 3692.459 180.00 0.91647 0.11
2 14 2 2 o 1665.550 1928.579 180.00 0.91837 0.02
0 4 10 2 o 6768.231 8622.885 180.00 0.91800 0.03
3 6 9 2 o 244.605 447.760 0.00 0.91766 0.01
9 7 2 1 o 13.058 17.501 0.00 0.91536 0.00
3 0 10 1 o 1.664 2.022 180.00 0.91510 0.00
7 10 3 2 o 535.339 577.804 0.00 0.91727 0.01
8 9 2 2 o 49.184 50.682 0.00 0.91701 0.00
3 10 7 1 o 3376.828 3686.962 0.00 0.91470 0.11
6 12 0 1 o 4348.924 4696.358 180.00 0.91440 0.07
9 5 4 2 o 3242.575 3276.837 180.00 0.91647 0.04
2 3 10 2 o 3653.668 3692.459 180.00 0.91647 0.05
1 4 10 1 o 483.048 455.189 0.00 0.91385 0.01
7 7 6 1 o 28.235 23.063 180.00 0.91331 0.00
9 7 2 2 o 19.948 17.501 0.00 0.91536 0.00
2 9 8 1 o 9409.134 8142.455 180.00 0.91315 0.26
9 3 5 1 o 7144.541 6345.141 180.00 0.91301 0.21
3 1 10 1 o 1264.039 1158.945 180.00 0.91296 0.03
3 0 10 2 o 2.181 2.022 180.00 0.91510 0.00
6 7 7 1 o 305.493 311.057 0.00 0.91249 0.01
10 2 3 1 o 2427.958 2498.037 0.00 0.91236 0.06
3 10 7 2 o 3597.702 3686.962 0.00 0.91470 0.06
4 5 9 1 o 1177.423 1220.563 0.00 0.91231 0.03
6 12 0 2 o 4367.171 4696.358 180.00 0.91440 0.03
0 12 6 1 o 5333.811 5883.141 0.00 0.91210 0.09
1 4 10 2 o 397.734 455.189 0.00 0.91385 0.00
7 7 6 2 o 30.328 23.063 180.00 0.91331 0.00
2 9 8 2 o 10436.547 8142.455 180.00 0.91315 0.15
9 3 5 2 o 8453.032 6345.141 180.00 0.91301 0.13
3 1 10 2 o 1491.741 1158.945 180.00 0.91296 0.02
2 7 9 1 o 334.733 273.788 0.00 0.91046 0.01
7 5 7 1 o 6021.453 4938.923 0.00 0.91025 0.19
6 7 7 2 o 373.138 311.057 0.00 0.91249 0.01
10 2 3 2 o 2939.481 2498.037 0.00 0.91236 0.04
3 14 1 1 o 816.745 631.285 0.00 0.91031 0.04
6 12 1 1 o 12539.114 10557.163 180.00 0.91024 0.39
4 5 9 2 o 1434.991 1220.563 0.00 0.91231 0.02
0 12 6 2 o 7004.123 5883.141 0.00 0.91210 0.06
1 14 3 1 o 487.990 388.383 180.00 0.90980 0.02
5 3 9 1 o 9411.716 9173.849 180.00 0.90946 0.27
2 7 9 2 o 272.555 273.788 0.00 0.91046 0.00
7 5 7 2 o 5198.706 4938.923 0.00 0.91025 0.08
1 12 6 1 o 6231.104 5977.435 0.00 0.90803 0.19
3 14 1 2 o 666.391 631.285 0.00 0.91031 0.02
6 12 1 2 o 11053.736 10557.163 180.00 0.91024 0.17
10 4 2 1 o 9445.770 9080.688 180.00 0.90769 0.26
1 14 3 2 o 401.950 388.383 180.00 0.90980 0.01
5 3 9 2 o 8859.742 9173.849 180.00 0.90946 0.12
0 11 7 1 o 997.195 1067.043 180.00 0.90695 0.01
3 2 10 1 o 7770.983 8094.887 180.00 0.90663 0.20
7 11 1 1 o 7207.109 6969.521 0.00 0.90593 0.20
1 12 6 2 o 5983.857 5977.435 0.00 0.90803 0.09
4 13 3 1 o 556.264 555.008 180.00 0.90580 0.02
10 4 2 2 o 8613.348 9080.688 180.00 0.90769 0.12
10 5 0 1 o 6512.313 6687.492 0.00 0.90524 0.08
3 13 4 1 o 268.069 279.961 0.00 0.90537 0.01
0 13 5 1 o 17252.563 17209.070 180.00 0.90481 0.26
0 11 7 2 o 1056.582 1067.043 180.00 0.90695 0.01
3 2 10 2 o 7453.150 8094.887 180.00 0.90663 0.10
5 11 5 1 o 6035.194 6507.581 180.00 0.90444 0.18
6 10 5 1 o 2312.651 2946.385 180.00 0.90402 0.06
7 11 1 2 o 4895.019 6969.521 0.00 0.90593 0.06
4 13 3 2 o 366.412 555.008 180.00 0.90580 0.01
8 8 4 1 o 26.474 32.818 180.00 0.90330 0.00
5 10 6 1 o 358.027 491.319 0.00 0.90334 0.01
10 5 0 2 o 5383.100 6687.492 0.00 0.90524 0.03
8 5 6 1 o 3269.053 4295.813 0.00 0.90301 0.09
3 13 4 2 o 219.768 279.961 0.00 0.90537 0.00
1 11 7 1 o 151.526 192.347 0.00 0.90295 0.00
0 13 5 2 o 15634.220 17209.070 180.00 0.90481 0.11
5 13 1 1 o 3724.254 3705.849 180.00 0.90231 0.13
5 11 5 2 o 6711.646 6507.581 180.00 0.90444 0.10
10 3 3 1 o 12635.838 12378.342 0.00 0.90190 0.34
6 10 5 2 o 2912.318 2946.385 180.00 0.90402 0.04
2 4 10 1 o 967.445 1016.032 0.00 0.90173 0.04
6 5 8 1 o 8383.583 10229.999 180.00 0.90129 0.22
10 5 1 1 o 2122.371 2615.600 0.00 0.90120 0.05
7 0 8 1 o 902.250 1147.704 0.00 0.90118 0.01
8 8 4 2 o 27.563 32.818 180.00 0.90330 0.00
5 10 6 2 o 388.221 491.319 0.00 0.90334 0.01
8 5 6 2 o 3211.690 4295.813 0.00 0.90301 0.05
1 13 5 1 o 5067.874 6660.106 180.00 0.90083 0.15
1 11 7 2 o 149.719 192.347 0.00 0.90295 0.00
4 8 8 1 o 707.711 737.592 180.00 0.90036 0.01
8 1 7 1 o 215.144 208.154 180.00 0.90005 0.01
5 13 1 2 o 3817.800 3705.849 180.00 0.90231 0.07
10 3 3 2 o 13688.887 12378.342 0.00 0.90190 0.19
2 4 10 2 o 1193.290 1016.032 0.00 0.90173 0.02
7 1 8 1 o 361.744 320.273 180.00 0.89914 0.01
6 5 8 2 o 11565.389 10229.999 180.00 0.90129 0.17
10 5 1 2 o 2909.699 2615.600 0.00 0.90120 0.04
7 0 8 2 o 1288.479 1147.704 0.00 0.90118 0.01
6 9 6 1 o 6932.228 6260.885 180.00 0.89883 0.21
1 13 5 2 o 7405.437 6660.106 180.00 0.90083 0.12
9 4 5 1 o 459.543 403.119 0.00 0.89844 0.01
4 8 8 2 o 817.361 737.592 180.00 0.90036 0.01
3 14 2 1 o 10015.040 8655.584 0.00 0.89814 0.33
6 12 2 1 o 2966.638 2621.487 180.00 0.89807 0.08
8 7 5 1 o 27519.580 24672.617 180.00 0.89795 0.79
8 1 7 2 o 224.758 208.154 180.00 0.90005 0.00
2 14 3 1 o 16.477 15.363 0.00 0.89784 0.00
6 11 4 1 o 8410.696 7612.097 0.00 0.89709 0.29
7 1 8 2 o 355.559 320.273 180.00 0.89914 0.00
6 9 6 2 o 7210.041 6260.885 180.00 0.89883 0.11
8 9 3 1 o 2728.256 2373.458 180.00 0.89656 0.08
3 3 10 1 o 188.577 166.161 180.00 0.89636 0.00
9 8 1 1 o 4974.162 4315.843 0.00 0.89635 0.14
9 4 5 2 o 469.662 403.119 0.00 0.89844 0.01
2 12 6 1 o 23.081 22.987 180.00 0.89614 0.00
4 11 6 1 o 1110.253 968.184 180.00 0.89589 0.04
3 14 2 2 o 9769.646 8655.584 0.00 0.89814 0.16
6 12 2 2 o 2876.279 2621.487 180.00 0.89807 0.04
8 7 5 2 o 26258.785 24672.617 180.00 0.89795 0.37
5 7 8 1 o 35.576 35.260 0.00 0.89560 0.00
2 14 3 2 o 15.641 15.363 0.00 0.89784 0.00
1 5 10 1 o 4089.719 4633.109 180.00 0.89519 0.11
5 4 9 1 o 39.448 48.331 180.00 0.89505 0.00
9 7 3 1 o 1288.957 1596.902 180.00 0.89503 0.04
6 11 4 2 o 5749.037 7612.097 0.00 0.89709 0.09
8 9 3 2 o 1708.493 2373.458 180.00 0.89656 0.02
3 3 10 2 o 139.121 166.161 180.00 0.89636 0.00
9 8 1 2 o 3562.466 4315.843 0.00 0.89635 0.05
8 2 7 1 o 148.157 162.932 0.00 0.89398 0.00
7 11 2 1 o 378.076 399.937 180.00 0.89394 0.01
2 12 6 2 o 22.957 22.987 180.00 0.89614 0.00
8 10 0 1 o 1159.867 1135.603 180.00 0.89378 0.02
9 6 4 1 o 2738.401 2601.750 0.00 0.89363 0.08
4 11 6 2 o 1022.995 968.184 180.00 0.89589 0.02
5 12 4 1 o 2848.613 2684.259 0.00 0.89347 0.09
5 7 8 2 o 37.771 35.260 0.00 0.89560 0.00
3 9 8 1 o 2520.534 2411.890 0.00 0.89326 0.07
7 2 8 1 o 8567.046 8447.894 180.00 0.89309 0.23
1 5 10 2 o 4637.914 4633.109 180.00 0.89519 0.07
5 4 9 2 o 47.945 48.331 180.00 0.89505 0.00
4 12 5 1 o 2063.912 2071.253 180.00 0.89293 0.06
9 7 3 2 o 1582.758 1596.902 180.00 0.89503 0.03
10 0 4 1 o 21234.883 23272.449 180.00 0.89239 0.28
8 2 7 2 o 143.711 162.932 0.00 0.89398 0.00
7 9 5 1 o 4977.590 5670.686 0.00 0.89174 0.17
7 11 2 2 o 354.940 399.937 180.00 0.89394 0.01
8 10 0 2 o 1027.019 1135.603 180.00 0.89378 0.01
1 8 9 1 o 7.871 10.798 0.00 0.89156 0.00
9 6 4 2 o 2421.523 2601.750 0.00 0.89363 0.03
5 12 4 2 o 2607.466 2684.259 0.00 0.89347 0.04
2 11 7 1 o 336.099 344.364 0.00 0.89126 0.01
3 9 8 2 o 2463.768 2411.890 0.00 0.89326 0.04
7 2 8 2 o 8883.381 8447.894 180.00 0.89309 0.12
3 7 9 1 o 4941.245 4589.555 0.00 0.89074 0.15
4 12 5 2 o 2226.831 2071.253 180.00 0.89293 0.04
10 1 4 1 o 9195.614 8468.546 0.00 0.89041 0.28
5 13 2 1 o 9823.752 9070.435 0.00 0.89046 0.32
5 9 7 1 o 11662.423 10872.342 180.00 0.89032 0.37
10 0 4 2 o 24317.551 23272.449 180.00 0.89239 0.17
