#------------------------------------------------------------------------------
#$Date: 2016-03-21 01:21:50 +0200 (Mon, 21 Mar 2016) $
#$Revision: 178377 $
#$URL: svn://www.crystallography.net/cod/cif/4/00/11/4001196.cif $
#------------------------------------------------------------------------------
#
# This file is available in the Crystallography Open Database (COD),
# http://www.crystallography.net/
#
# All data on this site have been placed in the public domain by the
# contributors.
#
data_4001196
loop_
_publ_author_name
'Zhou, Yongkai'
'Adams, Stefan'
'Rao, R. Prasada'
'Edwards, Doreen D.'
'Neiman, Arkady'
'Pestereva, N.'
_publ_section_title
;
 Charge Transport by Polyatomic Anion Diffusion in Sc2(WO4)3
;
_journal_issue                   20
_journal_name_full               'Chemistry of Materials'
_journal_page_first              6335
_journal_paper_doi               10.1021/cm800466y
_journal_volume                  20
_journal_year                    2008
_chemical_formula_moiety         ' Sc2(WO4)3 '
_chemical_formula_sum            'O12 Sc2 W3'
_chemical_formula_weight         833.45
_chemical_melting_point          1913
_chemical_name_common            ' Scandium Tungstate '
_chemical_name_systematic        ' Scandium Tungstate '
_space_group_IT_number           60
_symmetry_cell_setting           orthorhombic
_symmetry_space_group_name_Hall  '-P 2a 2n'
_symmetry_space_group_name_H-M   'P n c a'
_audit_creation_date             2008-01-25T12:03
_audit_creation_method           'from EXP file using GSAS2CIF'
_audit_update_record
' 2008-01-25T12:03  Initial CIF as created by GSAS2CIF'
_cell_angle_alpha                90.0
_cell_angle_beta                 90.0
_cell_angle_gamma                90.0
_cell_formula_units_Z            4
_cell_length_a                   9.64236(5)
_cell_length_b                   13.34917(7)
_cell_length_c                   9.56139(5)
_cell_measurement_temperature    700
_cell_volume                     1230.718(11)
_computing_structure_refinement  GSAS
_diffrn_radiation_polarisn_ratio 0.68
_diffrn_radiation_probe          x-ray
_exptl_absorpt_correction_T_max  1.00000
_exptl_absorpt_correction_T_min  1.00000
_exptl_absorpt_process_details
;   GSAS Absorption/surface roughness correction: function number 0
 No correction is applied.
;
_pd_block_id
2008-01-25T12:03|T11K|Zhou_Yongkai|Philips_Xpert
_pd_calc_method                  'Rietveld Refinement'
_pd_instr_location               ' ?'
_pd_meas_2theta_range_inc        0.017
_pd_meas_2theta_range_max        119.9874
_pd_meas_2theta_range_min        10.0144
_pd_meas_number_of_points        6470
_pd_proc_2theta_range_inc        0.017
_pd_proc_2theta_range_max        119.9874
_pd_proc_2theta_range_min        10.0144
_pd_proc_info_datetime           2008-01-25T12:28:34
_pd_proc_info_excluded_regions   ' ?'
_pd_proc_ls_background_function
;   GSAS Background function number 1 with 12 terms.
 Shifted Chebyshev function of 1st kind
      1:    357.686     2:   -38.9336     3:    19.2148     4:    40.7217    
      5:   -5.43135     6:    11.2439     7:   -10.3560     8:    4.17939    
      9:    9.40105    10:   -23.9682    11:    21.8756    12:   -7.26819    
;
_pd_proc_ls_peak_cutoff          0.00250
_pd_proc_ls_pref_orient_corr
;   March-Dollase
 AXIS  1 Ratio=   0.95047  h= 0.000  k= 1.000  l= 0.000
 Prefered orientation correction range: Min=   0.92662, Max=   1.16465
;
_pd_proc_ls_profile_function
;
 CW Profile function number 3 with  19 terms
 Pseudovoigt profile coefficients as parameterized in
 P. Thompson, D.E. Cox & J.B. Hastings (1987). J. Appl. Cryst.,20,79-83.
 Asymmetry correction of L.W. Finger, D.E. Cox & A. P. Jephcoat (1994).
 J. Appl. Cryst.,27,892-900.
 Peak tails are ignored  where the intensity is below 0.0025 times the peak
   Aniso. broadening axis   0.0   0.0   1.0
;
_pd_proc_ls_prof_R_factor        0.0491
_pd_proc_ls_prof_wR_expected     0.0358
_pd_proc_ls_prof_wR_factor       0.0646
_pd_proc_number_of_points        6470
_pd_spec_mounting                ' ?'
_refine_ls_goodness_of_fit_all   1.85
_refine_ls_matrix_type           full
_refine_ls_number_parameters     51
_refine_ls_number_restraints     0
_refine_ls_R_Fsqd_factor         0.06006
_refine_ls_shift/su_max          0.03
_refine_ls_shift/su_mean         0.01
_reflns_d_resolution_high        0.890
_reflns_d_resolution_low         6.675
_reflns_limit_h_max              10
_reflns_limit_h_min              0
_reflns_limit_k_max              15
_reflns_limit_k_min              0
_reflns_limit_l_max              10
_reflns_limit_l_min              0
_reflns_number_total             1830
_cod_data_source_file            cm800466y_si_015.cif
_cod_data_source_block           T700K
_cod_depositor_comments
;
The following automatic conversions were performed:

'_chemical_melting_point' value ' 1913K ' was changed to '1913' - the
value should be numeric and without a unit
designator.

'_geom_bond_publ_flag' value 'N' changed to 'n'
according to /home/saulius/struct/CIF-dictionaries/cif_core.dic
dictionary named 'cif_core.dic' version 2.4.1 from 2010-06-29 (26
times).

'_geom_angle_publ_flag' value 'N' changed to 'n' according
to /home/saulius/struct/CIF-dictionaries/cif_core.dic dictionary
named 'cif_core.dic' version 2.4.1 from 2010-06-29 (33 times).

Automatic conversion script
Id: cif_fix_values 1715 2011-07-08 13:25:40Z adriana 
;
_cod_original_cell_volume        1230.718(13)
_cod_database_code               4001196
#BEGIN Tags that were not found in dictionaries:
_gsas_exptl_extinct_corr_t_min   1.00000
_gsas_exptl_extinct_corr_t_max   1.00000
#END Tags that were not found in dictionaries
loop_
_symmetry_equiv_pos_site_id
_symmetry_equiv_pos_as_xyz
1 +x,+y,+z
2 -x+1/2,+y+1/2,+z+1/2
3 +x,-y+1/2,+z+1/2
4 -x+1/2,-y,+z
-1 -x,-y,-z
-2 +x+1/2,-y+1/2,-z+1/2
-3 -x,+y+1/2,-z+1/2
-4 +x+1/2,+y,-z
loop_
_atom_site_type_symbol
_atom_site_label
_atom_site_fract_x
_atom_site_fract_y
_atom_site_fract_z
_atom_site_occupancy
_atom_site_thermal_displace_type
_atom_site_U_iso_or_equiv
_atom_site_symmetry_multiplicity
Sc Sc1 0.46887(34) 0.38131(23) 0.2477(4) 1.0 Uiso 0.0231(11) 8
W W1 0.25 0.0 0.47180(14) 1.0 Uiso 0.02496(28) 4
W W2 0.11358(10) 0.35647(7) 0.39203(11) 1.0 Uiso 0.02496(28) 8
O O1 0.0905(11) 0.1314(8) 0.0714(12) 1.0 Uiso 0.0491(17) 8
O O2 0.1476(12) 0.0730(8) 0.3703(12) 1.0 Uiso 0.0491(17) 8
O O3 0.0055(12) 0.2640(9) 0.3175(11) 1.0 Uiso 0.0491(17) 8
O O4 0.3345(11) 0.4065(8) 0.0761(11) 1.0 Uiso 0.0491(17) 8
O O5 0.0618(11) 0.4766(9) 0.3239(12) 1.0 Uiso 0.0491(17) 8
O O6 0.2911(12) 0.3451(8) 0.3480(11) 1.0 Uiso 0.0491(17) 8
loop_
_atom_type_symbol
_atom_type_number_in_cell
_atom_type_scat_dispersion_real
_atom_type_scat_dispersion_imag
_atom_type_scat_Cromer_Mann_a1
_atom_type_scat_Cromer_Mann_a2
_atom_type_scat_Cromer_Mann_a3
_atom_type_scat_Cromer_Mann_a4
_atom_type_scat_Cromer_Mann_b1
_atom_type_scat_Cromer_Mann_b2
_atom_type_scat_Cromer_Mann_b3
_atom_type_scat_Cromer_Mann_b4
_atom_type_scat_Cromer_Mann_c
_atom_type_scat_source
Sc 8.0 0.000 0.000 9.18900 9.02130 7.36790 0.57290 1.64090 136.108 1.46800
51.3531 1.33290 International_Tables_Vol_C
W 12.0 0.000 0.000 29.0818 1.72029 15.4300 9.22590 14.4327 0.32170 5.11982
57.0560 9.88750 International_Tables_Vol_C
O 48.0 0.000 0.000 3.04850 13.2771 2.28680 5.70110 1.54630 0.32390 0.86700
32.9089 0.25080 International_Tables_Vol_C
loop_
_diffrn_radiation_wavelength
_diffrn_radiation_wavelength_wt
_diffrn_radiation_type
_diffrn_radiation_wavelength_id
1.540500 1.000 K\a~1~ 1
1.544300 0.000 K\a~2~ 2
loop_
_geom_angle_atom_site_label_1
_geom_angle_atom_site_label_2
_geom_angle_atom_site_label_3
_geom_angle
_geom_angle_site_symmetry_1
_geom_angle_site_symmetry_3
_geom_angle_publ_flag
O1 Sc1 O2 90.4(4) -2_666 -2_666 n
O1 Sc1 O3 94.4(4) -2_666 -2_666 n
O1 Sc1 O4 173.9(5) -2_666 1_555 n
O1 Sc1 O5 82.1(4) -2_666 4_565 n
O1 Sc1 O6 93.7(5) -2_666 1_555 n
O2 Sc1 O3 88.3(5) -2_666 -2_666 n
O2 Sc1 O4 92.2(5) -2_666 1_555 n
O2 Sc1 O5 92.3(4) -2_666 4_565 n
O2 Sc1 O6 175.3(5) -2_666 1_555 n
O3 Sc1 O4 91.1(4) -2_666 1_555 n
O3 Sc1 O5 176.5(5) -2_666 4_565 n
O3 Sc1 O6 93.6(4) -2_666 1_555 n
O4 Sc1 O5 92.3(4) 1_555 4_565 n
O4 Sc1 O6 83.5(4) 1_555 1_555 n
O5 Sc1 O6 86.0(5) 4_565 1_555 n
O2 W1 O2 110.1(8) 1_555 4_555 n
O2 W1 O4 117.0(5) 1_555 2_545 n
O2 W1 O4 100.5(5) 1_555 3_555 n
O2 W1 O4 100.5(5) 4_555 2_545 n
O2 W1 O4 117.0(5) 4_555 3_555 n
O4 W1 O4 112.4(7) 2_545 3_555 n
O1 W2 O3 112.8(5) 3_555 1_555 n
O1 W2 O5 103.8(5) 3_555 1_555 n
O1 W2 O6 111.5(5) 3_555 1_555 n
O3 W2 O5 108.2(6) 1_555 1_555 n
O3 W2 O6 114.5(5) 1_555 1_555 n
O5 W2 O6 105.0(5) 1_555 1_555 n
Sc1 O1 W2 153.3(7) -2_466 3_554 n
Sc1 O2 W1 158.8(7) -2_555 1_555 n
Sc1 O3 W2 151.4(7) -2_466 1_555 n
Sc1 O4 W1 145.0(6) 1_555 2_554 n
Sc1 O5 W2 172.1(6) 4_565 1_555 n
Sc1 O6 W2 155.8(7) 1_555 1_555 n
loop_
_geom_bond_atom_site_label_1
_geom_bond_atom_site_label_2
_geom_bond_distance
_geom_bond_site_symmetry_2
_geom_bond_publ_flag
Sc1 O1 2.097(11) -2_555 n
Sc1 O2 2.149(12) -2_555 n
Sc1 O3 2.069(11) -2_555 n
Sc1 O4 2.118(11) 1_555 n
Sc1 O5 2.053(11) 4_565 n
Sc1 O6 2.022(11) 1_555 n
W1 O2 1.693(11) 1_555 n
W1 O2 1.693(11) 4_555 n
W1 O4 1.793(10) 2_545 n
W1 O4 1.793(10) 3_555 n
W2 O1 1.737(11) 3_555 n
W2 O3 1.765(11) 1_555 n
W2 O5 1.802(11) 1_555 n
W2 O6 1.770(12) 1_555 n
O1 Sc1 2.097(11) -2_455 n
O1 W2 1.737(11) 3_554 n
O2 Sc1 2.149(12) -2_455 n
O2 W1 1.693(11) 1_555 n
O3 Sc1 2.069(11) -2_455 n
O3 W2 1.765(11) 1_555 n
O4 Sc1 2.118(11) 1_555 n
O4 W1 1.793(10) 2_554 n
O5 Sc1 2.053(11) 4_565 n
O5 W2 1.802(11) 1_555 n
O6 Sc1 2.022(11) 1_555 n
O6 W2 1.770(12) 1_555 n
loop_
_pd_meas_counts_total
_pd_proc_ls_weight
_pd_proc_intensity_bkg_calc
_pd_calc_intensity_total
335.0 0.0 707.09949 .
328.0 0.0 703.08557 .
317.0 0.0 699.10211 .
307.0 0.0 695.14850 .
304.0 0.0 691.22418 .
312.0 0.0 687.33020 .
340.0 0.0 683.46545 .
319.0 0.0 679.63000 .
326.0 0.0 675.82422 .
339.0 0.0 672.04669 .
350.0 0.0 668.29877 .
326.0 0.0 664.57935 .
318.0 0.0 660.88843 .
330.0 0.0 657.22632 .
328.0 0.0 653.59235 .
315.0 0.0 649.98669 .
318.0 0.0 646.40894 .
336.0 0.0 642.85876 .
354.0 0.0 639.33698 .
335.0 0.0 635.84271 .
320.0 0.0 632.37579 .
333.0 0.0 628.93616 .
348.0 0.0 625.52350 .
354.0 0.0 622.13824 .
337.0 0.0 618.78003 .
322.0 0.0 615.44836 .
331.0 0.0 612.14337 .
319.0 0.0 608.86475 .
332.0 0.0 605.61249 .
339.0 0.0 602.38690 .
337.0 0.0 599.18683 .
337.0 0.0 596.01300 .
336.0 0.0 592.86475 .
329.0 0.0 589.74255 .
337.0 0.0 586.64587 .
318.0 0.0 583.57446 .
335.0 0.0 580.52838 .
348.0 0.0 577.50714 .
343.0 0.0 574.51123 .
356.0 0.0 571.54041 .
352.0 0.0 568.59399 .
326.0 0.0 565.67236 .
321.0 0.0 562.77478 .
357.0 0.0 559.90210 .
366.0 0.0 557.05371 .
359.0 0.0 554.22919 .
360.0 0.0 551.42859 .
343.0 0.0 548.65161 .
352.0 0.0 545.89893 .
341.0 0.0 543.16956 .
361.0 0.0 540.46375 .
348.0 0.0 537.78107 .
315.0 0.0 535.12152 .
344.0 0.0 532.48529 .
346.0 0.0 529.87201 .
313.0 0.0 527.28162 .
375.0 0.0 524.71381 .
348.0 0.0 522.16840 .
386.0 0.0 519.64587 .
305.0 0.0 517.14569 .
347.0 0.0 514.66760 .
362.0 0.0 512.21143 .
330.0 0.0 509.77722 .
333.0 0.0 507.36508 .
336.0 0.0 504.97479 .
339.0 0.0 502.60608 .
337.0 0.0 500.25861 .
353.0 0.0 497.93259 .
322.0 0.0 495.62799 .
354.0 0.0 493.34460 .
344.0 0.0 491.08221 .
344.0 0.0 488.84052 .
339.0 0.0 486.61975 .
363.0 0.0 484.41959 .
336.0 0.0 482.24023 .
338.0 0.0 480.08124 .
362.0 0.0 477.94235 .
368.0 0.0 475.82397 .
388.0 0.0 473.72552 .
385.0 0.0 471.64713 .
348.0 0.0 469.58884 .
361.0 0.0 467.55002 .
384.0 0.0 465.53088 .
386.0 0.0 463.53128 .
364.0 0.0 461.55136 .
353.0 0.0 459.59070 .
353.0 0.0 457.64914 .
342.0 0.0 455.72675 .
356.0 0.0 453.82333 .
365.0 0.0 451.93890 .
362.0 0.0 450.07318 .
354.0 0.0 448.22614 .
348.0 0.0 446.39758 .
360.0 0.0 444.58749 .
342.0 0.0 442.79593 .
349.0 0.0 441.02274 .
355.0 0.0 439.26718 .
348.0 0.0 437.53003 .
366.0 0.0 435.81073 .
358.0 0.0 434.10919 .
327.0 0.0 432.42560 .
359.0 0.0 430.75940 .
380.0 0.0 429.11078 .
348.0 0.0 427.47968 .
321.0 0.0 425.86569 .
349.0 0.0 424.26923 .
345.0 0.0 422.68954 .
370.0 0.0 421.12692 .
332.0 0.0 419.58142 .
344.0 0.0 418.05246 .
373.0 0.0 416.54050 .
377.0 0.0 415.04498 .
358.0 0.0 413.56580 .
363.0 0.0 412.10333 .
359.0 0.0 410.65707 .
372.0 0.0 409.22696 .
344.0 0.0 407.81305 .
359.0 0.002786 406.41501 406.41403
341.0 0.002933 405.03314 405.03220
360.0 0.002778 403.66693 403.66599
328.0 0.003049 402.31650 402.31558
356.0 0.002809 400.98166 400.98080
359.0 0.002786 399.66229 399.66144
346.0 0.002890 398.35858 398.35764
378.0 0.002646 397.07007 397.06915
364.0 0.002747 395.79688 395.79599
336.0 0.002976 394.53879 394.53787
335.0 0.002985 393.29578 393.29486
380.0 0.002632 392.06778 392.06689
366.0 0.002732 390.85464 390.85379
346.0 0.002890 389.65634 389.65543
361.0 0.002770 388.47269 388.47183
360.0 0.002778 387.30362 387.30276
349.0 0.002865 386.14911 386.14825
331.0 0.003021 385.00912 385.00821
345.0 0.002899 383.88339 383.88254
338.0 0.002959 382.77194 382.77106
348.0 0.002874 381.67450 381.67368
376.0 0.002660 380.59131 380.59045
368.0 0.002717 379.52219 379.52118
362.0 0.002762 378.46671 378.46585
356.0 0.002809 377.42520 377.42429
325.0 0.003077 376.39725 376.39630
337.0 0.002967 375.38312 375.38217
361.0 0.002770 374.38248 374.38150
359.0 0.002786 373.39526 373.39441
362.0 0.002762 372.42145 372.42056
345.0 0.002899 371.46075 371.45981
337.0 0.002967 370.51346 370.51257
349.0 0.002865 369.57925 369.57837
345.0 0.002899 368.65805 368.65714
371.0 0.002695 367.74988 367.74893
362.0 0.002762 366.85437 366.85345
381.0 0.002625 365.97177 365.97089
371.0 0.002695 365.10187 365.10104
340.0 0.002941 364.24463 364.24365
333.0 0.003003 363.39984 363.39890
315.0 0.003175 362.56741 362.56653
333.0 0.003003 361.74753 361.74661
379.0 0.002639 360.93988 360.93909
364.0 0.002747 360.14450 360.14349
334.0 0.002994 359.36115 359.36026
412.0 0.002427 358.58981 363.12158
405.0 0.002469 357.83054 362.76355
383.0 0.002611 357.08310 364.74719
390.0 0.002564 356.34747 364.75909
385.0 0.002597 355.62357 364.92130
409.0 0.002445 354.91125 365.28125
450.0 0.002222 354.21066 365.91656
425.0 0.002353 353.52145 366.98727
418.0 0.002392 352.84366 369.07330
425.0 0.002353 352.17725 374.23529
442.0 0.002262 351.52203 385.65283
457.0 0.002188 350.87805 404.18188
448.0 0.002232 350.24524 428.85135
463.0 0.002160 349.62338 458.45300
483.0 0.002070 349.01242 491.69806
498.0 0.002008 348.41241 528.20374
511.0 0.001957 347.82315 568.17853
574.0 0.001742 347.24475 612.02924
607.0 0.001647 346.67694 660.30786
732.0 0.001366 346.11963 713.78619
765.0 0.001307 345.57288 773.48535
807.0 0.001239 345.03662 840.63232
957.0 0.001045 344.51071 916.73816
985.0 0.001015 343.99512 1003.99597
1064.0 0.000940 343.48962 1105.47485
1193.0 0.000838 342.99435 1225.27563
1386.0 0.000722 342.50909 1369.87012
1650.0 0.000606 342.03400 1549.01086
1980.0 0.000505 341.56873 1779.65015
2526.0 0.000396 341.11325 2094.45898
3184.0 0.0003141 340.66769 2572.72681
3932.0 0.0002543 340.23178 3359.59229
4374.0 0.0002286 339.80548 4154.55859
3938.0 0.0002539 339.38892 3661.85522
2781.0 0.000360 338.98175 2568.67358
1656.0 0.000604 338.58405 1583.41565
931.0 0.001074 338.19571 809.49738
597.0 0.001675 337.81665 533.41351
480.0 0.002083 337.44687 456.60730
431.0 0.002320 337.08627 421.96640
406.0 0.002463 336.73474 400.88196
398.0 0.002513 336.39227 386.79947
386.0 0.002591 336.05878 376.83603
386.0 0.002591 335.73416 369.47321
383.0 0.002611 335.41837 363.84143
391.0 0.002558 335.11142 359.41238
375.0 0.002667 334.81314 355.84805
367.0 0.002725 334.52350 352.92288
369.0 0.002710 334.24240 350.48212
343.0 0.002915 333.96985 348.41586
352.0 0.002841 333.70575 346.64481
373.0 0.002681 333.45004 345.11029
388.0 0.002577 333.20264 343.76755
367.0 0.002725 332.96350 342.58289
373.0 0.002681 332.73257 335.99881
360.0 0.002778 332.50967 335.49448
361.0 0.002770 332.29489 332.29385
371.0 0.002695 332.08817 332.08707
348.0 0.002874 331.88937 331.88831
363.0 0.002755 331.69843 331.69733
373.0 0.002681 331.51535 331.51428
354.0 0.002825 331.33994 331.33887
347.0 0.002882 331.17233 331.17123
342.0 0.002924 331.01230 331.01123
391.0 0.002558 330.85986 330.85873
381.0 0.002625 330.71490 330.71387
378.0 0.002646 330.57742 330.57635
372.0 0.002688 330.44748 330.44635
335.0 0.002985 330.32471 330.32358
328.0 0.003049 330.20929 330.20819
363.0 0.002755 330.10104 330.09988
357.0 0.002801 330.00006 329.99890
355.0 0.002817 329.90610 329.90491
405.0 0.002469 329.81912 329.81796
382.0 0.002618 329.73926 329.73807
361.0 0.002770 329.66620 329.66507
361.0 0.002770 329.60019 329.59897
397.0 0.002519 329.54089 329.53973
375.0 0.002667 329.48828 329.48712
346.0 0.002890 329.44254 329.44138
364.0 0.002747 329.40332 335.42862
382.0 0.002618 329.37079 335.87549
382.0 0.002618 329.34473 336.39319
404.0 0.002475 329.32516 340.19675
410.0 0.002439 329.31201 341.16565
422.0 0.002370 329.30533 342.29727
419.0 0.002387 329.30490 343.63248
416.0 0.002404 329.31073 345.23019
434.0 0.002304 329.32281 347.17908
459.0 0.002179 329.34100 349.62421
456.0 0.002193 329.36539 352.86322
434.0 0.002304 329.39572 357.94958
472.0 0.002119 329.43210 368.53592
521.0 0.001919 329.47449 390.10193
521.0 0.001919 329.52267 423.95966
531.0 0.001883 329.57672 468.65009
580.0 0.001724 329.63657 522.86334
630.0 0.001587 329.70224 584.58563
672.0 0.001488 329.77350 653.08380
724.0 0.001381 329.85049 728.93005
772.0 0.001295 329.93301 813.20758
849.0 0.001178 330.02106 907.35486
923.0 0.001083 330.11465 1013.32129
1022.0 0.000978 330.21356 1133.83667
1173.0 0.000853 330.31802 1272.63074
1346.0 0.000743 330.42767 1434.51428
1536.0 0.000651 330.54272 1626.52991
1793.0 0.000558 330.66296 1859.98901
2117.0 0.000472 330.78839 2152.00195
2736.0 0.000365 330.91895 2533.37769
3376.0 0.0002962 331.05469 3067.96680
4220.0 0.0002370 331.19537 3913.55054
5350.0 0.0001869 331.34113 5216.10400
5592.0 0.0001788 331.49179 5941.89014
4483.0 0.0002231 331.64737 4569.06152
3109.0 0.0003216 331.80783 3265.16211
1790.0 0.000559 331.97305 1954.15466
923.0 0.001083 332.14310 942.31372
587.0 0.001704 332.31784 601.16748
504.0 0.001984 332.49725 502.13818
460.0 0.002174 332.68127 454.87509
450.0 0.002222 332.86981 425.84995
406.0 0.002463 333.06299 406.49521
402.0 0.002488 333.26065 392.89319
390.0 0.002564 333.46274 382.95120
386.0 0.002591 333.66925 375.46133
355.0 0.002817 333.88007 369.68216
389.0 0.002571 334.09518 365.13596
394.0 0.002538 334.31461 361.50314
381.0 0.002625 334.53827 358.56268
396.0 0.002525 334.76611 356.15784
344.0 0.002907 334.99805 354.17453
384.0 0.002604 335.23407 352.52765
373.0 0.002681 335.47424 351.15311
377.0 0.002653 335.71829 350.00156
368.0 0.002717 335.96643 340.87064
386.0 0.002591 336.21838 340.70020
367.0 0.002725 336.47430 336.47284
349.0 0.002865 336.73395 336.73257
388.0 0.002577 336.99756 336.99609
374.0 0.002674 337.26486 337.26340
382.0 0.002618 337.53583 337.53439
352.0 0.002841 337.81049 337.80902
363.0 0.002755 338.08878 338.08740
348.0 0.002874 338.37070 338.36926
372.0 0.002688 338.65622 338.65472
350.0 0.002857 338.94513 338.94366
352.0 0.002841 339.23761 339.23615
349.0 0.002865 339.53345 339.53198
362.0 0.002762 339.83279 339.83121
349.0 0.002865 340.13541 340.13388
346.0 0.002890 340.44135 340.43982
356.0 0.002809 340.75052 340.74902
362.0 0.002762 341.06299 341.06143
358.0 0.002793 341.37869 341.37708
351.0 0.002849 341.69748 341.69595
358.0 0.002793 342.01947 342.01794
366.0 0.002732 342.34445 342.34293
372.0 0.002688 342.67258 342.67096
372.0 0.002688 343.00369 343.00211
360.0 0.002778 343.33774 343.33621
364.0 0.002747 343.67480 343.67328
374.0 0.002674 344.01474 344.01309
381.0 0.002625 344.35751 344.35583
362.0 0.002762 344.70309 344.70148
367.0 0.002725 345.05151 345.04990
390.0 0.002564 345.40271 345.40106
378.0 0.002646 345.75656 345.75500
363.0 0.002755 346.11310 346.11148
333.0 0.003003 346.47232 346.47073
338.0 0.002959 346.83417 346.83249
366.0 0.002732 347.19861 347.19699
361.0 0.002770 347.56555 347.56396
409.0 0.002445 347.93497 347.93332
348.0 0.002874 348.30704 348.30527
358.0 0.002793 348.68134 348.67972
351.0 0.002849 349.05820 349.05649
341.0 0.002933 349.43741 349.43570
384.0 0.002604 349.81882 349.81717
351.0 0.002849 350.20267 350.20102
350.0 0.002857 350.58878 350.58716
336.0 0.002976 350.97714 350.97546
318.0 0.003145 351.36771 351.36591
333.0 0.003003 351.76038 351.75867
386.0 0.002591 352.15530 352.15356
370.0 0.002703 352.55231 352.55057
344.0 0.002907 352.95142 352.94965
327.0 0.003058 353.35233 353.35071
383.0 0.002611 353.75552 353.75372
407.0 0.002457 354.16061 354.15884
363.0 0.002755 354.56775 354.56598
329.0 0.003040 354.97665 354.97495
329.0 0.003040 355.38760 355.38583
341.0 0.002933 355.80026 355.79849
338.0 0.002959 356.21487 356.21307
338.0 0.002959 356.63123 356.62943
353.0 0.002833 357.04944 357.04761
345.0 0.002899 357.46921 357.46744
358.0 0.002793 357.89084 357.88898
360.0 0.002778 358.31396 358.31223
351.0 0.002849 358.73898 358.73715
360.0 0.002778 359.16544 359.16360
366.0 0.002732 359.59357 359.59174
366.0 0.002732 360.02319 360.02139
347.0 0.002882 360.45447 360.45258
329.0 0.003040 360.88718 360.88535
351.0 0.002849 361.32135 361.31949
385.0 0.002597 361.75699 361.75513
375.0 0.002667 362.19406 362.19220
347.0 0.002882 362.63248 362.63062
342.0 0.002924 363.07233 363.07047
334.0 0.002994 363.51343 363.51160
328.0 0.003049 363.95590 363.95398
332.0 0.003012 364.39957 364.39774
325.0 0.003077 364.84460 364.84274
334.0 0.002994 365.29083 365.28894
352.0 0.002841 365.73825 365.73636
347.0 0.002882 366.18677 366.18484
351.0 0.002849 366.63647 366.63458
359.0 0.002786 367.08734 367.08548
359.0 0.002786 367.53931 367.53738
366.0 0.002732 367.99234 367.99042
360.0 0.002778 368.44638 368.44446
346.0 0.002890 368.90146 368.89944
335.0 0.002985 369.35751 369.35556
361.0 0.002770 369.81454 369.81259
343.0 0.002915 370.27252 370.27054
334.0 0.002994 370.73141 370.72940
362.0 0.002762 371.19113 371.18918
354.0 0.002825 371.65179 371.64981
326.0 0.003067 372.11325 372.11127
323.0 0.003096 372.57559 372.57361
352.0 0.002841 373.03864 373.03668
330.0 0.003030 373.50244 373.50052
340.0 0.002941 373.96710 373.96515
345.0 0.002899 374.43246 374.43042
370.0 0.002703 374.89847 374.89651
351.0 0.002849 375.36508 375.36307
349.0 0.002865 375.83249 375.83041
332.0 0.003012 376.30038 376.29837
357.0 0.002801 376.76901 376.76694
335.0 0.002985 377.23819 377.23615
371.0 0.002695 377.70789 377.70575
349.0 0.002865 378.17807 378.17596
328.0 0.003049 378.64890 378.64679
332.0 0.003012 379.12015 379.11801
335.0 0.002985 379.59180 379.58972
350.0 0.002857 380.06396 380.06189
376.0 0.002660 380.53659 380.53439
365.0 0.002740 381.00952 381.00742
318.0 0.003145 381.48294 381.48077
343.0 0.002915 381.95660 381.95450
372.0 0.002688 382.43069 382.42862
369.0 0.002710 382.90509 382.90289
347.0 0.002882 383.37973 383.37762
334.0 0.002994 383.85474 383.85263
326.0 0.003067 384.32993 384.32776
346.0 0.002890 384.80533 384.80319
371.0 0.002695 385.28098 385.27881
343.0 0.002915 385.75687 385.75470
355.0 0.002817 386.23288 386.23071
362.0 0.002762 386.70908 386.70688
357.0 0.002801 387.18533 387.18320
351.0 0.002849 387.66171 387.65952
332.0 0.003012 388.13834 388.13611
338.0 0.002959 388.61496 388.61267
342.0 0.002924 389.09155 389.08929
356.0 0.002809 389.56815 389.56598
337.0 0.002967 390.04495 390.04269
347.0 0.002882 390.52155 390.51941
365.0 0.002740 390.99826 390.99600
356.0 0.002809 391.47488 391.47269
352.0 0.002841 391.95145 391.94922
370.0 0.002703 392.42795 392.42566
374.0 0.002674 392.90430 392.90204
351.0 0.002849 393.38071 393.37845
327.0 0.003058 393.85681 393.85452
349.0 0.002865 394.33279 394.33057
350.0 0.002857 394.80869 394.80634
358.0 0.002793 395.28430 395.28207
356.0 0.002809 395.75974 395.75745
352.0 0.002841 396.23499 396.23270
378.0 0.002646 396.71002 396.70773
360.0 0.002778 397.18469 397.18246
352.0 0.002841 397.65918 397.65689
327.0 0.003058 398.13339 398.13110
350.0 0.002857 398.60724 398.60492
365.0 0.002740 399.08084 399.07855
381.0 0.002625 399.55408 399.55179
377.0 0.002653 400.02698 400.02466
373.0 0.002681 400.49945 400.49713
357.0 0.002801 400.97156 400.96927
361.0 0.002770 401.44324 401.44092
365.0 0.002740 401.91461 401.91223
361.0 0.002770 402.38544 402.38306
379.0 0.002639 402.85587 402.85352
337.0 0.002967 403.32581 403.32349
370.0 0.002703 403.79529 403.79288
352.0 0.002841 404.26428 404.26190
330.0 0.003030 404.73270 404.73032
370.0 0.002703 405.20065 405.19824
394.0 0.002538 405.66803 405.66562
364.0 0.002747 406.13486 406.14972
349.0 0.002865 406.60110 406.61737
372.0 0.002688 407.06686 407.09256
374.0 0.002674 407.53201 407.56000
337.0 0.002967 407.99640 408.02695
381.0 0.002625 408.46027 408.49371
342.0 0.002924 408.92340 408.96014
344.0 0.002907 409.38605 409.42642
350.0 0.002857 409.84793 409.89273
367.0 0.002725 410.30914 411.90656
388.0 0.002577 410.76953 412.48776
378.0 0.002646 411.22937 413.08322
373.0 0.002681 411.68842 414.48148
402.0 0.002488 412.14682 415.17365
378.0 0.002646 412.60434 416.49124
362.0 0.002762 413.06116 417.30573
340.0 0.002941 413.51715 418.19666
335.0 0.002985 413.97238 419.49673
362.0 0.002762 414.42688 420.64270
365.0 0.002740 414.88049 421.92975
369.0 0.002710 415.33322 423.38849
367.0 0.002725 415.78525 425.05774
408.0 0.002451 416.23633 427.00031
413.0 0.002421 416.68661 429.34171
407.0 0.002457 417.13599 432.44031
442.0 0.002262 417.58450 437.52655
444.0 0.002252 418.03198 446.87128
439.0 0.002278 418.47867 461.44995
452.0 0.002212 418.92444 480.77734
472.0 0.002119 419.36929 505.31580
490.0 0.002041 419.81305 536.03534
512.0 0.001953 420.25595 574.03192
594.0 0.001684 420.69797 618.15497
621.0 0.001610 421.13895 663.64117
670.0 0.001493 421.57880 717.25281
751.0 0.001332 422.01776 784.71429
851.0 0.001175 422.45566 865.63702
964.0 0.001037 422.89261 969.03479
1107.0 0.000903 423.32852 1107.66333
1425.0 0.000702 423.76334 1308.17175
1686.0 0.000593 424.19714 1624.17810
1957.0 0.000511 424.62982 1983.28906
1898.0 0.000527 425.06143 1892.50537
1575.0 0.000635 425.49197 1523.41162
1430.0 0.000699 425.92142 1443.49451
1299.0 0.000770 426.34973 1298.50024
1173.0 0.000853 426.77689 1145.04565
936.0 0.001068 427.20300 962.64905
780.0 0.001282 427.62799 787.83783
708.0 0.001412 428.05182 722.14868
593.0 0.001686 428.47437 605.59546
498.0 0.002008 428.89594 507.88309
458.0 0.002183 429.31622 472.85751
450.0 0.002222 429.73535 460.78436
422.0 0.002370 430.15329 454.28546
426.0 0.002347 430.56998 450.09052
430.0 0.002326 430.98550 447.18555
405.0 0.002469 431.39978 445.12286
394.0 0.002538 431.81284 443.61835
434.0 0.002304 432.22470 442.50797
406.0 0.002463 432.63525 441.68539
416.0 0.002404 433.04456 441.07935
407.0 0.002457 433.45258 440.63959
413.0 0.002421 433.85934 437.90701
431.0 0.002320 434.26486 437.89810
455.0 0.002198 434.66913 437.94949
403.0 0.002481 435.07202 436.87146
405.0 0.002469 435.47363 437.10550
421.0 0.002375 435.87393 436.45245
409.0 0.002445 436.27289 450.24536
420.0 0.002381 436.67050 451.58734
415.0 0.002410 437.06683 458.91470
420.0 0.002381 437.46179 461.00189
435.0 0.002299 437.85541 463.29895
440.0 0.002273 438.24768 465.84418
448.0 0.002232 438.63855 468.68555
448.0 0.002232 439.02805 471.88397
468.0 0.002137 439.41620 475.51810
473.0 0.002114 439.80301 479.69095
496.0 0.002016 440.18829 484.54111
525.0 0.001905 440.57220 490.26196
537.0 0.001862 440.95477 497.13232
567.0 0.001764 441.33597 505.57642
619.0 0.001616 441.71564 516.29224
673.0 0.001486 442.09390 530.72736
700.0 0.001429 442.47079 553.71991
772.0 0.001295 442.84607 600.39813
878.0 0.001139 443.22009 691.00714
935.0 0.001070 443.59262 827.84784
1014.0 0.000986 443.96356 1005.57910
1155.0 0.000866 444.33316 1229.15845
1393.0 0.000718 444.70132 1500.19775
1632.0 0.000613 445.06790 1818.19653
1938.0 0.000516 445.43307 2190.17822
2385.0 0.000419 445.79669 2630.29370
2966.0 0.0003372 446.15887 3160.80859
3600.0 0.0002778 446.51944 3817.91797
4566.0 0.0002190 446.87863 4662.97266
6034.0 0.0001657 447.23630 5814.47510
7909.0 0.0001264 447.59235 7557.87598
10801.0 0.0000926 447.94687 10321.39844
12756.0 0.0000784 448.30002 12758.92188
10212.0 0.0000979 448.65152 10468.43359
7348.0 0.0001361 449.00146 7286.81396
6341.0 0.0001577 449.34998 6371.33252
3934.0 0.0002542 449.69684 4082.40894
1803.0 0.000555 450.04214 1880.86841
990.0 0.001010 450.38593 1092.68811
801.0 0.001248 450.72812 855.51355
666.0 0.001502 451.06882 742.86011
612.0 0.001634 451.40790 673.78186
576.0 0.001736 451.74536 627.63721
561.0 0.001783 452.08124 595.11108
519.0 0.001927 452.41556 571.25098
504.0 0.001984 452.74832 553.19867
498.0 0.002008 453.07944 539.19812
499.0 0.002004 453.40900 528.11993
477.0 0.002096 453.73685 519.20667
558.0 0.001792 454.06326 511.93506
538.0 0.001859 454.38791 505.93256
479.0 0.002088 454.71106 500.92700
480.0 0.002083 455.03247 496.71637
423.0 0.002364 455.35242 493.14737
440.0 0.002273 455.67056 469.21494
464.0 0.002155 455.98721 468.29028
447.0 0.002237 456.30212 467.52826
419.0 0.002387 456.61548 456.61258
461.0 0.002169 456.92715 456.92419
437.0 0.002288 457.23721 457.23419
472.0 0.002119 457.54556 457.54254
438.0 0.002283 457.85226 457.84933
489.0 0.002045 458.15741 458.15439
502.0 0.001992 458.46082 458.45789
503.0 0.001988 458.76257 458.75964
467.0 0.002141 459.06265 459.05969
469.0 0.002132 459.36105 459.35806
474.0 0.002110 459.65784 459.65479
456.0 0.002193 459.95288 477.06641
466.0 0.002146 460.24637 478.59317
477.0 0.002096 460.53802 480.25925
486.0 0.002058 460.82813 490.58435
476.0 0.002101 461.11646 493.21426
475.0 0.002105 461.40311 496.13892
470.0 0.002128 461.68808 499.41251
493.0 0.002028 461.97137 503.10269
499.0 0.002004 462.25290 507.29587
504.0 0.001984 462.53287 512.10315
538.0 0.001859 462.81110 517.67114
529.0 0.001890 463.08759 524.19635
564.0 0.001773 463.36237 531.95050
611.0 0.001637 463.63550 541.32526
658.0 0.001520 463.90686 552.91095
680.0 0.001471 464.17648 567.66486
715.0 0.001399 464.44458 587.45563
832.0 0.001202 464.71072 618.04169
911.0 0.001098 464.97537 678.45343
1025.0 0.000976 465.23810 798.58594
1210.0 0.000826 465.49921 987.73950
1375.0 0.000727 465.75867 1236.68311
1485.0 0.000673 466.01620 1551.60828
1726.0 0.000579 466.27222 1941.62207
2124.0 0.000471 466.52637 2408.34790
2556.0 0.000391 466.77884 2962.61621
3094.0 0.0003232 467.02969 3629.64746
3849.0 0.0002598 467.27869 4450.57617
4805.0 0.0002081 467.52600 5495.45410
6468.0 0.0001546 467.77151 6893.35986
8624.0 0.0001160 468.01532 8943.86914
12333.0 0.0000811 468.25751 12220.88574
16495.0 0.0000606 468.49777 15906.54980
14681.0 0.0000681 468.73642 14526.73438
9358.0 0.0001069 468.97339 9690.33789
8241.0 0.0001213 469.20856 8356.71973
6677.0 0.0001498 469.44189 6632.96680
3039.0 0.0003291 469.67361 3245.10986
1278.0 0.000782 469.90353 1583.03442
893.0 0.001120 470.13171 1094.28784
824.0 0.001214 470.35815 903.69781
739.0 0.001353 470.58295 794.52466
699.0 0.001431 470.80585 723.61664
634.0 0.001577 471.02713 674.53741
648.0 0.001543 471.24655 639.01367
645.0 0.001550 471.46426 612.38208
588.0 0.001701 471.68027 591.86017
606.0 0.001650 471.89453 575.70251
596.0 0.001678 472.10709 562.73523
582.0 0.001718 472.31775 552.17267
545.0 0.001835 472.52679 543.45087
532.0 0.001880 472.73407 536.16602
581.0 0.001721 472.93961 530.02539
603.0 0.001658 473.14334 524.80048
599.0 0.001669 473.34534 492.06384
567.0 0.001764 473.54559 490.51016
566.0 0.001767 473.74417 505.36493
562.0 0.001779 473.94098 491.26611
571.0 0.001751 474.13599 492.74667
610.0 0.001639 474.32925 502.32864
594.0 0.001684 474.52075 504.69754
596.0 0.001678 474.71066 507.33658
649.0 0.001541 474.89868 526.66272
645.0 0.001550 475.08496 531.16888
659.0 0.001517 475.26950 536.26038
724.0 0.001381 475.45233 550.09845
743.0 0.001346 475.63348 557.32635
762.0 0.001312 475.81277 565.67194
772.0 0.001295 475.99036 575.41846
775.0 0.001290 476.16617 586.94135
828.0 0.001208 476.34036 600.78900
883.0 0.001133 476.51282 617.78259
967.0 0.001034 476.68332 639.24353
1050.0 0.000952 476.85226 667.99109
1127.0 0.000887 477.01938 713.14392
1271.0 0.000787 477.18484 800.18646
1389.0 0.000720 477.34860 993.22314
1564.0 0.000639 477.51047 1224.20984
1864.0 0.000536 477.67072 1521.68762
2116.0 0.000473 477.82919 1900.24133
2537.0 0.000394 477.98593 2398.48193
3034.0 0.0003296 478.14102 3010.79346
3644.0 0.0002744 478.29422 3801.35083
4645.0 0.0002153 478.44580 4810.59521
5953.0 0.0001680 478.59561 6097.94141
7657.0 0.0001306 478.74377 7801.56201
10480.0 0.0000954 478.89023 10217.12793
14710.0 0.0000680 479.03482 13884.76172
18668.0 0.0000536 479.17776 18026.56445
18271.0 0.0000547 479.31897 17489.72070
14484.0 0.0000690 479.45850 13907.98535
14514.0 0.0000689 479.59628 14135.95313
15438.0 0.0000648 479.73233 15079.08887
15426.0 0.0000648 479.86673 15148.66699
16986.0 0.0000589 479.99927 16779.69922
14504.0 0.0000689 480.13022 14510.13770
10329.0 0.0000968 480.25952 10071.55371
9304.0 0.0001075 480.38702 9421.87500
8706.0 0.0001149 480.51279 8675.04297
6109.0 0.0001637 480.63684 6154.08496
4919.0 0.0002033 480.75925 5340.87500
5335.0 0.0001874 480.87997 5958.01611
6400.0 0.0001562 480.99893 7151.71533
7734.0 0.0001293 481.11624 8758.92871
9692.0 0.0001032 481.23187 10871.28223
12895.0 0.0000775 481.34576 13735.75879
17537.0 0.0000570 481.45804 17930.95703
24223.0 0.0000413 481.56848 24635.55078
31235.0 0.00003202 481.67740 32785.80078
30293.0 0.00003301 481.78452 31419.61328
21157.0 0.0000473 481.89001 20540.46094
16597.0 0.0000603 481.99377 17106.24023
14462.0 0.0000691 482.09589 15496.16211
8778.0 0.0001139 482.19635 8422.88086
3747.0 0.0002669 482.29507 3628.57227
1949.0 0.000513 482.39212 2089.09106
1520.0 0.000658 482.48761 1536.90344
1331.0 0.000751 482.58136 1260.68872
1186.0 0.000843 482.67343 1090.76978
1094.0 0.000914 482.76385 957.66418
943.0 0.001060 482.85263 873.32581
819.0 0.001221 482.93976 810.74738
780.0 0.001282 483.02518 765.79706
782.0 0.001279 483.10901 728.69464
769.0 0.001300 483.19104 699.26611
738.0 0.001355 483.27164 675.59808
664.0 0.001506 483.35043 659.74963
674.0 0.001484 483.42758 644.28961
700.0 0.001429 483.50323 631.70154
673.0 0.001486 483.57712 623.15735
683.0 0.001464 483.64944 552.67230
675.0 0.001481 483.72006 551.67688
636.0 0.001572 483.78909 551.81390
664.0 0.001506 483.85654 553.16974
656.0 0.001524 483.92227 526.80579
693.0 0.001443 483.98645 533.72241
675.0 0.001481 484.04904 543.07269
719.0 0.001391 484.10995 557.80634
778.0 0.001285 484.16925 586.63580
836.0 0.001196 484.22690 640.74585
855.0 0.001170 484.28302 721.73541
979.0 0.001021 484.33746 826.51660
1073.0 0.000932 484.39038 959.84875
1195.0 0.000837 484.44174 1128.15649
1340.0 0.000746 484.49139 1335.79407
1593.0 0.000628 484.53949 1594.04358
1908.0 0.000524 484.58600 1927.37939
2370.0 0.000422 484.63092 2373.13818
3117.0 0.0003208 484.67432 2999.31885
4185.0 0.0002389 484.71606 3963.15967
5416.0 0.0001846 484.75620 5315.84131
5811.0 0.0001721 484.79483 5860.75977
4326.0 0.0002312 484.83191 4430.74219
3617.0 0.0002765 484.86734 3691.65601
3808.0 0.0002626 484.90128 3853.85010
3304.0 0.0003027 484.93365 3349.42749
2636.0 0.000379 484.96448 2805.59009
2946.0 0.0003394 484.99371 3089.72925
3471.0 0.0002881 485.02139 3678.83228
3026.0 0.0003305 485.04758 3269.10571
2124.0 0.000471 485.07214 2281.09741
1880.0 0.000532 485.09531 2051.44336
1760.0 0.000568 485.11679 1901.84570
1215.0 0.000823 485.13681 1243.88049
780.0 0.001282 485.15527 808.43915
666.0 0.001502 485.17224 665.28656
638.0 0.001567 485.18765 613.08246
604.0 0.001656 485.20157 583.94507
619.0 0.001616 485.21390 564.69214
567.0 0.001764 485.22482 551.06024
578.0 0.001730 485.23422 540.93744
604.0 0.001656 485.24207 533.15094
562.0 0.001779 485.24841 517.17920
579.0 0.001727 485.25327 513.03217
554.0 0.001805 485.25668 509.67123
533.0 0.001876 485.25858 506.90289
548.0 0.001825 485.25894 499.97211
549.0 0.001821 485.25787 498.39606
529.0 0.001890 485.25531 497.06171
529.0 0.001890 485.25128 495.92142
539.0 0.001855 485.24579 489.18491
542.0 0.001845 485.23877 488.80161
538.0 0.001859 485.23038 488.46875
543.0 0.001842 485.22046 485.21716
547.0 0.001828 485.20908 485.20587
528.0 0.001894 485.19635 485.19308
517.0 0.001934 485.18207 485.17877
498.0 0.002008 485.16635 496.10373
515.0 0.001942 485.14923 496.87219
523.0 0.001912 485.13065 497.72794
539.0 0.001855 485.11066 503.94531
542.0 0.001845 485.08923 505.39240
575.0 0.001739 485.06644 507.01968
567.0 0.001764 485.04211 508.86078
530.0 0.001887 485.01645 510.95450
534.0 0.001873 484.98929 513.35193
544.0 0.001838 484.96082 516.11743
577.0 0.001733 484.93088 519.33124
555.0 0.001802 484.89954 523.10352
540.0 0.001852 484.86682 527.57684
579.0 0.001727 484.83270 532.95215
580.0 0.001724 484.79724 539.51373
651.0 0.001536 484.76038 547.67535
677.0 0.001477 484.72214 558.09894
722.0 0.001385 484.68250 571.91467
736.0 0.001359 484.64148 591.82233
790.0 0.001266 484.59912 627.02985
959.0 0.001043 484.55539 699.70734
997.0 0.001003 484.51025 825.88208
1186.0 0.000843 484.46390 1008.80640
1369.0 0.000730 484.41608 1243.27429
1661.0 0.000602 484.36700 1540.40759
2019.0 0.000495 484.31644 1916.45117
2407.0 0.000415 484.26462 2388.05396
2834.0 0.000353 484.21152 2985.48364
3666.0 0.0002728 484.15701 3768.49829
5067.0 0.0001974 484.10123 4866.84570
6961.0 0.0001437 484.04407 6572.85303
9261.0 0.0001080 483.98563 8953.15234
9899.0 0.0001010 483.92590 9749.03223
7128.0 0.0001403 483.86487 6780.48389
5250.0 0.0001905 483.80246 5020.24316
5035.0 0.0001986 483.73877 5068.06445
4138.0 0.0002417 483.67383 3955.36353
2139.0 0.000468 483.60767 2008.48669
1142.0 0.000876 483.54010 1124.54724
877.0 0.001140 483.47125 856.79718
783.0 0.001277 483.40121 766.39844
729.0 0.001372 483.32983 702.80817
676.0 0.001479 483.25723 661.75073
650.0 0.001538 483.18341 633.76538
604.0 0.001656 483.10822 624.64716
617.0 0.001621 483.03186 611.22156
612.0 0.001634 482.95416 601.88812
626.0 0.001597 482.87527 595.55432
612.0 0.001634 482.79514 591.65967
610.0 0.001639 482.71375 589.85760
638.0 0.001567 482.63107 589.88287
669.0 0.001495 482.54730 591.67969
684.0 0.001462 482.46231 595.27734
662.0 0.001511 482.37601 600.82123
678.0 0.001475 482.28854 591.20795
719.0 0.001391 482.19986 603.05029
756.0 0.001323 482.10995 618.13208
836.0 0.001196 482.01886 628.55743
877.0 0.001140 481.92661 655.15204
953.0 0.001049 481.83310 692.01074
1089.0 0.000918 481.73849 751.58337
1270.0 0.000787 481.64261 871.09796
1477.0 0.000677 481.54556 1099.14441
1761.0 0.000568 481.44742 1450.03674
2076.0 0.000482 481.34799 1905.06018
2580.0 0.000388 481.24753 2493.65576
3116.0 0.0003209 481.14581 3255.15479
3879.0 0.0002578 481.04306 4221.54980
4888.0 0.0002046 480.93912 5440.39648
6660.0 0.0001502 480.83392 7036.29443
9317.0 0.0001073 480.72766 9282.99219
13311.0 0.0000751 480.62021 12773.78320
18616.0 0.0000537 480.51172 17591.22852
19950.0 0.0000501 480.40207 19109.46484
13236.0 0.0000756 480.29129 13057.28613
9702.0 0.0001031 480.17947 9489.29785
10134.0 0.0000987 480.06638 9722.90430
8481.0 0.0001179 479.95233 7934.20166
3901.0 0.0002563 479.83710 3923.74414
1706.0 0.000586 479.72079 1922.12122
1131.0 0.000884 479.60342 1298.46423
983.0 0.001017 479.48495 1055.40710
755.0 0.001325 479.36536 914.88544
795.0 0.001258 479.24469 813.58636
678.0 0.001475 479.12302 743.72284
678.0 0.001475 479.00018 695.89893
636.0 0.001572 478.87634 660.84521
619.0 0.001616 478.75153 633.92261
586.0 0.001706 478.62549 612.67151
553.0 0.001808 478.49850 595.55414
509.0 0.001965 478.37045 581.54449
519.0 0.001927 478.24127 569.90637
515.0 0.001942 478.11127 560.12506
511.0 0.001957 477.98013 551.81189
518.0 0.001931 477.84787 505.79709
498.0 0.002008 477.71472 502.88626
500.0 0.002000 477.58044 500.37048
487.0 0.002053 477.44525 498.17880
487.0 0.002053 477.30899 477.51541
464.0 0.002155 477.17175 477.35800
494.0 0.002024 477.03351 477.10138
480.0 0.002083 476.89426 476.95529
481.0 0.002079 476.75415 476.80933
473.0 0.002114 476.61292 476.60968
472.0 0.002119 476.47076 476.46753
506.0 0.001976 476.32761 476.32440
492.0 0.002033 476.18344 476.18030
466.0 0.002146 476.03842 476.03522
496.0 0.002016 475.89246 475.88922
481.0 0.002079 475.74533 475.74219
461.0 0.002169 475.59750 475.59427
456.0 0.002193 475.44855 475.44543
438.0 0.002283 475.29880 475.29559
446.0 0.002242 475.14810 475.14490
463.0 0.002160 474.99634 474.99323
489.0 0.002045 474.84375 474.84064
459.0 0.002179 474.69025 474.68704
468.0 0.002137 474.53586 474.53265
496.0 0.002016 474.38055 474.37732
456.0 0.002193 474.22424 474.22107
421.0 0.002375 474.06705 474.06390
455.0 0.002198 473.90903 473.90591
481.0 0.002079 473.75015 473.74701
463.0 0.002160 473.59036 473.58719
475.0 0.002105 473.42960 473.42642
508.0 0.001969 473.26804 473.26486
454.0 0.002203 473.10556 473.10245
470.0 0.002128 472.94235 472.93921
466.0 0.002146 472.77817 472.77499
504.0 0.001984 472.61307 472.60995
505.0 0.001980 472.44730 472.44409
488.0 0.002049 472.28055 472.27734
465.0 0.002151 472.11298 472.10980
461.0 0.002169 471.94458 471.94150
450.0 0.002222 471.77533 471.77219
446.0 0.002242 471.60535 471.60214
484.0 0.002066 471.43439 471.43130
440.0 0.002273 471.26270 478.76624
451.0 0.002217 471.09018 479.11349
434.0 0.002304 470.91687 479.51642
464.0 0.002155 470.74280 479.98340
482.0 0.002075 470.56781 484.29388
461.0 0.002169 470.39218 485.18420
469.0 0.002132 470.21570 486.20532
452.0 0.002212 470.03839 487.38022
482.0 0.002075 469.86032 488.73676
512.0 0.001953 469.68155 490.31110
477.0 0.002096 469.50195 492.14697
479.0 0.002088 469.32156 494.30249
508.0 0.001969 469.14041 496.85257
499.0 0.002004 468.95859 499.89389
500.0 0.002000 468.77597 503.56210
539.0 0.001855 468.59259 508.04044
571.0 0.001751 468.40848 513.59753
595.0 0.001681 468.22360 520.63470
608.0 0.001645 468.03802 529.78247
622.0 0.001608 467.85172 542.18005
650.0 0.001538 467.66476 560.65094
722.0 0.001385 467.47705 594.51282
815.0 0.001227 467.28848 663.83368
913.0 0.001095 467.09943 779.98962
1048.0 0.000954 466.90958 946.52826
1220.0 0.000820 466.71902 1161.08887
1473.0 0.000679 466.52783 1436.11304
1832.0 0.000546 466.33588 1798.75000
2331.0 0.000429 466.14328 2271.19019
3043.0 0.0003286 465.94998 2909.19580
4108.0 0.0002434 465.75607 3836.63013
5854.0 0.0001708 465.56146 5278.71924
7405.0 0.0001350 465.36612 6856.41797
6591.0 0.0001517 465.17023 6287.85693
4411.0 0.0002267 464.97363 4073.77393
3663.0 0.0002730 464.77640 3418.69946
3877.0 0.0002579 464.57858 3659.76343
3052.0 0.0003277 464.37994 2900.50928
1678.0 0.000596 464.18082 1557.02893
929.0 0.001076 463.98102 940.94781
711.0 0.001406 463.78061 750.61230
628.0 0.001592 463.57959 672.43030
616.0 0.001623 463.37790 628.14063
601.0 0.001664 463.17569 600.58325
587.0 0.001704 462.97284 583.12250
596.0 0.001678 462.76935 572.62012
637.0 0.001570 462.56537 567.69458
599.0 0.001669 462.36069 568.49622
612.0 0.001634 462.15546 578.62195
665.0 0.001504 461.94958 608.44873
672.0 0.001488 461.74329 668.06354
796.0 0.001256 461.53629 758.76843
916.0 0.001092 461.32874 875.27014
1002.0 0.000998 461.12064 1028.54663
1238.0 0.000808 460.91199 1221.40210
1529.0 0.000654 460.70285 1494.65747
1947.0 0.000514 460.49307 1860.12427
2557.0 0.000391 460.28271 2393.10791
3545.0 0.0002821 460.07196 3214.65723
4540.0 0.0002203 459.86053 4126.91846
4188.0 0.0002388 459.64865 3823.09448
2644.0 0.000378 459.43622 2540.07275
2195.0 0.000456 459.22327 2138.81689
2480.0 0.000403 459.00986 2294.68481
2085.0 0.000480 458.79584 1934.10767
1212.0 0.000825 458.58133 1144.39746
749.0 0.001335 458.36639 755.77069
648.0 0.001543 458.15091 634.82434
586.0 0.001706 457.93491 587.57520
553.0 0.001808 457.71844 561.98853
549.0 0.001821 457.50153 547.27875
533.0 0.001876 457.28412 540.44458
561.0 0.001783 457.06619 542.72955
544.0 0.001838 456.84784 556.80066
557.0 0.001795 456.62903 583.34448
611.0 0.001637 456.40973 620.28180
641.0 0.001560 456.19000 670.85876
671.0 0.001490 455.96970 739.75214
776.0 0.001289 455.74911 831.82263
869.0 0.001151 455.52802 957.02264
1093.0 0.000915 455.30661 1141.09058
1433.0 0.000698 455.08459 1420.10254
1724.0 0.000580 454.86212 1743.86304
1669.0 0.000599 454.63940 1671.34729
1278.0 0.000782 454.41608 1280.70496
1164.0 0.000859 454.19257 1195.11133
1282.0 0.000780 453.96844 1329.10767
1256.0 0.000796 453.74396 1329.51147
1118.0 0.000894 453.51907 1195.31482
1155.0 0.000866 453.29385 1237.79346
1380.0 0.000725 453.06824 1462.01538
1835.0 0.000545 452.84219 1860.62878
2203.0 0.000454 452.61569 2300.27490
1974.0 0.000507 452.38898 2125.68115
1447.0 0.000691 452.16174 1483.82263
1241.0 0.000806 451.93430 1282.55261
1331.0 0.000751 451.70633 1366.36499
1173.0 0.000853 451.47797 1216.76282
809.0 0.001236 451.24939 818.82141
578.0 0.001730 451.02036 608.99396
503.0 0.001988 450.79114 541.38129
466.0 0.002146 450.56149 514.44348
409.0 0.002445 450.33136 498.95749
433.0 0.002309 450.10107 488.72964
419.0 0.002387 449.87036 478.80090
451.0 0.002217 449.63937 473.65393
389.0 0.002571 449.40808 469.71045
378.0 0.002646 449.17636 466.59564
394.0 0.002538 448.94449 462.73224
381.0 0.002625 448.71216 460.75906
425.0 0.002353 448.47964 459.10236
423.0 0.002364 448.24680 457.68802
431.0 0.002320 448.01361 456.46280
446.0 0.002242 447.78018 455.38855
412.0 0.002427 447.54633 450.47101
385.0 0.002597 447.31238 449.94479
427.0 0.002342 447.07816 449.46002
395.0 0.002532 446.84344 449.00912
416.0 0.002404 446.60870 446.60583
390.0 0.002564 446.37357 446.37070
397.0 0.002519 446.13821 446.13535
393.0 0.002545 445.90256 445.89975
445.0 0.002247 445.66660 445.66376
400.0 0.002500 445.43054 445.42770
410.0 0.002439 445.19415 445.19131
415.0 0.002410 444.95761 444.95474
447.0 0.002237 444.72076 444.71790
416.0 0.002404 444.48364 444.48077
409.0 0.002445 444.24640 444.24353
409.0 0.002445 444.00879 444.00598
397.0 0.002519 443.77106 443.76825
389.0 0.002571 443.53317 443.53033
430.0 0.002326 443.29489 443.29208
442.0 0.002262 443.05655 443.05374
431.0 0.002320 442.81793 442.81516
441.0 0.002268 442.57913 442.57642
439.0 0.002278 442.34024 442.33743
419.0 0.002387 442.10101 442.09824
416.0 0.002404 441.86169 441.85892
407.0 0.002457 441.62210 441.61935
432.0 0.002315 441.38248 441.37964
444.0 0.002252 441.14261 441.13983
414.0 0.002415 440.90250 440.89966
413.0 0.002421 440.66229 440.65948
428.0 0.002336 440.42191 440.41913
428.0 0.002336 440.18143 440.17865
431.0 0.002320 439.94077 439.93796
428.0 0.002336 439.69983 439.69702
423.0 0.002364 439.45889 439.45609
394.0 0.002538 439.21774 445.25726
404.0 0.002475 438.97656 445.42041
408.0 0.002451 438.73511 445.62579
405.0 0.002469 438.49350 445.87946
409.0 0.002445 438.25192 450.22275
415.0 0.002410 438.01016 454.02713
424.0 0.002358 437.76831 454.99747
400.0 0.002500 437.52625 456.11298
415.0 0.002410 437.28415 459.37173
428.0 0.002336 437.04199 463.47729
440.0 0.002273 436.79962 465.51926
446.0 0.002242 436.55725 467.87891
406.0 0.002463 436.31482 470.62131
411.0 0.002433 436.07211 475.04465
477.0 0.002096 435.82944 478.90503
469.0 0.002132 435.58664 483.48621
452.0 0.002212 435.34384 488.97607
476.0 0.002101 435.10089 495.64023
526.0 0.001901 434.85788 503.85715
533.0 0.001876 434.61490 514.18225
569.0 0.001757 434.37173 527.51239
587.0 0.001704 434.12854 545.44830
666.0 0.001502 433.88531 572.12067
709.0 0.001410 433.64200 619.79596
837.0 0.001195 433.39868 710.13483
1010.0 0.000990 433.15527 853.02942
1110.0 0.000901 432.91193 1057.81909
1354.0 0.000739 432.66846 1340.60645
1709.0 0.000585 432.42487 1727.56079
2115.0 0.000473 432.18146 2263.21899
2824.0 0.000354 431.93793 3011.15503
4026.0 0.0002484 431.69434 4115.94189
5791.0 0.0001727 431.45081 5725.35791
6743.0 0.0001483 431.20721 7060.13623
6231.0 0.0001605 430.96362 6335.73096
5603.0 0.0001785 430.71988 5646.94531
6483.0 0.0001542 430.47635 6407.62207
6470.0 0.0001546 430.23270 6648.36475
5181.0 0.0001930 429.98904 5165.68994
4170.0 0.0002398 429.74548 3988.02490
4384.0 0.0002281 429.50186 4136.89307
4321.0 0.0002314 429.25842 4241.02637
3034.0 0.0003296 429.01483 2927.00269
1898.0 0.000527 428.77124 1833.59985
1626.0 0.000615 428.52768 1582.77869
1671.0 0.000598 428.28418 1620.52625
1392.0 0.000718 428.04077 1347.81470
933.0 0.001072 427.79736 904.38342
679.0 0.001473 427.55399 687.02667
599.0 0.001669 427.31070 608.64209
550.0 0.001818 427.06735 570.80823
517.0 0.001934 426.82416 546.73608
493.0 0.002028 426.58096 529.92804
495.0 0.002020 426.33792 517.69324
475.0 0.002105 426.09479 508.60156
459.0 0.002179 425.85172 490.44641
451.0 0.002217 425.60889 486.38965
485.0 0.002062 425.36603 483.71994
504.0 0.001984 425.12320 474.74466
492.0 0.002033 424.88055 469.34875
484.0 0.002066 424.63788 471.41913
487.0 0.002053 424.39542 474.81805
531.0 0.001883 424.15292 477.90268
557.0 0.001795 423.91049 481.53540
570.0 0.001754 423.66830 493.71921
601.0 0.001664 423.42612 514.23657
641.0 0.001560 423.18411 556.49493
741.0 0.001350 422.94211 632.29474
817.0 0.001224 422.70020 751.88599
925.0 0.001081 422.45853 912.64362
1109.0 0.000902 422.21686 1129.18030
1385.0 0.000722 421.97540 1414.62720
1815.0 0.000551 421.73401 1809.11426
2448.0 0.000408 421.49261 2398.07349
3423.0 0.0002921 421.25156 3300.49438
4473.0 0.0002236 421.01056 4312.86182
4096.0 0.0002441 420.76974 4098.18359
2629.0 0.000380 420.52908 2676.49976
1989.0 0.000503 420.28839 2104.56396
2209.0 0.000453 420.04794 2294.74365
2375.0 0.000421 419.80762 2355.87329
1647.0 0.000607 419.56754 1589.31714
862.0 0.001160 419.32751 931.56158
654.0 0.001529 419.08762 691.71027
592.0 0.001689 418.84799 620.69812
596.0 0.001678 418.60843 603.84894
632.0 0.001582 418.36911 616.98657
602.0 0.001661 418.12994 655.89514
678.0 0.001475 417.89090 716.01160
750.0 0.001333 417.65210 801.51715
856.0 0.001168 417.41342 927.24719
1065.0 0.000939 417.17496 1114.57568
1368.0 0.000731 416.93665 1404.52478
1775.0 0.000563 416.69855 1784.24341
1753.0 0.000570 416.46066 1873.49109
1344.0 0.000744 416.22296 1390.55884
1082.0 0.000924 415.98541 1092.73596
1069.0 0.000935 415.74814 1114.95398
1177.0 0.000850 415.51089 1208.91443
1053.0 0.000950 415.27408 1040.96436
901.0 0.001110 415.03726 824.85742
864.0 0.001157 414.80081 804.53418
942.0 0.001062 414.56461 924.49414
1077.0 0.000929 414.32852 1113.27161
1348.0 0.000742 414.09268 1374.82275
1766.0 0.000566 413.85703 1751.47998
2412.0 0.000415 413.62158 2306.03320
3418.0 0.0002926 413.38654 3161.44360
4568.0 0.0002189 413.15146 4267.31006
4463.0 0.0002241 412.91681 4487.56201
3048.0 0.0003281 412.68234 3052.95166
2173.0 0.000460 412.44821 2178.85449
2225.0 0.000449 412.21420 2247.62573
2430.0 0.000412 411.98038 2486.32886
1908.0 0.000524 411.74695 1925.52112
1098.0 0.000911 411.51373 1098.19421
703.0 0.001422 411.28073 729.12292
584.0 0.001712 411.04800 615.06799
547.0 0.001828 410.81546 572.80884
537.0 0.001862 410.58337 557.58844
558.0 0.001792 410.35138 551.53046
535.0 0.001869 410.11975 529.48602
475.0 0.002105 409.88834 495.40512
450.0 0.002222 409.65717 479.44269
452.0 0.002212 409.42639 476.92621
453.0 0.002208 409.19580 472.93192
397.0 0.002519 408.96548 455.91025
384.0 0.002604 408.73557 441.33963
379.0 0.002639 408.50580 434.25192
404.0 0.002475 408.27634 430.35062
399.0 0.002506 408.04721 417.62292
413.0 0.002421 407.81842 416.15686
391.0 0.002558 407.58987 414.95242
389.0 0.002571 407.36157 413.92953
389.0 0.002571 407.13367 413.04062
364.0 0.002747 406.90604 407.55658
373.0 0.002681 406.67868 407.23810
330.0 0.003030 406.45172 406.93829
413.0 0.002421 406.22491 406.65228
374.0 0.002674 405.99857 406.37701
385.0 0.002597 405.77255 406.11017
391.0 0.002558 405.54678 405.84995
360.0 0.002778 405.32138 405.43982
347.0 0.002882 405.09619 405.20221
366.0 0.002732 404.87149 404.96698
398.0 0.002513 404.64694 404.73343
376.0 0.002660 404.42288 404.42056
374.0 0.002674 404.19910 404.19678
362.0 0.002762 403.97562 403.97330
370.0 0.002703 403.75259 403.75024
364.0 0.002747 403.52972 403.52744
402.0 0.002488 403.30740 403.30505
381.0 0.002625 403.08533 403.08298
384.0 0.002604 402.86353 402.86118
363.0 0.002755 402.64212 402.63989
363.0 0.002755 402.42114 402.41885
358.0 0.002793 402.20050 402.19818
347.0 0.002882 401.98022 401.97800
333.0 0.003003 401.76025 401.75790
373.0 0.002681 401.54065 401.53836
367.0 0.002725 401.32138 401.31915
350.0 0.002857 401.10260 401.10031
354.0 0.002825 400.88416 400.88184
381.0 0.002625 400.66595 400.66376
371.0 0.002695 400.44833 400.44601
381.0 0.002625 400.23093 400.22864
379.0 0.002639 400.01395 400.01172
362.0 0.002762 399.79733 399.79514
352.0 0.002841 399.58112 399.57892
358.0 0.002793 399.36533 399.36307
371.0 0.002695 399.14978 399.14761
386.0 0.002591 398.93481 398.93256
386.0 0.002591 398.72012 398.71790
384.0 0.002604 398.50583 398.50360
363.0 0.002755 398.29205 398.28976
341.0 0.002933 398.07849 398.07626
355.0 0.002817 397.86548 397.86325
365.0 0.002740 397.65280 397.65057
382.0 0.002618 397.44049 397.43829
382.0 0.002618 397.22867 397.22644
369.0 0.002710 397.01721 397.01495
365.0 0.002740 396.80621 396.80396
369.0 0.002710 396.59552 396.59326
371.0 0.002695 396.38528 396.38306
369.0 0.002710 396.17554 396.17328
393.0 0.002545 395.96616 395.96393
411.0 0.002433 395.75723 395.75504
396.0 0.002525 395.54871 395.54645
380.0 0.002632 395.34042 395.33838
366.0 0.002732 395.13284 395.13065
388.0 0.002577 394.92554 394.92334
416.0 0.002404 394.71875 394.71655
375.0 0.002667 394.51242 394.51022
378.0 0.002646 394.30634 394.30414
374.0 0.002674 394.10083 394.09872
361.0 0.002770 393.89572 393.89359
359.0 0.002786 393.69116 393.68893
405.0 0.002469 393.48691 393.48474
394.0 0.002538 393.28308 393.28094
365.0 0.002740 393.07980 393.07761
386.0 0.002591 392.87692 392.87479
389.0 0.002571 392.67453 392.67236
391.0 0.002558 392.47253 392.47043
333.0 0.003003 392.27097 392.26883
353.0 0.002833 392.06989 392.06781
388.0 0.002577 391.86929 391.86719
373.0 0.002681 391.66913 393.99799
398.0 0.002513 391.46948 393.95401
363.0 0.002755 391.27017 393.92670
399.0 0.002506 391.07147 393.91840
390.0 0.002564 390.87314 393.93185
399.0 0.002506 390.67532 395.14539
377.0 0.002653 390.47794 395.29227
382.0 0.002618 390.28104 395.48117
383.0 0.002611 390.08459 395.71964
386.0 0.002591 389.88858 396.01639
386.0 0.002591 389.69312 396.38214
410.0 0.002439 389.49817 405.83640
390.0 0.002564 389.30359 406.98788
401.0 0.002494 389.10953 408.32385
399.0 0.002506 388.91595 409.88315
397.0 0.002519 388.72287 411.71402
410.0 0.002439 388.53027 418.41315
409.0 0.002445 388.33807 421.31058
404.0 0.002475 388.14648 424.78375
433.0 0.002309 387.95535 429.01349
427.0 0.002342 387.76477 438.27838
449.0 0.002227 387.57455 445.24915
486.0 0.002058 387.38486 454.47836
509.0 0.001965 387.19568 467.96356
547.0 0.001828 387.00702 491.47202
580.0 0.001724 386.81885 537.12311
635.0 0.001575 386.63116 606.62000
736.0 0.001359 386.44394 705.30182
863.0 0.001159 386.25729 835.37073
1020.0 0.000980 386.07111 1010.29980
1267.0 0.000789 385.88544 1268.73633
1756.0 0.000569 385.70035 1667.50220
2417.0 0.000414 385.51563 2193.89038
2511.0 0.000398 385.33151 2384.25391
1943.0 0.000515 385.14780 1805.44983
1569.0 0.000637 384.96469 1430.54272
1646.0 0.000608 384.78210 1566.82227
1964.0 0.000509 384.59995 1973.52991
2131.0 0.000469 384.41846 2278.56836
2204.0 0.000454 384.23737 2369.06714
2536.0 0.000394 384.05692 2770.01831
3446.0 0.0002902 383.87683 3660.31836
5026.0 0.0001990 383.69724 5158.43896
6918.0 0.0001446 383.51828 7104.78613
7032.0 0.0001422 383.33984 7558.23096
4700.0 0.0002128 383.16190 5157.94922
3311.0 0.0003020 382.98447 3653.51538
3578.0 0.0002795 382.80759 3816.96777
4296.0 0.0002328 382.63129 4659.22803
4453.0 0.0002246 382.45544 4701.36182
3452.0 0.0002897 382.28012 3690.75928
3593.0 0.0002783 382.10541 3523.07617
4097.0 0.0002441 381.93118 3985.00854
3517.0 0.0002843 381.75751 3548.09424
2320.0 0.000431 381.58435 2458.53564
1947.0 0.000514 381.41171 2133.22803
2417.0 0.000414 381.23965 2451.44165
2919.0 0.0003426 381.06805 2896.49756
2549.0 0.000392 380.89713 2559.91650
1560.0 0.000641 380.72665 1601.06189
955.0 0.001047 380.55676 1071.63501
867.0 0.001153 380.38739 954.75134
895.0 0.001117 380.21857 985.54584
869.0 0.001151 380.05029 931.79218
685.0 0.001460 379.88251 714.03387
519.0 0.001927 379.71545 564.33911
477.0 0.002096 379.54874 504.28198
458.0 0.002183 379.38263 477.55075
428.0 0.002336 379.21707 459.92548
415.0 0.002410 379.05215 448.30096
422.0 0.002370 378.88766 439.56216
433.0 0.002309 378.72382 432.76755
420.0 0.002381 378.56052 427.38403
411.0 0.002433 378.39780 423.10257
395.0 0.002532 378.23553 410.57123
394.0 0.002538 378.07388 408.67493
410.0 0.002439 377.91281 410.46158
408.0 0.002451 377.75223 411.83521
426.0 0.002347 377.59235 416.56265
446.0 0.002242 377.43289 420.42908
436.0 0.002294 377.27399 433.81113
418.0 0.002392 377.11581 453.51044
425.0 0.002353 376.95801 479.49896
490.0 0.002041 376.80087 516.57843
546.0 0.001832 376.64423 578.73907
558.0 0.001792 376.48831 635.93878
565.0 0.001770 376.33282 597.99432
473.0 0.002114 376.17798 511.35175
434.0 0.002304 376.02359 480.35535
486.0 0.002058 375.86990 493.18423
467.0 0.002141 375.71671 511.92929
452.0 0.002212 375.56412 483.37677
423.0 0.002364 375.41205 433.96710
392.0 0.002551 375.26062 410.57419
414.0 0.002415 375.10971 404.40112
419.0 0.002387 374.95944 403.56549
441.0 0.002268 374.80978 404.97726
418.0 0.002392 374.66052 408.19247
433.0 0.002309 374.51202 413.48151
464.0 0.002155 374.36398 421.88089
483.0 0.002070 374.21652 438.53729
526.0 0.001901 374.06979 468.96201
550.0 0.001818 373.92343 526.42596
596.0 0.001678 373.77774 614.80615
716.0 0.001397 373.63263 742.70337
910.0 0.001099 373.48816 916.60620
1145.0 0.000873 373.34424 1157.86584
1679.0 0.000596 373.20090 1535.69910
2172.0 0.000460 373.05804 2082.21411
2589.0 0.000386 372.91586 2463.78711
1953.0 0.000512 372.77435 1961.53394
1287.0 0.000777 372.63333 1309.39087
1117.0 0.000895 372.49286 1154.12415
1365.0 0.000733 372.35306 1300.59668
1409.0 0.000710 372.21371 1422.20313
1135.0 0.000881 372.07507 1115.43835
724.0 0.001381 371.93701 720.24811
524.0 0.001908 371.79944 545.72998
473.0 0.002114 371.66263 488.46741
458.0 0.002183 371.52628 465.26059
476.0 0.002101 371.39053 453.97330
473.0 0.002114 371.25546 449.31873
490.0 0.002041 371.12085 451.09488
540.0 0.001852 370.98694 460.27670
522.0 0.001916 370.85358 479.50272
548.0 0.001825 370.72079 518.51477
608.0 0.001645 370.58865 580.80664
709.0 0.001410 370.45700 674.10571
820.0 0.001220 370.32608 810.94812
1059.0 0.000944 370.19565 1014.38348
1392.0 0.000718 370.06586 1333.13416
1762.0 0.000568 369.93668 1790.45190
2017.0 0.000496 369.80811 2168.11377
1993.0 0.000502 369.67999 2027.88171
1935.0 0.000517 369.55261 1922.60400
2261.0 0.000442 369.42581 2262.88745
2575.0 0.000388 369.29959 2608.84790
2188.0 0.000457 369.17392 2241.69873
1563.0 0.000640 369.04898 1578.27002
1247.0 0.000802 368.92456 1225.36462
1245.0 0.000803 368.80063 1238.73389
1312.0 0.000762 368.67749 1305.14832
1105.0 0.000905 368.55478 1070.17786
826.0 0.001211 368.43280 804.35797
737.0 0.001357 368.31137 740.66711
778.0 0.001285 368.19052 795.60846
924.0 0.001082 368.07034 921.64899
1174.0 0.000852 367.95068 1139.90454
1563.0 0.000640 367.83167 1485.06860
1833.0 0.000546 367.71320 1829.25671
1663.0 0.000601 367.59543 1692.98779
1259.0 0.000794 367.47815 1309.91064
1176.0 0.000850 367.36148 1261.24390
1523.0 0.000657 367.24551 1501.88733
1942.0 0.000515 367.13000 1898.67126
2268.0 0.000441 367.01529 2169.21997
1980.0 0.000505 366.90112 1999.12390
1328.0 0.000753 366.78738 1387.18103
904.0 0.001106 366.67444 990.56036
871.0 0.001148 366.56198 933.59137
1074.0 0.000931 366.45020 1038.12744
1139.0 0.000878 366.33896 1078.65234
810.0 0.001235 366.22833 831.81665
546.0 0.001832 366.11835 586.80365
445.0 0.002247 366.00900 485.34476
426.0 0.002347 365.90021 449.09036
425.0 0.002353 365.79202 431.59711
368.0 0.002717 365.68442 418.96344
418.0 0.002392 365.57745 411.40530
390.0 0.002564 365.47101 407.10828
399.0 0.002506 365.36523 404.44690
396.0 0.002525 365.26004 403.15231
388.0 0.002577 365.15552 402.12576
405.0 0.002469 365.05154 403.55215
437.0 0.002288 364.94818 406.61395
432.0 0.002315 364.84549 412.00256
476.0 0.002101 364.74332 421.83118
493.0 0.002028 364.64172 442.28442
489.0 0.002045 364.54080 483.87012
538.0 0.001859 364.44043 547.42114
642.0 0.001558 364.34070 650.36914
832.0 0.001202 364.24161 782.63641
981.0 0.001019 364.14304 981.87878
1297.0 0.000771 364.04520 1288.55005
1765.0 0.000567 363.94785 1713.80554
1979.0 0.000505 363.85114 1962.80408
1475.0 0.000678 363.75504 1519.90906
1014.0 0.000986 363.65945 1043.38818
929.0 0.001076 363.56454 936.38141
1051.0 0.000951 363.47031 1049.36646
1120.0 0.000893 363.37662 1166.89404
958.0 0.001044 363.28348 971.42761
656.0 0.001524 363.19098 649.48883
485.0 0.002062 363.09909 493.19846
429.0 0.002331 363.00775 439.12747
398.0 0.002513 362.91718 416.13806
386.0 0.002591 362.82703 402.87195
375.0 0.002667 362.73752 394.17758
392.0 0.002551 362.64865 388.10339
376.0 0.002660 362.56036 383.65411
373.0 0.002681 362.47272 380.27762
393.0 0.002545 362.38565 379.16000
396.0 0.002525 362.29913 377.15079
376.0 0.002660 362.21326 375.54163
347.0 0.002882 362.12802 374.23746
378.0 0.002646 362.04337 373.17349
382.0 0.002618 361.95920 373.04367
396.0 0.002525 361.87582 372.38174
402.0 0.002488 361.79294 371.86084
397.0 0.002519 361.71066 371.46466
372.0 0.002688 361.62903 371.18256
400.0 0.002500 361.54785 378.63013
381.0 0.002625 361.46744 379.07114
371.0 0.002695 361.38757 379.67398
371.0 0.002695 361.30826 380.45383
372.0 0.002688 361.22964 381.43176
392.0 0.002551 361.15158 384.27930
392.0 0.002551 361.07407 386.12369
374.0 0.002674 360.99716 388.30722
391.0 0.002558 360.92090 390.91412
390.0 0.002564 360.84518 394.05878
402.0 0.002488 360.77011 396.86646
422.0 0.002370 360.69556 401.74313
415.0 0.002410 360.62167 407.98700
443.0 0.002257 360.54840 416.40555
478.0 0.002092 360.47565 429.14548
470.0 0.002128 360.40350 451.80734
494.0 0.002024 360.33200 492.80405
560.0 0.001786 360.26111 553.70789
684.0 0.001462 360.19070 644.30402
784.0 0.001276 360.12097 766.45538
952.0 0.001050 360.05182 945.14813
1260.0 0.000794 359.98325 1222.44348
1744.0 0.000573 359.91531 1539.60388
1773.0 0.000564 359.84787 1544.21240
1336.0 0.000749 359.78110 1179.84277
1144.0 0.000874 359.71490 1047.62695
1303.0 0.000767 359.64926 1227.80237
1607.0 0.000622 359.58426 1608.00317
1974.0 0.000507 359.51978 2066.74048
2417.0 0.000414 359.45593 2430.16943
3160.0 0.0003165 359.39270 3071.40796
4507.0 0.0002219 359.33005 4299.42383
5919.0 0.0001689 359.26797 5760.14990
5510.0 0.0001815 359.20642 5656.16895
3431.0 0.0002915 359.14548 3595.76514
2267.0 0.000441 359.08521 2450.53394
2314.0 0.000432 359.02545 2445.25977
2883.0 0.0003469 358.96625 2969.30225
3036.0 0.0003294 358.90775 3199.57300
2193.0 0.000456 358.84973 2224.33203
1194.0 0.000838 358.79230 1217.41150
750.0 0.001333 358.73547 794.85431
582.0 0.001718 358.67923 656.39569
560.0 0.001786 358.62350 605.74384
555.0 0.001802 358.56848 590.93817
589.0 0.001698 358.51392 603.39990
643.0 0.001555 358.46011 644.67700
694.0 0.001441 358.40668 719.03162
751.0 0.001332 358.35388 778.25702
695.0 0.001439 358.30164 721.96490
641.0 0.001560 358.25009 658.83185
656.0 0.001524 358.19907 681.80548
743.0 0.001346 358.14859 779.30859
878.0 0.001139 358.09866 932.76959
1068.0 0.000936 358.04932 1097.70886
1064.0 0.000940 358.00064 1153.67529
909.0 0.001100 357.95242 994.88904
815.0 0.001227 357.90485 881.90485
925.0 0.001081 357.85782 952.49542
1192.0 0.000839 357.81134 1168.84485
1455.0 0.000687 357.76547 1481.21936
1636.0 0.000611 357.72009 1622.96118
1269.0 0.000788 357.67538 1274.29956
809.0 0.001236 357.63123 864.86615
712.0 0.001404 357.58759 735.00281
803.0 0.001245 357.54453 774.59540
884.0 0.001131 357.50204 866.06836
883.0 0.001133 357.46011 830.42505
645.0 0.001550 357.41873 617.06610
488.0 0.002049 357.37796 477.14526
399.0 0.002506 357.33774 423.87729
412.0 0.002427 357.29813 403.16388
330.0 0.003030 357.25903 392.02063
373.0 0.002681 357.22046 384.82135
396.0 0.002525 357.18237 379.79929
395.0 0.002532 357.14508 376.11404
370.0 0.002703 357.10818 373.30560
368.0 0.002717 357.07187 371.10287
366.0 0.002732 357.03604 369.33301
369.0 0.002710 357.00092 367.47552
338.0 0.002959 356.96625 366.29416
330.0 0.003030 356.93213 365.29895
370.0 0.002703 356.89859 364.45120
373.0 0.002681 356.86575 363.98700
371.0 0.002695 356.83322 363.16119
352.0 0.002841 356.80139 361.77417
341.0 0.002933 356.77005 361.37051
368.0 0.002717 356.73929 361.01837
356.0 0.002809 356.70905 360.83780
364.0 0.002747 356.67938 360.57629
342.0 0.002924 356.65024 360.34918
345.0 0.002899 356.62161 358.30768
352.0 0.002841 356.59363 358.25455
344.0 0.002907 356.56613 358.21808
349.0 0.002865 356.53912 358.19839
352.0 0.002841 356.51279 358.19626
350.0 0.002857 356.48685 358.21323
367.0 0.002725 356.46149 357.56326
362.0 0.002762 356.43674 357.66821
351.0 0.002849 356.41254 357.79874
342.0 0.002924 356.38879 357.96173
345.0 0.002899 356.36560 358.16721
354.0 0.002825 356.34299 359.10394
349.0 0.002865 356.32089 359.48752
355.0 0.002817 356.29941 359.98486
366.0 0.002732 356.27829 360.64932
366.0 0.002732 356.25775 361.57715
383.0 0.002611 356.23779 362.99438
379.0 0.002639 356.21838 365.89218
376.0 0.002660 356.19943 370.98987
396.0 0.002525 356.18103 379.76889
414.0 0.002415 356.16321 393.50092
451.0 0.002217 356.14590 412.45718
476.0 0.002101 356.12909 442.54697
513.0 0.001949 356.11279 486.08368
586.0 0.001706 356.09705 538.67804
551.0 0.001815 356.08188 545.58032
499.0 0.002004 356.06711 478.37766
430.0 0.002326 356.05295 433.46054
427.0 0.002342 356.03928 429.20758
488.0 0.002049 356.02615 446.32831
506.0 0.001976 356.01349 463.32651
444.0 0.002252 356.00140 444.31970
458.0 0.002183 355.98981 406.29959
399.0 0.002506 355.97876 387.55560
386.0 0.002591 355.96814 382.90134
392.0 0.002551 355.95810 383.55023
411.0 0.002433 355.94858 387.92035
412.0 0.002427 355.93954 398.41730
464.0 0.002155 355.93106 418.64008
440.0 0.002273 355.92303 449.35693
508.0 0.001969 355.91550 497.57645
524.0 0.001908 355.90854 563.77826
723.0 0.001383 355.90207 666.23267
814.0 0.001229 355.89600 804.31226
907.0 0.001103 355.89053 872.03943
799.0 0.001252 355.88565 731.41150
591.0 0.001692 355.88113 597.49658
578.0 0.001730 355.87714 584.94507
666.0 0.001502 355.87366 657.24493
750.0 0.001333 355.87070 772.01074
878.0 0.001139 355.86816 859.32526
944.0 0.001059 355.86624 895.50482
1012.0 0.000988 355.86472 1044.62451
1304.0 0.000767 355.86374 1319.76538
1476.0 0.000678 355.86322 1497.94543
1201.0 0.000833 355.86313 1211.39905
829.0 0.001206 355.86368 866.61823
726.0 0.001377 355.86469 777.11920
840.0 0.001190 355.86609 856.38751
1010.0 0.000990 355.86804 1012.16888
1104.0 0.000906 355.87042 1070.85852
962.0 0.001040 355.87341 911.12421
776.0 0.001289 355.87680 718.86316
603.0 0.001658 355.88065 560.17303
496.0 0.002016 355.88495 488.29749
489.0 0.002045 355.88986 475.74936
530.0 0.001887 355.89511 494.78955
561.0 0.001783 355.90097 507.39227
514.0 0.001946 355.90714 472.73627
448.0 0.002232 355.91397 422.04449
416.0 0.002404 355.92117 396.44431
420.0 0.002381 355.92883 388.75452
390.0 0.002564 355.93698 384.32632
357.0 0.002801 355.94565 381.80234
372.0 0.002688 355.95474 379.57693
374.0 0.002674 355.96432 378.81369
393.0 0.002545 355.97437 378.56879
402.0 0.002488 355.98486 378.75797
390.0 0.002564 355.99585 379.34576
385.0 0.002597 356.00732 380.33047
400.0 0.002500 356.01926 381.38467
388.0 0.002577 356.03159 384.05414
407.0 0.002457 356.04440 386.58224
408.0 0.002451 356.05765 389.81781
418.0 0.002392 356.07141 393.96469
419.0 0.002387 356.08554 397.77051
456.0 0.002193 356.10019 404.90814
475.0 0.002105 356.11530 414.86099
481.0 0.002079 356.13089 428.19940
554.0 0.001805 356.14682 448.06836
607.0 0.001647 356.16333 481.48123
679.0 0.001473 356.18021 549.24652
800.0 0.001250 356.19757 677.43835
922.0 0.001085 356.21539 874.51520
1255.0 0.000797 356.23358 1182.39880
1757.0 0.000569 356.25232 1618.54773
2650.0 0.000377 356.27142 2283.85889
3572.0 0.0002800 356.29102 3111.19409
3635.0 0.0002751 356.31100 3296.50000
2442.0 0.000410 356.33145 2268.69116
1445.0 0.000692 356.35236 1487.56921
1348.0 0.000742 356.37360 1347.99268
1598.0 0.000626 356.39542 1563.62561
1981.0 0.000505 356.41760 1881.07324
1914.0 0.000522 356.44019 1776.17065
1278.0 0.000782 356.46329 1156.05847
770.0 0.001299 356.48669 743.52271
633.0 0.001580 356.51062 596.65601
559.0 0.001789 356.53503 561.22852
585.0 0.001709 356.55972 569.59186
652.0 0.001534 356.58493 609.50726
707.0 0.001414 356.61057 684.86078
864.0 0.001157 356.63657 804.91956
1017.0 0.000983 356.66306 935.32745
968.0 0.001033 356.68988 903.78674
771.0 0.001297 356.71719 709.87347
629.0 0.001590 356.74487 607.16937
628.0 0.001592 356.77298 606.91815
715.0 0.001399 356.80154 659.13562
797.0 0.001255 356.83054 716.16199
785.0 0.001274 356.85989 683.74896
689.0 0.001451 356.88959 590.91290
679.0 0.001473 356.91977 553.23700
704.0 0.001420 356.95038 565.86865
754.0 0.001326 356.98138 616.88123
874.0 0.001144 357.01276 730.99469
1041.0 0.000961 357.04453 957.97937
1350.0 0.000741 357.07681 1316.44360
1865.0 0.000536 357.10941 1880.15015
2726.0 0.000367 357.14236 2689.02490
4176.0 0.0002395 357.17578 3926.67261
5758.0 0.0001737 357.20963 5437.04883
5846.0 0.0001711 357.24377 5730.78174
3995.0 0.0002503 357.27829 3814.82422
2323.0 0.000430 357.31329 2394.47070
2074.0 0.000482 357.34866 2131.05664
2523.0 0.000396 357.38449 2519.22412
3142.0 0.0003183 357.42056 3122.07764
3121.0 0.0003204 357.45715 3036.91309
2076.0 0.000482 357.49405 1922.13110
1203.0 0.000831 357.53131 1124.26111
851.0 0.001175 357.56906 842.02991
813.0 0.001230 357.60712 790.16174
865.0 0.001156 357.64551 839.76721
993.0 0.001007 357.68433 961.33698
1233.0 0.000811 357.72354 1185.19226
1631.0 0.000613 357.76312 1509.01721
1883.0 0.000531 357.80307 1739.18176
1621.0 0.000617 357.84338 1516.50391
1373.0 0.000728 357.88412 1254.10901
1310.0 0.000763 357.92514 1241.98645
1555.0 0.000643 357.96661 1465.62463
2131.0 0.000469 358.00842 1838.07117
2298.0 0.000435 358.05057 1975.18933
1547.0 0.000646 358.09305 1485.02478
1003.0 0.000997 358.13599 1024.70935
878.0 0.001139 358.17926 861.43768
963.0 0.001038 358.22287 877.44928
1041.0 0.000961 358.26678 972.10034
1156.0 0.000865 358.31119 989.75598
944.0 0.001059 358.35593 833.56372
818.0 0.001222 358.40088 741.23761
854.0 0.001171 358.44635 779.95569
1009.0 0.000991 358.49203 946.93768
1290.0 0.000775 358.53815 1236.08936
1716.0 0.000583 358.58463 1716.65857
2386.0 0.000419 358.63135 2403.58496
3065.0 0.0003263 358.67850 3130.80518
3258.0 0.0003069 358.72601 3413.44922
3290.0 0.0003040 358.77386 3526.30664
3378.0 0.0002960 358.82208 3518.25146
3021.0 0.0003310 358.87054 3161.22656
2439.0 0.000410 358.91940 2484.88647
2163.0 0.000462 358.96857 2217.92969
2012.0 0.000497 359.01813 2094.32397
1922.0 0.000520 359.06799 2013.70544
1809.0 0.000553 359.11816 1891.40271
1466.0 0.000682 359.16870 1570.98169
1079.0 0.000927 359.21948 1053.02856
792.0 0.001263 359.27072 738.96741
677.0 0.001477 359.32227 624.31952
640.0 0.001563 359.37405 604.39648
690.0 0.001449 359.42624 636.80255
779.0 0.001284 359.47867 718.45135
894.0 0.001119 359.53149 855.85132
1100.0 0.000909 359.58463 1077.82178
1492.0 0.000670 359.63803 1391.08398
1684.0 0.000594 359.69180 1627.20728
1430.0 0.000699 359.74588 1387.07556
1040.0 0.000962 359.80029 974.06000
866.0 0.001155 359.85504 820.23151
885.0 0.001130 359.91000 871.25464
1033.0 0.000968 359.96530 1035.22827
1241.0 0.000806 360.02094 1208.37439
1218.0 0.000821 360.07684 1184.01135
1149.0 0.000870 360.13315 1101.95264
1147.0 0.000872 360.18967 1150.35474
1090.0 0.000917 360.24655 1101.17920
810.0 0.001235 360.30368 843.94269
663.0 0.001508 360.36111 688.09137
668.0 0.001497 360.41885 672.98981
780.0 0.001282 360.47696 741.68689
934.0 0.001071 360.53528 861.70502
1013.0 0.000987 360.59393 946.02271
997.0 0.001003 360.65280 951.77332
1056.0 0.000947 360.71204 1079.82349
1266.0 0.000790 360.77155 1361.19360
1886.0 0.000530 360.83133 1806.04346
2339.0 0.000428 360.89142 2136.46191
1807.0 0.000553 360.95178 1815.80103
1377.0 0.000726 361.01242 1336.73047
1210.0 0.000826 361.07336 1269.27661
1557.0 0.000642 361.13455 1545.77332
2302.0 0.000434 361.19608 2054.76978
3201.0 0.0003124 361.25781 2707.16187
3623.0 0.0002760 361.31982 2960.35352
2762.0 0.000362 361.38217 2331.40137
1751.0 0.000571 361.44479 1444.49084
1130.0 0.000885 361.50766 1062.51819
1133.0 0.000883 361.57074 1037.65564
1387.0 0.000721 361.63412 1203.91736
1595.0 0.000627 361.69781 1386.94128
1465.0 0.000683 361.76172 1257.85339
1017.0 0.000983 361.82590 852.96442
682.0 0.001466 361.89041 603.27789
521.0 0.001919 361.95505 506.25098
497.0 0.002012 362.02011 467.77658
452.0 0.002212 362.08536 447.36697
445.0 0.002247 362.15082 436.72638
448.0 0.002232 362.21655 432.80920
445.0 0.002247 362.28256 437.34875
459.0 0.002179 362.34879 455.12598
498.0 0.002008 362.41525 487.69742
522.0 0.001916 362.48199 544.26855
604.0 0.001656 362.54907 628.60718
763.0 0.001311 362.61627 759.04895
886.0 0.001129 362.68369 887.39063
858.0 0.001166 362.75146 852.37787
708.0 0.001412 362.81943 655.13751
570.0 0.001754 362.88766 545.72058
515.0 0.001942 362.95609 533.99512
548.0 0.001825 363.02475 575.16412
612.0 0.001634 363.09375 632.91449
604.0 0.001656 363.16287 630.30560
508.0 0.001969 363.23221 526.77228
453.0 0.002208 363.30185 448.41855
406.0 0.002463 363.37170 415.98370
424.0 0.002358 363.44186 411.57654
431.0 0.002320 363.51212 421.15982
436.0 0.002294 363.58258 441.74768
467.0 0.002141 363.65338 479.99872
512.0 0.001953 363.72433 535.97473
625.0 0.001600 363.79553 616.94440
671.0 0.001490 363.86691 678.79803
624.0 0.001603 363.93854 617.83759
527.0 0.001898 364.01038 507.11426
479.0 0.002088 364.08246 461.06198
445.0 0.002247 364.15469 463.64273
480.0 0.002083 364.22720 493.16449
514.0 0.001946 364.29990 524.44189
502.0 0.001992 364.37280 505.77512
443.0 0.002257 364.44592 441.65851
431.0 0.002320 364.51923 401.31436
386.0 0.002591 364.59277 385.47586
370.0 0.002703 364.66644 379.14459
366.0 0.002732 364.74036 375.77350
385.0 0.002597 364.81458 373.64478
396.0 0.002525 364.88882 371.36664
367.0 0.002725 364.96338 370.36691
374.0 0.002674 365.03799 369.63284
370.0 0.002703 365.11298 369.08026
343.0 0.002915 365.18802 368.65689
346.0 0.002890 365.26334 368.32831
378.0 0.002646 365.33878 367.66577
358.0 0.002793 365.41440 367.48959
361.0 0.002770 365.49030 367.35446
376.0 0.002660 365.56631 367.25208
347.0 0.002882 365.64246 367.27866
347.0 0.002882 365.71890 367.23099
408.0 0.002451 365.79544 367.36789
342.0 0.002924 365.87222 367.36560
354.0 0.002825 365.94913 367.37802
352.0 0.002841 366.02621 367.40405
386.0 0.002591 366.10355 366.93292
375.0 0.002667 366.18097 367.06836
365.0 0.002740 366.25861 367.16299
386.0 0.002591 366.33640 367.35336
374.0 0.002674 366.41437 367.47473
390.0 0.002564 366.49243 367.60971
395.0 0.002532 366.57074 367.76132
383.0 0.002611 366.64917 367.69281
346.0 0.002890 366.72784 367.91193
357.0 0.002801 366.80664 368.18365
373.0 0.002681 366.88553 368.56372
365.0 0.002740 366.96460 369.14133
381.0 0.002625 367.04382 369.95975
370.0 0.002703 367.12323 371.19382
372.0 0.002688 367.20285 372.89621
382.0 0.002618 367.28250 375.23889
387.0 0.002584 367.36234 377.09805
367.0 0.002725 367.44238 376.48489
369.0 0.002710 367.52255 374.71463
381.0 0.002625 367.60287 374.69495
363.0 0.002755 367.68329 376.31598
405.0 0.002469 367.76385 379.64621
408.0 0.002451 367.84460 385.30881
405.0 0.002469 367.92538 393.51236
436.0 0.002294 368.00647 406.57642
451.0 0.002217 368.08755 427.63635
499.0 0.002004 368.16888 460.68011
519.0 0.001927 368.25024 496.11041
514.0 0.001946 368.33179 513.68188
508.0 0.001969 368.41351 513.41229
460.0 0.002174 368.49527 489.19498
419.0 0.002387 368.57718 448.70590
414.0 0.002415 368.65924 436.00070
443.0 0.002257 368.74142 444.12689
448.0 0.002232 368.82376 453.25284
421.0 0.002375 368.90610 453.06714
426.0 0.002347 368.98865 445.73166
443.0 0.002257 369.07132 420.59628
399.0 0.002506 369.15414 402.76678
390.0 0.002564 369.23703 396.17957
384.0 0.002604 369.32004 394.91327
386.0 0.002591 369.40317 395.82452
385.0 0.002597 369.48642 398.32339
413.0 0.002421 369.56973 403.12564
421.0 0.002375 369.65323 412.23044
423.0 0.002364 369.73676 427.73328
469.0 0.002132 369.82037 451.77933
512.0 0.001953 369.90421 488.73752
505.0 0.001980 369.98813 542.24500
623.0 0.001605 370.07205 598.75439
612.0 0.001634 370.15610 600.92639
540.0 0.001852 370.24023 537.06622
521.0 0.001919 370.32455 502.20184
510.0 0.001961 370.40897 510.74850
579.0 0.001727 370.49344 546.99738
599.0 0.001669 370.57794 607.96411
714.0 0.001401 370.66260 685.48199
841.0 0.001189 370.74731 778.39349
961.0 0.001041 370.83212 957.50830
1270.0 0.000787 370.91705 1291.96777
1854.0 0.000539 371.00198 1843.51282
2693.0 0.000371 371.08716 2658.14502
3621.0 0.0002762 371.17233 3484.19385
3472.0 0.0002880 371.25751 3338.41968
2171.0 0.000461 371.34286 2141.18018
1314.0 0.000761 371.42831 1395.74023
1180.0 0.000847 371.51373 1269.87207
1390.0 0.000719 371.59933 1468.28259
1818.0 0.000550 371.68497 1845.92712
2022.0 0.000495 371.77063 2049.99707
1622.0 0.000617 371.85638 1575.36035
1010.0 0.000990 371.94223 972.32153
632.0 0.001582 372.02820 675.94171
495.0 0.002020 372.11407 565.92944
462.0 0.002165 372.20016 520.94434
488.0 0.002049 372.28632 499.55835
492.0 0.002033 372.37244 496.39407
516.0 0.001938 372.45868 509.76675
573.0 0.001745 372.54495 548.73065
670.0 0.001493 372.63132 618.86005
805.0 0.001242 372.71768 736.90826
1025.0 0.000976 372.80414 912.74799
1268.0 0.000789 372.89069 1102.12280
1253.0 0.000798 372.97726 1094.36853
940.0 0.001064 373.06390 830.24268
670.0 0.001493 373.15054 650.50391
625.0 0.001600 373.23727 613.20038
666.0 0.001502 373.32413 654.74969
791.0 0.001264 373.41086 741.38696
916.0 0.001092 373.49771 804.11865
850.0 0.001176 373.58466 723.63879
674.0 0.001484 373.67148 590.45502
574.0 0.001742 373.75851 527.07916
554.0 0.001805 373.84546 510.66983
605.0 0.001653 373.93268 526.63556
684.0 0.001462 374.01971 569.37982
725.0 0.001379 374.10675 663.73065
881.0 0.001135 374.19391 848.98676
1155.0 0.000866 374.28125 1150.74744
1525.0 0.000656 374.36844 1645.68726
2334.0 0.000428 374.45566 2370.65967
3257.0 0.0003070 374.54291 3204.74951
3336.0 0.0002998 374.63025 3330.90039
2312.0 0.000433 374.71762 2286.48584
1348.0 0.000742 374.80490 1486.23999
1174.0 0.000852 374.89233 1311.06226
1352.0 0.000740 374.97971 1507.18555
1731.0 0.000578 375.06714 1875.54797
2067.0 0.000484 375.15457 2111.50366
1854.0 0.000539 375.24200 1782.09619
1176.0 0.000850 375.32944 1138.14294
732.0 0.001366 375.41693 776.42981
606.0 0.001650 375.50443 653.15479
547.0 0.001828 375.59195 620.69165
579.0 0.001727 375.67950 591.38177
543.0 0.001842 375.76700 538.21313
521.0 0.001919 375.85443 504.80667
503.0 0.001988 375.94205 504.47672
538.0 0.001859 376.02957 529.90302
557.0 0.001795 376.11719 574.05762
651.0 0.001536 376.20468 607.50580
612.0 0.001634 376.29224 569.98059
521.0 0.001919 376.37982 497.45285
444.0 0.002252 376.46738 462.09869
445.0 0.002247 376.55490 458.83850
473.0 0.002114 376.64236 472.88321
478.0 0.002092 376.72989 495.38324
486.0 0.002058 376.81741 504.28177
465.0 0.002151 376.90500 473.30975
414.0 0.002415 376.99246 441.36700
411.0 0.002433 377.07996 429.02670
428.0 0.002336 377.16748 430.04706
426.0 0.002347 377.25488 434.31763
447.0 0.002237 377.34238 452.82980
486.0 0.002058 377.42984 482.04776
546.0 0.001832 377.51724 521.29919
569.0 0.001757 377.60461 547.18317
555.0 0.001802 377.69196 520.30109
512.0 0.001953 377.77933 483.27597
457.0 0.002188 377.86670 472.99353
490.0 0.002041 377.95404 490.42886
563.0 0.001776 378.04132 529.77075
642.0 0.001558 378.12854 599.54572
713.0 0.001403 378.21582 704.48865
851.0 0.001175 378.30304 842.51740
1103.0 0.000907 378.39011 1104.69141
1535.0 0.000651 378.47726 1505.47852
2140.0 0.000467 378.56436 1975.00623
2251.0 0.000444 378.65143 2100.58813
1827.0 0.000547 378.73843 1747.38904
1456.0 0.000687 378.82547 1506.78442
1237.0 0.000808 378.91241 1281.80042
1112.0 0.000899 378.99930 1128.37878
1192.0 0.000839 379.08624 1179.87585
1415.0 0.000707 379.17307 1336.46838
1351.0 0.000740 379.25986 1303.75757
1154.0 0.000867 379.34659 1129.77625
990.0 0.001010 379.43329 1045.96399
986.0 0.001014 379.51993 984.81763
990.0 0.001010 379.60654 980.05963
1114.0 0.000898 379.69312 1014.36713
919.0 0.001088 379.77957 877.74695
665.0 0.001504 379.86600 671.21289
557.0 0.001795 379.95239 572.52344
505.0 0.001980 380.03882 559.87299
583.0 0.001715 380.12506 598.43231
638.0 0.001567 380.21127 657.17047
718.0 0.001393 380.29745 683.13495
627.0 0.001595 380.38354 600.16687
518.0 0.001931 380.46960 502.79431
477.0 0.002096 380.55560 454.84872
426.0 0.002347 380.64151 436.60419
447.0 0.002237 380.72739 429.00113
438.0 0.002283 380.81314 425.34464
408.0 0.002451 380.89893 424.11157
414.0 0.002415 380.98459 424.63876
388.0 0.002577 381.07007 426.82358
433.0 0.002309 381.15564 430.88422
468.0 0.002137 381.24115 434.99265
477.0 0.002096 381.32651 446.75610
507.0 0.001972 381.41183 465.92239
523.0 0.001912 381.49704 501.31216
620.0 0.001613 381.58212 565.33752
723.0 0.001383 381.66718 665.22101
926.0 0.001080 381.75226 836.69806
1173.0 0.000853 381.83713 1074.28235
1366.0 0.000732 381.92197 1308.57471
1420.0 0.000704 382.00665 1334.35327
1396.0 0.000716 382.09140 1395.62964
1625.0 0.000615 382.17596 1668.22095
1932.0 0.000518 382.26041 1967.39001
1774.0 0.000564 382.34482 1778.51538
1386.0 0.000722 382.42917 1338.22021
1175.0 0.000851 382.51346 1117.44788
1040.0 0.000962 382.59750 986.42596
968.0 0.001033 382.68158 970.17920
1108.0 0.000903 382.76550 1074.05066
1136.0 0.000880 382.84940 1160.48096
953.0 0.001049 382.93314 974.94586
745.0 0.001342 383.01678 699.66486
567.0 0.001764 383.10037 553.73370
510.0 0.001961 383.18384 500.05109
496.0 0.002016 383.26721 481.72214
496.0 0.002016 383.35049 473.71768
482.0 0.002075 383.43362 464.67264
497.0 0.002012 383.51669 462.00635
494.0 0.002024 383.59964 477.10992
533.0 0.001876 383.68250 517.38293
546.0 0.001832 383.76529 585.47992
665.0 0.001504 383.84790 705.35364
840.0 0.001190 383.93039 860.29340
969.0 0.001032 384.01282 986.89032
876.0 0.001142 384.09512 891.41522
632.0 0.001582 384.17737 672.14697
555.0 0.001802 384.25949 557.58258
457.0 0.002188 384.34140 542.02991
556.0 0.001799 384.42322 581.15802
594.0 0.001684 384.50497 646.35211
676.0 0.001479 384.58667 698.86261
631.0 0.001585 384.66812 641.38513
511.0 0.001957 384.74945 525.91870
441.0 0.002268 384.83075 458.71042
436.0 0.002294 384.91183 432.91824
421.0 0.002375 384.99289 424.40094
437.0 0.002288 385.07379 418.73907
409.0 0.002445 385.15454 415.99435
408.0 0.002451 385.23514 416.42111
391.0 0.002558 385.31567 415.81866
389.0 0.002571 385.39609 415.40094
409.0 0.002445 385.47635 416.56332
453.0 0.002208 385.55649 418.32520
419.0 0.002387 385.63641 420.70898
436.0 0.002294 385.71622 423.78552
454.0 0.002203 385.79596 427.67624
464.0 0.002155 385.87561 432.53394
467.0 0.002141 385.95505 438.70657
458.0 0.002183 386.03436 446.57401
478.0 0.002092 386.11353 456.77231
500.0 0.002000 386.19260 470.30106
509.0 0.001965 386.27151 488.84256
576.0 0.001736 386.35022 515.61072
607.0 0.001647 386.42886 558.56165
648.0 0.001543 386.50732 636.62134
817.0 0.001224 386.58563 788.69659
1143.0 0.000875 386.66382 1046.16541
1586.0 0.000631 386.74185 1482.57837
2208.0 0.000453 386.81973 2162.77466
2955.0 0.0003384 386.89752 2960.43237
3280.0 0.0003049 386.97507 3298.02051
3114.0 0.0003211 387.05252 3030.87988
3074.0 0.0003253 387.12982 3013.52002
2883.0 0.0003469 387.20697 2883.58496
2265.0 0.000442 387.28394 2231.67505
1815.0 0.000551 387.36078 1884.40295
1845.0 0.000542 387.43747 1969.52393
1916.0 0.000522 387.51395 2017.84302
1781.0 0.000561 387.59033 1811.13147
1712.0 0.000584 387.66650 1725.82410
1566.0 0.000639 387.74258 1591.39746
1209.0 0.000827 387.81845 1154.36389
833.0 0.001200 387.89413 797.13159
618.0 0.001618 387.96967 630.55316
541.0 0.001848 388.04517 561.52209
473.0 0.002114 388.12036 527.44922
462.0 0.002165 388.19543 511.08475
478.0 0.002092 388.27036 499.26953
482.0 0.002075 388.34509 492.76306
498.0 0.002008 388.41971 490.34561
478.0 0.002092 388.49408 491.54172
483.0 0.002070 388.56830 496.41205
513.0 0.001949 388.64236 505.55118
487.0 0.002053 388.71625 522.03528
584.0 0.001712 388.78995 545.39703
590.0 0.001695 388.86353 582.47809
711.0 0.001406 388.93686 649.21454
834.0 0.001199 389.01007 783.99597
989.0 0.001011 389.08304 1050.28955
1494.0 0.000669 389.15591 1490.09668
2172.0 0.000460 389.22861 2234.19409
2975.0 0.0003361 389.30109 3235.02710
3891.0 0.0002570 389.37341 4070.63013
3490.0 0.0002865 389.44550 3531.10254
2075.0 0.000482 389.51746 2165.62061
1271.0 0.000787 389.58926 1420.95471
1145.0 0.000873 389.66083 1280.85156
1340.0 0.000746 389.73227 1489.48193
1744.0 0.000573 389.80334 1910.54529
2089.0 0.000479 389.87442 2326.48657
1975.0 0.000506 389.94531 2139.28906
1432.0 0.000698 390.01593 1431.95996
976.0 0.001025 390.08633 978.21960
804.0 0.001244 390.15662 841.64648
838.0 0.001193 390.22675 898.45184
1082.0 0.000924 390.29663 1095.45679
1348.0 0.000742 390.36627 1473.00330
1813.0 0.000552 390.43588 2022.71716
2330.0 0.000429 390.50513 2532.36328
2353.0 0.000425 390.57422 2325.62231
1582.0 0.000632 390.64319 1534.46497
941.0 0.001063 390.71188 1050.37598
812.0 0.001232 390.78040 937.67206
909.0 0.001100 390.84869 1043.41138
1170.0 0.000855 390.91681 1296.69958
1449.0 0.000690 390.98480 1591.80603
1530.0 0.000654 391.05252 1606.96130
1275.0 0.000784 391.12006 1225.24048
873.0 0.001145 391.18735 856.53137
635.0 0.001575 391.25452 658.28046
536.0 0.001866 391.32144 582.48865
527.0 0.001898 391.38815 562.22308
527.0 0.001898 391.45468 573.18488
588.0 0.001701 391.52090 602.12061
644.0 0.001553 391.58701 658.08435
718.0 0.001393 391.65298 723.20221
815.0 0.001227 391.71863 837.99005
1041.0 0.000961 391.78406 1069.73389
1308.0 0.000765 391.84927 1357.02454
1455.0 0.000687 391.91437 1474.42017
1246.0 0.000803 391.97925 1153.91309
847.0 0.001181 392.04388 804.47729
607.0 0.001647 392.10831 660.94550
615.0 0.001626 392.17245 656.67834
695.0 0.001439 392.23642 739.30756
846.0 0.001182 392.30020 867.64154
951.0 0.001052 392.36386 954.80188
858.0 0.001166 392.42712 832.17932
628.0 0.001592 392.49026 628.63092
524.0 0.001908 392.55310 509.88211
462.0 0.002165 392.61575 463.17264
433.0 0.002309 392.67828 443.42419
454.0 0.002203 392.74051 433.31598
421.0 0.002375 392.80255 427.85434
421.0 0.002375 392.86432 426.30908
426.0 0.002347 392.92593 427.39978
451.0 0.002217 392.98727 428.27423
445.0 0.002247 393.04834 429.38104
424.0 0.002358 393.10931 428.06082
424.0 0.002358 393.16992 431.14700
449.0 0.002227 393.23041 443.19507
465.0 0.002151 393.29062 461.45004
476.0 0.002101 393.35062 475.76120
439.0 0.002278 393.41037 465.93387
444.0 0.002252 393.46994 442.84225
428.0 0.002336 393.52924 428.95715
407.0 0.002457 393.58832 424.73126
391.0 0.002558 393.64713 427.87341
396.0 0.002525 393.70572 436.13126
416.0 0.002404 393.76410 443.17023
435.0 0.002299 393.82230 442.69037
413.0 0.002421 393.88019 434.67984
414.0 0.002415 393.93784 432.57028
430.0 0.002326 393.99521 442.69669
400.0 0.002500 394.05246 462.23160
430.0 0.002326 394.10944 497.34351
479.0 0.002088 394.16617 545.69226
518.0 0.001931 394.22263 591.49573
557.0 0.001795 394.27884 607.72113
615.0 0.001626 394.33493 626.88654
643.0 0.001555 394.39063 655.18872
623.0 0.001605 394.44617 626.13989
560.0 0.001786 394.50146 576.86206
544.0 0.001838 394.55649 582.85925
604.0 0.001656 394.61130 639.81714
703.0 0.001422 394.66583 728.64478
838.0 0.001193 394.72021 838.00616
925.0 0.001081 394.77429 922.10809
827.0 0.001209 394.82806 840.51007
680.0 0.001471 394.88168 682.36017
648.0 0.001543 394.93503 611.39130
684.0 0.001462 394.98807 637.50348
761.0 0.001314 395.04095 751.59314
935.0 0.001070 395.09354 958.69458
1185.0 0.000844 395.14587 1276.83167
1572.0 0.000636 395.19800 1599.10730
1611.0 0.000621 395.24985 1700.63647
1275.0 0.000784 395.30139 1341.65125
922.0 0.001085 395.35272 927.52258
718.0 0.001393 395.40381 750.18713
688.0 0.001453 395.45468 751.41211
833.0 0.001200 395.50528 875.47089
1022.0 0.000978 395.55554 1106.09460
1327.0 0.000754 395.60562 1387.52209
1539.0 0.000650 395.65552 1547.34851
1505.0 0.000664 395.70508 1547.99646
1313.0 0.000762 395.75436 1386.83936
995.0 0.001005 395.80344 1082.42847
903.0 0.001107 395.85217 951.41626
1026.0 0.000975 395.90079 1024.09058
1219.0 0.000820 395.94901 1169.95984
1230.0 0.000813 395.99704 1190.62878
1135.0 0.000881 396.04480 1087.15247
1034.0 0.000967 396.09232 997.78552
856.0 0.001168 396.13953 836.65796
721.0 0.001387 396.18649 706.68103
668.0 0.001497 396.23328 686.55969
762.0 0.001312 396.27969 725.17377
763.0 0.001311 396.32584 733.58112
653.0 0.001531 396.37189 639.25305
481.0 0.002079 396.41751 543.36047
446.0 0.002242 396.46295 499.46658
475.0 0.002105 396.50806 488.20135
493.0 0.002028 396.55295 498.35944
526.0 0.001901 396.59756 531.50745
555.0 0.001802 396.64188 593.96710
682.0 0.001466 396.68597 698.95575
809.0 0.001236 396.72977 831.15924
909.0 0.001100 396.77335 905.56671
873.0 0.001145 396.81665 829.00879
830.0 0.001205 396.85962 769.99390
918.0 0.001089 396.90234 833.65033
1090.0 0.000917 396.94485 953.54211
1105.0 0.000905 396.98700 973.27570
960.0 0.001042 397.02899 855.90582
837.0 0.001195 397.07065 776.89154
740.0 0.001351 397.11206 709.97968
687.0 0.001456 397.15317 637.22528
665.0 0.001504 397.19397 621.35126
709.0 0.001410 397.23453 663.36047
755.0 0.001325 397.27493 686.42059
699.0 0.001431 397.31491 625.80652
596.0 0.001678 397.35468 547.33447
516.0 0.001938 397.39417 518.62482
523.0 0.001912 397.43335 540.20538
552.0 0.001812 397.47226 597.16577
649.0 0.001541 397.51099 696.33734
792.0 0.001263 397.54935 827.61041
850.0 0.001176 397.58743 885.01410
790.0 0.001266 397.62524 804.58276
715.0 0.001399 397.66284 751.63043
757.0 0.001321 397.70007 818.19098
977.0 0.001024 397.73709 1013.07562
1123.0 0.000890 397.77377 1189.31775
1083.0 0.000923 397.81021 1163.35742
859.0 0.001164 397.84637 957.36041
705.0 0.001418 397.88229 782.75922
608.0 0.001645 397.91791 661.72656
542.0 0.001845 397.95316 625.85675
602.0 0.001661 397.98822 664.30548
709.0 0.001410 398.02295 747.46442
728.0 0.001374 398.05750 774.86005
610.0 0.001639 398.09167 673.42542
513.0 0.001949 398.12558 554.88904
480.0 0.002083 398.15921 495.14014
467.0 0.002141 398.19263 478.13269
468.0 0.002137 398.22562 482.47348
468.0 0.002137 398.25845 503.68497
540.0 0.001852 398.29095 542.21216
573.0 0.001745 398.32309 599.29773
617.0 0.001621 398.35504 631.68286
602.0 0.001661 398.38669 602.57001
589.0 0.001698 398.41803 575.08380
581.0 0.001721 398.44916 614.26874
700.0 0.001429 398.47992 722.40216
873.0 0.001145 398.51041 910.27350
1179.0 0.000848 398.54065 1140.75061
1230.0 0.000813 398.57053 1205.24731
1025.0 0.000976 398.60022 972.81671
678.0 0.001475 398.62955 719.90045
586.0 0.001706 398.65863 604.53925
552.0 0.001812 398.68741 593.05365
574.0 0.001742 398.71588 638.89783
721.0 0.001387 398.74405 736.70996
834.0 0.001199 398.77200 833.90302
850.0 0.001176 398.79962 838.52588
760.0 0.001316 398.82693 783.73584
784.0 0.001276 398.85397 814.05096
930.0 0.001075 398.88068 970.75500
1115.0 0.000897 398.90720 1117.77930
1054.0 0.000949 398.93338 1044.86584
780.0 0.001282 398.95923 783.43475
546.0 0.001832 398.98486 613.08807
532.0 0.001880 399.01016 560.15808
535.0 0.001869 399.03516 574.34711
547.0 0.001828 399.05988 630.48395
645.0 0.001550 399.08426 724.77393
696.0 0.001437 399.10846 773.17639
646.0 0.001548 399.13223 690.44666
570.0 0.001754 399.15576 562.08020
485.0 0.002062 399.17899 489.22653
477.0 0.002096 399.20203 459.34125
470.0 0.002128 399.22461 447.03964
459.0 0.002179 399.24698 444.99915
448.0 0.002232 399.26904 442.35464
421.0 0.002375 399.29086 441.71805
424.0 0.002358 399.31238 442.68906
435.0 0.002299 399.33353 443.79468
433.0 0.002309 399.35440 447.90433
465.0 0.002151 399.37503 455.58685
455.0 0.002198 399.39532 465.03561
456.0 0.002193 399.41537 480.98999
517.0 0.001934 399.43500 503.14502
562.0 0.001779 399.45450 542.78461
644.0 0.001553 399.47360 622.38403
846.0 0.001182 399.49237 785.34436
1055.0 0.000948 399.51093 1054.39795
1409.0 0.000710 399.52914 1474.99927
1814.0 0.000551 399.54703 1959.44177
1953.0 0.000512 399.56473 2040.26477
1559.0 0.000641 399.58209 1497.79321
1023.0 0.000978 399.59912 995.07385
779.0 0.001284 399.61584 787.63757
745.0 0.001342 399.63229 780.97546
815.0 0.001227 399.64838 886.06140
957.0 0.001045 399.66422 1096.16748
1224.0 0.000817 399.67981 1302.30444
1174.0 0.000852 399.69507 1263.75500
1041.0 0.000961 399.70999 968.93781
769.0 0.001300 399.72461 758.75970
728.0 0.001374 399.73904 692.54456
816.0 0.001225 399.75305 728.10150
918.0 0.001089 399.76685 869.43048
1162.0 0.000861 399.78027 1163.37585
1619.0 0.000618 399.79346 1624.55664
2283.0 0.000438 399.80627 2311.31714
2933.0 0.0003409 399.81879 2761.42822
2536.0 0.000394 399.83105 2391.01831
1645.0 0.000608 399.84302 1653.13196
1245.0 0.000803 399.85471 1319.76855
1422.0 0.000703 399.86603 1395.50867
1715.0 0.000583 399.87708 1672.90576
1817.0 0.000550 399.88785 1883.29810
1938.0 0.000516 399.89825 1998.49194
2088.0 0.000479 399.90845 2052.20581
1831.0 0.000546 399.91824 1861.23120
1639.0 0.000610 399.92776 1732.34375
1768.0 0.000566 399.93707 1829.04626
1763.0 0.000567 399.94598 1805.84167
1483.0 0.000674 399.95462 1487.63647
1120.0 0.000893 399.96301 1159.07458
923.0 0.001083 399.97104 918.94983
868.0 0.001152 399.97879 843.99695
944.0 0.001059 399.98618 911.58875
1109.0 0.000902 399.99341 1112.91736
1374.0 0.000728 400.00018 1371.92188
1609.0 0.000622 400.00671 1557.82056
1683.0 0.000594 400.01297 1608.34119
1561.0 0.000641 400.01886 1465.20398
1211.0 0.000826 400.02451 1123.03577
967.0 0.001034 400.02985 917.96503
1000.0 0.001000 400.03479 939.51648
1209.0 0.000827 400.03955 1171.94080
1652.0 0.000605 400.04391 1596.54041
2261.0 0.000442 400.04807 2231.62549
2720.0 0.000368 400.05191 2626.97314
2294.0 0.000436 400.05539 2213.32056
1501.0 0.000666 400.05859 1436.27307
1040.0 0.000962 400.06152 997.04718
877.0 0.001140 400.06406 879.46100
894.0 0.001119 400.06638 952.40924
1049.0 0.000953 400.06842 1127.98523
1312.0 0.000762 400.07007 1351.88318
1425.0 0.000702 400.07153 1418.30750
1177.0 0.000850 400.07257 1149.42017
854.0 0.001171 400.07336 814.09869
649.0 0.001541 400.07385 635.16290
536.0 0.001866 400.07404 567.79523
503.0 0.001988 400.07391 548.11938
515.0 0.001942 400.07352 541.34937
490.0 0.002041 400.07278 521.46338
451.0 0.002217 400.07172 492.92038
474.0 0.002110 400.07037 467.67657
429.0 0.002331 400.06879 455.84259
397.0 0.002519 400.06680 448.22217
418.0 0.002392 400.06461 444.15207
474.0 0.002110 400.06198 440.94049
453.0 0.002208 400.05920 440.00311
449.0 0.002227 400.05603 438.62091
404.0 0.002475 400.05261 439.93912
432.0 0.002315 400.04883 442.34045
459.0 0.002179 400.04474 447.71704
420.0 0.002381 400.04041 453.51862
438.0 0.002283 400.03577 462.11258
494.0 0.002024 400.03079 475.98083
522.0 0.001916 400.02551 498.11108
563.0 0.001776 400.01999 536.27838
660.0 0.001515 400.01410 622.56567
867.0 0.001153 400.00793 787.08795
1122.0 0.000891 400.00146 1043.26538
1524.0 0.000656 399.99475 1398.42310
1820.0 0.000549 399.98764 1615.38916
1542.0 0.000649 399.98026 1396.90552
1043.0 0.000959 399.97260 976.91333
771.0 0.001297 399.96460 735.03186
701.0 0.001427 399.95630 668.69672
712.0 0.001404 399.94769 709.27588
819.0 0.001221 399.93884 821.61261
1006.0 0.000994 399.92966 998.35645
1216.0 0.000822 399.92014 1124.32446
1193.0 0.000838 399.91037 1059.23364
1017.0 0.000983 399.90024 937.76172
1002.0 0.000998 399.88989 998.51904
1267.0 0.000789 399.87915 1265.84363
1713.0 0.000584 399.86826 1729.59473
2133.0 0.000469 399.85687 2134.04907
1994.0 0.000502 399.84534 1975.87720
1419.0 0.000705 399.83344 1370.10791
1011.0 0.000989 399.82120 971.83691
861.0 0.001161 399.80875 855.11200
964.0 0.001037 399.79590 914.48126
1098.0 0.000911 399.78284 1057.14600
1218.0 0.000821 399.76941 1250.79224
1389.0 0.000720 399.75577 1438.38354
1438.0 0.000695 399.74179 1406.31018
1252.0 0.000799 399.72751 1186.65771
1120.0 0.000893 399.71295 1108.29858
1180.0 0.000847 399.69791 1133.86914
1163.0 0.000860 399.68277 1123.43933
1167.0 0.000857 399.66736 1143.84753
1270.0 0.000787 399.65152 1166.78198
1097.0 0.000912 399.63544 1033.01355
813.0 0.001230 399.61902 823.71729
699.0 0.001431 399.60242 722.36304
731.0 0.001368 399.58542 729.80273
789.0 0.001267 399.56815 768.88910
818.0 0.001222 399.55048 777.69238
829.0 0.001206 399.53268 809.17377
891.0 0.001122 399.51456 887.63477
935.0 0.001070 399.49600 928.80103
922.0 0.001085 399.47729 933.62360
907.0 0.001103 399.45825 896.91492
766.0 0.001305 399.43887 751.78369
562.0 0.001779 399.41919 608.78619
515.0 0.001942 399.39920 538.35626
518.0 0.001931 399.37897 516.85706
506.0 0.001976 399.35843 531.82477
492.0 0.002033 399.33759 571.47650
613.0 0.001631 399.31647 632.54517
649.0 0.001541 399.29504 671.75824
666.0 0.001502 399.27328 649.36023
646.0 0.001548 399.25128 633.78241
703.0 0.001422 399.22897 705.22797
872.0 0.001147 399.20642 877.68390
1103.0 0.000907 399.18347 1148.69238
1386.0 0.000722 399.16028 1383.15320
1257.0 0.000796 399.13678 1288.38586
951.0 0.001052 399.11298 932.83344
644.0 0.001553 399.08896 688.58545
566.0 0.001767 399.06454 596.03967
546.0 0.001832 399.03989 597.54791
613.0 0.001631 399.01492 664.21448
712.0 0.001404 398.98969 784.40002
840.0 0.001190 398.96411 907.14941
876.0 0.001142 398.93826 886.71497
708.0 0.001412 398.91217 707.08380
557.0 0.001795 398.88574 560.40179
496.0 0.002016 398.85907 489.51392
474.0 0.002110 398.83206 460.43103
441.0 0.002268 398.80481 447.07507
419.0 0.002387 398.77722 440.49927
400.0 0.002500 398.74924 434.26639
398.0 0.002513 398.72116 428.28107
408.0 0.002451 398.69272 428.22601
413.0 0.002421 398.66397 426.05768
405.0 0.002469 398.63495 425.35269
385.0 0.002597 398.60556 425.71555
396.0 0.002525 398.57596 427.11722
412.0 0.002427 398.54614 429.85257
426.0 0.002347 398.51587 434.76752
419.0 0.002387 398.48544 443.56363
440.0 0.002273 398.45462 463.56601
511.0 0.001957 398.42365 496.51181
559.0 0.001789 398.39227 552.48474
625.0 0.001600 398.36069 628.26520
686.0 0.001458 398.32877 700.42084
736.0 0.001359 398.29657 743.42450
732.0 0.001366 398.26407 744.12183
694.0 0.001441 398.23132 713.22656
635.0 0.001575 398.19824 664.23010
582.0 0.001718 398.16489 592.19342
554.0 0.001805 398.13126 555.59174
578.0 0.001730 398.09738 563.47943
572.0 0.001748 398.06323 590.80243
586.0 0.001706 398.02875 614.79620
605.0 0.001653 397.99399 624.26691
633.0 0.001580 397.95898 617.29993
617.0 0.001621 397.92361 605.95313
639.0 0.001565 397.88803 584.03082
640.0 0.001563 397.85211 578.89618
696.0 0.001437 397.81592 616.41125
759.0 0.001318 397.77951 722.30310
971.0 0.001030 397.74283 955.00623
1412.0 0.000708 397.70578 1378.03564
1923.0 0.000520 397.66849 2013.40894
2764.0 0.000362 397.63092 2646.37476
2682.0 0.000373 397.59302 2583.31714
1758.0 0.000569 397.55487 1778.22070
1061.0 0.000943 397.51648 1133.74670
787.0 0.001271 397.47772 855.05640
774.0 0.001292 397.43878 812.86566
856.0 0.001168 397.39960 927.15857
1110.0 0.000901 397.36002 1169.65869
1403.0 0.000713 397.32022 1498.97205
1560.0 0.000641 397.28015 1604.63086
1323.0 0.000756 397.23981 1269.64795
908.0 0.001101 397.19913 875.16046
636.0 0.001572 397.15823 660.79095
544.0 0.001838 397.11703 572.92352
531.0 0.001883 397.07562 542.37598
502.0 0.001992 397.03387 544.07739
541.0 0.001848 396.99182 575.69403
605.0 0.001653 396.94958 639.40271
664.0 0.001506 396.90704 713.99323
666.0 0.001502 396.86414 730.72327
624.0 0.001603 396.82108 672.13257
638.0 0.001567 396.77765 641.94983
655.0 0.001527 396.73401 673.61548
705.0 0.001418 396.69012 713.51581
736.0 0.001359 396.64590 686.17218
644.0 0.001553 396.60144 628.59924
570.0 0.001754 396.55667 614.15869
559.0 0.001789 396.51169 616.94629
567.0 0.001764 396.46640 591.74115
569.0 0.001757 396.42087 565.25818
571.0 0.001751 396.37509 571.57233
604.0 0.001656 396.32901 594.12732
611.0 0.001637 396.28259 601.15784
598.0 0.001672 396.23605 576.69708
598.0 0.001672 396.18915 566.68292
646.0 0.001548 396.14200 591.63721
696.0 0.001437 396.09451 665.50909
867.0 0.001153 396.04681 829.63452
1225.0 0.000816 395.99890 1166.41895
1829.0 0.000547 395.95062 1728.60254
2612.0 0.000383 395.90219 2500.63647
3112.0 0.0003213 395.85339 2978.00732
2537.0 0.000394 395.80447 2483.50928
1556.0 0.000643 395.75519 1581.59119
979.0 0.001021 395.70560 1040.98242
810.0 0.001235 395.65579 846.17468
836.0 0.001196 395.60571 860.18060
1007.0 0.000993 395.55539 1031.59558
1390.0 0.000719 395.50479 1339.73218
1729.0 0.000578 395.45398 1672.64917
1762.0 0.000568 395.40286 1651.51270
1259.0 0.000794 395.35150 1206.44104
824.0 0.001214 395.29984 820.77618
590.0 0.001695 395.24792 626.32135
490.0 0.002041 395.19580 542.12384
459.0 0.002179 395.14340 502.12524
452.0 0.002212 395.09070 478.80042
436.0 0.002294 395.03787 463.61420
433.0 0.002309 394.98462 453.04398
453.0 0.002208 394.93118 446.04016
455.0 0.002198 394.87747 441.51077
460.0 0.002174 394.82352 439.13254
434.0 0.002304 394.76926 438.90744
452.0 0.002212 394.71494 442.22626
437.0 0.002288 394.66016 455.74915
494.0 0.002024 394.60516 479.90479
546.0 0.001832 394.54990 528.94806
613.0 0.001631 394.49445 606.98633
725.0 0.001379 394.43881 699.54205
759.0 0.001318 394.38275 725.44507
647.0 0.001546 394.32651 632.00140
550.0 0.001818 394.27005 527.01855
495.0 0.002020 394.21326 478.88568
433.0 0.002309 394.15631 464.83508
448.0 0.002232 394.09906 472.98529
476.0 0.002101 394.04163 499.82977
531.0 0.001883 393.98386 542.67480
620.0 0.001613 393.92587 580.66583
607.0 0.001647 393.86765 564.60327
529.0 0.001890 393.80920 509.56775
470.0 0.002128 393.75049 473.43454
467.0 0.002141 393.69150 461.40051
508.0 0.001969 393.63229 465.58014
511.0 0.001957 393.57288 482.39383
527.0 0.001898 393.51315 510.15253
567.0 0.001764 393.45319 540.45697
553.0 0.001808 393.39294 546.91681
509.0 0.001965 393.33258 528.22113
511.0 0.001957 393.27188 519.23267
558.0 0.001792 393.21100 529.78174
594.0 0.001684 393.14975 560.95093
657.0 0.001522 393.08838 622.15204
802.0 0.001247 393.02673 743.03192
1009.0 0.000991 392.96487 981.28119
1381.0 0.000724 392.90277 1386.09607
1974.0 0.000507 392.84036 1947.31628
2401.0 0.000416 392.77771 2428.56372
2314.0 0.000432 392.71500 2363.88330
2077.0 0.000481 392.65182 2018.04407
2012.0 0.000497 392.58853 1998.56543
2154.0 0.000464 392.52502 2145.75830
1945.0 0.000514 392.46118 1953.62122
1560.0 0.000641 392.39716 1564.30225
1317.0 0.000759 392.33289 1427.49744
1417.0 0.000706 392.26843 1518.04138
1575.0 0.000635 392.20374 1616.82263
1383.0 0.000723 392.13876 1441.70007
1287.0 0.000777 392.07358 1320.98523
1333.0 0.000750 392.00815 1391.80786
1510.0 0.000662 391.94247 1532.58154
1517.0 0.000659 391.87662 1514.41846
1476.0 0.000678 391.81042 1525.30334
1593.0 0.000628 391.74420 1605.85107
1327.0 0.000754 391.67758 1376.31348
924.0 0.001082 391.61078 994.17633
772.0 0.001295 391.54370 767.45038
694.0 0.001441 391.47644 699.16028
729.0 0.001372 391.40897 745.84186
859.0 0.001164 391.34128 882.91193
1104.0 0.000906 391.27332 1075.60425
1252.0 0.000799 391.20520 1216.56750
1138.0 0.000879 391.13678 1162.04407
937.0 0.001067 391.06818 910.26294
738.0 0.001355 390.99936 688.49261
586.0 0.001706 390.93027 578.15704
535.0 0.001869 390.86096 543.78278
491.0 0.002037 390.79144 553.00140
533.0 0.001876 390.72180 578.67566
599.0 0.001669 390.65186 611.60651
604.0 0.001656 390.58163 595.35284
542.0 0.001845 390.51120 532.31848
501.0 0.001996 390.44061 485.57825
484.0 0.002066 390.36978 469.21976
482.0 0.002075 390.29877 471.99976
508.0 0.001969 390.22748 496.68509
550.0 0.001818 390.15598 552.28558
610.0 0.001639 390.08432 660.48785
737.0 0.001357 390.01236 797.69037
855.0 0.001170 389.94025 921.60516
891.0 0.001122 389.86792 871.22095
729.0 0.001372 389.79538 683.64111
539.0 0.001855 389.72253 556.31445
492.0 0.002033 389.64957 501.13358
474.0 0.002110 389.57635 494.68903
467.0 0.002141 389.50299 520.24335
543.0 0.001842 389.42935 577.33105
621.0 0.001610 389.35550 651.39539
668.0 0.001497 389.28149 719.19666
711.0 0.001406 389.20718 705.60083
718.0 0.001393 389.13278 672.68420
717.0 0.001395 389.05811 679.52655
754.0 0.001326 388.98318 684.48645
702.0 0.001425 388.90814 608.92389
570.0 0.001754 388.83289 526.81335
468.0 0.002137 388.75742 483.80109
468.0 0.002137 388.68167 470.47223
455.0 0.002198 388.60577 475.63330
483.0 0.002070 388.52966 497.33676
539.0 0.001855 388.45340 531.73474
597.0 0.001675 388.37680 571.33868
625.0 0.001600 388.30011 591.63477
639.0 0.001565 388.22314 575.29419
610.0 0.001639 388.14606 577.45294
688.0 0.001453 388.06879 634.79675
862.0 0.001160 387.99121 781.23804
1078.0 0.000928 387.91354 1050.75623
1543.0 0.000648 387.83560 1421.57544
1962.0 0.000510 387.75748 1835.97803
2060.0 0.000485 387.67914 1952.48425
1928.0 0.000519 387.60062 1901.39673
1604.0 0.000623 387.52194 1627.65186
1129.0 0.000886 387.44302 1165.07813
853.0 0.001172 387.36392 883.42981
794.0 0.001259 387.28470 810.64221
828.0 0.001208 387.20517 878.16077
1115.0 0.000897 387.12552 1029.76843
1245.0 0.000803 387.04553 1206.25098
1228.0 0.000814 386.96555 1237.68811
1266.0 0.000790 386.88538 1221.45288
1078.0 0.000928 386.80496 1098.82751
911.0 0.001098 386.72427 916.73151
839.0 0.001192 386.64340 811.40253
747.0 0.001339 386.56238 707.02081
610.0 0.001639 386.48123 597.48492
527.0 0.001898 386.39984 537.69128
538.0 0.001859 386.31830 520.54626
515.0 0.001942 386.23648 525.76294
512.0 0.001953 386.15457 535.26862
543.0 0.001842 386.07248 533.68756
559.0 0.001789 385.99017 538.08093
556.0 0.001799 385.90765 544.85840
542.0 0.001845 385.82498 518.63745
505.0 0.001980 385.74213 479.71747
456.0 0.002193 385.65909 459.95453
449.0 0.002227 385.57584 457.01181
419.0 0.002387 385.49246 461.59579
424.0 0.002358 385.40884 463.40292
435.0 0.002299 385.32510 453.52866
423.0 0.002364 385.24121 449.43732
444.0 0.002252 385.15704 454.31149
506.0 0.001976 385.07275 469.04575
536.0 0.001866 384.98828 508.95435
608.0 0.001645 384.90366 592.64288
762.0 0.001312 384.81888 730.25244
930.0 0.001075 384.73383 885.20190
1030.0 0.000971 384.64862 983.24384
922.0 0.001085 384.56326 860.83630
696.0 0.001437 384.47784 685.44159
593.0 0.001686 384.39212 596.67950
616.0 0.001623 384.30630 590.49316
691.0 0.001447 384.22021 664.46039
851.0 0.001175 384.13400 849.32190
1143.0 0.000875 384.04773 1161.80774
1506.0 0.000664 383.96121 1508.39917
1697.0 0.000589 383.87445 1700.04553
1397.0 0.000716 383.78760 1375.74500
973.0 0.001028 383.70053 953.44330
699.0 0.001431 383.61337 724.23633
628.0 0.001592 383.52603 659.00995
714.0 0.001401 383.43845 695.04132
785.0 0.001274 383.35074 798.57416
903.0 0.001107 383.26288 937.41833
979.0 0.001021 383.17487 1022.19550
980.0 0.001020 383.08673 1042.20776
876.0 0.001142 382.99841 893.93433
717.0 0.001395 382.90979 721.66602
653.0 0.001531 382.82114 608.03894
560.0 0.001786 382.73233 552.46082
545.0 0.001835 382.64337 543.25061
562.0 0.001779 382.55423 558.92432
586.0 0.001706 382.46490 574.98840
577.0 0.001733 382.37552 568.62402
622.0 0.001608 382.28589 579.55975
646.0 0.001548 382.19611 639.82568
820.0 0.001220 382.10611 742.07025
995.0 0.001005 382.01611 862.12537
1034.0 0.000967 381.92587 941.61700
971.0 0.001030 381.83548 985.48505
975.0 0.001026 381.74500 1022.21606
882.0 0.001134 381.65430 899.30719
678.0 0.001475 381.56351 717.64240
590.0 0.001695 381.47247 622.35809
603.0 0.001658 381.38132 615.74237
651.0 0.001536 381.29013 674.74799
820.0 0.001220 381.19870 797.40851
925.0 0.001081 381.10703 976.86981
1106.0 0.000904 381.01529 1199.09595
1332.0 0.000751 380.92346 1410.52991
1370.0 0.000730 380.83154 1359.24622
1035.0 0.000966 380.73932 1010.01709
719.0 0.001391 380.64703 732.28503
555.0 0.001802 380.55457 597.84265
525.0 0.001905 380.46207 552.73962
542.0 0.001845 380.36932 559.49969
570.0 0.001754 380.27637 612.62561
651.0 0.001536 380.18344 709.44800
792.0 0.001263 380.09024 816.48755
869.0 0.001151 379.99698 862.30383
830.0 0.001205 379.90356 803.99524
833.0 0.001200 379.81003 816.43823
928.0 0.001078 379.71634 964.37311
1131.0 0.000884 379.62247 1167.41479
1262.0 0.000792 379.52850 1270.77307
1109.0 0.000902 379.43442 1060.59351
859.0 0.001164 379.34024 809.41772
682.0 0.001466 379.24585 687.87097
614.0 0.001629 379.15128 660.34698
630.0 0.001587 379.05667 651.39349
636.0 0.001572 378.96194 643.25397
664.0 0.001506 378.86700 690.48230
760.0 0.001316 378.77200 778.41455
820.0 0.001220 378.67682 840.40131
782.0 0.001279 378.58160 753.17401
676.0 0.001479 378.48611 616.49902
537.0 0.001862 378.39063 541.59735
522.0 0.001916 378.29495 515.55841
509.0 0.001965 378.19910 500.03867
475.0 0.002105 378.10327 467.30182
459.0 0.002179 378.00720 441.58246
406.0 0.002463 377.91104 430.34274
425.0 0.002353 377.81470 432.07153
475.0 0.002105 377.71832 446.74680
429.0 0.002331 377.62180 475.63651
512.0 0.001953 377.52512 510.98499
513.0 0.001949 377.42841 533.46820
555.0 0.001802 377.33148 522.18951
495.0 0.002020 377.23447 475.10287
411.0 0.002433 377.13733 436.98709
386.0 0.002591 377.04016 419.19586
441.0 0.002268 376.94269 414.62085
420.0 0.002381 376.84531 418.90936
412.0 0.002427 376.74765 430.89713
467.0 0.002141 376.64993 446.95020
478.0 0.002092 376.55212 460.53265
438.0 0.002283 376.45425 461.19202
422.0 0.002370 376.35614 441.11606
402.0 0.002488 376.25800 421.68784
412.0 0.002427 376.15973 412.25812
399.0 0.002506 376.06143 410.40640
420.0 0.002381 375.96289 412.86389
400.0 0.002500 375.86423 419.08954
435.0 0.002299 375.76553 428.39938
467.0 0.002141 375.66678 447.35379
495.0 0.002020 375.56787 486.44595
561.0 0.001783 375.46878 566.48645
699.0 0.001431 375.36972 711.34454
875.0 0.001143 375.27042 896.58099
1000.0 0.001000 375.17108 1049.06030
938.0 0.001066 375.07172 996.03864
810.0 0.001235 374.97214 819.92456
626.0 0.001597 374.87247 677.87854
570.0 0.001754 374.77264 582.20148
581.0 0.001721 374.67282 546.34912
598.0 0.001672 374.57291 558.86591
649.0 0.001541 374.47287 606.11493
660.0 0.001515 374.37268 680.75403
745.0 0.001342 374.27246 761.41803
760.0 0.001316 374.17209 772.94177
669.0 0.001495 374.07175 681.89246
589.0 0.001698 373.97113 594.48450
527.0 0.001898 373.87048 536.45258
529.0 0.001890 373.76981 520.87341
567.0 0.001764 373.66895 552.21429
625.0 0.001600 373.56808 630.34082
717.0 0.001395 373.46704 729.58240
788.0 0.001269 373.36594 803.37354
706.0 0.001416 373.26477 744.69836
574.0 0.001742 373.16342 610.24036
509.0 0.001965 373.06216 515.44318
469.0 0.002132 372.96069 471.19382
441.0 0.002268 372.85913 459.05637
448.0 0.002232 372.75751 467.61862
495.0 0.002020 372.65579 498.80997
552.0 0.001812 372.55399 549.90417
578.0 0.001730 372.45212 600.77875
565.0 0.001770 372.35007 606.78107
542.0 0.001845 372.24805 554.73303
508.0 0.001969 372.14587 516.81689
488.0 0.002049 372.04373 523.82446
569.0 0.001757 371.94141 574.64069
662.0 0.001511 371.83899 660.48260
753.0 0.001328 371.73654 764.65802
880.0 0.001136 371.63400 842.63147
992.0 0.001008 371.53140 915.43896
926.0 0.001080 371.42865 950.92029
949.0 0.001054 371.32587 967.01721
1055.0 0.000948 371.22305 1009.84888
966.0 0.001035 371.12015 961.97119
803.0 0.001245 371.01712 806.34247
723.0 0.001383 370.91400 711.75403
749.0 0.001335 370.81088 706.85431
739.0 0.001353 370.70767 747.55298
840.0 0.001190 370.60434 804.32611
948.0 0.001055 370.50098 874.05066
1113.0 0.000898 370.39752 965.60632
1274.0 0.000785 370.29404 1157.86682
1549.0 0.000646 370.19043 1402.48047
1783.0 0.000561 370.08676 1539.75610
1596.0 0.000627 369.98309 1443.16870
1333.0 0.000750 369.87927 1280.05945
1182.0 0.000846 369.77542 1119.58301
953.0 0.001049 369.67151 890.73199
741.0 0.001350 369.56750 725.87860
670.0 0.001493 369.46344 658.82947
707.0 0.001414 369.35931 681.00745
781.0 0.001280 369.25519 771.55212
907.0 0.001103 369.15088 887.52393
1011.0 0.000989 369.04657 945.90497
990.0 0.001010 368.94223 916.45099
950.0 0.001053 368.83780 907.16241
935.0 0.001070 368.73334 900.05023
885.0 0.001130 368.62872 918.13690
844.0 0.001185 368.52411 949.88251
786.0 0.001272 368.41953 889.50159
674.0 0.001484 368.31479 738.12238
603.0 0.001658 368.21002 636.86475
605.0 0.001653 368.10516 626.08856
676.0 0.001479 368.00031 696.59796
764.0 0.001309 367.89542 814.70007
876.0 0.001142 367.79031 916.86212
853.0 0.001172 367.68530 899.96704
767.0 0.001304 367.58017 830.12018
691.0 0.001447 367.47498 773.53168
632.0 0.001582 367.36981 693.64124
576.0 0.001736 367.26456 630.55682
593.0 0.001686 367.15927 631.77399
717.0 0.001395 367.05383 716.01257
839.0 0.001192 366.94852 902.14331
1152.0 0.000868 366.84308 1170.23059
1376.0 0.000727 366.73752 1451.86987
1520.0 0.000658 366.63199 1612.76355
1614.0 0.000620 366.52637 1690.87830
1656.0 0.000604 366.42078 1669.49585
1383.0 0.000723 366.31516 1360.28992
968.0 0.001033 366.20935 985.02264
738.0 0.001355 366.10364 758.22009
676.0 0.001479 365.99777 683.77808
692.0 0.001445 365.89194 713.91510
752.0 0.001330 365.78607 806.46545
841.0 0.001189 365.68011 922.93518
949.0 0.001054 365.57410 999.09674
1080.0 0.000926 365.46811 1046.79871
1026.0 0.000975 365.36209 984.48669
822.0 0.001217 365.25604 798.12976
676.0 0.001479 365.14987 634.17334
537.0 0.001862 365.04370 549.91864
501.0 0.001996 364.93753 531.12866
512.0 0.001953 364.83130 565.20624
628.0 0.001592 364.72507 646.51691
705.0 0.001418 364.61871 739.49884
777.0 0.001287 364.51239 770.23090
635.0 0.001575 364.40601 669.83392
537.0 0.001862 364.29965 554.70667
485.0 0.002062 364.19330 489.47058
473.0 0.002114 364.08682 464.04620
444.0 0.002252 363.98035 463.63321
469.0 0.002132 363.87381 485.27887
547.0 0.001828 363.76727 540.12933
627.0 0.001595 363.66068 640.87518
767.0 0.001304 363.55411 782.91541
947.0 0.001056 363.44748 904.71027
998.0 0.001002 363.34085 938.65131
901.0 0.001110 363.23416 827.42102
674.0 0.001484 363.12753 648.05994
517.0 0.001934 363.02078 528.05511
485.0 0.002062 362.91406 471.08408
461.0 0.002169 362.80725 450.79803
451.0 0.002217 362.70053 453.09589
469.0 0.002132 362.59375 478.13721
512.0 0.001953 362.48685 529.64026
596.0 0.001678 362.38000 590.02148
635.0 0.001575 362.27322 617.96674
589.0 0.001698 362.16629 562.86957
499.0 0.002004 362.05948 492.75769
440.0 0.002273 361.95251 454.69690
448.0 0.002232 361.84561 448.88583
491.0 0.002037 361.73871 473.48843
512.0 0.001953 361.63171 535.89777
594.0 0.001684 361.52472 629.48334
677.0 0.001477 361.41766 710.37677
673.0 0.001486 361.31076 691.38660
591.0 0.001692 361.20374 577.58118
489.0 0.002045 361.09674 486.14157
433.0 0.002309 360.98972 439.23019
418.0 0.002392 360.88269 421.64297
409.0 0.002445 360.77563 420.76263
447.0 0.002237 360.66852 435.47229
407.0 0.002457 360.56152 469.87137
468.0 0.002137 360.45447 516.73108
518.0 0.001931 360.34735 548.75470
490.0 0.002041 360.24020 522.22351
449.0 0.002227 360.13315 464.19388
395.0 0.002532 360.02606 424.35486
385.0 0.002597 359.91901 405.06607
379.0 0.002639 359.81186 397.36044
386.0 0.002591 359.70480 394.85693
352.0 0.002841 359.59766 394.99359
403.0 0.002481 359.49060 397.13974
430.0 0.002326 359.38342 401.54355
394.0 0.002538 359.27631 408.51773
416.0 0.002404 359.16919 419.42175
435.0 0.002299 359.06207 438.47379
485.0 0.002062 358.95502 474.50140
553.0 0.001808 358.84790 550.36841
683.0 0.001464 358.74078 696.53613
863.0 0.001159 358.63370 912.27826
1083.0 0.000923 358.52658 1109.63855
1085.0 0.000922 358.41949 1121.66650
889.0 0.001125 358.31241 951.81049
807.0 0.001239 358.20535 835.99554
773.0 0.001294 358.09827 795.16931
697.0 0.001435 357.99121 724.09814
610.0 0.001639 357.88412 623.84479
546.0 0.001832 357.77716 579.82471
583.0 0.001715 357.67004 612.55127
617.0 0.001621 357.56308 699.03131
692.0 0.001445 357.45599 775.88519
713.0 0.001403 357.34900 753.55682
645.0 0.001550 357.24207 661.14655
587.0 0.001704 357.13507 605.48975
563.0 0.001776 357.02808 581.63605
557.0 0.001795 356.92114 534.83441
495.0 0.002020 356.81418 475.65253
431.0 0.002320 356.70728 436.52750
403.0 0.002481 356.60037 417.11688
392.0 0.002551 356.49344 409.38623
408.0 0.002451 356.38654 408.40552
399.0 0.002506 356.27975 414.69193
423.0 0.002364 356.17294 432.03165
453.0 0.002208 356.06610 470.18320
523.0 0.001912 355.95923 534.63220
600.0 0.001667 355.85245 602.56549
619.0 0.001616 355.74570 621.26172
575.0 0.001739 355.63901 554.59314
483.0 0.002070 355.53226 481.60989
422.0 0.002370 355.42554 441.13269
433.0 0.002309 355.31885 428.63416
436.0 0.002294 355.21228 430.23062
424.0 0.002358 355.10562 442.77356
438.0 0.002283 354.99902 465.70834
480.0 0.002083 354.89249 500.79642
539.0 0.001855 354.78586 540.82220
597.0 0.001675 354.67944 562.47333
599.0 0.001669 354.57291 560.45068
617.0 0.001621 354.46637 595.43719
718.0 0.001393 354.35999 717.51349
890.0 0.001124 354.25354 934.50659
1093.0 0.000915 354.14716 1153.66040
1075.0 0.000930 354.04083 1186.93860
872.0 0.001147 353.93451 950.81714
708.0 0.001412 353.82822 717.30835
582.0 0.001718 353.72192 593.54944
559.0 0.001789 353.61575 551.02228
555.0 0.001802 353.50961 550.94061
590.0 0.001695 353.40344 581.93573
661.0 0.001513 353.29736 667.33582
768.0 0.001302 353.19122 831.60522
971.0 0.001030 353.08517 1064.52124
1249.0 0.000801 352.97916 1301.64783
1362.0 0.000734 352.87320 1451.11780
1398.0 0.000715 352.76715 1478.09998
1214.0 0.000824 352.66132 1228.89160
852.0 0.001174 352.55545 928.61621
784.0 0.001276 352.44962 754.74359
648.0 0.001543 352.34381 670.84552
613.0 0.001631 352.23804 613.13080
563.0 0.001776 352.13232 587.93365
619.0 0.001616 352.02676 621.12024
715.0 0.001399 351.92114 724.11731
831.0 0.001203 351.81552 866.16205
910.0 0.001099 351.70999 958.83038
830.0 0.001205 351.60449 889.27765
716.0 0.001397 351.49905 756.08667
641.0 0.001560 351.39371 667.45496
639.0 0.001565 351.28833 640.10413
692.0 0.001445 351.18304 661.91254
775.0 0.001290 351.07770 765.37012
959.0 0.001043 350.97250 1004.98236
1277.0 0.000783 350.86740 1367.82629
1562.0 0.000640 350.76227 1687.94580
1566.0 0.000639 350.65717 1658.43909
1307.0 0.000765 350.55212 1323.63879
984.0 0.001016 350.44720 1006.53308
793.0 0.001261 350.34229 777.48889
678.0 0.001475 350.23743 659.23035
641.0 0.001560 350.13260 629.30182
691.0 0.001447 350.02774 676.92737
786.0 0.001272 349.92316 813.50507
957.0 0.001045 349.81842 1022.25012
1102.0 0.000907 349.71381 1198.34509
1099.0 0.000910 349.60928 1171.94250
1001.0 0.000999 349.50476 976.93768
830.0 0.001205 349.40033 811.55444
773.0 0.001294 349.29602 722.88458
769.0 0.001300 349.19165 727.68488
809.0 0.001236 349.08737 819.88898
1011.0 0.000989 348.98318 970.91473
1184.0 0.000845 348.87903 1121.27856
1290.0 0.000775 348.77502 1249.30396
1552.0 0.000644 348.67093 1470.18396
1942.0 0.000515 348.56696 1933.97510
2533.0 0.000395 348.46301 2613.74634
3063.0 0.0003265 348.35919 3073.47583
2726.0 0.000367 348.25534 2670.62012
1855.0 0.000539 348.15170 1836.64648
1300.0 0.000769 348.04794 1281.65076
1015.0 0.000985 347.94434 1055.29407
967.0 0.001034 347.84085 999.50885
1009.0 0.000991 347.73737 986.09070
1019.0 0.000981 347.63397 1018.24451
1133.0 0.000883 347.53055 1181.73840
1376.0 0.000727 347.42731 1489.19739
1761.0 0.000568 347.32416 1738.54504
1674.0 0.000597 347.22095 1592.75024
1196.0 0.000836 347.11789 1155.70276
860.0 0.001163 347.01489 815.56653
652.0 0.001534 346.91193 636.55634
598.0 0.001672 346.80905 557.23932
508.0 0.001969 346.70627 517.02527
470.0 0.002128 346.60358 483.83762
501.0 0.001996 346.50089 454.61508
432.0 0.002315 346.39835 435.84299
436.0 0.002294 346.29578 423.38403
458.0 0.002183 346.19339 414.21756
421.0 0.002375 346.09088 407.85278
430.0 0.002326 345.98856 404.53781
427.0 0.002342 345.88635 402.21909
436.0 0.002294 345.78424 401.62643
419.0 0.002387 345.68216 402.94424
446.0 0.002242 345.58023 406.48972
467.0 0.002141 345.47821 413.18509
479.0 0.002088 345.37640 428.42514
476.0 0.002101 345.27469 460.24585
572.0 0.001748 345.17294 524.25555
694.0 0.001441 345.07132 628.53217
789.0 0.001267 344.96976 739.77551
820.0 0.001220 344.86829 778.10339
762.0 0.001312 344.76688 708.45282
711.0 0.001406 344.66562 650.40155
692.0 0.001445 344.56439 641.91644
707.0 0.001414 344.46329 639.78613
703.0 0.001422 344.36218 614.08331
647.0 0.001546 344.26123 594.20599
625.0 0.001600 344.16034 583.69348
666.0 0.001502 344.05951 617.39270
723.0 0.001383 343.95880 704.33710
809.0 0.001236 343.85815 816.16077
925.0 0.001081 343.75754 899.31696
957.0 0.001045 343.65710 939.34320
937.0 0.001067 343.55664 904.20667
849.0 0.001178 343.45639 790.15576
726.0 0.001377 343.35611 689.92438
688.0 0.001453 343.25604 651.68677
704.0 0.001420 343.15604 685.20380
837.0 0.001195 343.05600 825.84558
1100.0 0.000909 342.95609 1107.09985
1365.0 0.000733 342.85626 1448.89929
1469.0 0.000681 342.75662 1610.72852
1311.0 0.000763 342.65704 1385.60339
971.0 0.001030 342.55743 1046.44971
752.0 0.001330 342.45810 777.50226
595.0 0.001681 342.35873 616.40796
570.0 0.001754 342.25949 543.32123
573.0 0.001745 342.16034 529.13849
578.0 0.001730 342.06128 569.18622
635.0 0.001575 341.96234 675.14764
741.0 0.001350 341.86343 826.31445
871.0 0.001148 341.76465 928.33728
836.0 0.001196 341.66602 848.33313
669.0 0.001495 341.56738 665.52570
569.0 0.001757 341.46884 530.91644
435.0 0.002299 341.37045 461.80493
417.0 0.002398 341.27213 431.86758
392.0 0.002551 341.17392 417.49774
418.0 0.002392 341.07578 402.98019
433.0 0.002309 340.97778 390.43661
404.0 0.002475 340.87988 382.70685
400.0 0.002500 340.78204 377.44519
381.0 0.002625 340.68430 374.27084
403.0 0.002481 340.58667 373.17624
408.0 0.002451 340.48914 375.77930
440.0 0.002273 340.39172 384.76981
445.0 0.002247 340.29437 399.72430
470.0 0.002128 340.19717 410.42929
418.0 0.002392 340.10004 404.14279
461.0 0.002169 340.00299 396.25323
420.0 0.002381 339.90607 393.48657
405.0 0.002469 339.80930 386.51114
411.0 0.002433 339.71252 375.62271
427.0 0.002342 339.61594 368.64130
407.0 0.002457 339.51944 365.27896
395.0 0.002532 339.42300 366.86954
380.0 0.002632 339.32672 371.89462
402.0 0.002488 339.23053 378.44824
422.0 0.002370 339.13440 380.35068
416.0 0.002404 339.03845 378.55347
387.0 0.002584 338.94254 378.99490
405.0 0.002469 338.84680 379.64984
424.0 0.002358 338.75113 375.85544
417.0 0.002398 338.65552 374.70850
419.0 0.002387 338.56003 376.53339
419.0 0.002387 338.46460 381.80777
401.0 0.002494 338.36948 391.13693
422.0 0.002370 338.27444 408.03940
462.0 0.002165 338.17935 438.82208
514.0 0.001946 338.08438 501.85684
588.0 0.001701 337.98956 617.90680
701.0 0.001427 337.89490 776.20178
798.0 0.001253 337.80035 860.22180
789.0 0.001267 337.70584 761.13544
693.0 0.001443 337.61154 629.41107
616.0 0.001623 337.51724 565.51770
630.0 0.001587 337.42313 585.01135
683.0 0.001464 337.32916 703.95880
812.0 0.001232 337.23520 944.11176
1077.0 0.000929 337.14139 1236.40613
1250.0 0.000800 337.04764 1291.55188
1145.0 0.000873 336.95410 1090.29639
927.0 0.001079 336.86069 913.33777
858.0 0.001166 336.76736 766.80389
690.0 0.001449 336.67413 633.06268
555.0 0.001802 336.58105 550.65796
534.0 0.001873 336.48804 523.29083
568.0 0.001761 336.39517 549.63818
608.0 0.001645 336.30240 642.83679
696.0 0.001437 336.20975 809.47345
890.0 0.001124 336.11728 967.58545
1019.0 0.000981 336.02481 956.35944
935.0 0.001070 335.93256 808.01489
785.0 0.001274 335.84036 664.36981
634.0 0.001577 335.74832 606.24072
639.0 0.001565 335.65640 634.57355
700.0 0.001429 335.56464 704.16132
752.0 0.001330 335.47290 728.56024
731.0 0.001368 335.38141 711.57440
758.0 0.001319 335.28983 680.07709
670.0 0.001493 335.19855 621.83386
650.0 0.001538 335.10736 587.40369
594.0 0.001684 335.01627 572.07996
590.0 0.001695 334.92529 543.36475
571.0 0.001751 334.83453 527.71783
576.0 0.001736 334.74374 548.32678
592.0 0.001689 334.65320 611.44550
657.0 0.001522 334.56271 708.86267
825.0 0.001212 334.47232 843.05286
1027.0 0.000974 334.38211 1066.25085
1264.0 0.000791 334.29199 1321.05762
1503.0 0.000665 334.20209 1371.75964
1339.0 0.000747 334.11224 1235.06616
1179.0 0.000848 334.02243 1123.49585
1068.0 0.000936 333.93292 976.40222
911.0 0.001098 333.84341 781.33038
732.0 0.001366 333.75406 645.63385
585.0 0.001709 333.66489 586.84973
619.0 0.001616 333.57581 593.54688
677.0 0.001477 333.48679 664.57715
787.0 0.001271 333.39795 797.73291
879.0 0.001138 333.30927 934.69745
992.0 0.001008 333.22067 962.27930
1047.0 0.000955 333.13229 965.25244
1042.0 0.000960 333.04391 1052.61450
1165.0 0.000858 332.95569 1228.75549
1383.0 0.000723 332.86771 1514.01538
1531.0 0.000653 332.77975 1679.93018
1443.0 0.000693 332.69196 1430.08105
1142.0 0.000876 332.60422 1088.52869
960.0 0.001042 332.51669 904.75238
939.0 0.001065 332.42938 914.46838
1065.0 0.000939 332.34204 1140.66980
1421.0 0.000704 332.25491 1616.02539
1878.0 0.000532 332.16788 2209.51050
2242.0 0.000446 332.08102 2366.75610
2215.0 0.000451 331.99432 2005.12073
1824.0 0.000548 331.90765 1695.06360
1493.0 0.000670 331.82120 1494.99036
1386.0 0.000722 331.73483 1325.08838
1331.0 0.000751 331.64865 1311.01147
1476.0 0.000678 331.56250 1373.42249
1528.0 0.000654 331.47659 1285.62720
1303.0 0.000767 331.39078 1186.34741
1213.0 0.000824 331.30511 1264.33362
1297.0 0.000771 331.21964 1416.33887
1326.0 0.000754 331.13422 1315.90247
1203.0 0.000831 331.04898 1023.50488
941.0 0.001063 330.96378 805.16016
824.0 0.001214 330.87875 729.95734
769.0 0.001300 330.79391 769.09460
921.0 0.001086 330.70923 853.68707
1005.0 0.000995 330.62463 892.53479
884.0 0.001131 330.54019 831.10327
871.0 0.001148 330.45587 757.81213
823.0 0.001215 330.37167 673.25470
650.0 0.001538 330.28766 567.95862
556.0 0.001799 330.20380 490.26184
511.0 0.001957 330.12000 448.48099
431.0 0.002320 330.03644 432.79907
431.0 0.002320 329.95285 434.81476
436.0 0.002294 329.86963 442.10703
488.0 0.002049 329.78638 440.43939
484.0 0.002066 329.70334 437.40820
454.0 0.002203 329.62045 449.24335
463.0 0.002160 329.53763 466.85703
493.0 0.002028 329.45505 455.03513
469.0 0.002132 329.37250 420.66431
451.0 0.002217 329.29019 391.07492
397.0 0.002519 329.20798 375.13138
364.0 0.002747 329.12592 367.17154
368.0 0.002717 329.04398 363.17188
373.0 0.002681 328.96219 361.02277
383.0 0.002611 328.88055 359.92273
409.0 0.002445 328.79904 359.59021
389.0 0.002571 328.71762 357.11545
398.0 0.002513 328.63651 358.31070
395.0 0.002532 328.55539 360.17230
390.0 0.002564 328.47446 362.02277
384.0 0.002604 328.39371 365.92529
394.0 0.002538 328.31305 371.37433
396.0 0.002525 328.23260 379.10422
424.0 0.002358 328.15225 390.59271
436.0 0.002294 328.07208 408.29559
452.0 0.002212 327.99194 442.05884
482.0 0.002075 327.91208 505.10742
580.0 0.001724 327.83231 612.65564
719.0 0.001391 327.75272 762.05023
860.0 0.001163 327.67310 911.55139
969.0 0.001032 327.59381 1039.61414
1058.0 0.000945 327.51462 1116.37109
1153.0 0.000867 327.43561 1166.58923
1216.0 0.000822 327.35675 1053.25635
1005.0 0.000995 327.27802 816.31647
766.0 0.001305 327.19937 639.89093
638.0 0.001567 327.12088 561.29144
587.0 0.001704 327.04257 563.44672
623.0 0.001605 326.96448 624.84503
696.0 0.001437 326.88638 700.65637
706.0 0.001416 326.80859 740.75653
781.0 0.001280 326.73087 761.84503
834.0 0.001199 326.65335 770.78900
839.0 0.001192 326.57596 777.62799
801.0 0.001248 326.49866 707.26959
755.0 0.001325 326.42151 584.93677
598.0 0.001672 326.34451 497.39041
493.0 0.002028 326.26770 461.41461
505.0 0.001980 326.19107 467.59784
538.0 0.001859 326.11453 496.87741
583.0 0.001715 326.03815 503.63120
516.0 0.001938 325.96194 462.93237
508.0 0.001969 325.88580 416.82666
396.0 0.002525 325.80991 386.99753
362.0 0.002762 325.73416 371.61356
417.0 0.002398 325.65854 364.63800
384.0 0.002604 325.58310 362.10028
379.0 0.002639 325.50775 362.51712
405.0 0.002469 325.43259 366.55002
377.0 0.002653 325.35764 376.08734
427.0 0.002342 325.28271 389.15625
414.0 0.002415 325.20801 393.30157
398.0 0.002513 325.13348 383.02414
412.0 0.002427 325.05908 372.19440
373.0 0.002681 324.98483 367.17664
366.0 0.002732 324.91064 367.72552
375.0 0.002667 324.83673 372.59192
375.0 0.002667 324.76294 381.79330
397.0 0.002519 324.68930 397.10623
426.0 0.002347 324.61575 427.22318
504.0 0.001984 324.54251 488.62036
601.0 0.001664 324.46927 612.77441
757.0 0.001321 324.39624 818.52057
931.0 0.001074 324.32333 1033.75574
996.0 0.001004 324.25061 1022.71875
862.0 0.001160 324.17807 804.22894
684.0 0.001462 324.10562 607.44019
520.0 0.001923 324.03339 494.14166
446.0 0.002242 323.96140 443.20105
433.0 0.002309 323.88931 427.22610
437.0 0.002288 323.81747 435.84183
476.0 0.002101 323.74585 473.82037
564.0 0.001773 323.67435 553.57098
632.0 0.001582 323.60306 668.98920
695.0 0.001439 323.53186 762.43561
728.0 0.001374 323.46082 738.33630
660.0 0.001515 323.38989 609.34320
557.0 0.001795 323.31927 493.46906
462.0 0.002165 323.24866 424.78204
401.0 0.002494 323.17822 390.95102
407.0 0.002457 323.10800 375.51071
418.0 0.002392 323.03796 370.32834
406.0 0.002463 322.96796 372.99893
382.0 0.002618 322.89819 382.60226
425.0 0.002353 322.82855 391.79251
427.0 0.002342 322.75906 385.71490
414.0 0.002415 322.68976 370.25085
403.0 0.002481 322.62067 357.88120
412.0 0.002427 322.55161 351.08923
368.0 0.002717 322.48279 348.22632
351.0 0.002849 322.41406 347.55402
369.0 0.002710 322.34555 348.15784
363.0 0.002755 322.27719 349.99042
349.0 0.002865 322.20901 353.21051
376.0 0.002660 322.14090 358.36734
403.0 0.002481 322.07297 366.83414
390.0 0.002564 322.00525 381.14838
399.0 0.002506 321.93765 404.67407
434.0 0.002304 321.87027 441.82315
456.0 0.002193 321.80295 500.67371
542.0 0.001845 321.73584 607.96478
668.0 0.001497 321.66891 783.06616
885.0 0.001130 321.60202 946.01404
933.0 0.001072 321.53543 900.97577
753.0 0.001328 321.46896 707.63745
589.0 0.001698 321.40259 548.12885
471.0 0.002123 321.33643 459.10907
409.0 0.002445 321.27045 419.48102
458.0 0.002183 321.20459 407.39673
443.0 0.002257 321.13885 411.43704
454.0 0.002203 321.07330 429.34259
448.0 0.002232 321.00793 469.92023
477.0 0.002096 320.94272 545.62805
615.0 0.001626 320.87769 632.65887
645.0 0.001550 320.81277 636.98584
608.0 0.001645 320.74805 546.96130
527.0 0.001898 320.68338 460.36249
438.0 0.002283 320.61896 409.26196
407.0 0.002457 320.55472 385.60828
408.0 0.002451 320.49060 372.25211
391.0 0.002558 320.42667 362.09143
384.0 0.002604 320.36285 355.28485
367.0 0.002725 320.29922 351.93185
380.0 0.002632 320.23578 351.66415
371.0 0.002695 320.17242 354.40829
384.0 0.002604 320.10919 362.63077
430.0 0.002326 320.04626 381.48367
462.0 0.002165 319.98340 417.56039
524.0 0.001908 319.92072 469.47693
560.0 0.001786 319.85822 504.08142
546.0 0.001832 319.79587 478.96915
523.0 0.001912 319.73367 430.10635
458.0 0.002183 319.67160 393.89212
415.0 0.002410 319.60971 376.24222
415.0 0.002410 319.54803 374.05475
425.0 0.002353 319.48642 382.16415
436.0 0.002294 319.42499 396.28098
447.0 0.002237 319.36374 415.09445
456.0 0.002193 319.30267 449.05130
503.0 0.001988 319.24179 497.65808
551.0 0.001815 319.18097 522.46881
573.0 0.001745 319.12036 492.50662
505.0 0.001980 319.05994 444.14520
452.0 0.002212 318.99966 410.68466
425.0 0.002353 318.93948 399.83603
441.0 0.002268 318.87949 410.49881
438.0 0.002283 318.81970 448.43604
536.0 0.001866 318.76010 526.95111
600.0 0.001667 318.70059 650.13660
704.0 0.001420 318.64124 770.66370
728.0 0.001374 318.58206 765.53387
642.0 0.001558 318.52298 648.46204
539.0 0.001855 318.46420 530.95807
459.0 0.002179 318.40549 452.73727
415.0 0.002410 318.34692 412.51163
403.0 0.002481 318.28860 396.76718
432.0 0.002315 318.23035 395.82486
399.0 0.002506 318.17221 409.74503
450.0 0.002222 318.11441 446.98489
494.0 0.002024 318.05664 518.17572
545.0 0.001835 317.99915 615.74872
622.0 0.001608 317.94162 674.10602
619.0 0.001616 317.88440 633.96375
579.0 0.001727 317.82730 555.53662
477.0 0.002096 317.77039 503.07761
510.0 0.001961 317.71356 481.37253
506.0 0.001976 317.65692 460.19592
471.0 0.002123 317.60049 430.24493
430.0 0.002326 317.54422 409.56628
435.0 0.002299 317.48804 403.06555
395.0 0.002532 317.43204 411.22940
459.0 0.002179 317.37628 433.39191
448.0 0.002232 317.32059 468.47244
536.0 0.001866 317.26508 514.36212
590.0 0.001695 317.20972 581.97192
728.0 0.001374 317.15448 703.68628
841.0 0.001189 317.09949 875.57538
949.0 0.001054 317.04465 966.80573
912.0 0.001096 316.98987 850.18091
723.0 0.001383 316.93536 669.53253
524.0 0.001908 316.88092 542.45062
472.0 0.002119 316.82672 477.12097
490.0 0.002041 316.77264 452.01837
492.0 0.002033 316.71872 449.26309
472.0 0.002119 316.66495 462.84412
524.0 0.001908 316.61130 497.54272
619.0 0.001616 316.55789 565.45868
710.0 0.001408 316.50464 679.60376
811.0 0.001233 316.45148 827.15472
936.0 0.001068 316.39853 956.91260
1093.0 0.000915 316.34567 1102.87830
1318.0 0.000759 316.29306 1336.34924
1538.0 0.000650 316.24060 1561.67773
1589.0 0.000629 316.18820 1552.46887
1493.0 0.000670 316.13602 1445.08008
1387.0 0.000721 316.08408 1354.87195
1208.0 0.000828 316.03223 1135.59839
963.0 0.001038 315.98044 872.09930
755.0 0.001325 315.92899 693.16925
650.0 0.001538 315.87756 609.65887
620.0 0.001613 315.82632 602.94482
638.0 0.001567 315.77527 662.66357
748.0 0.001337 315.72433 783.90790
900.0 0.001111 315.67358 941.06476
1021.0 0.000979 315.62305 1038.02478
1069.0 0.000935 315.57257 1038.66150
1094.0 0.000914 315.52228 1079.22302
1241.0 0.000806 315.47217 1164.06409
1295.0 0.000772 315.42221 1235.20166
1294.0 0.000773 315.37241 1223.78186
1105.0 0.000905 315.32272 1032.52917
839.0 0.001192 315.27316 814.01495
674.0 0.001484 315.22388 661.42834
571.0 0.001751 315.17468 569.31787
522.0 0.001916 315.12573 532.35999
533.0 0.001876 315.07678 546.77374
557.0 0.001795 315.02811 611.51544
631.0 0.001585 314.97952 710.54346
776.0 0.001289 314.93118 783.54437
788.0 0.001269 314.88297 814.62537
819.0 0.001221 314.83493 831.15027
785.0 0.001274 314.78693 775.18097
705.0 0.001418 314.73911 652.65192
576.0 0.001736 314.69153 548.78186
530.0 0.001887 314.64404 480.27490
423.0 0.002364 314.59668 441.57938
463.0 0.002160 314.54956 429.24954
455.0 0.002198 314.50253 440.92679
457.0 0.002188 314.45575 472.87976
505.0 0.001980 314.40906 505.16510
491.0 0.002037 314.36261 501.18332
476.0 0.002101 314.31613 470.47604
462.0 0.002165 314.26996 438.47177
454.0 0.002203 314.22391 419.89139
461.0 0.002169 314.17792 427.20401
464.0 0.002155 314.13223 467.84259
515.0 0.001942 314.08661 550.59027
609.0 0.001642 314.04114 668.64374
645.0 0.001550 313.99585 738.56097
623.0 0.001605 313.95071 669.73438
549.0 0.001821 313.90579 551.12445
455.0 0.002198 313.86090 465.98584
412.0 0.002427 313.81622 422.92615
426.0 0.002347 313.77173 408.04153
433.0 0.002309 313.72736 404.88913
476.0 0.002101 313.68311 411.15445
498.0 0.002008 313.63907 428.98654
515.0 0.001942 313.59512 452.77588
532.0 0.001880 313.55133 490.83502
541.0 0.001848 313.50775 541.13788
535.0 0.001869 313.46432 557.60803
500.0 0.002000 313.42102 512.60052
474.0 0.002110 313.37784 457.40674
451.0 0.002217 313.33490 424.80649
445.0 0.002247 313.29202 422.19736
492.0 0.002033 313.24936 448.79794
526.0 0.001901 313.20679 498.95078
556.0 0.001799 313.16443 548.23804
581.0 0.001721 313.12219 541.67548
535.0 0.001869 313.08014 488.66895
512.0 0.001953 313.03815 443.63818
448.0 0.002232 312.99637 423.19427
441.0 0.002268 312.95477 422.67194
457.0 0.002188 312.91330 436.39642
475.0 0.002105 312.87189 472.46167
571.0 0.001751 312.83072 537.44775
638.0 0.001567 312.78976 605.98035
637.0 0.001570 312.74887 613.89044
622.0 0.001608 312.70810 575.51508
548.0 0.001825 312.66757 539.78961
530.0 0.001887 312.62708 502.52130
509.0 0.001965 312.58679 480.21411
502.0 0.001992 312.54669 493.76392
531.0 0.001883 312.50681 547.67926
616.0 0.001623 312.46689 619.67212
660.0 0.001515 312.42722 645.97070
694.0 0.001441 312.38766 618.18231
605.0 0.001653 312.34824 610.61957
611.0 0.001637 312.30902 645.32898
672.0 0.001488 312.26987 696.31738
747.0 0.001339 312.23096 751.82227
829.0 0.001206 312.19217 756.19733
740.0 0.001351 312.15356 682.19220
605.0 0.001653 312.11505 613.25415
607.0 0.001647 312.07666 614.93970
646.0 0.001548 312.03845 704.85132
775.0 0.001290 312.00040 854.43719
878.0 0.001139 311.96255 939.62994
887.0 0.001127 311.92474 844.68085
724.0 0.001381 311.88708 686.15247
588.0 0.001701 311.84967 583.21466
538.0 0.001859 311.81232 552.35712
528.0 0.001894 311.77515 562.37207
565.0 0.001770 311.73816 554.70264
536.0 0.001866 311.70120 510.52158
478.0 0.002092 311.66449 469.67950
455.0 0.002198 311.62784 460.57559
473.0 0.002114 311.59143 489.79895
496.0 0.002016 311.55515 546.43701
531.0 0.001883 311.51895 580.56232
515.0 0.001942 311.48294 540.53754
471.0 0.002123 311.44702 472.98663
472.0 0.002119 311.41132 425.16522
442.0 0.002262 311.37573 403.80545
395.0 0.002532 311.34027 403.45792
403.0 0.002481 311.30493 415.35065
451.0 0.002217 311.26984 430.12692
424.0 0.002358 311.23480 439.41159
433.0 0.002309 311.19989 442.57874
498.0 0.002008 311.16519 459.63181
510.0 0.001961 311.13052 501.79980
574.0 0.001742 311.09616 558.79736
630.0 0.001587 311.06186 626.65277
685.0 0.001460 311.02768 712.04810
743.0 0.001346 310.99362 742.00500
649.0 0.001541 310.95981 656.09503
554.0 0.001805 310.92603 545.47595
425.0 0.002353 310.89243 471.36685
434.0 0.002304 310.85895 434.11316
407.0 0.002457 310.82562 416.32501
396.0 0.002525 310.79245 406.57755
378.0 0.002646 310.75940 408.38641
402.0 0.002488 310.72656 425.73898
405.0 0.002469 310.69379 452.07025
442.0 0.002262 310.66119 485.85959
513.0 0.001949 310.62866 531.31519
493.0 0.002028 310.59631 552.70557
515.0 0.001942 310.56412 516.35107
416.0 0.002404 310.53207 458.25784
406.0 0.002463 310.50012 407.21234
337.0 0.002967 310.46832 374.12808
370.0 0.002703 310.43671 355.96649
327.0 0.003058 310.40518 346.58136
307.0 0.003257 310.37378 341.80731
307.0 0.003257 310.34256 340.12891
320.0 0.003125 310.31143 340.17590
346.0 0.002890 310.28046 342.42215
359.0 0.002786 310.24966 347.85544
366.0 0.002732 310.21896 355.58829
359.0 0.002786 310.18842 364.58051
347.0 0.002882 310.15799 374.08725
379.0 0.002639 310.12766 387.15076
377.0 0.002653 310.09753 414.00375
404.0 0.002475 310.06750 459.26300
488.0 0.002049 310.03760 511.96841
473.0 0.002114 310.00787 553.42975
521.0 0.001919 309.97827 552.68457
500.0 0.002000 309.94879 510.51184
452.0 0.002212 309.91946 481.34509
435.0 0.002299 309.89026 488.74823
467.0 0.002141 309.86115 517.31567
486.0 0.002058 309.83224 520.02319
446.0 0.002242 309.80341 486.10672
407.0 0.002457 309.77472 454.91031
425.0 0.002353 309.74612 440.77191
413.0 0.002421 309.71771 447.30981
415.0 0.002410 309.68942 470.24969
450.0 0.002222 309.66132 499.67807
464.0 0.002155 309.63324 520.61987
487.0 0.002053 309.60535 531.17725
516.0 0.001938 309.57758 565.96881
559.0 0.001789 309.54996 636.36499
624.0 0.001603 309.52249 706.86322
680.0 0.001471 309.49515 756.03998
711.0 0.001406 309.46786 796.95752
709.0 0.001410 309.44073 779.93542
618.0 0.001618 309.41373 667.42218
503.0 0.001988 309.38687 546.70551
419.0 0.002387 309.36020 466.79971
379.0 0.002639 309.33356 427.23389
372.0 0.002688 309.30707 414.98816
410.0 0.002439 309.28073 420.71097
422.0 0.002370 309.25449 443.62265
406.0 0.002463 309.22842 482.11267
433.0 0.002309 309.20242 519.18604
464.0 0.002155 309.17664 545.82898
518.0 0.001931 309.15097 584.90814
586.0 0.001706 309.12531 625.88464
609.0 0.001642 309.09991 643.55371
616.0 0.001623 309.07455 665.46948
612.0 0.001634 309.04935 669.62134
552.0 0.001812 309.02420 601.37787
492.0 0.002033 308.99930 509.43942
408.0 0.002451 308.97443 443.31900
404.0 0.002475 308.94977 408.50183
369.0 0.002710 308.92514 397.80524
362.0 0.002762 308.90076 403.14502
367.0 0.002725 308.87634 422.17075
443.0 0.002257 308.85214 456.24524
515.0 0.001942 308.82806 500.33871
522.0 0.001916 308.80408 534.30286
534.0 0.001873 308.78024 566.15753
543.0 0.001842 308.75653 603.92438
570.0 0.001754 308.73294 602.35065
494.0 0.002024 308.70941 542.34583
443.0 0.002257 308.68607 468.84406
375.0 0.002667 308.66281 417.94696
333.0 0.003003 308.63971 393.16379
365.0 0.002740 308.61667 385.71124
348.0 0.002874 308.59384 385.88013
369.0 0.002710 308.57108 391.79700
399.0 0.002506 308.54846 403.21780
445.0 0.002247 308.52591 408.87997
410.0 0.002439 308.50348 406.23404
387.0 0.002584 308.48114 409.55905
406.0 0.002463 308.45908 420.31833
411.0 0.002433 308.43695 426.77811
405.0 0.002469 308.41504 431.67569
427.0 0.002342 308.39328 458.49597
460.0 0.002174 308.37161 516.78552
517.0 0.001934 308.34995 582.53809
551.0 0.001815 308.32855 585.41296
502.0 0.001992 308.30716 516.18756
437.0 0.002288 308.28595 443.55261
389.0 0.002571 308.26486 396.49472
367.0 0.002725 308.24380 372.99701
350.0 0.002857 308.22293 362.31918
340.0 0.002941 308.20212 355.74393
329.0 0.003040 308.18146 353.62915
330.0 0.003030 308.16095 358.60852
345.0 0.002899 308.14050 373.84003
371.0 0.002695 308.12024 403.62964
407.0 0.002457 308.10001 443.21912
428.0 0.002336 308.07990 467.91013
428.0 0.002336 308.05991 458.49823
421.0 0.002375 308.04001 446.60037
448.0 0.002232 308.02023 456.29187
447.0 0.002237 308.00067 475.20313
423.0 0.002364 307.98111 466.25217
374.0 0.002674 307.96173 431.42044
349.0 0.002865 307.94241 399.03625
349.0 0.002865 307.92322 374.03259
335.0 0.002985 307.90411 354.80179
350.0 0.002857 307.88510 343.46561
348.0 0.002874 307.86624 338.20996
306.0 0.003268 307.84744 338.18805
337.0 0.002967 307.82880 343.75934
329.0 0.003040 307.81036 354.33328
324.0 0.003086 307.79181 368.20908
361.0 0.002770 307.77356 383.29541
376.0 0.002660 307.75525 388.15814
346.0 0.002890 307.73715 374.89383
345.0 0.002899 307.71921 357.92612
339.0 0.002950 307.70126 344.72397
328.0 0.003049 307.68347 334.41653
314.0 0.003185 307.66580 327.03012
318.0 0.003145 307.64819 322.89975
295.0 0.003390 307.63071 320.85001
323.0 0.003096 307.61331 320.61923
304.0 0.003289 307.59601 321.23566
305.0 0.003279 307.57886 321.09146
304.0 0.003289 307.56186 318.90732
300.0 0.003333 307.54489 317.09134
296.0 0.003378 307.52802 315.89789
327.0 0.003058 307.51126 315.36282
313.0 0.003195 307.49463 315.35583
317.0 0.003155 307.47809 315.68060
304.0 0.003289 307.46161 316.42719
307.0 0.003257 307.44528 317.80756
306.0 0.003268 307.42905 320.41599
299.0 0.003344 307.41287 325.13068
299.0 0.003344 307.39679 332.72348
298.0 0.003356 307.38089 342.10944
332.0 0.003012 307.36505 347.08569
313.0 0.003195 307.34927 343.41489
320.0 0.003125 307.33365 337.16144
328.0 0.003049 307.31812 333.77707
330.0 0.003030 307.30267 334.49707
326.0 0.003067 307.28735 339.80518
355.0 0.002817 307.27209 351.47946
393.0 0.002545 307.25696 374.55786
429.0 0.002331 307.24191 414.64441
456.0 0.002193 307.22690 472.77060
511.0 0.001957 307.21207 531.02838
580.0 0.001724 307.19727 568.12152
581.0 0.001721 307.18268 577.85852
538.0 0.001859 307.16803 533.71851
456.0 0.002193 307.15359 461.80688
394.0 0.002538 307.13922 404.67972
386.0 0.002591 307.12491 370.42831
360.0 0.002778 307.11072 353.43597
337.0 0.002967 307.09662 347.22144
344.0 0.002907 307.08264 349.17148
362.0 0.002762 307.06873 359.55988
381.0 0.002625 307.05484 379.99130
368.0 0.002717 307.04114 407.54462
421.0 0.002375 307.02744 429.64828
428.0 0.002336 307.01398 440.56314
440.0 0.002273 307.00058 434.06308
405.0 0.002469 306.98715 403.94821
373.0 0.002681 306.97385 370.82700
358.0 0.002793 306.96072 347.73727
352.0 0.002841 306.94763 334.41382
329.0 0.003040 306.93460 327.57315
352.0 0.002841 306.92172 324.48959
336.0 0.002976 306.90887 324.19980
310.0 0.003226 306.89615 325.94611
303.0 0.003300 306.88354 329.84164
327.0 0.003058 306.87091 334.24557
318.0 0.003145 306.85849 335.25558
341.0 0.002933 306.84610 333.31207
318.0 0.003145 306.83380 331.78189
331.0 0.003021 306.82156 329.65918
331.0 0.003021 306.80951 325.46323
315.0 0.003175 306.79745 321.78104
296.0 0.003378 306.78549 319.28491
308.0 0.003247 306.77362 318.23364
298.0 0.003356 306.76187 318.36908
316.0 0.003165 306.75018 319.78354
339.0 0.002950 306.73849 322.30884
317.0 0.003155 306.72696 326.02829
319.0 0.003135 306.71555 329.96478
351.0 0.002849 306.70422 332.86066
316.0 0.003165 306.69296 336.89746
342.0 0.002924 306.68173 345.47141
349.0 0.002865 306.67059 360.54175
376.0 0.002660 306.65961 384.60321
427.0 0.002342 306.64865 413.25729
447.0 0.002237 306.63779 426.87680
432.0 0.002315 306.62698 415.11664
405.0 0.002469 306.61633 397.89487
391.0 0.002558 306.60571 381.57074
354.0 0.002825 306.59515 365.92456
355.0 0.002817 306.58472 356.98965
356.0 0.002809 306.57434 356.19296
374.0 0.002674 306.56403 358.52222
361.0 0.002770 306.55374 357.40860
360.0 0.002778 306.54361 355.57504
378.0 0.002646 306.53354 360.50455
373.0 0.002681 306.52350 374.90698
385.0 0.002597 306.51355 395.69003
428.0 0.002336 306.50369 412.14999
438.0 0.002283 306.49399 420.31998
411.0 0.002433 306.48428 421.68961
401.0 0.002494 306.47464 415.15894
415.0 0.002410 306.46512 414.49292
416.0 0.002404 306.45563 435.30231
435.0 0.002299 306.44623 479.92511
459.0 0.002179 306.43692 527.62262
463.0 0.002160 306.42767 534.38208
467.0 0.002141 306.41855 492.51596
434.0 0.002304 306.40945 444.16135
391.0 0.002558 306.40039 417.50363
390.0 0.002564 306.39139 414.70557
431.0 0.002320 306.38257 432.00244
454.0 0.002203 306.37372 466.16815
487.0 0.002053 306.36499 505.97552
470.0 0.002128 306.35632 519.05548
474.0 0.002110 306.34778 490.77893
461.0 0.002169 306.33920 458.84036
398.0 0.002513 306.33075 447.82797
410.0 0.002439 306.32230 449.82953
429.0 0.002331 306.31406 440.57114
418.0 0.002392 306.30579 414.94492
367.0 0.002725 306.29752 390.56995
346.0 0.002890 306.28946 377.89557
369.0 0.002710 306.28143 378.07196
376.0 0.002660 306.27347 389.40338
413.0 0.002421 306.26553 413.84766
468.0 0.002137 306.25763 450.64703
442.0 0.002262 306.24991 483.54340
468.0 0.002137 306.24216 495.48645
464.0 0.002155 306.23450 480.86755
408.0 0.002451 306.22690 451.68011
401.0 0.002494 306.21936 434.14859
448.0 0.002232 306.21198 433.65024
414.0 0.002415 306.20459 435.33282
415.0 0.002410 306.19724 430.41617
406.0 0.002463 306.18991 434.45636
429.0 0.002331 306.18277 462.06332
508.0 0.001969 306.17554 512.58679
533.0 0.001876 306.16849 561.92596
510.0 0.001961 306.16153 564.86353
484.0 0.002066 306.15457 525.09949
477.0 0.002096 306.14771 485.31488
403.0 0.002481 306.14078 454.75107
385.0 0.002597 306.13406 433.16260
357.0 0.002801 306.12735 423.93427
381.0 0.002625 306.12070 421.75223
379.0 0.002639 306.11407 420.50024
433.0 0.002309 306.10748 422.39880
423.0 0.002364 306.10107 440.71545
484.0 0.002066 306.09467 491.56104
597.0 0.001675 306.08829 581.70129
675.0 0.001481 306.08191 697.00922
735.0 0.001361 306.07568 771.46466
693.0 0.001443 306.06952 727.51648
577.0 0.001733 306.06339 609.01514
509.0 0.001965 306.05728 504.70490
426.0 0.002347 306.05130 439.47464
394.0 0.002538 306.04532 404.36566
388.0 0.002577 306.03937 384.68082
359.0 0.002786 306.03354 373.63663
349.0 0.002865 306.02777 370.92499
364.0 0.002747 306.02197 378.06827
407.0 0.002457 306.01627 400.03613
431.0 0.002320 306.01065 439.10101
461.0 0.002169 306.00510 492.37408
503.0 0.001988 305.99954 534.08160
495.0 0.002020 305.99402 525.92474
478.0 0.002092 305.98859 478.90677
437.0 0.002288 305.98322 432.77234
410.0 0.002439 305.97784 403.39429
393.0 0.002545 305.97256 393.36618
371.0 0.002695 305.96732 402.16321
416.0 0.002404 305.96216 433.44897
491.0 0.002037 305.95700 492.12378
571.0 0.001751 305.95197 572.34204
604.0 0.001656 305.94687 641.25409
553.0 0.001808 305.94193 637.51062
503.0 0.001988 305.93698 563.73651
441.0 0.002268 305.93210 484.12115
399.0 0.002506 305.92719 427.35284
399.0 0.002506 305.92249 394.78955
364.0 0.002747 305.91769 378.74008
381.0 0.002625 305.91299 372.11783
375.0 0.002667 305.90833 372.49014
362.0 0.002762 305.90369 380.23694
393.0 0.002545 305.89920 397.94977
408.0 0.002451 305.89459 431.21082
438.0 0.002283 305.89008 481.45871
528.0 0.001894 305.88565 540.73401
556.0 0.001799 305.88132 588.96722
626.0 0.001597 305.87695 628.87946
684.0 0.001462 305.87268 687.18896
745.0 0.001342 305.86838 730.32361
734.0 0.001362 305.86411 681.82361
621.0 0.001610 305.85999 576.50714
515.0 0.001942 305.85583 485.13885
432.0 0.002315 305.85168 427.19272
398.0 0.002513 305.84772 396.84589
388.0 0.002577 305.84366 383.60968
361.0 0.002770 305.83966 381.41132
387.0 0.002584 305.83572 389.22955
417.0 0.002398 305.83179 411.80637
436.0 0.002294 305.82803 459.75467
512.0 0.001953 305.82419 545.37274
640.0 0.001563 305.82040 668.37811
753.0 0.001328 305.81668 780.66113
784.0 0.001276 305.81296 777.43549
659.0 0.001517 305.80930 663.57916
552.0 0.001812 305.80560 540.79730
472.0 0.002119 305.80209 454.14252
386.0 0.002591 305.79849 403.97086
371.0 0.002695 305.79492 378.12112
363.0 0.002755 305.79141 365.69553
387.0 0.002584 305.78802 360.90955
388.0 0.002577 305.78461 362.44540
381.0 0.002625 305.78125 372.38358
396.0 0.002525 305.77789 393.72824
441.0 0.002268 305.77451 427.74225
478.0 0.002092 305.77127 466.48648
501.0 0.001996 305.76801 480.10294
471.0 0.002123 305.76477 455.11023
423.0 0.002364 305.76163 420.67813
412.0 0.002427 305.75845 398.56854
419.0 0.002387 305.75537 395.72260
412.0 0.002427 305.75226 415.45081
460.0 0.002174 305.74918 460.66083
521.0 0.001919 305.74622 526.15857
551.0 0.001815 305.74316 580.30792
524.0 0.001908 305.74020 568.66077
499.0 0.002004 305.73724 506.53275
453.0 0.002208 305.73434 447.73926
431.0 0.002320 305.73148 413.88467
388.0 0.002577 305.72855 405.43961
406.0 0.002463 305.72577 421.80685
469.0 0.002132 305.72299 459.18198
509.0 0.001965 305.72021 505.39539
524.0 0.001908 305.71747 532.03442
516.0 0.001938 305.71475 514.69568
486.0 0.002058 305.71207 485.62625
487.0 0.002053 305.70935 476.44702
473.0 0.002114 305.70673 484.16360
466.0 0.002146 305.70413 479.43204
430.0 0.002326 305.70157 448.60501
401.0 0.002494 305.69897 414.98596
419.0 0.002387 305.69647 394.12732
381.0 0.002625 305.69394 389.28085
394.0 0.002538 305.69144 401.15640
419.0 0.002387 305.68900 434.48611
500.0 0.002000 305.68652 488.41119
572.0 0.001748 305.68408 554.37811
612.0 0.001634 305.68170 601.62689
639.0 0.001565 305.67932 594.07684
588.0 0.001701 305.67691 535.52997
462.0 0.002165 305.67462 473.93948
400.0 0.002500 305.67230 436.53870
440.0 0.002273 305.67001 428.06747
466.0 0.002146 305.66769 448.26907
518.0 0.001931 305.66547 495.80850
559.0 0.001789 305.66318 560.01453
634.0 0.001577 305.66101 602.71185
619.0 0.001616 305.65872 594.90039
561.0 0.001783 305.65659 566.44727
541.0 0.001848 305.65445 543.13904
549.0 0.001821 305.65231 532.66516
541.0 0.001848 305.65015 534.20282
571.0 0.001751 305.64801 533.32648
557.0 0.001795 305.64597 536.46057
578.0 0.001730 305.64389 545.01074
546.0 0.001832 305.64182 535.92181
516.0 0.001938 305.63974 511.15576
506.0 0.001976 305.63773 501.05673
545.0 0.001835 305.63571 519.24817
615.0 0.001626 305.63370 560.51996
649.0 0.001541 305.63174 609.58124
722.0 0.001385 305.62976 675.99200
843.0 0.001186 305.62778 774.48560
900.0 0.001111 305.62585 866.28503
885.0 0.001130 305.62390 860.30505
746.0 0.001340 305.62201 754.73334
621.0 0.001610 305.62009 647.09515
570.0 0.001754 305.61819 578.26434
547.0 0.001828 305.61624 539.33057
526.0 0.001901 305.61438 511.02246
505.0 0.001980 305.61255 495.19220
490.0 0.002041 305.61069 502.65570
553.0 0.001808 305.60889 545.11304
663.0 0.001508 305.60706 642.46381
817.0 0.001224 305.60519 819.15710
1067.0 0.000937 305.60345 1080.33350
1378.0 0.000726 305.60156 1356.58972
1471.0 0.000680 305.59979 1489.71265
1292.0 0.000774 305.59796 1353.17810
1047.0 0.000955 305.59619 1060.95789
800.0 0.001250 305.59445 798.28180
579.0 0.001727 305.59268 623.83948
496.0 0.002016 305.59091 525.73041
462.0 0.002165 305.58917 476.30777
450.0 0.002222 305.58743 455.44803
467.0 0.002141 305.58572 453.54114
475.0 0.002105 305.58395 471.40170
519.0 0.001927 305.58221 517.70331
587.0 0.001704 305.58051 599.34723
665.0 0.001504 305.57880 707.37317
749.0 0.001335 305.57703 796.10925
803.0 0.001245 305.57544 805.35211
744.0 0.001344 305.57364 718.89941
625.0 0.001600 305.57193 604.43860
509.0 0.001965 305.57022 515.40808
457.0 0.002188 305.56857 462.23138
442.0 0.002262 305.56686 436.20309
450.0 0.002222 305.56519 427.74164
441.0 0.002268 305.56348 430.72537
440.0 0.002273 305.56180 443.07700
482.0 0.002075 305.56012 468.61096
539.0 0.001855 305.55841 515.77631
594.0 0.001684 305.55667 601.97040
733.0 0.001364 305.55505 749.99225
972.0 0.001029 305.55341 979.15021
1282.0 0.000780 305.55164 1273.19507
1572.0 0.000636 305.54999 1572.51160
1684.0 0.000594 305.54834 1698.96875
1448.0 0.000691 305.54660 1503.44873
1046.0 0.000956 305.54492 1156.44958
771.0 0.001297 305.54324 865.60150
582.0 0.001718 305.54163 684.55286
551.0 0.001815 305.53986 595.32196
557.0 0.001795 305.53821 566.47015
582.0 0.001718 305.53644 570.06805
599.0 0.001669 305.53473 582.50671
621.0 0.001610 305.53302 603.64276
659.0 0.001517 305.53134 657.19299
738.0 0.001355 305.52957 762.02417
870.0 0.001149 305.52792 905.88776
1013.0 0.000987 305.52621 1046.51147
1055.0 0.000948 305.52444 1083.44373
952.0 0.001050 305.52267 975.73700
813.0 0.001230 305.52100 826.22882
683.0 0.001464 305.51932 719.97437
632.0 0.001582 305.51749 672.99982
686.0 0.001458 305.51575 668.69165
724.0 0.001381 305.51398 689.63477
741.0 0.001350 305.51218 695.46466
682.0 0.001466 305.51041 656.76331
637.0 0.001570 305.50861 616.29822
653.0 0.001531 305.50677 618.07495
717.0 0.001395 305.50500 681.77563
795.0 0.001258 305.50320 794.07043
844.0 0.001185 305.50134 887.66681
796.0 0.001256 305.49948 863.03217
705.0 0.001418 305.49771 749.26385
622.0 0.001608 305.49579 640.08337
545.0 0.001835 305.49399 572.89893
526.0 0.001901 305.49203 546.98053
532.0 0.001880 305.49020 551.54651
643.0 0.001555 305.48828 580.39545
635.0 0.001575 305.48636 621.46393
670.0 0.001493 305.48444 674.83258
774.0 0.001292 305.48257 752.33105
788.0 0.001269 305.48065 817.48431
862.0 0.001160 305.47864 819.92902
775.0 0.001290 305.47668 791.82849
747.0 0.001339 305.47467 762.25439
698.0 0.001433 305.47269 701.72937
585.0 0.001709 305.47067 625.38629
571.0 0.001751 305.46863 553.59674
491.0 0.002037 305.46661 489.79486
468.0 0.002137 305.46457 443.96176
449.0 0.002227 305.46255 419.12112
414.0 0.002415 305.46039 413.53177
444.0 0.002252 305.45834 426.93719
414.0 0.002415 305.45624 458.18344
458.0 0.002183 305.45413 498.45590
529.0 0.001890 305.45197 519.38531
510.0 0.001961 305.44977 496.11606
501.0 0.001996 305.44760 452.81485
447.0 0.002237 305.44540 420.47272
411.0 0.002433 305.44318 404.57162
421.0 0.002375 305.44095 399.43216
393.0 0.002545 305.43875 392.90598
383.0 0.002611 305.43649 381.27988
403.0 0.002481 305.43420 370.00543
381.0 0.002625 305.43188 363.58093
359.0 0.002786 305.42957 362.06180
366.0 0.002732 305.42728 365.19107
394.0 0.002538 305.42493 373.64413
411.0 0.002433 305.42252 389.50421
433.0 0.002309 305.42014 415.82220
466.0 0.002146 305.41766 454.12674
514.0 0.001946 305.41531 498.93735
563.0 0.001776 305.41281 536.37811
586.0 0.001706 305.41034 571.35651
634.0 0.001577 305.40781 608.96985
702.0 0.001425 305.40530 652.57330
759.0 0.001318 305.40274 730.84192
900.0 0.001111 305.40021 854.47815
1008.0 0.000992 305.39761 969.50616
1024.0 0.000977 305.39502 995.90417
982.0 0.001018 305.39233 950.44244
901.0 0.001110 305.38974 878.95953
774.0 0.001292 305.38705 777.75275
649.0 0.001541 305.38437 666.37616
577.0 0.001733 305.38162 585.00195
555.0 0.001802 305.37881 541.75171
529.0 0.001890 305.37610 523.25616
481.0 0.002079 305.37326 520.94849
507.0 0.001972 305.37045 531.05182
564.0 0.001773 305.36765 551.42059
598.0 0.001672 305.36472 595.19159
632.0 0.001582 305.36188 671.06567
774.0 0.001292 305.35889 760.75531
876.0 0.001142 305.35602 836.39240
962.0 0.001040 305.35303 914.56830
1003.0 0.000997 305.35001 1012.04425
1088.0 0.000919 305.34695 1071.82385
984.0 0.001016 305.34396 1002.09155
761.0 0.001314 305.34076 826.81586
583.0 0.001715 305.33774 655.28119
525.0 0.001905 305.33456 534.73065
431.0 0.002320 305.33142 462.57147
416.0 0.002404 305.32825 423.52765
392.0 0.002551 305.32501 403.54062
394.0 0.002538 305.32172 394.48380
431.0 0.002320 305.31842 393.84039
424.0 0.002358 305.31516 403.00043
433.0 0.002309 305.31180 427.25882
497.0 0.002012 305.30841 471.92535
539.0 0.001855 305.30502 535.66272
633.0 0.001580 305.30164 595.65643
626.0 0.001597 305.29816 603.38617
579.0 0.001727 305.29465 551.31903
474.0 0.002110 305.29117 490.19720
468.0 0.002137 305.28766 449.42703
439.0 0.002278 305.28406 428.49982
429.0 0.002331 305.28040 414.18948
415.0 0.002410 305.27676 396.46167
396.0 0.002525 305.27313 378.48816
404.0 0.002475 305.26941 364.60675
375.0 0.002667 305.26563 356.05002
347.0 0.002882 305.26181 353.43570
369.0 0.002710 305.25806 356.94418
376.0 0.002660 305.25418 365.56305
406.0 0.002463 305.25037 375.70142
412.0 0.002427 305.24643 378.24390
369.0 0.002710 305.24255 372.40088
375.0 0.002667 305.23859 365.53760
403.0 0.002481 305.23453 362.00711
390.0 0.002564 305.23053 362.82220
389.0 0.002571 305.22635 364.43213
419.0 0.002387 305.22226 362.67935
401.0 0.002494 305.21817 360.98438
356.0 0.002809 305.21402 361.01819
368.0 0.002717 305.20981 364.79489
393.0 0.002545 305.20557 375.79489
406.0 0.002463 305.20129 396.22083
440.0 0.002273 305.19696 420.05103
437.0 0.002288 305.19260 430.08008
408.0 0.002451 305.18820 416.03455
383.0 0.002611 305.18378 390.96423
369.0 0.002710 305.17938 368.52481
377.0 0.002653 305.17484 353.04294
363.0 0.002755 305.17026 344.51865
317.0 0.003155 305.16568 341.36954
364.0 0.002747 305.16110 341.96661
373.0 0.002681 305.15637 346.26593
384.0 0.002604 305.15173 353.43460
344.0 0.002907 305.14703 363.98566
403.0 0.002481 305.14227 378.44022
418.0 0.002392 305.13742 401.10083
443.0 0.002257 305.13263 434.26901
484.0 0.002066 305.12772 477.24802
543.0 0.001842 305.12280 520.06793
568.0 0.001761 305.11783 546.80334
554.0 0.001805 305.11288 534.50604
500.0 0.002000 305.10782 499.99463
454.0 0.002203 305.10272 478.46115
462.0 0.002165 305.09769 481.28665
523.0 0.001912 305.09247 497.31674
541.0 0.001848 305.08728 502.88428
473.0 0.002114 305.08206 486.73370
441.0 0.002268 305.07672 459.61081
485.0 0.002062 305.07144 433.30762
418.0 0.002392 305.06610 414.44946
421.0 0.002375 305.06070 407.02142
428.0 0.002336 305.05527 415.33246
447.0 0.002237 305.04977 438.73209
499.0 0.002004 305.04425 471.24164
539.0 0.001855 305.03870 498.14966
553.0 0.001808 305.03311 515.41760
536.0 0.001866 305.02750 535.95081
566.0 0.001767 305.02173 563.39838
564.0 0.001773 305.01596 579.43066
551.0 0.001815 305.01019 572.17603
578.0 0.001730 305.00439 560.37531
571.0 0.001751 304.99854 564.15247
567.0 0.001764 304.99268 587.73114
579.0 0.001727 304.98672 604.92548
595.0 0.001681 304.98074 576.46332
516.0 0.001938 304.97464 514.31433
465.0 0.002151 304.96863 456.66006
421.0 0.002375 304.96243 419.28232
399.0 0.002506 304.95633 402.45126
407.0 0.002457 304.95016 401.40475
407.0 0.002457 304.94385 409.85498
402.0 0.002488 304.93753 422.23981
399.0 0.002506 304.93118 431.13333
423.0 0.002364 304.92484 428.81454
435.0 0.002299 304.91840 423.55319
464.0 0.002155 304.91190 427.38470
454.0 0.002203 304.90536 443.02191
464.0 0.002155 304.89883 463.29468
465.0 0.002151 304.89218 469.04715
464.0 0.002155 304.88553 451.14011
463.0 0.002160 304.87888 426.93430
442.0 0.002262 304.87201 411.43701
421.0 0.002375 304.86530 409.57211
430.0 0.002326 304.85840 422.55783
477.0 0.002096 304.85153 451.19116
549.0 0.001821 304.84457 495.73700
589.0 0.001698 304.83759 553.59613
654.0 0.001529 304.83057 627.64520
826.0 0.001211 304.82349 739.43457
940.0 0.001064 304.81638 895.86578
1104.0 0.000906 304.80917 1042.89954
1107.0 0.000903 304.80200 1069.32373
919.0 0.001088 304.79474 942.77930
718.0 0.001393 304.78738 768.46796
619.0 0.001616 304.78003 627.71985
515.0 0.001942 304.77258 539.67841
495.0 0.002020 304.76511 495.25803
475.0 0.002105 304.75766 484.71680
503.0 0.001988 304.75009 505.47922
587.0 0.001704 304.74249 561.30981
705.0 0.001418 304.73483 657.14130
863.0 0.001159 304.72714 786.02850
978.0 0.001022 304.71942 913.48206
975.0 0.001026 304.71158 974.47186
938.0 0.001066 304.70370 963.44641
895.0 0.001117 304.69586 913.89667
746.0 0.001340 304.68787 814.32257
680.0 0.001471 304.67990 685.73602
547.0 0.001828 304.67184 576.23004
501.0 0.001996 304.66373 504.70377
458.0 0.002183 304.65561 468.55527
443.0 0.002257 304.64746 459.17847
482.0 0.002075 304.63919 468.46552
518.0 0.001931 304.63089 484.51004
541.0 0.001848 304.62250 498.88831
547.0 0.001828 304.61414 519.84943
532.0 0.001880 304.60568 551.56769
535.0 0.001869 304.59711 570.40100
561.0 0.001783 304.58862 542.70898
500.0 0.002000 304.58008 485.14224
424.0 0.002358 304.57135 431.37366
378.0 0.002646 304.56265 393.54361
352.0 0.002841 304.55389 370.78442
363.0 0.002755 304.54514 359.02594
360.0 0.002778 304.53625 354.68292
369.0 0.002710 304.52737 355.75232
385.0 0.002597 304.51843 361.22723
389.0 0.002571 304.50943 368.21054
378.0 0.002646 304.50031 370.56964
376.0 0.002660 304.49124 365.20975
388.0 0.002577 304.48212 356.90237
378.0 0.002646 304.47287 350.23758
356.0 0.002809 304.46356 346.27798
332.0 0.003012 304.45432 345.02573
371.0 0.002695 304.44492 345.05823
380.0 0.002632 304.43558 345.07184
360.0 0.002778 304.42603 344.04678
339.0 0.002950 304.41650 343.13177
343.0 0.002915 304.40692 344.87039
349.0 0.002865 304.39728 351.15778
347.0 0.002882 304.38763 364.08215
368.0 0.002717 304.37784 385.24948
408.0 0.002451 304.36810 413.12048
433.0 0.002309 304.35828 437.02484
437.0 0.002288 304.34839 439.14752
441.0 0.002268 304.33841 421.47604
401.0 0.002494 304.32843 401.61362
396.0 0.002525 304.31830 389.40869
375.0 0.002667 304.30826 388.69601
411.0 0.002433 304.29807 400.58524
445.0 0.002247 304.28787 425.95224
466.0 0.002146 304.27759 466.08575
533.0 0.001876 304.26727 519.22168
566.0 0.001767 304.25687 573.58466
587.0 0.001704 304.24646 622.41943
708.0 0.001412 304.23596 688.86951
823.0 0.001215 304.22543 786.12231
920.0 0.001087 304.21487 872.30133
910.0 0.001099 304.20425 865.98169
801.0 0.001248 304.19351 771.11237
689.0 0.001451 304.18280 655.38660
546.0 0.001832 304.17197 554.53546
466.0 0.002146 304.16110 481.89487
452.0 0.002212 304.15015 439.22174
409.0 0.002445 304.13922 420.95853
434.0 0.002304 304.12814 421.85974
450.0 0.002222 304.11703 438.93353
490.0 0.002041 304.10599 467.45334
525.0 0.001905 304.09482 497.24734
528.0 0.001894 304.08356 521.82751
530.0 0.001887 304.07227 550.26257
591.0 0.001692 304.06094 588.10657
672.0 0.001488 304.04950 616.50317
632.0 0.001582 304.03806 605.86890
602.0 0.001661 304.02658 568.05103
583.0 0.001715 304.01495 533.31268
547.0 0.001828 304.00339 504.47800
532.0 0.001880 303.99167 471.64560
468.0 0.002137 303.97998 434.46060
404.0 0.002475 303.96817 403.51324
383.0 0.002611 303.95633 383.95010
367.0 0.002725 303.94440 375.49014
361.0 0.002770 303.93243 376.58109
387.0 0.002584 303.92044 385.94897
418.0 0.002392 303.90845 402.97513
442.0 0.002262 303.89630 427.86914
509.0 0.001965 303.88416 458.89438
513.0 0.001949 303.87183 485.06171
479.0 0.002088 303.85959 485.72293
468.0 0.002137 303.84726 462.48334
464.0 0.002155 303.83487 438.82187
451.0 0.002217 303.82248 422.99887
433.0 0.002309 303.80994 409.02463
409.0 0.002445 303.79736 393.06430
385.0 0.002597 303.78473 378.99554
384.0 0.002604 303.77209 371.64078
391.0 0.002558 303.75937 373.29208
400.0 0.002500 303.74655 386.47241
432.0 0.002315 303.73383 414.14056
488.0 0.002049 303.72079 457.30658
554.0 0.001805 303.70792 508.19965
563.0 0.001776 303.69495 542.68256
586.0 0.001706 303.68185 540.41711
504.0 0.001984 303.66879 508.80588
444.0 0.002252 303.65564 463.78949
434.0 0.002304 303.64240 420.93866
411.0 0.002433 303.62906 389.81824
373.0 0.002681 303.61575 370.80157
354.0 0.002825 303.60233 360.15005
369.0 0.002710 303.58893 353.84567
378.0 0.002646 303.57547 352.78293
367.0 0.002725 303.56186 356.31738
364.0 0.002747 303.54828 365.10809
387.0 0.002584 303.53461 379.99170
455.0 0.002198 303.52084 399.66910
460.0 0.002174 303.50708 421.44901
465.0 0.002151 303.49326 436.19244
518.0 0.001931 303.47937 438.09030
432.0 0.002315 303.46545 438.54642
464.0 0.002155 303.45142 448.48743
493.0 0.002028 303.43744 469.24542
508.0 0.001969 303.42331 492.76715
533.0 0.001876 303.40915 502.45709
534.0 0.001873 303.39493 501.49307
528.0 0.001894 303.38065 514.48682
567.0 0.001764 303.36627 557.71490
661.0 0.001513 303.35193 627.12292
747.0 0.001339 303.33749 689.75946
744.0 0.001344 303.32297 701.38397
648.0 0.001543 303.30841 670.66638
614.0 0.001629 303.29382 623.24976
604.0 0.001656 303.27911 560.41791
472.0 0.002119 303.26437 497.74597
443.0 0.002257 303.24966 453.60187
414.0 0.002415 303.23486 431.62796
442.0 0.002262 303.21994 427.92017
453.0 0.002208 303.20499 434.28525
473.0 0.002114 303.19006 439.30902
446.0 0.002242 303.17493 440.59052
450.0 0.002222 303.15988 450.00266
481.0 0.002079 303.14474 477.20789
544.0 0.001838 303.12952 522.91046
571.0 0.001751 303.11426 570.67517
566.0 0.001767 303.09885 590.04028
559.0 0.001789 303.08356 578.67102
552.0 0.001812 303.06812 562.42609
552.0 0.001812 303.05264 554.76886
556.0 0.001799 303.03708 568.91541
659.0 0.001517 303.02148 616.94220
746.0 0.001340 303.00589 688.50745
772.0 0.001295 302.99014 739.70007
746.0 0.001340 302.97433 722.71655
625.0 0.001600 302.95856 642.87439
499.0 0.002004 302.94272 548.95343
441.0 0.002268 302.92682 475.74066
408.0 0.002451 302.91074 430.00912
402.0 0.002488 302.89474 406.80933
377.0 0.002653 302.87869 397.84009
370.0 0.002703 302.86252 394.54785
405.0 0.002469 302.84631 391.26215
399.0 0.002506 302.83014 391.55072
393.0 0.002545 302.81375 401.95413
420.0 0.002381 302.79745 428.66443
511.0 0.001957 302.78101 476.77609
587.0 0.001704 302.76453 545.35083
622.0 0.001608 302.74805 616.72528
649.0 0.001541 302.73148 655.55640
632.0 0.001582 302.71487 632.61395
525.0 0.001905 302.69815 562.11700
461.0 0.002169 302.68143 487.24222
409.0 0.002445 302.66464 431.17960
376.0 0.002660 302.64774 395.47314
381.0 0.002625 302.63089 374.35364
354.0 0.002825 302.61395 362.56570
324.0 0.003086 302.59702 357.09860
367.0 0.002725 302.57990 354.57761
370.0 0.002703 302.56277 352.14700
331.0 0.003021 302.54565 349.91565
358.0 0.002793 302.52844 350.94781
392.0 0.002551 302.51117 357.65680
363.0 0.002755 302.49384 370.01471
380.0 0.002632 302.47650 385.70782
388.0 0.002577 302.45908 394.23898
360.0 0.002778 302.44156 387.02792
338.0 0.002959 302.42401 370.28400
359.0 0.002786 302.40649 354.68976
369.0 0.002710 302.38882 344.05322
346.0 0.002890 302.37115 337.91083
315.0 0.003175 302.35336 334.94293
312.0 0.003205 302.33560 333.73730
345.0 0.002899 302.31781 333.07855
337.0 0.002967 302.29987 332.16595
364.0 0.002747 302.28195 330.03964
355.0 0.002817 302.26401 327.92007
343.0 0.002915 302.24594 326.71631
348.0 0.002874 302.22784 326.41321
315.0 0.003175 302.20963 327.42407
319.0 0.003135 302.19141 329.52682
328.0 0.003049 302.17319 333.05249
357.0 0.002801 302.15491 338.53720
371.0 0.002695 302.13657 347.60730
374.0 0.002674 302.11813 363.01831
423.0 0.002364 302.09964 387.61469
471.0 0.002123 302.08124 423.51422
517.0 0.001934 302.06259 467.49191
560.0 0.001786 302.04401 502.32343
578.0 0.001730 302.02539 507.27966
557.0 0.001795 302.00662 488.92740
519.0 0.001927 301.98785 475.07959
515.0 0.001942 301.96902 482.37711
554.0 0.001805 301.95020 511.30417
590.0 0.001695 301.93127 545.22827
574.0 0.001742 301.91232 552.78180
508.0 0.001969 301.89328 528.23907
498.0 0.002008 301.87418 501.22583
492.0 0.002033 301.85519 494.65829
509.0 0.001965 301.83597 515.15503
549.0 0.001821 301.81677 560.71521
631.0 0.001585 301.79755 613.85992
615.0 0.001626 301.77820 642.21686
601.0 0.001664 301.75882 626.89423
581.0 0.001721 301.73947 581.56982
548.0 0.001825 301.71994 527.92389
499.0 0.002004 301.70053 485.71674
479.0 0.002088 301.68097 467.82977
467.0 0.002141 301.66135 476.91290
531.0 0.001883 301.64166 507.46481
598.0 0.001672 301.62201 543.08038
540.0 0.001852 301.60226 557.91522
552.0 0.001812 301.58252 540.95392
542.0 0.001845 301.56265 508.18500
474.0 0.002110 301.54279 484.02808
475.0 0.002105 301.52283 478.51752
500.0 0.002000 301.50287 487.22717
465.0 0.002151 301.48276 493.77390
451.0 0.002217 301.46277 482.27948
443.0 0.002257 301.44263 454.56635
419.0 0.002387 301.42242 426.30609
370.0 0.002703 301.40225 409.08417
413.0 0.002421 301.38193 407.04004
446.0 0.002242 301.36160 421.36237
465.0 0.002151 301.34131 451.61182
467.0 0.002141 301.32089 492.93198
566.0 0.001767 301.30042 533.46539
576.0 0.001736 301.27997 564.52307
605.0 0.001653 301.25946 585.45966
611.0 0.001637 301.23883 588.43536
565.0 0.001770 301.21823 557.83105
510.0 0.001961 301.19757 504.40085
429.0 0.002331 301.17679 453.15179
394.0 0.002538 301.15610 414.74414
382.0 0.002618 301.13525 390.13339
360.0 0.002778 301.11441 377.14883
354.0 0.002825 301.09348 373.01337
367.0 0.002725 301.07257 376.29227
390.0 0.002564 301.05164 387.54663
410.0 0.002439 301.03058 409.42300
451.0 0.002217 301.00949 445.13089
501.0 0.001996 300.98837 496.87982
570.0 0.001754 300.96719 562.47754
672.0 0.001488 300.94595 636.70660
726.0 0.001377 300.92471 695.76007
690.0 0.001449 300.90344 698.67084
624.0 0.001603 300.88217 647.14087
573.0 0.001745 300.86078 584.12646
508.0 0.001969 300.83936 537.51471
486.0 0.002058 300.81784 511.61426
488.0 0.002049 300.79633 506.52213
532.0 0.001880 300.77484 523.96539
585.0 0.001709 300.75327 557.29309
580.0 0.001724 300.73163 590.44244
597.0 0.001675 300.70990 600.37701
569.0 0.001757 300.68820 577.02448
521.0 0.001919 300.66650 540.50568
485.0 0.002062 300.64471 511.62997
485.0 0.002062 300.62289 502.74887
533.0 0.001876 300.60098 512.34576
545.0 0.001835 300.57907 523.05487
518.0 0.001931 300.55713 516.87286
487.0 0.002053 300.53506 502.09897
469.0 0.002132 300.51309 498.39850
513.0 0.001949 300.49097 514.13202
585.0 0.001709 300.46887 543.62610
591.0 0.001692 300.44672 569.27063
577.0 0.001733 300.42453 570.59985
575.0 0.001739 300.40225 552.02887
551.0 0.001815 300.38000 528.79840
502.0 0.001992 300.35770 500.56552
467.0 0.002141 300.33542 465.21201
388.0 0.002577 300.31296 429.80771
365.0 0.002740 300.29053 400.64529
380.0 0.002632 300.26810 381.37561
372.0 0.002688 300.24554 370.25488
356.0 0.002809 300.22299 366.02734
387.0 0.002584 300.20041 366.88843
399.0 0.002506 300.17786 371.92737
394.0 0.002538 300.15518 381.90399
406.0 0.002463 300.13248 396.77350
415.0 0.002410 300.10974 415.20456
471.0 0.002123 300.08698 429.97803
479.0 0.002088 300.06421 429.04852
479.0 0.002088 300.04135 412.38937
418.0 0.002392 300.01846 388.69958
390.0 0.002564 299.99567 366.75732
363.0 0.002755 299.97263 350.94858
342.0 0.002924 299.94974 341.72430
361.0 0.002770 299.92664 338.43005
349.0 0.002865 299.90356 340.57120
380.0 0.002632 299.88052 346.76260
399.0 0.002506 299.85736 356.24509
420.0 0.002381 299.83423 365.45389
403.0 0.002481 299.81100 367.59177
369.0 0.002710 299.78778 360.75864
359.0 0.002786 299.76456 350.71054
347.0 0.002882 299.74121 342.61111
337.0 0.002967 299.71793 338.63300
369.0 0.002710 299.69461 337.54794
339.0 0.002950 299.67126 336.33133
314.0 0.003185 299.64780 332.99384
347.0 0.002882 299.62439 328.73300
366.0 0.002732 299.60089 325.33234
346.0 0.002890 299.57733 323.58459
340.0 0.002941 299.55383 323.81003
337.0 0.002967 299.53027 325.86179
318.0 0.003145 299.50662 330.49844
348.0 0.002874 299.48300 337.46625
366.0 0.002732 299.45926 344.66937
365.0 0.002740 299.43555 348.86447
343.0 0.002915 299.41187 348.19302
332.0 0.003012 299.38809 344.70886
335.0 0.002985 299.36432 341.38120
330.0 0.003030 299.34045 340.71289
358.0 0.002793 299.31662 343.93326
373.0 0.002681 299.29276 351.76550
377.0 0.002653 299.26883 364.69489
409.0 0.002445 299.24484 381.90259
401.0 0.002494 299.22089 400.87314
429.0 0.002331 299.19687 417.56378
450.0 0.002222 299.17288 432.51364
485.0 0.002062 299.14883 452.87854
507.0 0.001972 299.12466 481.48456
511.0 0.001957 299.10062 514.24963
588.0 0.001701 299.07648 552.53156
636.0 0.001572 299.05234 611.97095
703.0 0.001422 299.02808 698.82428
795.0 0.001258 299.00391 788.01996
801.0 0.001248 298.97961 818.30377
700.0 0.001429 298.95535 756.70410
538.0 0.001859 298.93109 651.11377
428.0 0.002336 298.90674 555.25214
440.0 0.002273 298.88242 488.85712
411.0 0.002433 298.85803 451.25775
465.0 0.002151 298.83362 434.46213
440.0 0.002273 298.80917 430.51068
424.0 0.002358 298.78473 435.41104
439.0 0.002278 298.76025 450.66519
469.0 0.002132 298.73575 477.22012
510.0 0.001961 298.71124 509.53671
522.0 0.001916 298.68671 537.09747
514.0 0.001946 298.66208 557.43530
558.0 0.001792 298.63751 581.77899
578.0 0.001730 298.61288 614.08728
573.0 0.001745 298.58826 634.05597
587.0 0.001704 298.56363 620.60718
567.0 0.001764 298.53897 592.90442
559.0 0.001789 298.51425 583.41034
607.0 0.001647 298.48947 605.87085
651.0 0.001536 298.46472 651.32172
731.0 0.001368 298.44000 684.48669
664.0 0.001506 298.41519 667.08978
565.0 0.001770 298.39038 612.25293
495.0 0.002020 298.36554 560.74738
494.0 0.002024 298.34064 531.80945
504.0 0.001984 298.31583 522.87769
503.0 0.001988 298.29092 518.75226
512.0 0.001953 298.26602 510.26205
505.0 0.001980 298.24109 503.09274
503.0 0.001988 298.21609 501.96558
509.0 0.001965 298.19116 498.42142
486.0 0.002058 298.16620 483.52844
464.0 0.002155 298.14117 467.55521
459.0 0.002179 298.11615 465.22379
478.0 0.002092 298.09109 482.82745
532.0 0.001880 298.06607 517.76947
574.0 0.001742 298.04092 554.81696
587.0 0.001704 298.01587 567.94196
548.0 0.001825 297.99072 552.24634
504.0 0.001984 297.96564 533.93304
521.0 0.001919 297.94046 534.73224
568.0 0.001761 297.91531 556.88879
578.0 0.001730 297.89017 583.37231
575.0 0.001739 297.86496 586.05182
540.0 0.001852 297.83972 558.36835
475.0 0.002105 297.81451 523.22223
446.0 0.002242 297.78931 496.47739
441.0 0.002268 297.76404 478.81888
479.0 0.002088 297.73877 469.83923
488.0 0.002049 297.71353 469.82413
476.0 0.002101 297.68829 468.30612
439.0 0.002278 297.66293 455.32635
421.0 0.002375 297.63760 434.48520
405.0 0.002469 297.61221 415.17523
378.0 0.002646 297.58685 400.52887
360.0 0.002778 297.56161 393.31668
388.0 0.002577 297.53619 395.72250
416.0 0.002404 297.51083 408.54227
436.0 0.002294 297.48541 427.30402
448.0 0.002232 297.46008 440.15137
429.0 0.002331 297.43466 435.01816
409.0 0.002445 297.40918 415.85529
382.0 0.002618 297.38379 397.09750
415.0 0.002410 297.35837 386.96823
391.0 0.002558 297.33282 388.82092
359.0 0.002786 297.30740 402.42468
421.0 0.002375 297.28195 423.60840
459.0 0.002179 297.25650 446.11667
493.0 0.002028 297.23099 463.68756
467.0 0.002141 297.20551 470.73627
436.0 0.002294 297.17999 459.31116
441.0 0.002268 297.15451 436.36816
419.0 0.002387 297.12897 417.42209
429.0 0.002331 297.10342 411.59933
451.0 0.002217 297.07788 419.59866
456.0 0.002193 297.05237 437.29974
502.0 0.001992 297.02686 459.15121
502.0 0.001992 297.00125 478.64514
503.0 0.001988 296.97565 481.74509
464.0 0.002155 296.95010 460.64932
438.0 0.002283 296.92459 428.77661
409.0 0.002445 296.89902 401.32156
371.0 0.002695 296.87344 384.68527
350.0 0.002857 296.84781 379.67230
390.0 0.002564 296.82224 384.32190
410.0 0.002439 296.79663 394.11331
412.0 0.002427 296.77106 401.31473
422.0 0.002370 296.74551 402.55334
411.0 0.002433 296.71985 403.75452
434.0 0.002304 296.69427 411.49304
441.0 0.002268 296.66864 424.19913
448.0 0.002232 296.64301 436.95245
447.0 0.002237 296.61743 446.25888
467.0 0.002141 296.59174 449.09286
442.0 0.002262 296.56616 443.41019
390.0 0.002564 296.54062 427.62018
384.0 0.002604 296.51495 404.34473
364.0 0.002747 296.48932 382.65298
325.0 0.003077 296.46371 367.13031
350.0 0.002857 296.43808 358.39719
371.0 0.002695 296.41254 354.90369
362.0 0.002762 296.38684 354.98215
368.0 0.002717 296.36127 358.00159
366.0 0.002732 296.33566 365.57669
398.0 0.002513 296.31003 378.83456
437.0 0.002288 296.28442 399.24774
443.0 0.002257 296.25882 429.83734
474.0 0.002110 296.23325 470.66217
540.0 0.001852 296.20767 520.15631
585.0 0.001709 296.18201 567.37054
617.0 0.001621 296.15646 589.07678
542.0 0.001845 296.13086 577.04608
520.0 0.001923 296.10535 557.37561
520.0 0.001923 296.07968 555.23981
584.0 0.001712 296.05411 574.09473
573.0 0.001745 296.02853 596.21460
547.0 0.001828 296.00293 595.51355
531.0 0.001883 295.97739 572.79462
524.0 0.001908 295.95184 545.80438
490.0 0.002041 295.92627 522.14142
469.0 0.002132 295.90082 506.47296
487.0 0.002053 295.87521 498.42831
491.0 0.002037 295.84964 489.17957
420.0 0.002381 295.82416 475.99512
437.0 0.002288 295.79861 468.16479
481.0 0.002079 295.77316 472.00638
449.0 0.002227 295.74765 482.68820
446.0 0.002242 295.72217 488.07861
487.0 0.002053 295.69662 486.54843
502.0 0.001992 295.67117 492.19324
537.0 0.001862 295.64578 514.73450
573.0 0.001745 295.62027 551.16888
584.0 0.001712 295.59488 579.76892
557.0 0.001795 295.56946 573.91241
515.0 0.001942 295.54401 537.84100
474.0 0.002110 295.51855 495.40442
440.0 0.002273 295.49316 459.30075
418.0 0.002392 295.46780 433.81860
379.0 0.002639 295.44244 417.29776
367.0 0.002725 295.41705 402.53357
347.0 0.002882 295.39172 387.07004
355.0 0.002817 295.36636 374.62616
366.0 0.002732 295.34106 368.41675
379.0 0.002639 295.31570 370.03049
397.0 0.002519 295.29047 380.03818
423.0 0.002364 295.26517 398.40952
441.0 0.002268 295.23987 422.88361
486.0 0.002058 295.21457 445.38794
491.0 0.002037 295.18939 455.26709
465.0 0.002151 295.16409 449.59744
430.0 0.002326 295.13898 431.48547
398.0 0.002513 295.11371 408.16992
383.0 0.002611 295.08856 389.26544
370.0 0.002703 295.06342 379.49533
381.0 0.002625 295.03827 381.08038
419.0 0.002387 295.01312 395.36313
455.0 0.002198 294.98807 424.04550
553.0 0.001808 294.96292 467.22513
606.0 0.001650 294.93790 519.37164
639.0 0.001565 294.91284 563.44025
625.0 0.001600 294.88779 583.03046
568.0 0.001761 294.86270 581.05450
533.0 0.001876 294.83771 561.87140
554.0 0.001805 294.81277 530.72528
466.0 0.002146 294.78784 497.63217
409.0 0.002445 294.76291 467.51123
454.0 0.002203 294.73795 444.93945
429.0 0.002331 294.71307 435.53391
435.0 0.002299 294.68817 439.44482
402.0 0.002488 294.66330 448.49002
431.0 0.002320 294.63849 448.98203
422.0 0.002370 294.61362 435.63538
376.0 0.002660 294.58890 419.31442
421.0 0.002375 294.56409 411.45447
449.0 0.002227 294.53937 415.66760
448.0 0.002232 294.51468 429.63226
499.0 0.002004 294.48996 443.61050
485.0 0.002062 294.46533 447.53717
449.0 0.002227 294.44067 441.19739
407.0 0.002457 294.41595 426.21521
418.0 0.002392 294.39142 405.29974
362.0 0.002762 294.36688 385.06702
331.0 0.003021 294.34225 370.34851
366.0 0.002732 294.31778 362.74136
391.0 0.002558 294.29324 362.35904
391.0 0.002558 294.26883 368.63266
403.0 0.002481 294.24445 376.56512
364.0 0.002747 294.21991 378.52054
356.0 0.002809 294.19562 370.58221
359.0 0.002786 294.17120 358.51938
367.0 0.002725 294.14691 348.84299
353.0 0.002833 294.12259 344.24292
348.0 0.002874 294.09830 344.89871
346.0 0.002890 294.07401 348.52460
340.0 0.002941 294.04984 350.72916
337.0 0.002967 294.02567 348.32971
352.0 0.002841 294.00150 343.62057
318.0 0.003145 293.97736 340.47028
344.0 0.002907 293.95328 340.44843
355.0 0.002817 293.92926 342.31067
330.0 0.003030 293.90518 343.99411
327.0 0.003058 293.88120 346.08948
348.0 0.002874 293.85724 351.96521
389.0 0.002571 293.83325 364.16736
399.0 0.002506 293.80936 382.93851
408.0 0.002451 293.78549 404.86511
415.0 0.002410 293.76166 421.12582
404.0 0.002475 293.73785 422.14203
413.0 0.002421 293.71411 409.04770
395.0 0.002532 293.69040 390.00604
373.0 0.002681 293.66666 372.07489
346.0 0.002890 293.64297 357.89246
328.0 0.003049 293.61935 346.53296
325.0 0.003077 293.59579 337.48108
352.0 0.002841 293.57220 331.90674
342.0 0.002924 293.54871 330.11920
315.0 0.003175 293.52518 331.28424
332.0 0.003012 293.50168 334.47537
347.0 0.002882 293.47830 339.45169
345.0 0.002899 293.45493 347.83801
398.0 0.002513 293.43161 360.40778
365.0 0.002740 293.40826 374.84775
384.0 0.002604 293.38507 385.62134
364.0 0.002747 293.36185 388.38129
360.0 0.002778 293.33862 381.97824
350.0 0.002857 293.31549 368.49237
373.0 0.002681 293.29233 352.39157
331.0 0.003021 293.26935 337.56699
313.0 0.003195 293.24622 326.14658
329.0 0.003040 293.22327 318.39514
343.0 0.002915 293.20029 313.46057
331.0 0.003021 293.17743 310.65491
280.0 0.00357 293.15457 309.45572
318.0 0.003145 293.13171 309.39917
327.0 0.003058 293.10886 310.58215
307.0 0.003257 293.08621 313.02423
329.0 0.003040 293.06357 316.80679
282.0 0.00355 293.04086 322.10901
365.0 0.002740 293.01822 328.14996
345.0 0.002899 292.99570 333.35986
327.0 0.003058 292.97314 337.60461
380.0 0.002632 292.95071 343.03979
403.0 0.002481 292.92825 352.11530
384.0 0.002604 292.90585 364.18521
397.0 0.002519 292.88351 373.95877
370.0 0.002703 292.86127 373.71890
352.0 0.002841 292.83893 363.00885
342.0 0.002924 292.81680 349.70978
333.0 0.003003 292.79459 339.59152
336.0 0.002976 292.77249 335.01984
348.0 0.002874 292.75043 336.76031
376.0 0.002660 292.72839 344.59888
384.0 0.002604 292.70648 357.68170
420.0 0.002381 292.68451 372.57367
419.0 0.002387 292.66266 382.13205
384.0 0.002604 292.64084 379.46039
395.0 0.002532 292.61902 367.41376
359.0 0.002786 292.59732 354.72168
338.0 0.002959 292.57568 346.35995
335.0 0.002985 292.55399 343.22372
334.0 0.002994 292.53250 345.32925
341.0 0.002933 292.51089 349.89267
348.0 0.002874 292.48941 352.30634
333.0 0.003003 292.46805 349.39178
309.0 0.003236 292.44666 343.83508
338.0 0.002959 292.42535 339.90094
346.0 0.002890 292.40408 339.95361
358.0 0.002793 292.38287 345.87744
395.0 0.002532 292.36169 359.34296
403.0 0.002481 292.34061 381.70776
421.0 0.002375 292.31955 412.92932
457.0 0.002188 292.29852 449.03287
493.0 0.002028 292.27762 478.82355
489.0 0.002045 292.25671 489.92850
474.0 0.002110 292.23587 485.34137
497.0 0.002012 292.21512 478.53268
478.0 0.002092 292.19437 472.26944
444.0 0.002252 292.17371 458.09351
386.0 0.002591 292.15308 432.59845
378.0 0.002646 292.13248 402.99307
344.0 0.002907 292.11206 377.45099
301.0 0.003322 292.09158 358.66281
332.0 0.003012 292.07111 347.13589
324.0 0.003086 292.05081 342.04434
338.0 0.002959 292.03058 342.69287
329.0 0.003040 292.01038 349.36563
365.0 0.002740 291.99014 363.03210
372.0 0.002688 291.97006 384.58649
405.0 0.002469 291.95004 412.91898
436.0 0.002294 291.93005 442.13531
461.0 0.002169 291.91010 459.95389
450.0 0.002222 291.89023 458.05157
420.0 0.002381 291.87054 444.17374
438.0 0.002283 291.85074 430.23941
395.0 0.002532 291.83102 418.70724
354.0 0.002825 291.81143 406.59271
408.0 0.002451 291.79184 394.18430
384.0 0.002604 291.77240 385.39832
373.0 0.002681 291.75293 381.57233
355.0 0.002817 291.73355 379.70822
339.0 0.002950 291.71423 375.92752
379.0 0.002639 291.69507 370.96420
365.0 0.002740 291.67584 368.92700
339.0 0.002950 291.65671 372.19327
388.0 0.002577 291.63766 380.31573
369.0 0.002710 291.61871 390.43546
379.0 0.002639 291.59973 401.00482
418.0 0.002392 291.58087 412.86185
461.0 0.002169 291.56210 427.14587
450.0 0.002222 291.54343 445.89078
472.0 0.002119 291.52472 471.94556
497.0 0.002012 291.50613 502.16312
510.0 0.001961 291.48755 524.58862
497.0 0.002012 291.46912 527.81982
480.0 0.002083 291.45071 513.26068
442.0 0.002262 291.43240 495.34787
447.0 0.002237 291.41409 483.91202
458.0 0.002183 291.39597 477.91629
463.0 0.002160 291.37784 474.12540
497.0 0.002012 291.35971 472.84250
511.0 0.001957 291.34174 471.52075
457.0 0.002188 291.32382 464.27432
420.0 0.002381 291.30600 451.12943
419.0 0.002387 291.28815 439.46762
427.0 0.002342 291.27045 436.83173
451.0 0.002217 291.25287 448.21387
503.0 0.001988 291.23532 474.32532
518.0 0.001931 291.21777 509.81024
565.0 0.001770 291.20032 544.12726
569.0 0.001757 291.18295 567.24036
543.0 0.001842 291.16571 571.75830
545.0 0.001835 291.14847 558.29114
531.0 0.001883 291.13135 540.21094
528.0 0.001894 291.11426 529.87158
555.0 0.001802 291.09726 526.28796
523.0 0.001912 291.08035 516.92200
460.0 0.002174 291.06348 496.01956
481.0 0.002079 291.04675 472.17224
468.0 0.002137 291.02991 452.28467
421.0 0.002375 291.01337 437.07489
432.0 0.002315 290.99686 427.59973
503.0 0.001988 290.98026 425.61069
462.0 0.002165 290.96399 429.24115
474.0 0.002110 290.94763 433.73254
457.0 0.002188 290.93134 436.55655
467.0 0.002141 290.91516 435.78070
424.0 0.002358 290.89908 429.95901
379.0 0.002639 290.88306 419.71463
387.0 0.002584 290.86713 406.40265
392.0 0.002551 290.85123 393.00284
374.0 0.002674 290.83548 384.26932
372.0 0.002688 290.81973 381.57620
371.0 0.002695 290.80405 381.21320
365.0 0.002740 290.78848 376.84341
372.0 0.002688 290.77304 366.14087
362.0 0.002762 290.75766 353.67136
350.0 0.002857 290.74231 343.94702
335.0 0.002985 290.72708 338.75906
346.0 0.002890 290.71194 338.33630
348.0 0.002874 290.69684 341.29938
350.0 0.002857 290.68182 345.10718
397.0 0.002519 290.66690 346.68460
305.0 0.003279 290.65204 344.76871
334.0 0.002994 290.63733 339.46658
312.0 0.003205 290.62262 331.80835
329.0 0.003040 290.60806 324.54718
307.0 0.003257 290.59351 319.58319
315.0 0.003175 290.57910 317.02612
328.0 0.003049 290.56473 316.67114
324.0 0.003086 290.55045 318.20633
328.0 0.003049 290.53625 320.90939
335.0 0.002985 290.52222 323.60486
336.0 0.002976 290.50818 325.14706
312.0 0.003205 290.49417 326.59799
335.0 0.002985 290.48038 328.59427
332.0 0.003012 290.46661 331.47400
326.0 0.003067 290.45294 336.27185
347.0 0.002882 290.43930 344.59799
371.0 0.002695 290.42578 357.17612
404.0 0.002475 290.41245 372.10056
417.0 0.002398 290.39911 383.53436
411.0 0.002433 290.38586 383.81674
383.0 0.002611 290.37265 373.60498
352.0 0.002841 290.35965 360.68381
342.0 0.002924 290.34656 351.34061
334.0 0.002994 290.33365 347.74725
336.0 0.002976 290.32083 350.24597
362.0 0.002762 290.30807 357.28436
362.0 0.002762 290.29547 367.32108
359.0 0.002786 290.28293 378.31415
390.0 0.002564 290.27051 391.81732
440.0 0.002273 290.25809 411.94376
479.0 0.002088 290.24582 439.37875
473.0 0.002114 290.23358 468.08105
491.0 0.002037 290.22144 486.70605
529.0 0.001890 290.20947 490.83481
489.0 0.002045 290.19754 484.30722
441.0 0.002268 290.18564 468.29800
452.0 0.002212 290.17392 444.60736
378.0 0.002646 290.16226 417.70413
382.0 0.002618 290.15076 391.70004
358.0 0.002793 290.13922 370.39410
371.0 0.002695 290.12790 355.51733
344.0 0.002907 290.11652 346.62903
326.0 0.003067 290.10535 343.01804
326.0 0.003067 290.09424 343.70483
358.0 0.002793 290.08319 348.05746
357.0 0.002801 290.07230 355.35672
327.0 0.003058 290.06146 366.64392
375.0 0.002667 290.05078 383.56940
369.0 0.002710 290.04007 405.69305
394.0 0.002538 290.02954 427.40210
436.0 0.002294 290.01910 438.52197
450.0 0.002222 290.00873 434.96008
400.0 0.002500 289.99847 422.60690
360.0 0.002778 289.98831 406.80872
368.0 0.002717 289.97818 390.34717
365.0 0.002740 289.96820 376.36331
354.0 0.002825 289.95828 366.78763
329.0 0.003040 289.94849 360.82043
359.0 0.002786 289.93878 355.72198
369.0 0.002710 289.92926 349.61261
341.0 0.002933 289.91977 343.85760
332.0 0.003012 289.91031 340.77109
356.0 0.002809 289.90103 341.54581
350.0 0.002857 289.89182 346.56787
343.0 0.002915 289.88269 355.77948
375.0 0.002667 289.87372 369.45786
389.0 0.002571 289.86475 388.22165
405.0 0.002469 289.85596 411.20123
440.0 0.002273 289.84720 432.80209
432.0 0.002315 289.83862 442.70621
405.0 0.002469 289.83008 433.68103
383.0 0.002611 289.82162 411.39307
383.0 0.002611 289.81329 387.83325
353.0 0.002833 289.80511 369.81384
352.0 0.002841 289.79697 358.55258
374.0 0.002674 289.78891 352.96460
361.0 0.002770 289.78101 350.85214
344.0 0.002907 289.77319 350.43198
359.0 0.002786 289.76544 351.67450
375.0 0.002667 289.75781 355.06009
381.0 0.002625 289.75027 360.02356
397.0 0.002519 289.74286 366.23102
389.0 0.002571 289.73550 374.82416
375.0 0.002667 289.72830 388.65976
397.0 0.002519 289.72119 408.98688
466.0 0.002146 289.71414 433.69089
453.0 0.002208 289.70724 455.58606
456.0 0.002193 289.70050 466.26239
460.0 0.002174 289.69379 464.41486
445.0 0.002247 289.68713 457.61197
441.0 0.002268 289.68069 454.96179
460.0 0.002174 289.67426 459.71677
470.0 0.002128 289.66800 466.32376
482.0 0.002075 289.66174 467.28766
482.0 0.002075 289.65570 463.88858
505.0 0.001980 289.64975 459.75961
448.0 0.002232 289.64383 453.05701
449.0 0.002227 289.63806 441.49600
442.0 0.002262 289.63239 426.53586
367.0 0.002725 289.62683 409.41937
362.0 0.002762 289.62137 392.43384
386.0 0.002591 289.61600 379.15137
379.0 0.002639 289.61075 372.21695
400.0 0.002500 289.60562 371.26547
339.0 0.002950 289.60059 373.52878
391.0 0.002558 289.59567 374.75385
386.0 0.002591 289.59079 373.82419
387.0 0.002584 289.58612 374.04456
369.0 0.002710 289.58151 379.03546
394.0 0.002538 289.57700 389.13876
392.0 0.002551 289.57266 400.60010
400.0 0.002500 289.56836 406.62128
433.0 0.002309 289.56415 404.59448
397.0 0.002519 289.56012 398.98029
398.0 0.002513 289.55615 392.62732
370.0 0.002703 289.55231 385.27057
395.0 0.002532 289.54861 377.28662
353.0 0.002833 289.54489 370.36517
347.0 0.002882 289.54138 365.73730
331.0 0.003021 289.53802 365.20004
325.0 0.003077 289.53470 370.11475
355.0 0.002817 289.53146 379.85333
405.0 0.002469 289.52844 390.47626
433.0 0.002309 289.52545 394.95102
390.0 0.002564 289.52261 389.68811
373.0 0.002681 289.51981 379.90439
396.0 0.002525 289.51715 372.77747
384.0 0.002604 289.51462 371.93149
399.0 0.002506 289.51224 377.50510
411.0 0.002433 289.50995 386.54083
401.0 0.002494 289.50778 392.86038
396.0 0.002525 289.50565 390.60843
383.0 0.002611 289.50363 380.28000
348.0 0.002874 289.50174 368.02151
340.0 0.002941 289.50006 359.06461
342.0 0.002924 289.49835 355.62109
339.0 0.002950 289.49689 358.69376
370.0 0.002703 289.49545 367.61850
398.0 0.002513 289.49414 380.46271
397.0 0.002519 289.49298 393.44183
408.0 0.002451 289.49185 403.07236
436.0 0.002294 289.49088 409.57135
435.0 0.002299 289.49005 414.57300
410.0 0.002439 289.48932 420.70645
440.0 0.002273 289.48871 432.16507
431.0 0.002320 289.48819 451.56601
455.0 0.002198 289.48779 479.33234
520.0 0.001923 289.48755 510.76801
564.0 0.001773 289.48737 533.33325
513.0 0.001949 289.48737 532.82153
497.0 0.002012 289.48740 511.87509
470.0 0.002128 289.48755 487.43280
426.0 0.002347 289.48788 473.56458
478.0 0.002092 289.48828 476.21771
504.0 0.001984 289.48880 495.01849
571.0 0.001751 289.48944 522.73608
514.0 0.001946 289.49023 545.41296
515.0 0.001942 289.49106 552.17230
497.0 0.002012 289.49197 549.58850
560.0 0.001786 289.49313 550.45209
550.0 0.001818 289.49435 561.70941
602.0 0.001661 289.49573 582.27319
620.0 0.001613 289.49716 603.66876
588.0 0.001701 289.49872 608.82831
542.0 0.001845 289.50046 589.54974
553.0 0.001808 289.50223 559.08197
518.0 0.001931 289.50415 531.91327
529.0 0.001890 289.50620 510.06433
476.0 0.002101 289.50836 488.96915
443.0 0.002257 289.51062 468.51645
431.0 0.002320 289.51300 451.06546
430.0 0.002326 289.51547 436.81876
432.0 0.002315 289.51816 427.95395
398.0 0.002513 289.52097 426.33032
404.0 0.002475 289.52374 429.80545
388.0 0.002577 289.52682 431.93915
407.0 0.002457 289.52985 427.91870
428.0 0.002336 289.53308 421.73740
395.0 0.002532 289.53638 419.57767
383.0 0.002611 289.53989 423.60641
404.0 0.002475 289.54343 432.10352
440.0 0.002273 289.54715 439.85892
431.0 0.002320 289.55099 438.51514
421.0 0.002375 289.55493 424.40460
429.0 0.002331 289.55896 404.21338
401.0 0.002494 289.56317 386.37656
377.0 0.002653 289.56747 374.31696
389.0 0.002571 289.57184 367.28931
404.0 0.002475 289.57645 362.54752
372.0 0.002688 289.58112 356.85355
324.0 0.003086 289.58585 349.15436
338.0 0.002959 289.59076 340.86725
327.0 0.003058 289.59576 334.06326
319.0 0.003135 289.60089 329.90216
330.0 0.003030 289.60614 328.74039
314.0 0.003185 289.61157 330.43829
318.0 0.003145 289.61710 334.56036
346.0 0.002890 289.62268 339.90274
340.0 0.002941 289.62845 343.99664
336.0 0.002976 289.63434 344.64206
355.0 0.002817 289.64032 342.65308
343.0 0.002915 289.64642 340.67990
312.0 0.003205 289.65268 340.38785
335.0 0.002985 289.65903 341.63480
322.0 0.003106 289.66553 343.31659
324.0 0.003086 289.67212 345.33081
333.0 0.003003 289.67886 348.54395
358.0 0.002793 289.68570 354.56540
381.0 0.002625 289.69266 365.18039
375.0 0.002667 289.69974 382.97986
424.0 0.002358 289.70700 409.88947
463.0 0.002160 289.71432 445.52380
530.0 0.001887 289.72177 484.55566
523.0 0.001912 289.72937 514.12140
477.0 0.002096 289.73709 520.15436
440.0 0.002273 289.74490 504.13458
462.0 0.002165 289.75287 483.13934
444.0 0.002252 289.76096 469.78732
450.0 0.002222 289.76913 467.59784
520.0 0.001923 289.77750 473.95340
586.0 0.001706 289.78592 480.15793
455.0 0.002198 289.79453 475.11368
447.0 0.002237 289.80325 458.41275
469.0 0.002132 289.81204 439.05206
439.0 0.002278 289.82095 424.78494
419.0 0.002387 289.83005 417.93561
479.0 0.002088 289.83926 415.84940
403.0 0.002481 289.84860 412.89822
423.0 0.002364 289.85800 408.53183
404.0 0.002475 289.86758 406.51324
413.0 0.002421 289.87732 410.41776
457.0 0.002188 289.88708 419.55469
441.0 0.002268 289.89706 428.43741
399.0 0.002506 289.90717 429.30710
380.0 0.002632 289.91733 419.79865
394.0 0.002538 289.92770 406.79181
391.0 0.002558 289.93811 397.30939
415.0 0.002410 289.94873 394.44324
432.0 0.002315 289.95938 396.95581
414.0 0.002415 289.97021 400.44669
413.0 0.002421 289.98117 398.58548
408.0 0.002451 289.99225 389.85263
392.0 0.002551 290.00342 378.87073
403.0 0.002481 290.01474 371.02722
409.0 0.002445 290.02621 368.62262
377.0 0.002653 290.03775 370.97278
353.0 0.002833 290.04944 375.07135
394.0 0.002538 290.06134 378.62430
400.0 0.002500 290.07330 381.04678
382.0 0.002618 290.08539 381.51459
376.0 0.002660 290.09756 377.85812
363.0 0.002755 290.10989 370.54767
348.0 0.002874 290.12238 360.75278
351.0 0.002849 290.13489 349.91516
355.0 0.002817 290.14767 339.55368
343.0 0.002915 290.16052 331.05353
340.0 0.002941 290.17349 324.97449
322.0 0.003106 290.18658 320.78217
319.0 0.003135 290.19980 317.71539
318.0 0.003145 290.21317 315.07846
334.0 0.002994 290.22662 312.83429
311.0 0.003215 290.24026 311.34885
301.0 0.003322 290.25391 310.88651
339.0 0.002950 290.26782 311.64838
331.0 0.003021 290.28180 313.96884
337.0 0.002967 290.29587 317.98926
356.0 0.002809 290.31012 323.84979
348.0 0.002874 290.32452 331.49133
377.0 0.002653 290.33902 339.93732
351.0 0.002849 290.35364 347.46405
335.0 0.002985 290.36835 352.48477
361.0 0.002770 290.38324 354.73212
337.0 0.002967 290.39822 352.68857
356.0 0.002809 290.41333 345.76840
329.0 0.003040 290.42856 336.26016
339.0 0.002950 290.44400 327.19553
321.0 0.003115 290.45953 320.16690
315.0 0.003175 290.47516 315.51675
340.0 0.002941 290.49094 313.10440
303.0 0.003300 290.50681 312.62589
287.0 0.003484 290.52283 313.81470
319.0 0.003135 290.53888 316.69748
295.0 0.003390 290.55521 321.07962
338.0 0.002959 290.57162 326.74359
335.0 0.002985 290.58820 333.18326
335.0 0.002985 290.60486 340.23599
356.0 0.002809 290.62161 349.30283
377.0 0.002653 290.63852 360.24854
391.0 0.002558 290.65558 370.46048
399.0 0.002506 290.67279 375.33887
395.0 0.002532 290.69009 372.53992
368.0 0.002717 290.70746 363.89633
363.0 0.002755 290.72507 352.75961
357.0 0.002801 290.74271 341.37076
341.0 0.002933 290.76053 331.59039
340.0 0.002941 290.77847 324.40866
349.0 0.002865 290.79651 319.96518
344.0 0.002907 290.81476 317.74622
310.0 0.003226 290.83301 317.63010
332.0 0.003012 290.85150 319.27527
336.0 0.002976 290.87009 323.13638
311.0 0.003215 290.88876 329.23889
318.0 0.003145 290.90765 337.93243
364.0 0.002747 290.92664 348.92792
407.0 0.002457 290.94574 361.04733
403.0 0.002481 290.96494 372.21170
398.0 0.002513 290.98428 379.62164
396.0 0.002525 291.00375 382.19861
364.0 0.002747 291.02332 381.23279
387.0 0.002584 291.04306 377.82037
409.0 0.002445 291.06287 373.78448
395.0 0.002532 291.08295 372.39584
380.0 0.002632 291.10303 377.04501
400.0 0.002500 291.12326 389.92053
438.0 0.002283 291.14368 413.03903
463.0 0.002160 291.16415 447.35532
533.0 0.001876 291.18475 491.40991
586.0 0.001706 291.20560 539.07770
652.0 0.001534 291.22641 580.42010
668.0 0.001497 291.24741 607.12024
621.0 0.001610 291.26855 613.67194
583.0 0.001715 291.28989 596.35742
528.0 0.001894 291.31122 559.33691
483.0 0.002070 291.33270 514.71124
445.0 0.002247 291.35440 473.31744
439.0 0.002278 291.37619 440.42563
421.0 0.002375 291.39813 415.79221
406.0 0.002463 291.42014 397.78491
369.0 0.002710 291.44226 384.29480
405.0 0.002469 291.46463 375.09897
386.0 0.002591 291.48706 370.76392
358.0 0.002793 291.50952 371.94214
378.0 0.002646 291.53226 378.94901
378.0 0.002646 291.55511 391.01828
412.0 0.002427 291.57797 406.70566
401.0 0.002494 291.60098 424.01678
464.0 0.002155 291.62424 442.71991
471.0 0.002123 291.64758 462.21826
489.0 0.002045 291.67096 479.40546
496.0 0.002016 291.69458 490.85638
494.0 0.002024 291.71826 493.82291
479.0 0.002088 291.74210 486.53668
446.0 0.002242 291.76605 472.44931
467.0 0.002141 291.79004 459.05786
447.0 0.002237 291.81430 452.64151
459.0 0.002179 291.83865 455.99994
510.0 0.001961 291.86316 468.03387
506.0 0.001976 291.88776 482.67615
508.0 0.001969 291.91241 487.90738
450.0 0.002222 291.93732 475.52887
437.0 0.002288 291.96225 450.70859
391.0 0.002558 291.98740 424.53198
367.0 0.002725 292.01254 403.96649
394.0 0.002538 292.03790 390.99091
397.0 0.002519 292.06342 384.58542
363.0 0.002755 292.08905 382.99106
370.0 0.002703 292.11478 385.44977
388.0 0.002577 292.14063 391.78015
383.0 0.002611 292.16660 401.28915
385.0 0.002597 292.19275 413.94427
446.0 0.002242 292.21902 430.82565
461.0 0.002169 292.24533 452.03519
470.0 0.002128 292.27185 474.39099
535.0 0.001869 292.29840 494.18863
559.0 0.001789 292.32520 510.26993
564.0 0.001773 292.35205 522.09656
592.0 0.001689 292.37909 527.45264
557.0 0.001795 292.40628 524.03241
494.0 0.002024 292.43350 510.41138
484.0 0.002066 292.46091 488.31680
453.0 0.002208 292.48837 464.28647
425.0 0.002353 292.51602 445.34271
408.0 0.002451 292.54376 433.58768
403.0 0.002481 292.57166 426.56497
395.0 0.002532 292.59967 420.50797
343.0 0.002915 292.62778 416.08832
387.0 0.002584 292.65604 416.97287
416.0 0.002404 292.68445 425.81580
430.0 0.002326 292.71292 442.58258
499.0 0.002004 292.74158 464.70404
535.0 0.001869 292.77032 486.11230
500.0 0.002000 292.79919 497.88571
484.0 0.002066 292.82828 495.09894
472.0 0.002119 292.85745 482.18921
467.0 0.002141 292.88666 465.83246
441.0 0.002268 292.91608 449.73618
458.0 0.002183 292.94556 435.52927
427.0 0.002342 292.97522 422.43866
411.0 0.002433 293.00497 411.41660
385.0 0.002597 293.03488 405.32257
399.0 0.002506 293.06494 407.19061
440.0 0.002273 293.09506 419.26379
446.0 0.002242 293.12534 442.06006
524.0 0.001908 293.15573 473.32507
573.0 0.001745 293.18625 507.72946
608.0 0.001645 293.21686 535.38306
589.0 0.001698 293.24768 544.03357
529.0 0.001890 293.27847 529.77631
491.0 0.002037 293.30948 503.90384
469.0 0.002132 293.34064 479.48526
435.0 0.002299 293.37189 461.34802
466.0 0.002146 293.40332 446.65021
443.0 0.002257 293.43475 430.88132
407.0 0.002457 293.46640 412.62271
388.0 0.002577 293.49820 393.30380
364.0 0.002747 293.53000 375.48346
338.0 0.002959 293.56201 361.18283
330.0 0.003030 293.59421 351.07803
366.0 0.002732 293.62637 345.02838
344.0 0.002907 293.65878 342.90216
324.0 0.003086 293.69125 344.61792
331.0 0.003021 293.72394 350.50522
363.0 0.002755 293.75668 360.99597
400.0 0.002500 293.78946 376.10196
416.0 0.002404 293.82254 395.65808
457.0 0.002188 293.85556 416.54861
464.0 0.002155 293.88882 432.97208
457.0 0.002188 293.92218 440.12958
454.0 0.002203 293.95566 440.49838
433.0 0.002309 293.98923 440.02066
431.0 0.002320 294.02292 440.31430
423.0 0.002364 294.05682 437.17310
398.0 0.002513 294.09073 427.08817
394.0 0.002538 294.12482 412.22153
397.0 0.002519 294.15900 397.28922
384.0 0.002604 294.19339 386.02936
378.0 0.002646 294.22778 380.49927
398.0 0.002513 294.26239 381.47708
413.0 0.002421 294.29703 388.32446
408.0 0.002451 294.33188 398.87646
432.0 0.002315 294.36676 410.66550
449.0 0.002227 294.40189 422.27490
485.0 0.002062 294.43701 433.06027
480.0 0.002083 294.47226 439.14481
446.0 0.002242 294.50769 436.36984
406.0 0.002463 294.54324 425.20477
409.0 0.002445 294.57889 412.13965
392.0 0.002551 294.61469 403.36575
403.0 0.002481 294.65048 402.21021
405.0 0.002469 294.68655 408.95917
422.0 0.002370 294.72269 421.29352
436.0 0.002294 294.75897 433.15576
450.0 0.002222 294.79532 436.89865
389.0 0.002571 294.83176 430.46732
375.0 0.002667 294.86841 418.93427
349.0 0.002865 294.90512 408.48367
389.0 0.002571 294.94202 403.04373
366.0 0.002732 294.97900 405.35678
400.0 0.002500 295.01599 415.08865
387.0 0.002584 295.05319 429.08340
429.0 0.002331 295.09048 440.99548
385.0 0.002597 295.12796 444.94821
393.0 0.002545 295.16556 441.60617
419.0 0.002387 295.20316 435.63675
436.0 0.002294 295.24097 429.03879
392.0 0.002551 295.27890 421.66852
416.0 0.002404 295.31696 414.67282
443.0 0.002257 295.35507 410.04929
384.0 0.002604 295.39328 408.24100
409.0 0.002445 295.43179 407.03174
406.0 0.002463 295.47021 402.91678
395.0 0.002532 295.50876 395.99783
361.0 0.002770 295.54758 387.17444
356.0 0.002809 295.58636 377.06720
343.0 0.002915 295.62531 366.55930
338.0 0.002959 295.66440 357.26608
328.0 0.003049 295.70358 350.27576
328.0 0.003049 295.74295 346.51480
339.0 0.002950 295.78232 346.16345
331.0 0.003021 295.82190 348.50137
332.0 0.003012 295.86151 351.66788
317.0 0.003155 295.90131 352.78964
322.0 0.003106 295.94122 350.05359
317.0 0.003155 295.98111 344.69904
313.0 0.003195 296.02130 339.39331
312.0 0.003205 296.06149 335.87564
328.0 0.003049 296.10190 334.61581
325.0 0.003077 296.14233 335.28613
316.0 0.003165 296.18280 337.30682
330.0 0.003030 296.22360 339.61572
329.0 0.003040 296.26440 340.42581
311.0 0.003215 296.30533 338.57507
320.0 0.003125 296.34631 335.35822
343.0 0.002915 296.38748 332.63321
347.0 0.002882 296.42871 331.93967
346.0 0.002890 296.47012 333.98306
341.0 0.002933 296.51157 338.74435
369.0 0.002710 296.55316 345.25366
379.0 0.002639 296.59482 351.37106
374.0 0.002674 296.63669 353.79846
370.0 0.002703 296.67862 350.76202
340.0 0.002941 296.72061 344.02728
345.0 0.002899 296.76282 336.69217
323.0 0.003096 296.80505 330.75165
331.0 0.003021 296.84747 326.79019
332.0 0.003012 296.88992 324.75009
310.0 0.003226 296.93256 323.70804
322.0 0.003106 296.97525 322.90189
320.0 0.003125 297.01810 322.35687
315.0 0.003175 297.06104 322.61661
318.0 0.003145 297.10406 324.66678
356.0 0.002809 297.14716 328.48380
306.0 0.003268 297.19052 333.85361
368.0 0.002717 297.23383 339.64319
375.0 0.002667 297.27734 343.73486
361.0 0.002770 297.32092 344.36368
346.0 0.002890 297.36465 342.26190
375.0 0.002667 297.40848 339.49527
318.0 0.003145 297.45239 337.80637
341.0 0.002933 297.49646 336.71487
332.0 0.003012 297.54053 335.01563
335.0 0.002985 297.58481 331.35956
341.0 0.002933 297.62912 326.65271
335.0 0.002985 297.67358 322.17441
313.0 0.003195 297.71820 318.69986
299.0 0.003344 297.76288 316.38177
340.0 0.002941 297.80771 315.14548
302.0 0.003311 297.85263 314.32333
325.0 0.003077 297.89755 313.82306
317.0 0.003155 297.94269 313.39136
321.0 0.003115 297.98798 313.50140
334.0 0.002994 298.03326 314.36945
333.0 0.003003 298.07874 316.14673
313.0 0.003195 298.12421 318.62729
313.0 0.003195 298.16986 321.28653
348.0 0.002874 298.21561 322.95914
347.0 0.002882 298.26154 322.58298
309.0 0.003236 298.30750 320.58945
337.0 0.002967 298.35352 317.92041
335.0 0.002985 298.39975 315.49655
317.0 0.003155 298.44595 313.75598
325.0 0.003077 298.49237 312.89600
310.0 0.003226 298.53894 312.66779
302.0 0.003311 298.58545 313.13019
304.0 0.003289 298.63223 314.29507
307.0 0.003257 298.67896 316.32605
322.0 0.003106 298.72589 319.31461
330.0 0.003030 298.77298 323.90948
334.0 0.002994 298.82004 330.27686
330.0 0.003030 298.86731 339.33066
352.0 0.002841 298.91458 351.46252
385.0 0.002597 298.96204 366.64938
416.0 0.002404 299.00964 383.92874
431.0 0.002320 299.05716 401.58377
442.0 0.002262 299.10498 417.16238
433.0 0.002309 299.15280 427.91342
431.0 0.002320 299.20078 432.27707
425.0 0.002353 299.24881 429.45215
409.0 0.002445 299.29684 419.07336
402.0 0.002488 299.34521 404.27512
378.0 0.002646 299.39355 390.42975
374.0 0.002674 299.44202 381.09695
375.0 0.002667 299.49057 377.07516
395.0 0.002532 299.53925 376.81561
379.0 0.002639 299.58801 377.14249
363.0 0.002755 299.63684 374.28607
347.0 0.002882 299.68582 367.54672
369.0 0.002710 299.73486 359.59317
377.0 0.002653 299.78400 353.13016
358.0 0.002793 299.83328 349.89478
364.0 0.002747 299.88260 350.45975
379.0 0.002639 299.93210 355.07141
367.0 0.002725 299.98166 363.31641
375.0 0.002667 300.03131 373.92398
384.0 0.002604 300.08102 384.76450
416.0 0.002404 300.13095 393.37106
417.0 0.002398 300.18091 397.43875
428.0 0.002336 300.23096 397.32504
402.0 0.002488 300.28098 393.96918
359.0 0.002786 300.33130 387.77411
399.0 0.002506 300.38162 380.19189
377.0 0.002653 300.43216 374.01544
371.0 0.002695 300.48267 371.93616
372.0 0.002688 300.53329 375.41650
412.0 0.002427 300.58405 384.89850
424.0 0.002358 300.63483 399.79391
422.0 0.002370 300.68582 418.23727
446.0 0.002242 300.73685 437.73395
443.0 0.002257 300.78784 454.76666
436.0 0.002294 300.83920 463.34912
447.0 0.002237 300.89041 458.57480
405.0 0.002469 300.94189 443.07712
405.0 0.002469 300.99344 423.78683
397.0 0.002519 301.04492 405.39685
401.0 0.002494 301.09665 389.92480
371.0 0.002695 301.14844 378.35065
347.0 0.002882 301.20035 370.51520
343.0 0.002915 301.25235 365.84872
371.0 0.002695 301.30432 363.67416
367.0 0.002725 301.35657 364.05432
382.0 0.002618 301.40878 366.93384
400.0 0.002500 301.46118 372.33563
380.0 0.002632 301.51367 379.52753
374.0 0.002674 301.56610 387.35217
393.0 0.002545 301.61880 395.28064
418.0 0.002392 301.67151 402.62091
392.0 0.002551 301.72430 408.90466
413.0 0.002421 301.77725 414.34552
420.0 0.002381 301.83023 420.99066
432.0 0.002315 301.88339 430.86191
453.0 0.002208 301.93652 443.41101
461.0 0.002169 301.98984 455.83755
470.0 0.002128 302.04321 466.38925
483.0 0.002070 302.09659 474.64545
498.0 0.002008 302.15024 479.67902
478.0 0.002092 302.20383 479.23196
449.0 0.002227 302.25763 471.35294
445.0 0.002247 302.31143 455.71811
433.0 0.002309 302.36530 436.01794
412.0 0.002427 302.41928 418.03827
402.0 0.002488 302.47342 405.65640
391.0 0.002558 302.52762 399.85205
398.0 0.002513 302.58188 399.86414
411.0 0.002433 302.63614 403.41855
394.0 0.002538 302.69061 406.29721
404.0 0.002475 302.74521 404.85590
390.0 0.002564 302.79990 399.10870
369.0 0.002710 302.85458 391.07281
337.0 0.002967 302.90936 382.40884
371.0 0.002695 302.96426 374.37457
381.0 0.002625 303.01917 368.51959
377.0 0.002653 303.07428 366.00952
403.0 0.002481 303.12943 367.57391
330.0 0.003030 303.18463 372.91422
363.0 0.002755 303.23999 381.01379
363.0 0.002755 303.29541 390.02213
424.0 0.002358 303.35095 397.79459
394.0 0.002538 303.40652 403.40146
378.0 0.002646 303.46216 406.66306
425.0 0.002353 303.51791 408.64569
375.0 0.002667 303.57370 412.45004
435.0 0.002299 303.62967 421.13062
439.0 0.002278 303.68576 435.67325
491.0 0.002037 303.74176 453.44437
490.0 0.002041 303.79803 467.79410
448.0 0.002232 303.85425 470.36871
416.0 0.002404 303.91061 458.16699
405.0 0.002469 303.96707 436.33362
375.0 0.002667 304.02365 412.17563
345.0 0.002899 304.08026 390.46460
360.0 0.002778 304.13690 372.96991
340.0 0.002941 304.19373 359.63248
353.0 0.002833 304.25052 349.90091
329.0 0.003040 304.30740 343.01245
308.0 0.003247 304.36453 338.77527
303.0 0.003300 304.42157 336.44214
334.0 0.002994 304.47882 335.12665
329.0 0.003040 304.53610 334.60199
328.0 0.003049 304.59335 334.94208
346.0 0.002890 304.65088 336.33600
340.0 0.002941 304.70831 339.29742
354.0 0.002825 304.76602 344.44400
368.0 0.002717 304.82364 352.24057
393.0 0.002545 304.88132 362.93607
415.0 0.002410 304.93921 376.28940
427.0 0.002342 304.99716 390.96262
423.0 0.002364 305.05521 403.95953
428.0 0.002336 305.11328 411.58026
437.0 0.002288 305.17136 413.39966
417.0 0.002398 305.22961 412.77640
430.0 0.002326 305.28796 413.66721
451.0 0.002217 305.34637 417.24600
448.0 0.002232 305.40491 421.96838
424.0 0.002358 305.46338 423.92722
421.0 0.002375 305.52203 420.51868
416.0 0.002404 305.58075 414.35883
389.0 0.002571 305.63962 410.27249
408.0 0.002451 305.69849 410.59479
420.0 0.002381 305.75732 414.99207
395.0 0.002532 305.81644 420.28842
407.0 0.002457 305.87552 421.28821
409.0 0.002445 305.93469 414.03894
387.0 0.002584 305.99399 400.90201
384.0 0.002604 306.05328 386.48242
369.0 0.002710 306.11270 374.23270
366.0 0.002732 306.17218 365.77942
365.0 0.002740 306.23181 361.46957
371.0 0.002695 306.29147 361.22757
352.0 0.002841 306.35110 364.72559
377.0 0.002653 306.41101 371.26349
358.0 0.002793 306.47083 379.86591
403.0 0.002481 306.53076 388.80048
402.0 0.002488 306.59085 396.36557
423.0 0.002364 306.65082 401.84760
389.0 0.002571 306.71112 405.09485
389.0 0.002571 306.77130 405.45816
433.0 0.002309 306.83167 402.18726
386.0 0.002591 306.89209 396.73679
395.0 0.002532 306.95248 391.46460
378.0 0.002646 307.01309 388.57166
384.0 0.002604 307.07367 388.62012
401.0 0.002494 307.13440 390.50858
377.0 0.002653 307.19516 391.96982
383.0 0.002611 307.25592 391.01257
371.0 0.002695 307.31689 388.53900
398.0 0.002513 307.37787 386.59869
384.0 0.002604 307.43900 386.33875
400.0 0.002500 307.50012 387.35062
395.0 0.002532 307.56128 388.45462
389.0 0.002571 307.62256 388.17535
341.0 0.002933 307.68390 385.77081
369.0 0.002710 307.74536 381.97040
352.0 0.002841 307.80692 378.46912
364.0 0.002747 307.86838 376.18112
392.0 0.002551 307.93002 374.81549
392.0 0.002551 307.99176 373.99692
390.0 0.002564 308.05353 374.17981
384.0 0.002604 308.11542 376.56085
379.0 0.002639 308.17722 381.99438
387.0 0.002584 308.23929 391.13931
399.0 0.002506 308.30133 403.96622
459.0 0.002179 308.36343 419.42450
480.0 0.002083 308.42572 434.85391
459.0 0.002179 308.48798 446.37646
483.0 0.002070 308.55032 451.12350
483.0 0.002070 308.61261 448.66248
451.0 0.002217 308.67514 441.27234
455.0 0.002198 308.73770 432.83768
451.0 0.002217 308.80035 426.48019
437.0 0.002288 308.86304 422.16580
414.0 0.002415 308.92578 418.81870
406.0 0.002463 308.98862 415.75073
431.0 0.002320 309.05151 412.81613
412.0 0.002427 309.11444 409.68680
407.0 0.002457 309.17749 407.19962
376.0 0.002660 309.24060 407.20642
384.0 0.002604 309.30374 411.60193
409.0 0.002445 309.36697 421.15991
442.0 0.002262 309.43018 434.90585
460.0 0.002174 309.49359 451.33194
520.0 0.001923 309.55695 468.67358
507.0 0.001972 309.62061 486.22916
487.0 0.002053 309.68414 501.73755
520.0 0.001923 309.74771 511.37100
561.0 0.001783 309.81146 513.45148
536.0 0.001866 309.87518 508.53424
493.0 0.002028 309.93903 496.41318
481.0 0.002079 310.00290 478.09555
432.0 0.002315 310.06693 456.35065
431.0 0.002320 310.13086 434.88217
416.0 0.002404 310.19495 416.29303
363.0 0.002755 310.25912 401.34723
372.0 0.002688 310.32343 389.66476
387.0 0.002584 310.38760 380.85840
380.0 0.002632 310.45200 374.76379
355.0 0.002817 310.51633 370.94785
367.0 0.002725 310.58084 368.95297
346.0 0.002890 310.64551 368.70917
361.0 0.002770 310.70999 370.75220
375.0 0.002667 310.77472 375.64731
367.0 0.002725 310.83942 383.34641
345.0 0.002899 310.90430 393.26807
360.0 0.002778 310.96912 404.22525
424.0 0.002358 311.03400 415.64322
477.0 0.002096 311.09906 427.13901
444.0 0.002252 311.16406 437.20264
455.0 0.002198 311.22922 443.47272
466.0 0.002146 311.29434 444.89465
442.0 0.002262 311.35956 441.45056
424.0 0.002358 311.42490 434.73499
435.0 0.002299 311.49030 427.40851
435.0 0.002299 311.55573 422.08014
420.0 0.002381 311.62122 420.09299
427.0 0.002342 311.68665 421.07770
405.0 0.002469 311.75235 422.71967
411.0 0.002433 311.81799 421.11511
399.0 0.002506 311.88376 413.23160
392.0 0.002551 311.94952 400.28210
389.0 0.002571 312.01532 385.99710
353.0 0.002833 312.08136 373.23010
353.0 0.002833 312.14731 363.32217
353.0 0.002833 312.21329 356.57425
336.0 0.002976 312.27945 352.70996
359.0 0.002786 312.34552 351.17435
368.0 0.002717 312.41180 351.31531
346.0 0.002890 312.47812 352.43582
367.0 0.002725 312.54449 354.37787
370.0 0.002703 312.61084 357.44931
359.0 0.002786 312.67725 361.86191
363.0 0.002755 312.74387 368.03275
416.0 0.002404 312.81039 375.24850
407.0 0.002457 312.87701 383.17584
407.0 0.002457 312.94373 392.38007
445.0 0.002247 313.01044 402.49307
471.0 0.002123 313.07736 412.03534
436.0 0.002294 313.14410 418.15564
444.0 0.002252 313.21115 418.95801
431.0 0.002320 313.27820 415.25604
418.0 0.002392 313.34512 407.63721
392.0 0.002551 313.41229 397.00967
381.0 0.002625 313.47940 385.49695
376.0 0.002660 313.54672 375.39264
362.0 0.002762 313.61411 368.07651
372.0 0.002688 313.68137 364.14432
355.0 0.002817 313.74878 363.76810
380.0 0.002632 313.81625 367.44095
377.0 0.002653 313.88379 375.25070
406.0 0.002463 313.95139 388.05930
461.0 0.002169 314.01892 405.87991
439.0 0.002278 314.08667 428.61755
525.0 0.001905 314.15436 454.60956
505.0 0.001980 314.22226 480.15244
541.0 0.001848 314.29007 499.18182
535.0 0.001869 314.35803 507.02246
498.0 0.002008 314.42599 503.45569
486.0 0.002058 314.49402 491.63153
452.0 0.002212 314.56216 475.35223
460.0 0.002174 314.63028 457.74384
416.0 0.002404 314.69849 439.57669
386.0 0.002591 314.76682 420.68771
377.0 0.002653 314.83505 402.30228
384.0 0.002604 314.90344 386.33246
370.0 0.002703 314.97189 373.34723
355.0 0.002817 315.04028 363.68848
336.0 0.002976 315.10895 357.16476
322.0 0.003106 315.17752 353.13474
342.0 0.002924 315.24625 351.28769
348.0 0.002874 315.31494 351.77747
359.0 0.002786 315.38364 354.25214
372.0 0.002688 315.45251 358.84860
357.0 0.002801 315.52139 366.08493
372.0 0.002688 315.59036 375.89032
402.0 0.002488 315.65936 388.12967
407.0 0.002457 315.72836 401.71213
411.0 0.002433 315.79752 414.99838
430.0 0.002326 315.86667 425.29865
449.0 0.002227 315.93591 430.67761
456.0 0.002193 316.00519 431.07437
431.0 0.002320 316.07440 428.02658
434.0 0.002304 316.14386 423.52927
422.0 0.002370 316.21323 419.31314
396.0 0.002525 316.28281 416.19092
398.0 0.002513 316.35239 413.93045
403.0 0.002481 316.42200 412.73608
429.0 0.002331 316.49158 412.92426
435.0 0.002299 316.56128 415.12476
442.0 0.002262 316.63104 419.09222
466.0 0.002146 316.70093 422.90707
437.0 0.002288 316.77075 422.99542
424.0 0.002358 316.84070 416.91730
421.0 0.002375 316.91071 405.80194
385.0 0.002597 316.98074 393.19977
367.0 0.002725 317.05087 381.70557
375.0 0.002667 317.12091 372.69614
381.0 0.002625 317.19119 366.44534
370.0 0.002703 317.26144 362.66196
375.0 0.002667 317.33179 360.75720
335.0 0.002985 317.40213 360.19254
336.0 0.002976 317.47253 360.74802
355.0 0.002817 317.54306 362.54291
349.0 0.002865 317.61349 365.78079
336.0 0.002976 317.68417 370.51010
397.0 0.002519 317.75479 376.46408
421.0 0.002375 317.82544 383.14117
417.0 0.002398 317.89615 390.21088
429.0 0.002331 317.96695 397.69562
413.0 0.002421 318.03787 405.77893
392.0 0.002551 318.10876 414.83707
435.0 0.002299 318.17966 425.93634
473.0 0.002114 318.25073 440.43002
481.0 0.002079 318.32172 459.09570
499.0 0.002004 318.39291 481.39392
569.0 0.001757 318.46408 505.79837
582.0 0.001718 318.53522 530.72949
588.0 0.001701 318.60654 555.92993
602.0 0.001661 318.67792 582.04095
710.0 0.001408 318.74930 611.24371
792.0 0.001263 318.82080 644.08344
815.0 0.001227 318.89221 674.63300
755.0 0.001325 318.96378 689.92725
691.0 0.001447 319.03537 677.62201
628.0 0.001592 319.10709 639.67279
532.0 0.001880 319.17880 589.64825
494.0 0.002024 319.25052 540.66821
458.0 0.002183 319.32233 499.82031
443.0 0.002257 319.39426 469.68109
440.0 0.002273 319.46619 449.85739
446.0 0.002242 319.53815 438.66058
439.0 0.002278 319.61014 433.54422
442.0 0.002262 319.68225 431.65533
406.0 0.002463 319.75430 429.85950
431.0 0.002320 319.82657 426.47800
413.0 0.002421 319.89883 422.87543
391.0 0.002558 319.97110 421.18063
402.0 0.002488 320.04346 422.98718
430.0 0.002326 320.11581 429.19769
444.0 0.002252 320.18839 439.66791
458.0 0.002183 320.26086 453.47241
508.0 0.001969 320.33334 470.00504
542.0 0.001845 320.40601 489.65302
561.0 0.001783 320.47873 513.59021
599.0 0.001669 320.55148 541.87000
626.0 0.001597 320.62424 570.97266
693.0 0.001443 320.69699 594.99750
688.0 0.001453 320.76996 610.65778
705.0 0.001418 320.84290 620.63538
659.0 0.001517 320.91595 628.60315
652.0 0.001534 320.98898 633.41357
617.0 0.001621 321.06201 630.29126
578.0 0.001730 321.13519 615.93170
566.0 0.001767 321.20840 591.75208
561.0 0.001783 321.28174 561.88354
539.0 0.001855 321.35501 530.38416
490.0 0.002041 321.42834 500.00333
474.0 0.002110 321.50183 471.76483
485.0 0.002062 321.57523 446.53220
411.0 0.002433 321.64883 425.18896
405.0 0.002469 321.72244 408.36050
370.0 0.002703 321.79602 395.95966
354.0 0.002825 321.86978 387.15201
370.0 0.002703 321.94348 380.98734
389.0 0.002571 322.01736 376.80585
358.0 0.002793 322.09128 374.28973
339.0 0.002950 322.16507 373.67783
361.0 0.002770 322.23914 375.44717
395.0 0.002532 322.31305 379.97684
441.0 0.002268 322.38721 387.84067
400.0 0.002500 322.46136 398.89673
444.0 0.002252 322.53552 412.99777
477.0 0.002096 322.60974 429.61301
463.0 0.002160 322.68399 446.75409
475.0 0.002105 322.75845 461.54816
469.0 0.002132 322.83289 470.44788
469.0 0.002132 322.90729 472.04977
462.0 0.002165 322.98187 467.09906
452.0 0.002212 323.05640 457.19073
423.0 0.002364 323.13104 443.80530
380.0 0.002632 323.20578 428.69464
354.0 0.002825 323.28046 413.66403
354.0 0.002825 323.35535 400.05164
370.0 0.002703 323.43015 388.83594
369.0 0.002710 323.50510 380.43240
385.0 0.002597 323.58005 374.80054
374.0 0.002674 323.65506 371.53751
391.0 0.002558 323.73016 370.13605
373.0 0.002681 323.80527 370.25089
366.0 0.002732 323.88049 371.85892
378.0 0.002646 323.95575 375.15955
384.0 0.002604 324.03104 380.77441
370.0 0.002703 324.10645 389.29428
381.0 0.002625 324.18179 401.26718
445.0 0.002247 324.25735 416.68100
485.0 0.002062 324.33286 435.20053
506.0 0.001976 324.40836 455.98691
518.0 0.001931 324.48404 478.53931
545.0 0.001835 324.55975 501.60080
541.0 0.001848 324.63553 523.16150
547.0 0.001828 324.71133 541.16608
594.0 0.001684 324.78714 554.69495
588.0 0.001701 324.86316 562.56177
577.0 0.001733 324.93909 561.18292
554.0 0.001805 325.01517 547.11676
505.0 0.001980 325.09128 521.13440
463.0 0.002160 325.16739 489.17755
433.0 0.002309 325.24362 457.79343
413.0 0.002421 325.31995 430.94635
371.0 0.002695 325.39627 409.78537
380.0 0.002632 325.47272 394.33545
378.0 0.002646 325.54910 383.82718
357.0 0.002801 325.62567 377.30054
352.0 0.002841 325.70224 373.61353
353.0 0.002833 325.77887 372.20660
392.0 0.002551 325.85559 372.61026
403.0 0.002481 325.93225 374.89383
388.0 0.002577 326.00912 379.14053
419.0 0.002387 326.08597 385.25516
396.0 0.002525 326.16293 392.93317
433.0 0.002309 326.23993 401.93954
433.0 0.002309 326.31689 411.54980
432.0 0.002315 326.39404 421.56332
428.0 0.002336 326.47119 430.92014
420.0 0.002381 326.54852 438.67087
437.0 0.002288 326.62582 444.43326
462.0 0.002165 326.70309 447.97473
412.0 0.002427 326.78052 447.97729
437.0 0.002288 326.85794 443.04666
470.0 0.002128 326.93558 432.44467
416.0 0.002404 327.01315 418.32928
374.0 0.002674 327.09073 404.04749
370.0 0.002703 327.16852 391.38113
360.0 0.002778 327.24622 380.96237
372.0 0.002688 327.32416 373.13315
351.0 0.002849 327.40207 367.77856
363.0 0.002755 327.47995 364.57074
357.0 0.002801 327.55804 363.22635
363.0 0.002755 327.63605 363.51648
358.0 0.002793 327.71432 365.26901
370.0 0.002703 327.79248 368.79941
374.0 0.002674 327.87073 374.45709
403.0 0.002481 327.94913 382.67389
390.0 0.002564 328.02750 393.84152
408.0 0.002451 328.10593 408.35718
449.0 0.002227 328.18454 426.18994
473.0 0.002114 328.26303 446.23196
489.0 0.002045 328.34174 466.22137
515.0 0.001942 328.42053 482.82544
531.0 0.001883 328.49933 493.04535
498.0 0.002008 328.57828 494.94995
489.0 0.002045 328.65707 489.28851
468.0 0.002137 328.73605 479.89514
471.0 0.002123 328.81509 471.11758
457.0 0.002188 328.89429 465.42755
473.0 0.002114 328.97351 462.56940
463.0 0.002160 329.05264 459.95221
431.0 0.002320 329.13202 453.80713
417.0 0.002398 329.21136 442.72247
414.0 0.002415 329.29080 428.46515
378.0 0.002646 329.37039 413.67624
382.0 0.002618 329.44986 400.54825
380.0 0.002632 329.52960 389.97552
350.0 0.002857 329.60925 382.32312
350.0 0.002857 329.68909 377.48019
401.0 0.002494 329.76892 375.40588
397.0 0.002519 329.84879 376.06784
403.0 0.002481 329.92883 379.29523
355.0 0.002817 330.00888 385.13135
387.0 0.002584 330.08905 393.65277
429.0 0.002331 330.16922 404.69330
449.0 0.002227 330.24942 417.58728
466.0 0.002146 330.32980 431.14233
462.0 0.002165 330.41010 443.83252
452.0 0.002212 330.49075 454.32657
462.0 0.002165 330.57123 461.80981
474.0 0.002110 330.65173 466.35529
460.0 0.002174 330.73254 468.56046
456.0 0.002193 330.81320 468.17679
447.0 0.002237 330.89417 464.91727
451.0 0.002217 330.97498 458.90039
416.0 0.002404 331.05591 450.92065
466.0 0.002146 331.13699 441.49680
410.0 0.002439 331.21802 431.69345
432.0 0.002315 331.29922 423.43256
429.0 0.002331 331.38049 417.95563
393.0 0.002545 331.46173 416.44772
420.0 0.002381 331.54321 419.21036
444.0 0.002252 331.62463 426.04083
436.0 0.002294 331.70621 436.16498
474.0 0.002110 331.78781 447.79971
457.0 0.002188 331.86951 458.50504
466.0 0.002146 331.95123 466.72476
461.0 0.002169 332.03311 473.08112
505.0 0.001980 332.11502 479.42300
523.0 0.001912 332.19708 486.86954
542.0 0.001845 332.27902 494.64371
519.0 0.001927 332.36118 500.41135
503.0 0.001988 332.44339 502.30692
516.0 0.001938 332.52570 501.10049
523.0 0.001912 332.60812 498.47403
484.0 0.002066 332.69043 494.27454
462.0 0.002165 332.77307 486.41824
456.0 0.002193 332.85556 473.75977
433.0 0.002309 332.93829 457.40826
388.0 0.002577 333.02106 440.20209
369.0 0.002710 333.10379 424.56842
371.0 0.002695 333.18677 412.00009
383.0 0.002611 333.26971 403.18671
381.0 0.002625 333.35281 398.16544
400.0 0.002500 333.43600 396.82843
392.0 0.002551 333.51904 399.01813
400.0 0.002500 333.60248 404.54633
448.0 0.002232 333.68573 413.23206
458.0 0.002183 333.76929 424.68631
446.0 0.002242 333.85275 438.01883
457.0 0.002188 333.93628 452.10269
471.0 0.002123 334.02002 466.57755
506.0 0.001976 334.10376 482.38388
524.0 0.001908 334.18774 500.84586
568.0 0.001761 334.27167 521.85883
600.0 0.001667 334.35553 543.00885
658.0 0.001520 334.43970 560.53772
673.0 0.001486 334.52386 571.49646
651.0 0.001536 334.60822 574.57147
639.0 0.001565 334.69257 568.42535
566.0 0.001767 334.77689 552.23755
529.0 0.001890 334.86142 527.59253
467.0 0.002141 334.94601 499.00198
419.0 0.002387 335.03079 470.95557
426.0 0.002347 335.11548 446.68277
413.0 0.002421 335.20023 427.65942
385.0 0.002597 335.28525 413.98657
378.0 0.002646 335.37021 405.92529
396.0 0.002525 335.45535 402.93335
392.0 0.002551 335.54056 404.69568
414.0 0.002415 335.62576 410.79184
447.0 0.002237 335.71115 420.63873
445.0 0.002247 335.79657 433.61716
510.0 0.001961 335.88211 447.85364
531.0 0.001883 335.96777 460.18253
513.0 0.001949 336.05341 467.18039
471.0 0.002123 336.13922 467.62485
510.0 0.001961 336.22510 463.72925
440.0 0.002273 336.31104 458.75235
450.0 0.002222 336.39716 454.84677
421.0 0.002375 336.48318 452.42615
450.0 0.002222 336.56949 450.85516
492.0 0.002033 336.65579 449.39514
446.0 0.002242 336.74228 447.08292
471.0 0.002123 336.82870 442.58972
432.0 0.002315 336.91525 434.85858
436.0 0.002294 337.00201 424.25168
401.0 0.002494 337.08875 412.58795
398.0 0.002513 337.17569 401.51492
398.0 0.002513 337.26266 392.15494
365.0 0.002740 337.34958 384.84119
354.0 0.002825 337.43677 379.84778
365.0 0.002740 337.52393 376.82605
347.0 0.002882 337.61136 375.61832
366.0 0.002732 337.69876 375.88702
389.0 0.002571 337.78616 377.50211
382.0 0.002618 337.87384 380.65326
376.0 0.002660 337.96155 385.09708
420.0 0.002381 338.04938 390.23361
424.0 0.002358 338.13727 394.81265
398.0 0.002513 338.22516 397.11200
384.0 0.002604 338.31329 396.05698
386.0 0.002591 338.40140 392.14890
367.0 0.002725 338.48972 386.93216
347.0 0.002882 338.57806 381.68420
362.0 0.002762 338.66644 377.22815
353.0 0.002833 338.75504 374.13940
344.0 0.002907 338.84366 372.49023
370.0 0.002703 338.93253 372.16888
380.0 0.002632 339.02133 372.60809
354.0 0.002825 339.11020 373.23053
344.0 0.002907 339.19931 373.09082
363.0 0.002755 339.28842 372.00674
354.0 0.002825 339.37772 370.32407
343.0 0.002915 339.46701 368.58203
363.0 0.002755 339.55646 367.38635
350.0 0.002857 339.64594 367.00681
339.0 0.002950 339.73563 367.49158
355.0 0.002817 339.82538 369.27432
361.0 0.002770 339.91525 372.20438
363.0 0.002755 340.00510 376.23169
385.0 0.002597 340.09521 381.13895
367.0 0.002725 340.18527 386.37164
388.0 0.002577 340.27557 390.64685
387.0 0.002584 340.36600 392.91208
415.0 0.002410 340.45627 392.78937
374.0 0.002674 340.54688 390.64774
404.0 0.002475 340.63754 386.96454
353.0 0.002833 340.72833 382.23969
360.0 0.002778 340.81921 376.95816
370.0 0.002703 340.91016 372.00217
370.0 0.002703 341.00131 368.02814
329.0 0.003040 341.09241 365.22058
379.0 0.002639 341.18375 363.53372
338.0 0.002959 341.27512 362.68964
359.0 0.002786 341.36655 362.36359
309.0 0.003236 341.45819 362.15155
368.0 0.002717 341.54977 361.58768
344.0 0.002907 341.64175 360.76465
344.0 0.002907 341.73367 359.84238
338.0 0.002959 341.82556 359.15579
329.0 0.003040 341.91785 358.85089
333.0 0.003003 342.00998 358.98361
325.0 0.003077 342.10245 359.76718
342.0 0.002924 342.19485 361.25153
374.0 0.002674 342.28735 363.52100
340.0 0.002941 342.38010 366.59323
344.0 0.002907 342.47284 370.33774
377.0 0.002653 342.56586 374.44168
392.0 0.002551 342.65884 378.46500
398.0 0.002513 342.75186 381.96216
402.0 0.002488 342.84515 385.05057
426.0 0.002347 342.93839 388.03452
418.0 0.002392 343.03195 391.11700
383.0 0.002611 343.12555 394.33130
385.0 0.002597 343.21915 397.38651
401.0 0.002494 343.31293 399.90140
426.0 0.002347 343.40683 401.93750
426.0 0.002347 343.50092 403.63898
436.0 0.002294 343.59506 405.44659
413.0 0.002421 343.68927 407.15253
431.0 0.002320 343.78360 408.01282
439.0 0.002278 343.87808 407.04318
429.0 0.002331 343.97263 404.33722
409.0 0.002445 344.06744 400.95557
382.0 0.002618 344.16217 397.96777
370.0 0.002703 344.25714 395.65311
365.0 0.002740 344.35211 394.00641
405.0 0.002469 344.44736 393.00595
425.0 0.002353 344.54263 392.72552
411.0 0.002433 344.63788 393.22162
390.0 0.002564 344.73349 393.99927
369.0 0.002710 344.82913 394.17178
361.0 0.002770 344.92490 392.99826
342.0 0.002924 345.02084 390.50604
351.0 0.002849 345.11667 387.35965
367.0 0.002725 345.21286 384.11050
344.0 0.002907 345.30899 381.39130
341.0 0.002933 345.40536 379.62595
352.0 0.002841 345.50186 379.04144
367.0 0.002725 345.59833 379.60422
373.0 0.002681 345.69510 380.95764
390.0 0.002564 345.79187 382.86411
377.0 0.002653 345.88892 385.09229
358.0 0.002793 345.98587 387.61047
418.0 0.002392 346.08301 390.69809
405.0 0.002469 346.18039 394.31479
416.0 0.002404 346.27777 398.06467
420.0 0.002381 346.37537 401.43961
427.0 0.002342 346.47308 404.18561
408.0 0.002451 346.57071 406.24945
407.0 0.002457 346.66870 407.64886
393.0 0.002545 346.76669 408.38129
452.0 0.002212 346.86496 408.87415
386.0 0.002591 346.96326 409.73273
415.0 0.002410 347.06152 411.39938
425.0 0.002353 347.16016 413.50018
447.0 0.002237 347.25876 415.32016
403.0 0.002481 347.35757 416.11920
420.0 0.002381 347.45648 415.63736
416.0 0.002404 347.55542 414.91092
396.0 0.002525 347.65460 415.14700
442.0 0.002262 347.75385 417.30258
468.0 0.002137 347.85330 421.93988
469.0 0.002132 347.95285 429.01517
515.0 0.001942 348.05243 437.71500
529.0 0.001890 348.15225 446.33084
502.0 0.001992 348.25208 453.16003
474.0 0.002110 348.35217 456.89871
486.0 0.002058 348.45236 457.37820
468.0 0.002137 348.55258 454.33374
457.0 0.002188 348.65305 447.77524
427.0 0.002342 348.75354 438.99548
422.0 0.002370 348.85431 430.07877
418.0 0.002392 348.95508 422.77933
393.0 0.002545 349.05591 417.90695
399.0 0.002506 349.15701 415.44525
410.0 0.002439 349.25821 415.09244
391.0 0.002558 349.35956 416.45599
429.0 0.002331 349.46097 419.49686
463.0 0.002160 349.56247 424.03973
456.0 0.002193 349.66422 429.42218
433.0 0.002309 349.76602 433.85632
425.0 0.002353 349.86804 435.31427
456.0 0.002193 349.97009 432.76639
447.0 0.002237 350.07227 427.13501
408.0 0.002451 350.17468 420.35379
385.0 0.002597 350.27710 414.45340
399.0 0.002506 350.37979 410.51733
407.0 0.002457 350.48257 409.23367
413.0 0.002421 350.58536 410.73245
438.0 0.002283 350.68842 414.78497
422.0 0.002370 350.79150 420.66565
441.0 0.002268 350.89487 427.51834
451.0 0.002217 350.99823 434.60782
454.0 0.002203 351.10172 441.48560
504.0 0.001984 351.20541 447.75815
493.0 0.002028 351.30923 452.65332
485.0 0.002062 351.41318 455.21796
505.0 0.001980 351.51733 454.83731
408.0 0.002451 351.62137 451.26624
429.0 0.002331 351.72577 444.89963
446.0 0.002242 351.83023 436.63397
405.0 0.002469 351.93488 427.93301
397.0 0.002519 352.03961 420.34717
365.0 0.002740 352.14438 414.81851
414.0 0.002415 352.24945 411.76193
430.0 0.002326 352.35452 411.07837
376.0 0.002660 352.45993 411.97351
416.0 0.002404 352.56531 413.51505
406.0 0.002463 352.67072 414.62906
409.0 0.002445 352.77649 414.97375
413.0 0.002421 352.88223 414.67517
390.0 0.002564 352.98822 414.09854
414.0 0.002415 353.09427 413.44336
430.0 0.002326 353.20041 412.98544
409.0 0.002445 353.30682 412.91159
401.0 0.002494 353.41327 412.88086
388.0 0.002577 353.51993 412.29498
384.0 0.002604 353.62671 410.65530
446.0 0.002242 353.73349 408.51645
419.0 0.002387 353.84061 406.79465
398.0 0.002513 353.94766 406.18192
364.0 0.002747 354.05511 407.19308
403.0 0.002481 354.16245 409.00601
381.0 0.002625 354.26996 411.14154
418.0 0.002392 354.37772 412.68195
397.0 0.002519 354.48550 413.03174
383.0 0.002611 354.59354 412.11511
377.0 0.002653 354.70166 410.59045
378.0 0.002646 354.80972 409.58002
398.0 0.002513 354.91827 410.11969
378.0 0.002646 355.02670 412.97778
382.0 0.002618 355.13544 418.70142
417.0 0.002398 355.24420 427.47781
444.0 0.002252 355.35309 439.06616
438.0 0.002283 355.46216 452.62662
464.0 0.002155 355.57129 466.65137
499.0 0.002004 355.68066 478.84882
493.0 0.002028 355.79019 486.98306
471.0 0.002123 355.89972 489.53787
461.0 0.002169 356.00952 486.55869
453.0 0.002208 356.11938 479.53879
439.0 0.002278 356.22937 470.48883
464.0 0.002155 356.33957 460.94827
436.0 0.002294 356.44971 452.15494
421.0 0.002375 356.56021 445.16605
424.0 0.002358 356.67072 440.58856
437.0 0.002288 356.78143 438.72641
459.0 0.002179 356.89230 439.23010
478.0 0.002092 357.00311 441.01315
492.0 0.002033 357.11432 442.38879
481.0 0.002079 357.22546 441.63321
449.0 0.002227 357.33698 438.19901
421.0 0.002375 357.44843 433.07083
417.0 0.002398 357.55994 427.92401
437.0 0.002288 357.67178 424.18616
413.0 0.002421 357.78360 422.80814
389.0 0.002571 357.89572 424.29456
467.0 0.002141 358.00784 428.92075
453.0 0.002208 358.12006 436.59637
489.0 0.002045 358.23260 446.70862
464.0 0.002155 358.34509 458.54929
477.0 0.002096 358.45789 470.92032
519.0 0.001927 358.57074 482.20776
512.0 0.001953 358.68359 490.28723
536.0 0.001866 358.79678 493.38483
509.0 0.001965 358.90994 490.72733
405.0 0.002469 359.02341 483.00742
430.0 0.002326 359.13687 471.64838
454.0 0.002203 359.25040 458.68854
440.0 0.002273 359.36426 445.88516
394.0 0.002538 359.47809 434.75687
402.0 0.002488 359.59219 426.27664
424.0 0.002358 359.70636 420.60910
410.0 0.002439 359.82053 417.56717
402.0 0.002488 359.93506 416.55286
432.0 0.002315 360.04953 416.76254
411.0 0.002433 360.16431 417.41943
404.0 0.002475 360.27908 417.58017
431.0 0.002320 360.39401 416.82361
414.0 0.002415 360.50912 415.85593
413.0 0.002421 360.62430 415.37405
403.0 0.002481 360.73959 416.08621
434.0 0.002304 360.85516 418.37875
395.0 0.002532 360.97061 422.27161
411.0 0.002433 361.08643 427.41537
434.0 0.002304 361.20224 432.88190
419.0 0.002387 361.31827 437.41400
445.0 0.002247 361.43436 440.21817
431.0 0.002320 361.55048 441.23895
420.0 0.002381 361.66693 441.13098
423.0 0.002364 361.78336 440.48010
433.0 0.002309 361.90009 439.49942
448.0 0.002232 362.01675 438.54944
459.0 0.002179 362.13354 437.99933
432.0 0.002315 362.25061 438.49582
440.0 0.002273 362.36761 440.63858
476.0 0.002101 362.48502 444.82150
487.0 0.002053 362.60226 451.44830
490.0 0.002041 362.71967 460.14871
464.0 0.002155 362.83734 470.13220
479.0 0.002088 362.95502 480.57800
517.0 0.001934 363.07291 491.36307
557.0 0.001795 363.19089 502.48294
606.0 0.001650 363.30887 513.19025
585.0 0.001709 363.42715 521.05072
547.0 0.001828 363.54541 522.87115
550.0 0.001818 363.66391 516.80408
496.0 0.002016 363.78250 504.37772
439.0 0.002278 363.90100 489.21204
469.0 0.002132 364.01993 474.65326
466.0 0.002146 364.13873 462.59323
437.0 0.002288 364.25787 453.87390
427.0 0.002342 364.37704 448.45758
408.0 0.002451 364.49619 445.66589
427.0 0.002342 364.61563 444.63675
456.0 0.002193 364.73505 444.75366
428.0 0.002336 364.85474 445.92111
464.0 0.002155 364.97452 448.83997
489.0 0.002045 365.09421 454.01724
510.0 0.001961 365.21423 461.50131
529.0 0.001890 365.33423 471.18576
543.0 0.001842 365.45441 481.86646
522.0 0.001916 365.57474 492.08286
502.0 0.001992 365.69504 500.79800
550.0 0.001818 365.81552 507.34741
533.0 0.001876 365.93610 510.66779
534.0 0.001873 366.05682 509.86896
500.0 0.002000 366.17773 505.27579
548.0 0.001825 366.29852 498.49640
511.0 0.001957 366.41965 491.82639
458.0 0.002183 366.54068 486.50909
483.0 0.002070 366.66202 482.52530
497.0 0.002012 366.78329 478.67746
499.0 0.002004 366.90466 473.36496
471.0 0.002123 367.02621 465.94986
472.0 0.002119 367.14783 457.34235
467.0 0.002141 367.26968 449.10562
454.0 0.002203 367.39142 442.46530
436.0 0.002294 367.51331 438.05014
423.0 0.002364 367.63541 435.63666
456.0 0.002193 367.75745 434.78262
414.0 0.002415 367.87970 434.60495
401.0 0.002494 368.00201 434.09717
404.0 0.002475 368.12433 432.99570
418.0 0.002392 368.24692 431.59036
447.0 0.002237 368.36938 430.59006
447.0 0.002237 368.49219 430.65298
447.0 0.002237 368.61493 432.26816
456.0 0.002193 368.73773 435.08194
463.0 0.002160 368.86072 438.68945
468.0 0.002137 368.98364 442.37772
466.0 0.002146 369.10687 445.67703
469.0 0.002132 369.23013 448.22025
473.0 0.002114 369.35321 449.59497
467.0 0.002141 369.47672 449.55185
459.0 0.002179 369.60007 448.39694
444.0 0.002252 369.72372 447.04520
435.0 0.002299 369.84735 446.16821
445.0 0.002247 369.97092 446.31033
460.0 0.002174 370.09476 448.01196
474.0 0.002110 370.21854 451.50443
501.0 0.001996 370.34250 456.70651
495.0 0.002020 370.46649 462.83127
513.0 0.001949 370.59048 468.71780
551.0 0.001815 370.71466 473.57913
556.0 0.001799 370.83881 477.32312
539.0 0.001855 370.96317 480.14615
532.0 0.001880 371.08749 481.78336
526.0 0.001901 371.21173 481.38885
472.0 0.002119 371.33633 478.41022
457.0 0.002188 371.46075 473.13922
457.0 0.002188 371.58548 466.44193
426.0 0.002347 371.71011 458.99878
425.0 0.002353 371.83475 451.35458
443.0 0.002257 371.95963 443.90253
437.0 0.002288 372.08441 436.98691
410.0 0.002439 372.20935 431.04678
396.0 0.002525 372.33426 426.47775
394.0 0.002538 372.45911 423.57965
408.0 0.002451 372.58426 422.34210
402.0 0.002488 372.70932 422.82785
400.0 0.002500 372.83456 424.70569
401.0 0.002494 372.95978 427.70490
420.0 0.002381 373.08493 431.74390
420.0 0.002381 373.21027 436.50470
451.0 0.002217 373.33551 442.62592
434.0 0.002304 373.46097 449.66345
448.0 0.002232 373.58643 457.21161
502.0 0.001992 373.71173 464.73056
477.0 0.002096 373.83734 471.70947
502.0 0.001992 373.96271 478.04800
491.0 0.002037 374.08841 483.34961
492.0 0.002033 374.21393 487.25635
531.0 0.001883 374.33945 489.14362
515.0 0.001942 374.46527 488.61774
520.0 0.001923 374.59091 485.82779
522.0 0.001916 374.71661 481.50082
489.0 0.002045 374.84247 476.64197
431.0 0.002320 374.96799 471.99530
453.0 0.002208 375.09384 468.22125
463.0 0.002160 375.21960 465.46368
462.0 0.002165 375.34552 463.52206
440.0 0.002273 375.47134 462.31543
464.0 0.002155 375.59708 462.11972
466.0 0.002146 375.72296 463.32596
477.0 0.002096 375.84885 466.48611
493.0 0.002028 375.97473 471.13757
483.0 0.002070 376.10068 476.57245
470.0 0.002128 376.22641 481.35800
475.0 0.002105 376.35233 484.25293
469.0 0.002132 376.47818 485.11545
505.0 0.001980 376.60413 484.85910
515.0 0.001942 376.73007 484.48425
481.0 0.002079 376.85574 484.85690
489.0 0.002045 376.98175 485.63461
499.0 0.002004 377.10751 485.79346
470.0 0.002128 377.23349 483.99414
440.0 0.002273 377.35925 479.54218
452.0 0.002212 377.48495 472.97293
435.0 0.002299 377.61090 465.53418
409.0 0.002445 377.73660 458.42499
420.0 0.002381 377.86240 451.90945
419.0 0.002387 377.98813 446.05145
416.0 0.002404 378.11380 440.73849
427.0 0.002342 378.23950 436.12228
385.0 0.002597 378.36517 432.65283
404.0 . . .
loop_
_refln_index_h
_refln_index_k
_refln_index_l
_pd_refln_wavelength_id
_refln_observed_status
_refln_F_squared_meas
_refln_F_squared_calc
_refln_phase_calc
_refln_d_spacing
_gsas_i100_meas
0 2 0 1 o 42301.14 38012.06 0.00 6.67458 14.46
0 2 0 2 o 42216.93 38012.06 0.00 6.67458 7.18
1 1 1 1 o 20251.996 19569.113 0.00 6.05164 19.12
1 1 1 2 o 19718.943 19569.113 0.00 6.05164 9.24
2 0 0 1 o 913.275 1234.404 180.00 4.82118 0.00
2 0 0 2 o 913.275 1234.404 180.00 4.82118 0.00
0 0 2 1 o 38372.66 41322.58 0.00 4.78070 4.10
0 0 2 2 o 39399.73 41322.58 0.00 4.78070 2.12
1 2 1 1 o 5007.046 5203.768 0.00 4.75971 1.59
1 2 1 2 o 4880.810 5203.768 0.00 4.75971 0.75
2 1 0 1 o 161803.98 162196.33 180.00 4.53451 38.52
2 1 0 2 o 159500.03 162196.33 180.00 4.53451 18.84
1 0 2 1 o 228850.66 232721.66 0.00 4.28315 48.46
1 0 2 2 o 228320.19 232721.66 0.00 4.28315 24.04
2 1 1 1 o 123363.63 116330.25 0.00 4.09711 49.41
2 1 1 2 o 121001.54 116330.25 0.00 4.09711 24.04
1 1 2 1 o 121580.36 118543.89 0.00 4.07836 47.86
1 1 2 2 o 119722.18 118543.89 0.00 4.07836 23.39
0 3 1 1 o 447706.1 463355.7 180.00 4.03424 100.00
0 3 1 2 o 455210.6 463355.7 180.00 4.03424 50.72
2 2 0 1 o 88040.19 83600.70 180.00 3.90825 16.58
2 2 0 2 o 84680.95 83600.70 180.00 3.90825 7.88
0 2 2 1 o 50480.09 51442.65 0.00 3.88659 9.27
0 2 2 2 o 50932.98 51442.65 0.00 3.88659 4.66
1 3 1 1 o 82604.68 77964.03 180.00 3.72164 31.20
1 3 1 2 o 81676.06 77964.03 180.00 3.72164 15.32
2 2 1 1 o 190220.20 184405.45 180.00 3.61770 60.92
2 2 1 2 o 188549.97 184405.45 180.00 3.61770 30.00
1 2 2 1 o 479.599 488.089 0.00 3.60477 0.16
1 2 2 2 o 512.580 488.089 0.00 3.60477 0.09
2 0 2 1 o 156704.42 144656.45 180.00 3.39469 22.09
2 0 2 2 o 155022.00 144656.45 180.00 3.39469 10.86
0 4 0 1 o 146825.08 135970.48 180.00 3.33729 12.65
0 4 0 2 o 145636.80 135970.48 180.00 3.33729 6.24
2 1 2 1 o 14331.786 15055.353 180.00 3.28997 3.72
2 1 2 2 o 14165.166 15055.353 180.00 3.28997 1.83
2 3 0 1 o 39781.02 43492.14 180.00 3.26987 5.19
2 3 0 2 o 36958.83 43492.14 180.00 3.26987 2.36
0 1 3 1 o 147274.47 150239.89 180.00 3.10000 16.04
2 3 1 1 o 43632.91 44093.81 0.00 3.09395 10.39
0 1 3 2 o 149363.84 150239.89 180.00 3.10000 8.11
2 3 1 2 o 45021.16 44093.81 0.00 3.09395 5.36
1 3 2 1 o 27221.527 26626.471 0.00 3.08585 6.46
1 3 2 2 o 27402.002 26626.471 0.00 3.08585 3.24
2 2 2 1 o 60672.27 59026.07 180.00 3.02582 12.96
2 2 2 2 o 58453.05 59026.07 180.00 3.02582 6.17
1 4 1 1 o 17163.246 18058.420 180.00 2.99502 4.23
1 4 1 2 o 17776.768 18058.420 180.00 2.99502 2.19
3 1 1 1 o 65111.38 63794.81 0.00 2.97022 13.37
3 1 1 2 o 62249.36 63794.81 0.00 2.97022 6.32
1 1 3 1 o 777.717 1230.822 0.00 2.95123 0.11
1 1 3 2 o 309.682 1230.822 0.00 2.95123 0.00
3 2 1 1 o 34197.840 32409.746 180.00 2.77153 6.28
3 2 1 2 o 32504.297 32409.746 180.00 2.77153 2.95
1 2 3 1 o 121110.10 127353.84 0.00 2.75608 21.40
1 2 3 2 o 119922.14 127353.84 0.00 2.75608 10.53
2 4 0 1 o 98327.93 100667.23 180.00 2.74402 9.58
2 4 0 2 o 97480.46 100667.23 180.00 2.74402 4.72
0 4 2 1 o 28279.568 29326.619 0.00 2.73649 2.87
0 4 2 2 o 26037.727 29326.619 0.00 2.73649 1.30
2 3 2 1 o 3391.060 4211.217 180.00 2.69895 0.62
2 3 2 2 o 3360.263 4211.217 180.00 2.69895 0.31
3 0 2 1 o 89207.60 85856.28 0.00 2.66734 6.87
3 0 2 2 o 87232.56 85856.28 0.00 2.66734 3.33
2 4 1 1 o 24968.488 24720.445 0.00 2.63755 4.30
1 4 2 1 o 30229.373 30335.928 180.00 2.63253 5.13
2 4 1 2 o 24598.822 24720.445 0.00 2.63755 2.10
1 4 2 2 o 30666.088 30335.928 180.00 2.63253 2.60
3 1 2 1 o 29235.189 29112.428 180.00 2.61564 4.25
3 1 2 2 o 29054.328 29112.428 180.00 2.61564 2.10
2 1 3 1 o 29193.891 29485.438 0.00 2.60749 4.26
2 1 3 2 o 28676.146 29485.438 0.00 2.60749 2.08
0 3 3 1 o 7.259 8.422 180.00 2.59106 0.00
0 3 3 2 o 9.461 8.422 180.00 2.59106 0.00
0 5 1 1 o 61152.57 60287.32 180.00 2.57147 5.17
0 5 1 2 o 59283.61 60287.32 180.00 2.57147 2.47
3 3 1 1 o 27698.352 25144.713 180.00 2.51384 4.05
3 3 1 2 o 25959.369 25144.713 180.00 2.51384 1.87
1 3 3 1 o 126351.21 126059.37 180.00 2.50229 18.11
1 3 3 2 o 121303.07 126059.37 180.00 2.50229 8.58
1 5 1 1 o 5629.821 5989.950 180.00 2.48463 0.90
1 5 1 2 o 5589.410 5989.950 180.00 2.48463 0.45
3 2 2 1 o 14257.025 15307.080 180.00 2.47688 1.77
3 2 2 2 o 14853.718 15307.080 180.00 2.47688 0.93
2 2 3 1 o 24017.797 24718.900 0.00 2.46996 3.06
2 2 3 2 o 24578.135 24718.900 0.00 2.46996 1.56
4 0 0 1 o 25717.225 22247.004 180.00 2.41059 0.75
4 0 0 2 o 26503.748 22247.004 180.00 2.41059 0.39
0 0 4 1 o 57289.51 53760.67 180.00 2.39035 1.72
0 0 4 2 o 54758.24 53760.67 180.00 2.39035 0.81
2 4 2 1 o 29073.240 29126.357 180.00 2.37985 3.58
2 4 2 2 o 29733.246 29126.357 180.00 2.37985 1.84
4 1 0 1 o 13860.479 12921.732 180.00 2.37222 0.85
4 1 0 2 o 15766.137 12921.732 180.00 2.37222 0.49
2 5 0 1 o 165795.36 147102.17 0.00 2.33562 11.36
2 5 0 2 o 157144.45 147102.17 0.00 2.33562 5.30
1 0 4 1 o 36232.34 32913.973 0.00 2.32012 1.94
1 0 4 2 o 38838.68 32913.973 0.00 2.32012 1.05
4 1 1 1 o 168792.16 161397.13 180.00 2.30242 19.03
4 1 1 2 o 165723.84 161397.13 180.00 2.30242 9.26
3 3 2 1 o 31623.744 29276.271 180.00 2.28779 4.06
1 1 4 1 o 3551.264 3322.254 0.00 2.28585 0.34
2 3 3 1 o 30958.934 28250.164 0.00 2.28233 3.49
3 3 2 2 o 32450.855 29276.271 180.00 2.28779 2.08
1 1 4 2 o 3508.507 3322.254 0.00 2.28585 0.17
2 3 3 2 o 31547.791 28250.164 0.00 2.28233 1.77
2 5 1 1 o 38020.05 37909.42 0.00 2.26891 4.80
4 2 0 1 o 67647.77 69015.82 0.00 2.26725 3.60
1 5 2 1 o 53990.64 55333.38 180.00 2.26571 6.36
2 5 1 2 o 37025.16 37909.42 0.00 2.26891 2.31
4 2 0 2 o 67305.06 69015.82 0.00 2.26725 1.78
1 5 2 2 o 54391.83 55333.38 180.00 2.26571 3.20
0 2 4 1 o 65612.38 62016.07 0.00 2.25039 3.61
3 4 1 1 o 5108.881 4832.998 0.00 2.25003 0.61
0 2 4 2 o 63997.30 62016.07 0.00 2.25039 1.74
3 4 1 2 o 4986.692 4832.998 0.00 2.25003 0.29
1 4 3 1 o 18696.078 18542.035 180.00 2.24174 2.19
1 4 3 2 o 19572.428 18542.035 180.00 2.24174 1.15
3 1 3 1 o 57384.16 55702.34 0.00 2.23129 5.65
3 1 3 2 o 61934.02 55702.34 0.00 2.23129 3.10
0 6 0 1 o 226902.25 198758.25 0.00 2.22486 7.43
0 6 0 2 o 231828.00 198758.25 0.00 2.22486 3.79
4 2 1 1 o 15826.908 15596.767 180.00 2.20608 1.75
4 2 1 2 o 14802.781 15596.767 180.00 2.20608 0.80
1 2 4 1 o 9954.107 10151.170 0.00 2.19150 1.00
1 2 4 2 o 10134.501 10151.170 0.00 2.19150 0.51
4 0 2 1 o 202.332 56.683 180.00 2.15244 0.03
4 0 2 2 o 334.150 56.683 180.00 2.15244 0.02
3 2 3 1 o 4649.859 4112.833 180.00 2.14327 0.29
2 0 4 1 o 10780.312 10482.711 180.00 2.14158 0.39
3 2 3 2 o 3890.338 4112.833 180.00 2.14327 0.10
2 0 4 2 o 9813.986 10482.711 180.00 2.14158 0.17
4 1 2 1 o 6026.721 5820.587 180.00 2.12499 0.68
4 1 2 2 o 6171.995 5820.587 180.00 2.12499 0.35
4 3 0 1 o 1328.207 1272.263 180.00 2.11955 0.06
2 1 4 1 o 112997.23 111314.13 0.00 2.11454 10.86
4 3 0 2 o 1286.889 1272.263 180.00 2.11955 0.03
1 6 1 1 o 132.346 131.699 180.00 2.11424 0.01
2 1 4 2 o 109085.47 111314.13 0.00 2.11454 5.19
1 6 1 2 o 130.825 131.699 180.00 2.11424 0.00
2 5 2 1 o 24416.064 20947.594 0.00 2.09856 2.84
2 5 2 2 o 24930.711 20947.594 0.00 2.09856 1.44
3 4 2 1 o 106783.23 106502.31 180.00 2.08360 10.12
2 4 3 1 o 7141.849 7562.145 180.00 2.07948 0.69
3 4 2 2 o 103129.98 106502.31 180.00 2.08360 4.82
2 4 3 2 o 7012.383 7562.145 180.00 2.07948 0.34
4 3 1 1 o 7105.011 6732.750 0.00 2.06931 0.68
4 3 1 2 o 6086.284 6732.750 0.00 2.06931 0.28
1 3 4 1 o 4914.338 4557.350 0.00 2.05726 0.47
1 3 4 2 o 4859.854 4557.350 0.00 2.05726 0.23
4 2 2 1 o 56274.52 53963.72 0.00 2.04855 5.09
0 5 3 1 o 41584.52 41092.09 180.00 2.04663 2.19
4 2 2 2 o 55161.97 53963.72 0.00 2.04855 2.47
0 5 3 2 o 41388.54 41092.09 180.00 2.04663 1.08
2 2 4 1 o 20924.189 20280.730 180.00 2.03918 1.83
2 2 4 2 o 20554.619 20280.730 180.00 2.03918 0.89
2 6 0 1 o 45737.61 41705.66 180.00 2.02013 2.45
3 3 3 1 o 15276.658 15035.749 180.00 2.01721 1.21
0 6 2 1 o 70643.43 69389.16 0.00 2.01712 3.63
2 6 0 2 o 43352.33 41705.66 180.00 2.02013 1.15
3 3 3 2 o 15367.404 15035.749 180.00 2.01721 0.61
0 6 2 2 o 71120.34 69389.16 0.00 2.01712 1.82
3 5 1 1 o 673.571 576.228 180.00 2.00793 0.08
3 5 1 2 o 553.414 576.228 180.00 2.00793 0.03
1 5 3 1 o 20403.369 21282.596 180.00 2.00203 1.86
1 5 3 2 o 19248.523 21282.596 180.00 2.00203 0.86
2 6 1 1 o 77008.14 74747.82 0.00 1.97650 7.60
1 6 2 1 o 71764.42 70923.84 0.00 1.97438 7.02
2 6 1 2 o 72734.81 74747.82 0.00 1.97650 3.54
1 6 2 2 o 70116.16 70923.84 0.00 1.97438 3.40
4 4 0 1 o 284153.38 295851.53 0.00 1.95413 11.76
4 4 0 2 o 273439.09 295851.53 0.00 1.95413 5.58
0 4 4 1 o 168033.88 178003.00 0.00 1.94330 6.60
0 4 4 2 o 164986.34 178003.00 0.00 1.94330 3.21
4 3 2 1 o 6035.996 6414.735 180.00 1.93765 0.59
4 3 2 2 o 5857.489 6414.735 180.00 1.93765 0.29
2 3 4 1 o 41780.74 42461.35 0.00 1.92971 3.51
2 3 4 2 o 41435.34 42461.35 0.00 1.92971 1.73
3 0 4 1 o 1179.368 1017.587 180.00 1.91806 0.06
4 4 1 1 o 2465.570 2662.189 0.00 1.91455 0.21
3 0 4 2 o 829.562 1017.587 180.00 1.91806 0.02
4 4 1 2 o 1485.112 2662.189 0.00 1.91455 0.05
1 4 4 1 o 2977.274 4509.521 0.00 1.90499 0.25
4 1 3 1 o 7543.880 8599.846 180.00 1.90296 0.58
1 4 4 2 o 4071.163 4509.521 0.00 1.90499 0.18
3 1 4 1 o 14929.220 15452.350 180.00 1.89856 1.20
4 1 3 2 o 8386.373 8599.846 180.00 1.90296 0.33
3 1 4 2 o 14922.629 15452.350 180.00 1.89856 0.60
0 1 5 1 o 105656.74 110321.90 180.00 1.89295 3.75
0 1 5 2 o 104495.21 110321.90 180.00 1.89295 1.84
3 5 2 1 o 33403.367 35033.219 0.00 1.88698 2.61
2 5 3 1 o 24019.119 23821.004 0.00 1.88391 1.88
3 5 2 2 o 35992.77 35033.219 0.00 1.88698 1.43
2 5 3 2 o 23781.334 23821.004 0.00 1.88391 0.92
3 4 3 1 o 17591.619 17523.723 0.00 1.87306 1.45
5 1 1 1 o 110.411 109.521 180.00 1.87173 0.00
0 7 1 1 o 38283.02 33181.031 0.00 1.87019 1.86
3 4 3 2 o 20017.076 17523.723 0.00 1.87306 0.83
5 1 1 2 o 110.940 109.521 180.00 1.87173 0.00
0 7 1 2 o 38652.80 33181.031 0.00 1.87019 0.94
2 6 2 1 o 17307.447 18472.117 180.00 1.86082 1.29
1 1 5 1 o 30343.291 33275.996 180.00 1.85750 2.05
2 6 2 2 o 16281.919 18472.117 180.00 1.86082 0.59
1 1 5 2 o 28466.318 33275.996 180.00 1.85750 0.94
4 2 3 1 o 7214.811 7801.699 0.00 1.84748 0.55
3 2 4 1 o 33524.508 34089.629 180.00 1.84345 2.41
4 2 3 2 o 7646.933 7801.699 0.00 1.84748 0.29
3 2 4 2 o 32326.680 34089.629 180.00 1.84345 1.15
1 7 1 1 o 25417.309 26647.424 0.00 1.83597 2.24
1 7 1 2 o 22946.912 26647.424 0.00 1.83597 0.99
5 2 1 1 o 77331.55 78939.30 180.00 1.81886 5.55
5 2 1 2 o 74958.64 78939.30 180.00 1.81886 2.66
4 4 2 1 o 106272.07 103743.91 0.00 1.80885 7.94
1 2 5 1 o 30971.078 31142.432 180.00 1.80579 2.40
4 4 2 2 o 102548.92 103743.91 0.00 1.80885 3.79
2 4 4 1 o 42487.75 43485.45 180.00 1.80239 3.36
1 2 5 2 o 30691.031 31142.432 180.00 1.80579 1.18
2 4 4 2 o 44700.52 43485.45 180.00 1.80239 1.77
3 6 1 1 o 37217.71 35318.75 0.00 1.79675 3.16
1 6 3 1 o 76708.70 74380.24 180.00 1.79252 6.20
3 6 1 2 o 36461.99 35318.75 0.00 1.79675 1.54
4 5 0 1 o 9097.666 9410.673 0.00 1.78920 0.31
5 0 2 1 o 5628.063 5775.193 180.00 1.78844 0.17
1 6 3 2 o 72850.42 74380.24 180.00 1.79252 2.91
4 5 0 2 o 7971.579 9410.673 0.00 1.78920 0.13
5 0 2 2 o 4721.064 5775.193 180.00 1.78844 0.07
2 7 0 1 o 3308.345 2933.787 180.00 1.77333 0.15
5 1 2 1 o 70441.84 63950.27 180.00 1.77261 4.50
2 7 0 2 o 3107.041 2933.787 180.00 1.77333 0.07
5 1 2 2 o 68322.24 63950.27 180.00 1.77261 2.16
4 3 3 1 o 92877.41 91196.72 180.00 1.76490 5.98
2 1 5 1 o 7126.571 6919.256 0.00 1.76200 0.44
3 3 4 1 o 1711.398 1680.298 180.00 1.76139 0.11
4 3 3 2 o 92577.45 91196.72 180.00 1.76490 2.96
4 5 1 1 o 19884.623 19184.574 180.00 1.75867 1.38
2 1 5 2 o 7214.168 6919.256 0.00 1.76200 0.22
3 3 4 2 o 1760.642 1680.298 180.00 1.76139 0.06
0 3 5 1 o 61303.48 58573.15 0.00 1.75691 2.03
4 5 1 2 o 19614.809 19184.574 180.00 1.75867 0.68
0 3 5 2 o 59285.72 58573.15 0.00 1.75691 0.97
1 5 4 1 o 18950.838 19219.078 180.00 1.75125 1.32
1 5 4 2 o 17729.229 19219.078 180.00 1.75125 0.61
2 7 1 1 o 45013.41 46686.92 0.00 1.74360 3.24
1 7 2 1 o 4.657 4.862 0.00 1.74215 0.00
5 3 1 1 o 906.997 1000.698 0.00 1.73990 0.04
2 7 1 2 o 42310.41 46686.92 0.00 1.74360 1.49
1 7 2 2 o 4.741 4.862 0.00 1.74215 0.00
5 3 1 2 o 677.912 1000.698 0.00 1.73990 0.01
1 3 5 1 o 5488.972 5820.928 180.00 1.72845 0.32
5 2 2 1 o 10690.502 11272.903 0.00 1.72751 0.65
3 5 3 1 o 7757.373 8280.120 0.00 1.72635 0.58
1 3 5 2 o 5647.694 5820.928 180.00 1.72845 0.17
5 2 2 2 o 10988.222 11272.903 0.00 1.72751 0.33
3 5 3 2 o 8836.020 8280.120 0.00 1.72635 0.33
2 2 5 1 o 134846.53 134062.64 0.00 1.71769 8.14
2 2 5 2 o 128909.09 134062.64 0.00 1.71769 3.83
3 6 2 1 o 12411.474 13957.403 0.00 1.70853 0.78
2 6 3 1 o 12403.773 12618.195 180.00 1.70625 0.79
3 6 2 2 o 12981.065 13957.403 0.00 1.70853 0.41
2 6 3 2 o 13025.068 12618.195 180.00 1.70625 0.42
4 0 4 1 o 308765.97 300249.94 0.00 1.69734 9.25
4 0 4 2 o 303629.22 300249.94 0.00 1.69734 4.51
4 1 4 1 o 18421.535 17380.127 0.00 1.68379 1.17
4 1 4 2 o 18391.047 17380.127 0.00 1.68379 0.58
4 5 2 1 o 4831.509 4377.150 0.00 1.67569 0.35
4 5 2 2 o 4562.536 4377.150 0.00 1.67569 0.16
2 5 4 1 o 105650.28 104586.39 180.00 1.67055 6.40
0 8 0 1 o 268401.84 268905.03 0.00 1.66865 4.93
2 5 4 2 o 100646.42 104586.39 180.00 1.67055 3.00
4 4 3 1 o 108.332 111.540 180.00 1.66592 0.00
0 8 0 2 o 261762.81 268905.03 0.00 1.66865 2.38
3 4 4 1 o 57869.23 59432.88 180.00 1.66297 3.36
2 7 2 1 o 742.725 773.174 0.00 1.66264 0.06
4 4 3 2 o 108.973 111.540 180.00 1.66592 0.00
5 3 2 1 o 20965.340 20925.383 180.00 1.65943 1.19
3 4 4 2 o 59982.02 59432.88 180.00 1.66297 1.75
2 7 2 2 o 788.938 773.174 0.00 1.66264 0.03
5 3 2 2 o 20053.535 20925.383 180.00 1.65943 0.56
2 3 5 1 o 30800.602 32103.211 0.00 1.65072 1.74
2 3 5 2 o 30411.406 32103.211 0.00 1.65072 0.85
4 2 4 1 o 8903.707 7936.283 0.00 1.64499 0.52
5 4 1 1 o 8008.247 7148.354 0.00 1.64485 0.45
4 2 4 2 o 8669.212 7936.283 0.00 1.64499 0.25
5 4 1 2 o 7831.543 7148.354 0.00 1.64485 0.22
5 1 3 1 o 60750.04 56939.48 180.00 1.63748 3.50
0 7 3 1 o 124895.48 122279.77 180.00 1.63645 3.99
1 4 5 1 o 309.410 313.001 0.00 1.63516 0.01
4 6 0 1 o 1615.981 1640.323 180.00 1.63494 0.05
5 1 3 2 o 58004.25 56939.48 180.00 1.63748 1.65
0 7 3 2 o 124214.20 122279.77 180.00 1.63645 1.97
3 1 5 1 o 14197.949 13755.214 0.00 1.63109 0.80
1 4 5 2 o 320.415 313.001 0.00 1.63516 0.01
4 6 0 2 o 1694.743 1640.323 180.00 1.63494 0.03
0 6 4 1 o 7325.762 7362.341 180.00 1.62858 0.23
3 1 5 2 o 14523.790 13755.214 0.00 1.63109 0.41
0 6 4 2 o 5820.598 7362.341 180.00 1.62858 0.09
1 8 1 1 o 30944.729 29118.420 0.00 1.62042 2.11
3 7 1 1 o 58161.14 57924.43 0.00 1.61646 3.61
1 8 1 2 o 29238.191 29118.420 0.00 1.62042 0.98
1 7 3 1 o 11322.738 11613.658 0.00 1.61338 0.66
3 7 1 2 o 56335.65 57924.43 0.00 1.61646 1.73
4 6 1 1 o 4128.090 4079.345 0.00 1.61155 0.24
1 7 3 2 o 12109.198 11613.658 0.00 1.61338 0.36
4 6 1 2 o 4492.552 4079.345 0.00 1.61155 0.13
6 0 0 1 o 84170.94 77289.27 180.00 1.60706 1.04
1 6 4 1 o 32438.338 32478.193 0.00 1.60583 1.85
6 0 0 2 o 74411.16 77289.27 180.00 1.60706 0.44
5 2 3 1 o 53520.10 55459.38 180.00 1.60173 2.56
1 6 4 2 o 31186.016 32478.193 0.00 1.60583 0.88
5 2 3 2 o 53484.93 55459.38 180.00 1.60173 1.27
3 2 5 1 o 1179.829 1197.167 180.00 1.59575 0.11
6 1 0 1 o 107500.59 107960.34 0.00 1.59554 2.87
0 0 6 1 o 34185.398 35639.34 180.00 1.59357 0.47
3 2 5 2 o 1174.877 1197.167 180.00 1.59575 0.05
6 1 0 2 o 108029.23 107960.34 0.00 1.59554 1.43
0 0 6 2 o 37073.80 35639.34 180.00 1.59357 0.26
3 6 3 1 o 3025.113 3121.062 0.00 1.58657 0.11
4 3 4 1 o 7185.881 7365.659 0.00 1.58588 0.42
3 6 3 2 o 3109.974 3121.062 0.00 1.58657 0.06
4 3 4 2 o 6800.806 7365.659 0.00 1.58588 0.20
2 8 0 1 o 1906.855 1930.459 180.00 1.57687 0.03
5 4 2 1 o 40068.64 41640.07 0.00 1.57636 2.07
0 8 2 1 o 17449.902 18018.818 0.00 1.57544 0.43
6 1 1 2 o 3606.130 3626.124 0.00 1.57378 0.07
6 1 1 1 o 3798.459 3626.124 0.00 1.57378 0.16
2 4 5 1 o 25586.682 26723.129 180.00 1.56889 1.31
1 0 6 2 o 4076.402 4363.627 180.00 1.57224 0.06
2 8 0 2 o 1946.006 1930.459 180.00 1.57687 0.01
5 4 2 2 o 41366.55 41640.07 0.00 1.57636 1.07
1 0 6 1 o 4300.832 4363.627 180.00 1.57224 0.12
0 8 2 2 o 17754.902 18018.818 0.00 1.57544 0.22
2 4 5 2 o 24855.410 26723.129 180.00 1.56889 0.63
6 2 0 1 o 23913.189 24036.457 180.00 1.56241 0.59
1 1 6 1 o 25614.617 25111.068 180.00 1.56145 1.22
4 5 3 1 o 35432.61 34812.078 180.00 1.56016 1.84
6 2 0 2 o 25148.650 24036.457 180.00 1.56241 0.31
3 5 4 1 o 3942.351 3674.793 0.00 1.55774 0.19
1 1 6 2 o 27199.068 25111.068 180.00 1.56145 0.65
4 5 3 2 o 38744.67 34812.078 180.00 1.56016 1.02
2 8 1 1 o 50881.74 45985.01 180.00 1.55585 3.00
0 5 5 1 o 1300.790 1218.037 180.00 1.55464 0.03
1 8 2 1 o 33912.191 31564.416 0.00 1.55482 1.95
3 5 4 2 o 3869.864 3674.793 0.00 1.55774 0.09
2 8 1 2 o 48154.66 45985.01 180.00 1.55585 1.39
3 7 2 1 o 48.692 45.652 0.00 1.55132 0.00
0 5 5 2 o 1241.417 1218.037 180.00 1.55464 0.01
1 8 2 2 o 32536.113 31564.416 0.00 1.55482 0.92
0 2 6 1 o 13588.328 14292.758 0.00 1.55000 0.31
2 7 3 1 o 21938.428 23899.486 0.00 1.54961 1.22
3 7 2 2 o 40.506 45.652 0.00 1.55132 0.00
5 3 3 1 o 5129.936 5653.705 0.00 1.54702 0.29
4 6 2 1 o 18758.666 20448.787 0.00 1.54697 1.01
0 2 6 2 o 12897.463 14292.758 0.00 1.55000 0.14
2 7 3 2 o 21119.195 23899.486 0.00 1.54961 0.58
5 3 3 2 o 5298.157 5653.705 0.00 1.54702 0.15
4 6 2 2 o 19318.766 20448.787 0.00 1.54697 0.52
5 5 1 1 o 2562.552 2730.963 180.00 1.54281 0.16
2 6 4 1 o 29522.398 31133.805 180.00 1.54293 1.55
6 2 1 1 o 59211.43 61267.69 0.00 1.54196 2.79
3 3 5 1 o 26154.863 26848.561 0.00 1.54163 1.16
5 5 1 2 o 2549.863 2730.963 180.00 1.54281 0.08
2 6 4 2 o 29361.063 31133.805 180.00 1.54293 0.77
6 2 1 2 o 60655.04 61267.69 0.00 1.54196 1.43
3 3 5 2 o 26940.383 26848.561 0.00 1.54163 0.60
1 5 5 1 o 23718.244 25219.113 180.00 1.53482 1.23
1 5 5 2 o 25482.730 25219.113 180.00 1.53482 0.66
1 2 6 1 o 37384.70 35885.59 0.00 1.53035 1.74
1 2 6 2 o 36283.70 35885.59 0.00 1.53035 0.83
6 0 2 1 o 49968.32 52639.09 180.00 1.52330 1.17
6 0 2 2 o 42364.32 52639.09 180.00 1.52330 0.48
6 1 2 1 o 22.042 22.270 0.00 1.51347 0.00
2 0 6 1 o 26893.172 28448.703 180.00 1.51305 0.66
4 4 4 1 o 36976.56 39169.89 180.00 1.51291 1.87
6 3 0 1 o 39161.60 42041.77 0.00 1.51150 0.98
6 1 2 2 o 21.686 22.270 0.00 1.51347 0.00
2 0 6 2 o 25102.295 28448.703 180.00 1.51305 0.30
4 4 4 2 o 34838.434 39169.89 180.00 1.51291 0.87
6 3 0 2 o 40547.85 42041.77 0.00 1.51150 0.51
2 1 6 1 o 20458.566 21041.574 0.00 1.50343 0.87
5 0 4 1 o 1913.178 2057.653 0.00 1.50091 0.04
2 1 6 2 o 21147.400 21041.574 0.00 1.50343 0.45
5 0 4 2 o 1947.947 2057.653 0.00 1.50091 0.02
2 8 2 1 o 49398.87 52340.55 180.00 1.49751 2.82
4 7 0 1 o 2688.168 2731.813 180.00 1.49560 0.09
2 8 2 2 o 49041.57 52340.55 180.00 1.49751 1.39
6 3 1 1 o 72560.30 76321.50 0.00 1.49296 3.22
4 7 0 2 o 2614.888 2731.813 180.00 1.49560 0.04
5 1 4 1 o 8412.586 8676.701 180.00 1.49151 0.36
6 3 1 2 o 72371.45 76321.50 0.00 1.49296 1.60
4 1 5 1 o 5833.147 6157.530 0.00 1.48879 0.24
5 1 4 2 o 8475.361 8676.701 180.00 1.49151 0.18
5 5 2 1 o 92370.48 96254.80 0.00 1.48587 4.26
6 2 2 1 o 16833.055 17160.771 180.00 1.48511 0.70
4 1 5 2 o 6036.188 6157.530 0.00 1.48879 0.13
1 3 6 1 o 9939.199 10285.632 180.00 1.48242 0.45
5 5 2 2 o 93462.74 96254.80 0.00 1.48587 2.15
6 2 2 2 o 17372.010 17160.771 180.00 1.48511 0.36
2 5 5 1 o 22125.793 21276.822 0.00 1.47961 1.07
5 4 3 1 o 17025.900 16453.980 0.00 1.47905 0.77
1 3 6 2 o 10593.948 10285.632 180.00 1.48242 0.24
4 7 1 1 o 199382.06 197595.50 180.00 1.47764 9.84
2 5 5 2 o 21220.316 21276.822 0.00 1.47961 0.50
2 2 6 1 o 5734.604 5740.937 180.00 1.47562 0.25
5 4 3 2 o 16438.666 16453.980 0.00 1.47905 0.37
3 4 5 1 o 651.436 648.147 180.00 1.47434 0.03
4 7 1 2 o 201609.83 197595.50 180.00 1.47764 4.96
1 7 4 1 o 91.914 86.374 0.00 1.47323 0.01
2 2 6 2 o 6164.987 5740.937 180.00 1.47562 0.13
3 4 5 2 o 769.029 648.147 180.00 1.47434 0.02
1 7 4 2 o 116.127 86.374 0.00 1.47323 0.00
0 9 1 1 o 61268.01 53172.13 180.00 1.46571 1.65
5 2 4 1 o 16509.863 14198.074 0.00 1.46434 0.71
3 8 1 1 o 7515.847 6520.925 180.00 1.46351 0.37
4 2 5 1 o 7361.056 6963.612 0.00 1.46177 0.31
0 9 1 2 o 56771.97 53172.13 180.00 1.46571 0.75
1 8 3 1 o 29419.172 27784.824 0.00 1.46122 1.43
5 2 4 2 o 15173.951 14198.074 0.00 1.46434 0.32
3 8 1 2 o 6897.745 6520.925 180.00 1.46351 0.17
4 2 5 2 o 6793.503 6963.612 0.00 1.46177 0.14
3 7 3 1 o 88886.06 90759.05 0.00 1.45831 4.03
1 8 3 2 o 27116.885 27784.824 0.00 1.46122 0.64
4 6 3 1 o 442.178 444.864 180.00 1.45470 0.02
3 7 3 2 o 90075.52 90759.05 0.00 1.45831 2.04
3 6 4 1 o 1616.953 1483.767 180.00 1.45273 0.08
4 6 3 2 o 614.826 444.864 180.00 1.45470 0.01
3 6 4 2 o 2410.171 1483.767 180.00 1.45273 0.06
1 9 1 1 o 4414.147 2835.884 180.00 1.44906 0.23
6 4 0 1 o 6657.416 3951.432 180.00 1.44793 0.16
1 9 1 2 o 4448.206 2835.884 180.00 1.44906 0.12
6 4 0 2 o 6593.178 3951.432 180.00 1.44793 0.08
6 3 2 1 o 701.416 638.241 180.00 1.44119 0.05
5 6 1 1 o 37056.33 35550.56 0.00 1.44061 1.76
0 4 6 1 o 137013.69 138162.56 0.00 1.43803 3.11
6 3 2 2 o 664.931 638.241 180.00 1.44119 0.02
5 6 1 2 o 38152.91 35550.56 0.00 1.44061 0.91
0 4 6 2 o 140524.61 138162.56 0.00 1.43803 1.59
1 6 5 1 o 15087.211 13844.602 0.00 1.43409 0.78
2 3 6 1 o 2644.375 2513.644 0.00 1.43250 0.09
4 5 4 1 o 17433.883 16296.007 180.00 1.43238 0.82
6 4 1 1 o 16486.869 14912.581 180.00 1.43161 0.72
1 6 5 2 o 15823.627 13844.602 0.00 1.43409 0.41
2 3 6 2 o 2526.848 2513.644 0.00 1.43250 0.04
4 5 4 2 o 16294.924 16296.007 180.00 1.43238 0.38
6 4 1 2 o 15061.455 14912.581 180.00 1.43161 0.32
3 0 6 1 o 140843.05 136158.03 180.00 1.42772 2.82
4 7 2 1 o 4517.043 4200.326 0.00 1.42739 0.26
6 1 3 1 o 41732.04 38120.82 0.00 1.42674 1.72
3 0 6 2 o 137809.89 136158.03 180.00 1.42772 1.36
2 7 4 1 o 207.814 203.984 180.00 1.42420 0.01
4 7 2 2 o 4290.011 4200.326 0.00 1.42739 0.12
6 1 3 2 o 38087.22 38120.82 0.00 1.42674 0.76
1 4 6 1 o 98190.67 100183.44 0.00 1.42230 4.05
5 3 4 1 o 238.000 240.158 180.00 1.42219 0.01
2 7 4 2 o 197.455 203.984 180.00 1.42420 0.01
4 3 5 1 o 146020.77 149298.38 180.00 1.41982 5.83
3 1 6 1 o 15343.441 15415.381 0.00 1.41962 0.62
1 4 6 2 o 104230.80 100183.44 0.00 1.42230 2.17
5 3 4 2 o 246.339 240.158 180.00 1.42219 0.00
2 9 0 1 o 111049.93 102977.57 180.00 1.41767 2.72
4 3 5 2 o 157989.89 149298.38 180.00 1.41982 3.19
3 1 6 2 o 16613.795 15415.381 0.00 1.41962 0.34
3 8 2 1 o 9031.403 8042.660 0.00 1.41464 0.41
2 9 0 2 o 118101.95 102977.57 180.00 1.41767 1.46
2 8 3 1 o 19058.580 15545.390 0.00 1.41334 0.92
3 8 2 2 o 9307.701 8042.660 0.00 1.41464 0.21
2 8 3 2 o 19242.291 15545.390 0.00 1.41334 0.46
5 5 3 1 o 5.460 2.350 180.00 1.40355 0.00
6 2 3 1 o 16672.588 16483.303 180.00 1.40290 0.64
2 9 1 1 o 28209.334 27684.326 0.00 1.40234 1.35
1 9 2 1 o 56218.14 50786.23 0.00 1.40158 2.67
5 5 3 2 o 8.161 2.350 180.00 1.40355 0.00
6 2 3 2 o 17670.189 16483.303 180.00 1.40290 0.34
3 5 5 1 o 11462.814 10744.412 0.00 1.39952 0.43
2 9 1 2 o 30394.953 27684.326 0.00 1.40234 0.74
1 9 2 2 o 61063.70 50786.23 0.00 1.40158 1.47
3 2 6 1 o 11067.853 8441.974 180.00 1.39614 0.45
3 5 5 2 o 13810.969 10744.412 0.00 1.39952 0.27
5 6 2 1 o 276.686 205.943 180.00 1.39392 0.01
3 2 6 2 o 11042.947 8441.974 180.00 1.39614 0.22
5 6 2 2 o 211.721 205.943 180.00 1.39392 0.00
2 6 5 1 o 67087.20 65972.35 180.00 1.38875 2.79
6 4 2 1 o 10125.460 9827.180 180.00 1.38576 0.36
2 6 5 2 o 70580.52 65972.35 180.00 1.38875 1.48
6 4 2 2 o 14177.604 9827.180 180.00 1.38576 0.28
2 4 6 1 o 1674.768 1670.852 0.00 1.37804 0.11
6 5 0 1 o 117070.96 115853.63 180.00 1.37687 2.39
2 4 6 2 o 2070.528 1670.852 0.00 1.37804 0.07
6 5 0 2 o 127569.27 115853.63 180.00 1.37687 1.31
4 8 0 1 o 2291.676 1446.619 0.00 1.37201 0.07
5 4 4 1 o 23428.654 16988.197 0.00 1.36885 0.91
4 8 0 2 o 2367.460 1446.619 0.00 1.37201 0.04
0 8 4 1 o 829.937 386.850 0.00 1.36824 0.03
4 4 5 1 o 3145.199 2290.918 180.00 1.36674 0.13
6 3 3 1 o 12138.014 9957.194 0.00 1.36570 0.48
5 4 4 2 o 20737.537 16988.197 0.00 1.36885 0.39
0 8 4 2 o 630.776 386.850 0.00 1.36824 0.01
4 4 5 2 o 2357.662 2290.918 180.00 1.36674 0.05
6 5 1 1 o 40249.28 40518.60 0.00 1.36281 1.58
6 3 3 2 o 10066.738 9957.194 0.00 1.36570 0.19
3 3 6 1 o 3811.134 3953.082 0.00 1.35945 0.14
6 5 1 2 o 39051.94 40518.60 0.00 1.36281 0.76
0 1 7 1 o 1534.454 1506.144 180.00 1.35882 0.03
2 9 2 1 o 7032.784 7143.331 180.00 1.35917 0.32
4 8 1 1 o 7394.413 6579.517 180.00 1.35810 0.34
7 1 1 1 o 727.183 710.542 180.00 1.35635 0.01
3 3 6 2 o 4133.979 3953.082 0.00 1.35945 0.08
0 1 7 2 o 1557.768 1506.144 180.00 1.35882 0.01
2 9 2 2 o 7451.431 7143.331 180.00 1.35917 0.17
1 5 6 1 o 37177.34 35993.98 0.00 1.35478 1.41
4 8 1 2 o 6816.447 6579.517 180.00 1.35810 0.15
1 8 4 1 o 21338.182 20609.117 0.00 1.35467 0.87
4 7 3 1 o 100.238 93.869 0.00 1.35394 0.01
7 1 1 2 o 744.260 710.542 180.00 1.35635 0.01
3 7 4 1 o 275.523 244.783 0.00 1.35236 0.01
1 5 6 2 o 37059.85 35993.98 0.00 1.35478 0.70
1 8 4 2 o 21084.133 20609.117 0.00 1.35467 0.43
5 1 5 1 o 8810.179 8714.549 180.00 1.35090 0.30
4 7 3 2 o 95.338 93.869 0.00 1.35394 0.00
0 7 5 1 o 185988.39 182710.98 180.00 1.35032 3.74
4 6 4 1 o 72952.42 69636.30 0.00 1.34947 2.74
3 7 4 2 o 266.945 244.783 0.00 1.35236 0.01
5 1 5 2 o 8703.155 8714.549 180.00 1.35090 0.15
0 7 5 2 o 182799.25 182710.98 180.00 1.35032 1.82
4 6 4 2 o 71958.13 69636.30 0.00 1.34947 1.34
1 1 7 1 o 75789.09 72632.11 180.00 1.34552 2.68
0 9 3 1 o 11000.414 10764.621 180.00 1.34475 0.24
3 8 3 1 o 21968.297 22996.680 180.00 1.34305 0.93
5 7 1 1 o 6654.840 6704.890 180.00 1.34256 0.23
1 1 7 2 o 74142.00 72632.11 180.00 1.34552 1.30
0 9 3 2 o 11585.931 10764.621 180.00 1.34475 0.12
3 8 3 2 o 23701.486 22996.680 180.00 1.34305 0.51
5 7 1 2 o 7068.589 6704.890 180.00 1.34256 0.13
1 7 5 1 o 37237.88 39179.39 180.00 1.33727 1.47
7 2 1 1 o 1959.376 1727.717 0.00 1.33582 0.07
0 10 0 1 o 17848.100 14314.971 180.00 1.33492 0.20
1 7 5 2 o 42679.94 39179.39 180.00 1.33727 0.86
6 0 4 1 o 215.301 194.234 0.00 1.33367 0.01
3 9 1 1 o 929.042 829.751 0.00 1.33359 0.06
7 2 1 2 o 1961.526 1727.717 0.00 1.33582 0.03
1 9 3 1 o 19922.031 17352.391 180.00 1.33186 0.86
0 10 0 2 o 16530.227 14314.971 180.00 1.33492 0.09
5 2 5 1 o 2800.869 2469.717 0.00 1.33062 0.09
6 0 4 2 o 230.809 194.234 0.00 1.33367 0.00
3 9 1 2 o 986.659 829.751 0.00 1.33359 0.03
4 0 6 1 o 61100.64 56115.91 0.00 1.32935 1.04
1 9 3 2 o 18813.627 17352.391 180.00 1.33186 0.40
5 2 5 2 o 2542.698 2469.717 0.00 1.33062 0.04
6 1 4 1 o 30242.580 29217.438 180.00 1.32706 0.99
4 0 6 2 o 56578.75 56115.91 0.00 1.32935 0.47
1 2 7 1 o 23079.408 22604.377 180.00 1.32548 0.68
5 6 3 1 o 21461.904 20884.197 0.00 1.32528 0.72
6 1 4 2 o 28392.199 29217.438 180.00 1.32706 0.45
7 0 2 1 o 106033.57 108226.14 180.00 1.32363 1.77
6 5 2 1 o 247.279 246.975 180.00 1.32309 0.00
4 1 6 1 o 129.573 129.646 0.00 1.32281 0.00
1 2 7 2 o 22472.982 22604.377 180.00 1.32548 0.33
5 6 3 2 o 20882.873 20884.197 0.00 1.32528 0.35
3 6 5 1 o 95.833 94.789 0.00 1.32189 0.01
7 0 2 2 o 103334.98 108226.14 180.00 1.32363 0.86
6 5 2 2 o 249.868 246.975 180.00 1.32309 0.00
4 1 6 2 o 132.928 129.646 0.00 1.32281 0.00
4 8 2 1 o 2337.795 2296.396 0.00 1.31877 0.06
3 6 5 2 o 100.283 94.789 0.00 1.32189 0.01
6 4 3 1 o 6065.900 5997.138 0.00 1.31826 0.23
7 1 2 1 o 10364.447 10178.293 0.00 1.31717 0.38
2 5 6 1 o 35174.84 36081.45 180.00 1.31636 1.25
2 8 4 1 o 7601.217 7785.544 180.00 1.31626 0.24
4 8 2 2 o 2184.915 2296.396 0.00 1.31877 0.03
6 4 3 2 o 5371.047 5997.138 0.00 1.31826 0.10
7 1 2 2 o 8293.162 10178.293 0.00 1.31717 0.15
2 5 6 2 o 30619.783 36081.45 180.00 1.31636 0.52
2 8 4 2 o 6833.188 7785.544 180.00 1.31626 0.10
3 4 6 1 o 3150.614 3767.707 0.00 1.31264 0.11
1 10 1 1 o 528.549 556.631 0.00 1.30984 0.01
3 4 6 2 o 3220.893 3767.707 0.00 1.31264 0.06
5 5 4 1 o 5968.144 7230.100 0.00 1.30834 0.18
6 2 4 1 o 17145.738 20510.605 180.00 1.30782 0.55
2 1 7 1 o 1476.956 1757.678 0.00 1.30787 0.04
4 5 5 1 o 15440.305 18682.313 180.00 1.30650 0.49
1 10 1 2 o 498.738 556.631 0.00 1.30984 0.01
0 3 7 1 o 3654.518 4535.556 180.00 1.30578 0.06
5 5 4 2 o 5888.312 7230.100 0.00 1.30834 0.09
6 2 4 2 o 16492.230 20510.605 180.00 1.30782 0.26
2 1 7 2 o 1425.091 1757.678 0.00 1.30787 0.02
5 7 2 1 o 1054.230 1377.607 180.00 1.30453 0.05
4 2 6 1 o 246.979 285.054 0.00 1.30374 0.01
7 3 1 1 o 18445.102 21830.387 0.00 1.30358 0.53
4 5 5 2 o 15719.438 18682.313 180.00 1.30650 0.25
6 6 0 1 o 66132.30 79273.94 180.00 1.30275 1.18
0 3 7 2 o 3772.928 4535.556 180.00 1.30578 0.03
5 7 2 2 o 1010.933 1377.607 180.00 1.30453 0.02
4 2 6 2 o 234.317 285.054 0.00 1.30374 0.00
7 3 1 2 o 17199.086 21830.387 0.00 1.30358 0.24
2 7 5 1 o 1885.737 2434.625 0.00 1.30029 0.06
6 6 0 2 o 65546.16 79273.94 180.00 1.30275 0.58
5 3 5 1 o 27217.820 31905.904 180.00 1.29875 0.93
7 2 2 1 o 102.631 118.809 0.00 1.29835 0.00
2 7 5 2 o 1952.084 2434.625 0.00 1.30029 0.03
3 9 2 1 o 11236.534 12585.566 180.00 1.29630 0.38
5 3 5 2 o 27113.412 31905.904 180.00 1.29875 0.46
0 6 6 1 o 114.629 121.329 180.00 1.29553 0.00
7 2 2 2 o 99.242 118.809 0.00 1.29835 0.00
2 9 3 1 o 11677.091 13792.577 0.00 1.29530 0.41
1 3 7 1 o 1474.108 1983.162 0.00 1.29397 0.05
3 9 2 2 o 11710.772 12585.566 180.00 1.29630 0.20
0 6 6 2 o 116.327 121.329 180.00 1.29553 0.00
2 9 3 2 o 12140.144 13792.577 0.00 1.29530 0.22
6 6 1 1 o 25804.449 30181.189 180.00 1.29082 0.88
1 3 7 2 o 1688.425 1983.162 0.00 1.29397 0.03
2 2 7 1 o 644.231 898.125 0.00 1.28943 0.03
6 6 1 2 o 23413.840 30181.189 180.00 1.29082 0.39
2 2 7 2 o 578.929 898.125 0.00 1.28943 0.01
2 10 0 1 o 22413.197 28491.262 180.00 1.28651 0.39
0 10 2 1 o 3627.698 4904.928 0.00 1.28573 0.06
1 6 6 1 o 849.056 1339.986 0.00 1.28399 0.03
2 10 0 2 o 20018.289 28491.262 180.00 1.28651 0.17
0 10 2 2 o 3423.590 4904.928 0.00 1.28573 0.03
1 6 6 2 o 236.614 1339.986 0.00 1.28399 0.00
6 3 4 1 o 2282.959 4592.444 180.00 1.27752 0.03
2 10 1 1 o 11600.382 12162.994 180.00 1.27502 0.47
6 3 4 2 o 4473.710 4592.444 180.00 1.27752 0.06
1 10 2 1 o 19231.959 19894.836 180.00 1.27445 0.77
4 3 6 1 o 2.646 3.321 180.00 1.27373 0.00
2 10 1 2 o 11297.740 12162.994 180.00 1.27502 0.23
1 10 2 2 o 19726.727 19894.836 180.00 1.27445 0.39
4 3 6 2 o 8.465 3.321 180.00 1.27373 0.00
7 3 2 1 o 1564.804 2117.695 0.00 1.26869 0.05
4 7 4 1 o 748.773 1037.892 180.00 1.26788 0.04
7 3 2 2 o 1865.360 2117.695 0.00 1.26869 0.03
4 7 4 2 o 896.471 1037.892 180.00 1.26788 0.02
6 5 3 1 o 12989.307 12807.664 0.00 1.26396 0.42
4 9 0 1 o 7918.999 7771.449 180.00 1.26326 0.15
7 4 1 1 o 3098.700 2922.693 180.00 1.26214 0.11
6 5 3 2 o 12991.524 12807.664 0.00 1.26396 0.21
2 3 7 1 o 3540.986 3604.098 0.00 1.26037 0.12
4 8 3 1 o 2004.059 2082.583 0.00 1.26020 0.08
4 9 0 2 o 7460.112 7771.449 180.00 1.26326 0.07
7 4 1 2 o 2420.247 2922.693 180.00 1.26214 0.04
3 5 6 1 o 9384.473 10956.495 180.00 1.25900 0.28
7 1 3 1 o 10419.966 12457.414 180.00 1.25880 0.34
3 8 4 1 o 1986.830 2371.606 180.00 1.25892 0.07
5 4 5 1 o 1745.222 1984.208 180.00 1.25775 0.06
2 3 7 2 o 3223.326 3604.098 0.00 1.26037 0.05
4 8 3 2 o 1848.970 2082.583 0.00 1.26020 0.03
6 6 2 1 o 18536.539 20707.902 180.00 1.25692 0.58
3 5 6 2 o 9558.808 10956.495 180.00 1.25900 0.14
7 1 3 2 o 10678.334 12457.414 180.00 1.25880 0.18
3 8 4 2 o 2035.135 2371.606 180.00 1.25892 0.04
5 4 5 2 o 1709.200 1984.208 180.00 1.25775 0.03
6 6 2 2 o 18799.248 20707.902 180.00 1.25692 0.29
1 4 7 1 o 11710.818 13314.560 0.00 1.25340 0.38
4 9 1 1 o 7145.937 8026.801 180.00 1.25238 0.25
3 1 7 1 o 614.234 718.671 180.00 1.25157 0.02
2 6 6 1 o 7246.711 8288.198 180.00 1.25115 0.23
5 8 1 1 o 16658.760 19192.361 180.00 1.25100 0.56
1 4 7 2 o 10754.418 13314.560 0.00 1.25340 0.17
1 9 4 1 o 2235.287 2768.535 0.00 1.24969 0.06
4 9 1 2 o 6574.394 8026.801 180.00 1.25238 0.11
3 1 7 2 o 659.122 718.671 180.00 1.25157 0.01
2 6 6 2 o 7793.563 8288.198 180.00 1.25115 0.13
5 8 1 2 o 18015.984 19192.361 180.00 1.25100 0.31
5 7 3 1 o 40490.07 43342.04 180.00 1.24775 1.39
1 8 5 1 o 622.650 660.983 180.00 1.24673 0.02
1 9 4 2 o 2586.791 2768.535 0.00 1.24969 0.04
3 7 5 1 o 3202.270 3496.157 0.00 1.24492 0.11
5 7 3 2 o 40024.02 43342.04 180.00 1.24775 0.68
5 6 4 1 o 1627.817 1702.416 0.00 1.24425 0.05
1 8 5 2 o 630.652 660.983 180.00 1.24673 0.01
4 6 5 1 o 3973.384 4348.556 180.00 1.24267 0.13
7 2 3 1 o 5703.074 6417.668 0.00 1.24234 0.18
2 10 2 1 o 24629.646 27782.877 180.00 1.24232 0.92
3 7 5 2 o 3039.661 3496.157 0.00 1.24492 0.05
5 6 4 2 o 1587.556 1702.416 0.00 1.24425 0.02
3 9 3 1 o 229.256 256.266 180.00 1.24055 0.01
4 6 5 2 o 3987.985 4348.556 180.00 1.24267 0.06
7 2 3 2 o 6028.710 6417.668 0.00 1.24234 0.09
2 10 2 2 o 26162.455 27782.877 180.00 1.24232 0.49
6 4 4 1 o 51418.18 50221.99 180.00 1.23844 1.64
3 9 3 2 o 265.650 256.266 180.00 1.24055 0.01
6 4 4 2 o 49196.73 50221.99 180.00 1.23844 0.77
3 2 7 1 o 38294.47 39110.61 0.00 1.23538 1.24
4 4 6 1 o 1593.445 1592.339 180.00 1.23498 0.03
3 2 7 2 o 42083.21 39110.61 0.00 1.23538 0.69
4 4 6 2 o 1667.994 1592.339 180.00 1.23498 0.02
7 4 2 1 o 35520.04 36436.63 0.00 1.23039 1.08
6 7 0 1 o 1697.661 1729.544 180.00 1.22889 0.04
5 0 6 1 o 52246.79 52513.33 0.00 1.22843 0.78
7 4 2 2 o 35584.71 36436.63 0.00 1.23039 0.54
6 7 0 2 o 1733.852 1729.544 180.00 1.22889 0.02
5 0 6 2 o 54200.09 52513.33 0.00 1.22843 0.41
6 1 5 1 o 30187.418 28951.758 0.00 1.22511 0.91
5 1 6 1 o 33392.410 32003.045 0.00 1.22326 1.01
2 4 7 1 o 257.178 246.672 0.00 1.22279 0.01
3 10 1 1 o 7031.510 6748.657 180.00 1.22269 0.30
6 1 5 2 o 30535.561 28951.758 0.00 1.22511 0.46
4 9 2 1 o 588.433 550.679 180.00 1.22134 0.02
1 10 3 1 o 15806.231 14792.984 0.00 1.22136 0.64
5 1 6 2 o 34704.988 32003.045 0.00 1.22326 0.53
5 8 2 1 o 61.225 57.881 180.00 1.22007 0.00
2 4 7 2 o 267.627 246.672 0.00 1.22279 0.00
3 10 1 2 o 7271.382 6748.657 180.00 1.22269 0.15
2 9 4 1 o 63613.18 61097.32 0.00 1.21935 2.19
6 7 1 1 o 2027.944 2005.018 0.00 1.21887 0.06
4 9 2 2 o 559.003 550.679 180.00 1.22134 0.01
1 10 3 2 o 15008.968 14792.984 0.00 1.22136 0.30
5 8 2 2 o 58.129 57.881 180.00 1.22007 0.00
2 8 5 1 o 42982.84 43195.90 0.00 1.21659 1.39
7 3 3 1 o 96139.41 97532.59 0.00 1.21628 2.90
2 9 4 2 o 60361.22 61097.32 0.00 1.21935 1.02
0 5 7 1 o 2306.764 2359.504 180.00 1.21601 0.04
6 7 1 2 o 1952.468 2005.018 0.00 1.21887 0.03
7 5 1 1 o 92.632 92.668 0.00 1.21424 0.00
2 8 5 2 o 42312.37 43195.90 0.00 1.21659 0.68
7 3 3 2 o 96695.66 97532.59 0.00 1.21628 1.46
1 7 6 1 o 88.875 88.827 180.00 1.21311 0.00
0 5 7 2 o 2369.605 2359.504 180.00 1.21601 0.02
7 5 1 2 o 92.754 92.668 0.00 1.21424 0.00
5 5 5 1 o 20783.607 20998.449 180.00 1.21033 0.67
1 7 6 2 o 87.244 88.827 180.00 1.21311 0.00
6 2 5 1 o 56616.62 58058.61 180.00 1.20992 1.63
3 3 7 1 o 135583.36 140585.77 0.00 1.20975 4.02
5 2 6 1 o 12114.244 12267.018 0.00 1.20814 0.36
5 5 5 2 o 20564.834 20998.449 180.00 1.21033 0.33
6 2 5 2 o 56563.08 58058.61 180.00 1.20992 0.81
3 3 7 2 o 136849.73 140585.77 0.00 1.20975 2.03
1 5 7 1 o 6543.831 6703.788 180.00 1.20645 0.18
6 6 3 1 o 9478.246 9569.878 0.00 1.20590 0.30
8 0 0 1 o 134554.00 130324.84 0.00 1.20530 0.96
5 2 6 2 o 12730.990 12267.018 0.00 1.20814 0.19
0 11 1 1 o 121534.64 124349.32 180.00 1.20390 2.20
1 5 7 2 o 6461.920 6703.788 180.00 1.20645 0.09
6 6 3 2 o 9347.945 9569.878 0.00 1.20590 0.15
8 0 0 2 o 132437.27 130324.84 0.00 1.20530 0.47
3 6 6 1 o 53291.58 52853.54 180.00 1.20159 1.60
3 6 6 2 o 54493.10 52853.54 180.00 1.20159 0.82
0 11 1 2 o 124255.47 124349.32 180.00 1.20390 1.13
8 1 0 1 o 24076.666 23657.322 0.00 1.20041 0.37
8 1 0 2 o 26392.459 23657.322 0.00 1.20041 0.21
0 0 8 1 o 57385.41 52887.11 0.00 1.19517 0.43
1 11 1 1 o 16592.785 15511.138 180.00 1.19463 0.59
7 0 4 1 o 43076.90 41582.17 180.00 1.19349 0.61
3 10 2 1 o 61655.36 58963.99 180.00 1.19376 2.07
6 5 4 1 o 39419.61 38719.02 0.00 1.19309 1.11
2 10 3 1 o 4359.701 4294.470 0.00 1.19299 0.16
0 0 8 2 o 52476.68 52887.11 0.00 1.19517 0.19
1 11 1 2 o 15221.958 15511.138 180.00 1.19463 0.27
8 1 1 1 o 916.049 917.592 180.00 1.19106 0.03
7 0 4 2 o 42061.78 41582.17 180.00 1.19349 0.30
3 10 2 2 o 59352.46 58963.99 180.00 1.19376 0.98
6 5 4 2 o 38685.91 38719.02 0.00 1.19309 0.54
6 7 2 1 o 2309.145 2304.594 0.00 1.19020 0.09
4 5 6 1 o 709.289 715.223 180.00 1.19000 0.02
4 8 4 1 o 74077.50 75314.13 0.00 1.18993 2.39
2 10 3 2 o 4260.704 4294.470 0.00 1.19299 0.08
7 1 4 1 o 287.220 290.896 0.00 1.18875 0.01
8 1 1 2 o 994.159 917.592 180.00 1.19106 0.01
6 7 2 2 o 2544.458 2304.594 0.00 1.19020 0.05
4 5 6 2 o 756.889 715.223 180.00 1.19000 0.01
4 8 4 2 o 81145.25 75314.13 0.00 1.18993 1.33
8 2 0 1 o 4537.273 4121.001 0.00 1.18611 0.06
1 0 8 1 o 733.554 641.490 0.00 1.18610 0.01
7 1 4 2 o 328.424 290.896 0.00 1.18875 0.00
7 5 2 1 o 6640.901 5834.683 180.00 1.18589 0.20
6 3 5 1 o 799.797 685.234 180.00 1.18581 0.03
2 7 6 1 o 710.881 563.121 0.00 1.18530 0.03
5 3 6 1 o 8794.824 7210.838 0.00 1.18413 0.26
4 1 7 1 o 1628.661 1331.367 180.00 1.18371 0.04
8 2 0 2 o 5372.090 4121.001 0.00 1.18611 0.04
1 0 8 2 o 915.460 641.490 0.00 1.18610 0.01
7 5 2 2 o 7844.725 5834.683 180.00 1.18589 0.12
6 3 5 2 o 946.986 685.234 180.00 1.18581 0.02
7 4 3 1 o 2065.793 1653.039 180.00 1.18241 0.06
2 7 6 2 o 726.058 563.121 0.00 1.18530 0.01
1 1 8 1 o 16234.370 14813.298 180.00 1.18144 0.46
5 3 6 2 o 7810.289 7210.838 0.00 1.18413 0.11
4 1 7 2 o 1458.743 1331.367 180.00 1.18371 0.02
7 4 3 2 o 1972.251 1653.039 180.00 1.18241 0.03
5 7 4 1 o 33.109 26.314 0.00 1.17943 0.00
2 5 7 1 o 2122.037 1883.100 0.00 1.17908 0.06
1 1 8 2 o 16042.518 14813.298 180.00 1.18144 0.23
4 7 5 1 o 30414.555 28776.182 0.00 1.17808 0.93
8 2 1 1 o 12806.893 12319.935 0.00 1.17709 0.36
2 11 0 1 o 21155.434 20146.389 0.00 1.17685 0.38
0 2 8 1 o 122.301 116.463 180.00 1.17646 0.00
5 7 4 2 o 28.760 26.314 0.00 1.17943 0.00
3 4 7 1 o 4943.735 4622.992 180.00 1.17641 0.14
2 5 7 2 o 2032.556 1883.100 0.00 1.17908 0.03
4 7 5 2 o 31215.971 28776.182 0.00 1.17808 0.48
7 2 4 1 o 4820.449 4529.004 180.00 1.17486 0.14
8 2 1 2 o 12464.366 12319.935 0.00 1.17709 0.17
4 9 3 1 o 20790.166 20380.900 180.00 1.17438 0.65
2 11 0 2 o 20300.273 20146.389 0.00 1.17685 0.18
0 2 8 2 o 116.686 116.463 180.00 1.17646 0.00
3 4 7 2 o 4632.861 4622.992 180.00 1.17641 0.07
3 9 4 1 o 4163.973 4152.264 180.00 1.17334 0.13
5 8 3 1 o 31084.568 30945.896 180.00 1.17324 0.95
7 2 4 2 o 4458.734 4529.004 180.00 1.17486 0.06
0 9 5 1 o 216.622 219.383 180.00 1.17201 0.00
4 9 3 2 o 20059.805 20380.900 180.00 1.17438 0.31
3 8 5 1 o 1175.825 1113.077 0.00 1.17089 0.04
3 9 4 2 o 4428.351 4152.264 180.00 1.17334 0.07
5 8 3 2 o 33101.348 30945.896 180.00 1.17324 0.51
4 2 7 1 o 138.916 124.216 180.00 1.16999 0.00
0 9 5 2 o 243.065 219.383 180.00 1.17201 0.00
8 0 2 1 o 31281.314 28394.389 0.00 1.16872 0.43
3 8 5 2 o 1177.556 1113.077 0.00 1.17089 0.02
1 2 8 1 o 27458.588 26534.117 0.00 1.16780 0.76
2 11 1 1 o 11411.482 10799.570 0.00 1.16804 0.39
4 10 0 1 o 140142.80 135308.98 0.00 1.16781 2.28
1 11 2 1 o 8861.698 8725.218 180.00 1.16760 0.30
4 2 7 2 o 122.876 124.216 180.00 1.16999 0.00
5 9 1 1 o 928.373 939.115 0.00 1.16692 0.04
8 0 2 2 o 29702.371 28394.389 0.00 1.16872 0.20
0 10 4 1 o 126338.25 122757.70 0.00 1.16549 2.09
1 2 8 2 o 26182.629 26534.117 0.00 1.16780 0.36
2 11 1 2 o 10815.472 10799.570 0.00 1.16804 0.18
4 10 0 2 o 133571.11 135308.98 0.00 1.16781 1.07
1 11 2 2 o 8551.232 8725.218 180.00 1.16760 0.14
8 1 2 1 o 0.084 0.695 180.00 1.16427 0.00
5 9 1 2 o 930.590 939.115 0.00 1.16692 0.02
8 3 0 1 o 13040.090 12338.021 0.00 1.16337 0.21
1 9 5 1 o 6046.015 5797.019 180.00 1.16345 0.18
7 6 1 1 o 1253.103 1239.464 180.00 1.16249 0.04
0 10 4 2 o 124618.67 122757.70 0.00 1.16549 1.02
8 1 2 2 o 3.062 0.695 180.00 1.16427 0.00
8 3 0 2 o 15099.803 12338.021 0.00 1.16337 0.12
1 9 5 2 o 6822.495 5797.019 180.00 1.16345 0.10
2 0 8 1 o 1476.268 1124.409 0.00 1.16006 0.03
7 6 1 2 o 1494.499 1239.464 180.00 1.16249 0.02
5 6 5 1 o 864.000 753.025 180.00 1.15906 0.02
4 10 1 1 o 1346.808 1093.717 180.00 1.15920 0.05
6 8 0 1 o 35294.11 35287.16 180.00 1.15752 0.51
2 0 8 2 o 1154.811 1124.409 0.00 1.16006 0.01
1 10 4 1 o 431.204 421.641 0.00 1.15707 0.01
5 6 5 2 o 771.440 753.025 180.00 1.15906 0.01
4 10 1 2 o 1131.192 1093.717 180.00 1.15920 0.02
2 1 8 1 o 14317.298 14051.665 180.00 1.15570 0.37
1 6 7 1 o 13111.676 12895.450 0.00 1.15565 0.33
8 3 1 1 o 85321.46 81967.23 180.00 1.15485 2.33
6 8 0 2 o 36707.64 35287.16 180.00 1.15752 0.27
6 4 5 1 o 11141.658 10787.611 0.00 1.15435 0.31
1 10 4 2 o 433.404 421.641 0.00 1.15707 0.01
2 1 8 2 o 14821.218 14051.665 180.00 1.15570 0.19
5 4 6 1 o 1899.749 1794.305 0.00 1.15281 0.05
7 3 4 1 o 1158.266 1087.774 0.00 1.15275 0.04
1 6 7 2 o 13536.480 12895.450 0.00 1.15565 0.17
0 8 6 1 o 6966.488 6545.597 180.00 1.15245 0.13
8 3 1 2 o 88376.38 81967.23 180.00 1.15485 1.21
6 4 5 2 o 12042.124 10787.611 0.00 1.15435 0.17
8 2 2 1 o 16827.623 14941.921 0.00 1.15121 0.47
5 4 6 2 o 1872.537 1794.305 0.00 1.15281 0.03
7 3 4 2 o 1150.582 1087.774 0.00 1.15275 0.02
3 10 3 1 o 440.118 425.094 180.00 1.14980 0.01
0 8 6 2 o 7209.438 6545.597 180.00 1.15245 0.07
6 8 1 1 o 25997.967 23714.459 0.00 1.14913 0.79
8 2 2 2 o 16843.412 14941.921 0.00 1.15121 0.23
4 3 7 1 o 2141.123 1885.142 180.00 1.14815 0.06
3 10 3 2 o 454.790 425.094 180.00 1.14980 0.00
6 7 3 1 o 29293.199 26494.734 0.00 1.14661 0.86
6 8 1 2 o 25684.777 23714.459 0.00 1.14913 0.39
1 3 8 1 o 4904.894 4563.782 180.00 1.14608 0.14
4 3 7 2 o 2108.162 1885.142 180.00 1.14815 0.03
1 8 6 1 o 1561.814 1320.433 0.00 1.14431 0.05
6 6 4 1 o 827.449 700.347 180.00 1.14390 0.02
6 7 3 2 o 31542.877 26494.734 0.00 1.14661 0.47
1 3 8 2 o 5171.206 4563.782 180.00 1.14608 0.07
2 2 8 1 o 301.403 276.579 180.00 1.14293 0.01
3 7 6 1 o 19.659 16.787 180.00 1.14291 0.00
7 5 3 1 o 22211.324 20060.977 0.00 1.14276 0.67
2 11 2 1 o 117.814 111.752 0.00 1.14274 0.00
5 9 2 1 o 51167.89 48363.56 180.00 1.14169 1.55
1 8 6 2 o 1381.927 1320.433 0.00 1.14431 0.02
4 6 6 1 o 26784.703 26096.855 0.00 1.14117 0.75
6 6 4 2 o 714.781 700.347 180.00 1.14390 0.01
2 2 8 2 o 287.147 276.579 180.00 1.14293 0.00
3 7 6 2 o 18.049 16.787 180.00 1.14291 0.00
7 5 3 2 o 21177.350 20060.977 0.00 1.14276 0.31
2 11 2 2 o 114.925 111.752 0.00 1.14274 0.00
5 9 2 2 o 48471.41 48363.56 180.00 1.14169 0.72
2 9 5 1 o 8661.160 8656.898 0.00 1.13884 0.26
4 6 6 2 o 26020.623 26096.855 0.00 1.14117 0.36
7 6 2 1 o 36706.17 36221.07 180.00 1.13754 1.00
3 5 7 1 o 37774.63 38032.14 0.00 1.13733 1.07
2 9 5 2 o 8228.063 8656.898 0.00 1.13884 0.12
7 6 2 2 o 36427.27 36221.07 180.00 1.13754 0.49
3 5 7 2 o 37483.29 38032.14 0.00 1.13733 0.53
4 10 2 1 o 24288.959 24829.063 0.00 1.13445 0.72
0 11 3 1 o -0.199 0.002 0.00 1.13413 0.00
8 4 0 1 o 2962.279 3167.962 180.00 1.13363 0.04
2 10 4 1 o 2658.878 2672.467 180.00 1.13285 0.07
6 0 6 1 o 271.924 286.132 180.00 1.13156 0.01
2 6 7 1 o 38.630 41.165 180.00 1.13153 0.00
4 10 2 2 o 24138.334 24829.063 0.00 1.13445 0.35
0 11 3 2 o -0.095 0.002 0.00 1.13413 0.00
8 4 0 2 o 3245.746 3167.962 180.00 1.13363 0.02
8 3 2 1 o 495.870 440.166 180.00 1.13038 0.02
2 10 4 2 o 3230.275 2672.467 180.00 1.13285 0.05
6 0 6 2 o 342.694 286.132 180.00 1.13156 0.00
2 6 7 2 o 51.340 41.165 180.00 1.13153 0.00
8 3 2 2 o 602.078 440.166 180.00 1.13038 0.01
6 1 6 1 o 23440.660 19016.725 180.00 1.12752 0.67
3 11 1 1 o 12567.742 10339.528 180.00 1.12741 0.42
1 11 3 1 o 35060.633 32403.531 180.00 1.12636 1.09
8 4 1 1 o 2103.457 2067.206 180.00 1.12574 0.05
0 4 8 1 o 34924.949 34720.293 180.00 1.12519 0.51
6 8 2 1 o 25720.072 25574.416 180.00 1.12502 0.77
6 1 6 2 o 19291.873 19016.725 180.00 1.12752 0.27
3 11 1 2 o 10536.646 10339.528 180.00 1.12741 0.17
7 4 4 1 o 1.563 1.293 180.00 1.12379 0.00
8 1 3 1 o 24198.523 23437.463 180.00 1.12337 0.61
1 11 3 2 o 33672.027 32403.531 180.00 1.12636 0.52
8 4 1 2 o 2093.225 2067.206 180.00 1.12574 0.03
2 3 8 1 o 3759.707 3839.554 180.00 1.12254 0.09
0 4 8 2 o 33512.535 34720.293 180.00 1.12519 0.24
6 8 2 2 o 24409.031 25574.416 180.00 1.12502 0.36
7 4 4 2 o 1.389 1.293 180.00 1.12379 0.00
2 8 6 1 o 13452.129 13191.509 180.00 1.12087 0.43
8 1 3 2 o 23865.451 23437.463 180.00 1.12337 0.30
3 0 8 1 o 77112.45 76858.16 180.00 1.12023 0.98
2 3 8 2 o 3673.774 3839.554 180.00 1.12254 0.04
4 4 7 1 o 21.557 23.829 180.00 1.11953 0.00
2 8 6 2 o 13285.109 13191.509 180.00 1.12087 0.21
1 4 8 1 o 49273.54 49243.89 0.00 1.11761 1.26
3 0 8 2 o 76257.99 76858.16 180.00 1.12023 0.48
6 5 5 1 o 2156.190 2186.871 0.00 1.11737 0.05
4 4 7 2 o 22.799 23.829 180.00 1.11953 0.00
4 9 4 1 o 7433.694 7711.521 0.00 1.11688 0.23
3 1 8 1 o 7457.155 7542.175 0.00 1.11631 0.19
5 5 6 1 o 33199.719 33622.160 180.00 1.11597 0.88
5 8 4 1 o 2437.473 2471.138 0.00 1.11591 0.07
6 2 6 1 o 8625.564 8814.531 180.00 1.11564 0.23
1 4 8 2 o 49328.77 49243.89 0.00 1.11761 0.63
4 8 5 1 o 3070.247 3065.317 0.00 1.11477 0.09
6 5 5 2 o 2187.391 2186.871 0.00 1.11737 0.03
4 9 4 2 o 7857.537 7711.521 0.00 1.11688 0.12
7 1 5 1 o 32255.467 31166.197 0.00 1.11380 0.89
3 1 8 2 o 7774.320 7542.175 0.00 1.11631 0.10
5 5 6 2 o 33859.316 33622.160 180.00 1.11597 0.45
5 8 4 2 o 2473.003 2471.138 0.00 1.11591 0.03
6 2 6 2 o 8562.719 8814.531 180.00 1.11564 0.11
0 12 0 1 o 2450.920 2460.155 0.00 1.11243 0.01
4 8 5 2 o 3298.376 3065.317 0.00 1.11477 0.05
8 2 3 1 o 3145.809 2791.261 180.00 1.11163 0.08
7 1 5 2 o 37994.77 31166.197 0.00 1.11380 0.54
5 1 7 1 o 7909.465 6235.316 180.00 1.11078 0.23
0 7 7 1 o 788.008 640.881 180.00 1.11045 0.01
0 12 0 2 o 3074.739 2460.155 0.00 1.11243 0.01
7 7 1 1 o 12628.910 9734.774 180.00 1.10911 0.34
8 2 3 2 o 3537.822 2791.261 180.00 1.11163 0.05
5 1 7 2 o 7926.623 6235.316 180.00 1.11078 0.11
0 7 7 2 o 836.837 640.881 180.00 1.11045 0.01
7 7 1 2 o 10884.847 9734.774 180.00 1.10911 0.14
5 7 5 1 o 2206.994 2082.100 180.00 1.10612 0.05
3 2 8 1 o 6829.869 6180.459 180.00 1.10478 0.17
3 11 2 1 o 4409.029 4011.771 0.00 1.10461 0.14
2 11 3 1 o 16345.163 15382.508 0.00 1.10399 0.50
5 7 5 2 o 2077.928 2082.100 180.00 1.10612 0.02
8 4 2 1 o 5574.904 5965.691 0.00 1.10304 0.14
1 7 7 1 o 75477.11 78831.53 180.00 1.10316 2.02
5 9 3 1 o 7086.699 7665.875 180.00 1.10305 0.24
7 2 5 1 o 647.062 722.132 180.00 1.10235 0.02
3 2 8 2 o 5872.697 6180.459 180.00 1.10478 0.07
3 11 2 2 o 3851.655 4011.771 0.00 1.10461 0.06
2 11 3 2 o 14642.079 15382.508 0.00 1.10399 0.22
3 9 5 1 o 14176.570 15060.100 0.00 1.10109 0.41
8 4 2 2 o 5571.475 5965.691 0.00 1.10304 0.07
1 7 7 2 o 73341.20 78831.53 180.00 1.10316 0.97
5 9 3 2 o 7058.375 7665.875 180.00 1.10305 0.12
7 2 5 2 o 696.287 722.132 180.00 1.10235 0.01
5 2 7 1 o 56938.90 59096.09 0.00 1.09942 1.47
7 6 3 1 o 3941.231 4130.038 180.00 1.09931 0.11
8 5 0 1 o 25859.008 27288.438 180.00 1.09854 0.35
3 9 5 2 o 14484.679 15060.100 0.00 1.10109 0.21
1 12 1 1 o 17440.938 17577.004 180.00 1.09779 0.57
5 2 7 2 o 58969.38 59096.09 0.00 1.09942 0.76
6 3 6 1 o 8463.982 8503.188 180.00 1.09666 0.24
7 6 3 2 o 4101.133 4130.038 180.00 1.09931 0.06
4 10 3 1 o 243.082 245.824 0.00 1.09652 0.01
8 5 0 2 o 26177.055 27288.438 180.00 1.09854 0.18
2 4 8 1 o 8584.051 9056.469 180.00 1.09575 0.26
3 10 4 1 o 23710.805 24908.744 180.00 1.09568 0.67
1 12 1 2 o 16307.007 17577.004 180.00 1.09779 0.26
3 6 7 1 o 17711.439 18564.689 180.00 1.09448 0.50
6 3 6 2 o 7789.529 8503.188 180.00 1.09666 0.11
4 10 3 2 o 225.991 245.824 0.00 1.09652 0.00
2 4 8 2 o 8886.684 9056.469 180.00 1.09575 0.14
8 3 3 1 o 220.235 222.725 180.00 1.09284 0.00
6 7 4 1 o 2288.668 2329.805 180.00 1.09292 0.08
3 10 4 2 o 24560.564 24908.744 180.00 1.09568 0.35
3 6 7 2 o 18492.055 18564.689 180.00 1.09448 0.26
8 5 1 1 o 24179.008 23841.676 180.00 1.09136 0.62
4 7 6 1 o 192.911 171.266 0.00 1.09054 0.01
5 10 1 1 o 5567.810 5095.787 180.00 1.09044 0.18
8 3 3 2 o 238.021 222.725 180.00 1.09284 0.00
6 7 4 2 o 2584.717 2329.805 180.00 1.09292 0.05
6 9 0 1 o 54949.79 51666.33 0.00 1.08996 0.79
7 5 4 1 o 863.188 843.911 180.00 1.08958 0.02
8 5 1 2 o 24939.115 23841.676 180.00 1.09136 0.32
6 8 3 1 o 7689.586 7329.660 180.00 1.08799 0.21
4 7 6 2 o 180.837 171.266 0.00 1.09054 0.00
5 10 1 2 o 5235.831 5095.787 180.00 1.09044 0.08
1 10 5 1 o 6723.529 6683.586 180.00 1.08761 0.24
7 7 2 1 o 121.465 127.487 180.00 1.08738 0.00
6 9 0 2 o 48934.36 51666.33 0.00 1.08996 0.34
7 5 4 2 o 768.859 843.911 180.00 1.08958 0.01
3 3 8 1 o 1702.260 1689.432 0.00 1.08633 0.04
4 5 7 1 o 2013.202 1865.278 180.00 1.08570 0.05
6 8 3 2 o 7744.071 7329.660 180.00 1.08799 0.11
1 10 5 2 o 6818.247 6683.586 180.00 1.08761 0.12
3 8 6 1 o 41505.77 41399.10 180.00 1.08482 1.12
7 7 2 2 o 125.304 127.487 180.00 1.08738 0.00
7 3 5 1 o 40.339 40.346 0.00 1.08402 0.00
1 5 8 1 o 18961.387 20267.100 0.00 1.08394 0.48
4 11 0 1 o 2942.434 3177.122 0.00 1.08395 0.05
3 3 8 2 o 1564.763 1689.432 0.00 1.08633 0.02
2 12 0 1 o 29213.563 31390.928 180.00 1.08395 0.48
0 12 2 1 o 18643.637 20402.746 0.00 1.08348 0.31
4 5 7 2 o 1710.256 1865.278 180.00 1.08570 0.02
6 9 1 1 o 16822.420 18275.990 0.00 1.08294 0.45
3 8 6 2 o 39009.71 41399.10 180.00 1.08482 0.52
2 7 7 1 o 1128.137 1191.098 0.00 1.08212 0.03
7 3 5 2 o 40.344 40.346 0.00 1.08402 0.00
5 3 7 1 o 28986.229 29873.363 180.00 1.08124 0.67
1 5 8 2 o 19689.334 20267.100 0.00 1.08394 0.25
4 11 0 2 o 3074.984 3177.122 0.00 1.08395 0.03
2 12 0 2 o 30443.367 31390.928 180.00 1.08395 0.25
0 12 2 2 o 18723.301 20402.746 0.00 1.08348 0.15
6 9 1 2 o 16062.217 18275.990 0.00 1.08294 0.21
2 7 7 2 o 1229.136 1191.098 0.00 1.08212 0.02
1 9 6 1 o 18375.627 17044.873 180.00 1.07890 0.50
5 3 7 2 o 31301.195 29873.363 180.00 1.08124 0.37
4 11 1 1 o 2382.537 2139.153 0.00 1.07705 0.07
2 12 1 1 o 32304.563 29181.170 0.00 1.07705 0.98
6 6 5 1 o 26866.779 26211.313 0.00 1.07665 0.69
1 12 2 1 o 586.998 564.178 0.00 1.07671 0.02
8 0 4 1 o 7570.887 7842.575 180.00 1.07622 0.09
1 9 6 2 o 16496.771 17044.873 180.00 1.07890 0.22
5 6 6 1 o 19915.033 21074.520 0.00 1.07540 0.49
1 11 4 1 o 1772.784 1878.786 180.00 1.07534 0.05
4 11 1 2 o 2291.504 2139.153 0.00 1.07705 0.04
2 12 1 2 o 31143.119 29181.170 0.00 1.07705 0.47
6 6 5 2 o 26764.047 26211.313 0.00 1.07665 0.34
1 12 2 2 o 583.198 564.178 0.00 1.07671 0.01
8 0 4 2 o 7747.408 7842.575 180.00 1.07622 0.05
8 1 4 1 o 2866.714 2772.641 180.00 1.07274 0.05
5 6 6 2 o 22021.787 21074.520 0.00 1.07540 0.28
1 11 4 2 o 1962.109 1878.786 180.00 1.07534 0.03
6 4 6 1 o 8157.640 8357.736 180.00 1.07164 0.19
4 0 8 1 o 10080.255 10414.044 180.00 1.07079 0.11
8 5 2 1 o 13.615 13.681 180.00 1.07064 0.00
8 1 4 2 o 2802.934 2772.641 180.00 1.07274 0.03
5 10 2 1 o 17849.396 17833.680 0.00 1.06977 0.50
3 11 3 1 o 6165.072 6238.374 180.00 1.06950 0.16
6 4 6 2 o 8103.777 8357.736 180.00 1.07164 0.09
4 0 8 2 o 10583.320 10414.044 180.00 1.07079 0.06
8 4 3 1 o 189.868 186.632 0.00 1.06808 0.00
8 5 2 2 o 13.735 13.681 180.00 1.07064 0.00
4 1 8 1 o 0.425 0.467 180.00 1.06736 0.00
2 10 5 1 o 8194.828 8142.285 0.00 1.06743 0.23
5 10 2 2 o 17553.848 17833.680 0.00 1.06977 0.25
3 11 3 2 o 6294.341 6238.374 180.00 1.06950 0.08
8 4 3 2 o 202.557 186.632 0.00 1.06808 0.00
4 1 8 2 o 4.687 0.467 180.00 1.06736 0.00
2 10 5 2 o 9398.412 8142.285 0.00 1.06743 0.14
2 5 8 1 o 18565.912 16566.250 0.00 1.06396 0.45
8 2 4 1 o 19850.025 17000.287 0.00 1.06250 0.50
6 9 2 1 o 1004.381 864.116 0.00 1.06269 0.02
3 4 8 1 o 347.377 337.782 0.00 1.06200 0.01
9 1 1 1 o 332.468 383.076 0.00 1.06134 0.01
2 5 8 2 o 15286.582 16566.250 0.00 1.06396 0.18
8 2 4 2 o 17458.750 17000.287 0.00 1.06250 0.21
6 9 2 2 o 900.875 864.116 0.00 1.06269 0.01
7 4 5 1 o 373.993 364.960 0.00 1.05984 0.01
8 6 0 1 o 51758.52 51116.77 0.00 1.05977 0.64
3 4 8 2 o 323.392 337.782 0.00 1.06200 0.00
0 1 9 1 o 13764.408 15608.197 0.00 1.05903 0.15
2 9 6 1 o 16816.781 18325.416 0.00 1.05919 0.44
9 1 1 2 o 262.870 383.076 0.00 1.06134 0.01
4 2 8 1 o 3140.142 3391.878 0.00 1.05727 0.08
7 4 5 2 o 334.403 364.960 0.00 1.05984 0.00
5 4 7 1 o 7985.764 8586.713 180.00 1.05723 0.19
8 6 0 2 o 47604.18 51116.77 0.00 1.05977 0.29
4 11 2 1 o 546.198 611.187 180.00 1.05712 0.02
2 12 2 1 o 5232.892 5556.991 180.00 1.05712 0.12
0 1 9 2 o 14241.971 15608.197 0.00 1.05903 0.08
2 9 6 2 o 16691.934 18325.416 0.00 1.05919 0.22
7 8 1 1 o 1214.840 1366.421 0.00 1.05579 0.03
2 11 4 1 o 6460.975 7176.086 180.00 1.05582 0.16
5 9 4 1 o 6099.417 6546.182 180.00 1.05500 0.16
4 2 8 2 o 3277.151 3391.878 0.00 1.05727 0.04
5 4 7 2 o 8338.342 8586.713 180.00 1.05723 0.10
4 11 2 2 o 590.457 611.187 180.00 1.05712 0.01
2 12 2 2 o 5454.260 5556.991 180.00 1.05712 0.07
4 9 5 1 o 14748.709 15441.438 180.00 1.05404 0.38
7 7 3 1 o 23728.881 25417.611 180.00 1.05383 0.62
8 6 1 1 o 5347.097 5706.679 180.00 1.05332 0.13
7 8 1 2 o 1297.023 1366.421 0.00 1.05579 0.02
5 8 5 1 o 4294.374 4557.848 0.00 1.05322 0.12
2 11 4 2 o 6822.327 7176.086 180.00 1.05582 0.09
0 6 8 1 o 10702.898 10910.719 0.00 1.05287 0.13
1 1 9 1 o 16971.047 17297.789 180.00 1.05270 0.40
5 9 4 2 o 6390.158 6546.182 180.00 1.05500 0.08
7 6 4 1 o 16595.129 16489.936 180.00 1.05172 0.41
9 2 1 1 o 21629.916 21656.098 0.00 1.05142 0.53
4 9 5 2 o 15436.178 15441.438 180.00 1.05404 0.20
7 7 3 2 o 25307.414 25417.611 180.00 1.05383 0.34
8 6 1 2 o 5747.469 5706.679 180.00 1.05332 0.07
1 8 7 1 o 24306.980 24088.887 180.00 1.05066 0.65
5 8 5 2 o 4606.947 4557.848 0.00 1.05322 0.07
0 6 8 2 o 11216.889 10910.719 0.00 1.05287 0.07
1 1 9 2 o 18140.607 17297.789 180.00 1.05270 0.22
3 7 7 1 o 10480.303 9483.004 180.00 1.04958 0.28
7 6 4 2 o 17049.121 16489.936 180.00 1.05172 0.21
4 10 4 1 o 6805.924 6421.522 180.00 1.04928 0.18
9 2 1 2 o 21182.135 21656.098 0.00 1.05142 0.26
4 6 7 1 o 16.300 17.025 180.00 1.04823 0.00
1 8 7 2 o 23713.178 24088.887 180.00 1.05066 0.32
3 7 7 2 o 9858.304 9483.004 180.00 1.04958 0.13
1 6 8 1 o 1792.696 1844.523 0.00 1.04665 0.05
4 10 4 2 o 6306.904 6421.522 180.00 1.04928 0.08
8 3 4 1 o 34.814 34.791 180.00 1.04606 0.00
4 6 7 2 o 19.185 17.025 180.00 1.04823 0.00
9 0 2 1 o 6294.668 5813.588 0.00 1.04544 0.08
3 12 1 1 o 2523.874 2445.073 0.00 1.04495 0.06
9 1 2 1 o 28102.793 27388.801 0.00 1.04225 0.66
7 0 6 1 o 5250.624 5167.703 0.00 1.04211 0.06
1 6 8 2 o 1993.920 1844.523 0.00 1.04665 0.03
3 12 1 2 o 2507.789 2445.073 0.00 1.04495 0.03
1 12 3 1 o 17363.357 16093.823 180.00 1.04412 0.48
6 5 6 1 o 18138.432 18408.021 0.00 1.04185 0.46
6 8 4 1 o 116.558 117.472 180.00 1.04180 0.00
8 3 4 2 o 34.714 34.791 180.00 1.04606 0.00
1 12 3 2 o 15403.582 16093.823 180.00 1.04412 0.20
1 2 9 1 o 5238.207 5384.513 180.00 1.04301 0.15
9 0 2 2 o 5772.068 5813.588 0.00 1.04544 0.03
4 3 8 1 o 442.875 494.090 0.00 1.04107 0.02
1 2 9 2 o 4743.361 5384.513 180.00 1.04301 0.07
9 1 2 2 o 24544.025 27388.801 0.00 1.04225 0.28
4 8 6 1 o 11255.343 12492.521 0.00 1.03974 0.26
7 0 6 2 o 4641.512 5167.703 0.00 1.04211 0.03
6 5 6 2 o 16241.472 18408.021 0.00 1.04185 0.20
6 8 4 2 o 112.287 117.472 180.00 1.04180 0.00
7 1 6 1 o 1404.852 1569.204 180.00 1.03895 0.03
8 5 3 1 o 5910.911 6251.360 180.00 1.03858 0.14
4 3 8 2 o 457.484 494.090 0.00 1.04107 0.01
6 1 7 1 o 1756.268 1779.169 0.00 1.03762 0.04
5 10 3 1 o 1702.554 1712.131 180.00 1.03779 0.03
4 8 6 2 o 12127.941 12492.521 0.00 1.03974 0.14
7 8 2 1 o 24961.813 26061.287 180.00 1.03699 0.63
7 1 6 2 o 1558.312 1569.204 180.00 1.03895 0.02
8 5 3 2 o 6578.218 6251.360 180.00 1.03858 0.08
3 10 5 1 o 551.672 522.723 180.00 1.03616 0.02
9 3 1 1 o 5125.277 4605.829 180.00 1.03548 0.14
6 1 7 2 o 1876.832 1779.169 0.00 1.03762 0.02
5 10 3 2 o 1808.626 1712.131 180.00 1.03779 0.02
8 6 2 1 o 20333.324 20040.629 0.00 1.03466 0.51
2 1 9 1 o 73.498 73.487 0.00 1.03437 0.00
7 8 2 2 o 26121.688 26061.287 180.00 1.03699 0.33
6 7 5 1 o 23786.498 23314.465 0.00 1.03382 0.59
3 10 5 2 o 548.934 522.723 180.00 1.03616 0.01
0 3 9 1 o 37242.09 36460.59 180.00 1.03333 0.44
9 3 1 2 o 4524.806 4605.829 180.00 1.03548 0.06
3 5 8 1 o 7898.056 7989.753 180.00 1.03299 0.19
9 2 2 1 o 1091.643 1111.944 0.00 1.03285 0.03
5 7 6 1 o 3.403 3.537 180.00 1.03271 0.00
2 8 7 1 o 137.391 136.468 180.00 1.03243 0.00
8 6 2 2 o 20415.363 20040.629 0.00 1.03466 0.26
2 1 9 2 o 74.488 73.487 0.00 1.03437 0.00
6 7 5 2 o 23416.334 23314.465 0.00 1.03382 0.29
6 9 3 1 o 6195.168 6165.958 0.00 1.03132 0.16
7 5 5 1 o 795.614 797.751 0.00 1.03100 0.01
0 3 9 2 o 35536.02 36460.59 180.00 1.03333 0.21
3 5 8 2 o 7355.317 7989.753 180.00 1.03299 0.09
9 2 2 2 o 1000.776 1111.944 0.00 1.03285 0.01
5 7 6 2 o 2.583 3.537 180.00 1.03271 0.00
2 8 7 2 o 125.848 136.468 180.00 1.03243 0.00
7 2 6 1 o 19210.688 19293.949 180.00 1.02964 0.45
6 9 3 2 o 6453.354 6165.958 0.00 1.03132 0.08
5 5 7 1 o 7330.187 7213.347 180.00 1.02860 0.15
2 6 8 1 o 168.552 163.252 180.00 1.02863 0.01
3 9 6 1 o 8838.823 8642.379 0.00 1.02862 0.23
7 5 5 2 o 794.812 797.751 0.00 1.03100 0.00
6 2 7 1 o 143.725 148.534 0.00 1.02834 0.00
1 3 9 1 o 10648.127 10492.023 180.00 1.02745 0.26
7 2 6 2 o 19714.369 19293.949 180.00 1.02964 0.23
6 10 0 1 o 225.915 225.094 180.00 1.02686 0.00
3 12 2 1 o 4391.134 4416.027 180.00 1.02672 0.12
5 5 7 2 o 7036.783 7213.347 180.00 1.02860 0.07
2 6 8 2 o 157.446 163.252 180.00 1.02863 0.00
4 11 3 1 o 29299.152 29961.234 180.00 1.02622 0.79
2 12 3 1 o 7073.606 7228.863 180.00 1.02622 0.19
3 9 6 2 o 8398.236 8642.379 0.00 1.02862 0.11
6 2 7 2 o 142.423 148.534 0.00 1.02834 0.00
3 11 4 1 o 579.002 596.214 0.00 1.02553 0.02
2 2 9 1 o 40226.07 41500.81 180.00 1.02518 0.93
1 3 9 2 o 10106.218 10492.023 180.00 1.02745 0.12
0 11 5 1 o 15310.548 15764.294 0.00 1.02465 0.21
8 4 4 1 o 52886.54 54539.65 0.00 1.02428 1.25
6 10 0 2 o 220.099 225.094 180.00 1.02686 0.00
3 12 2 2 o 4273.362 4416.027 180.00 1.02672 0.06
4 11 3 2 o 28686.350 29961.234 180.00 1.02622 0.38
2 12 3 2 o 6930.119 7228.863 180.00 1.02622 0.09
0 10 6 1 o 19591.865 20774.260 0.00 1.02331 0.24
3 11 4 2 o 549.257 596.214 0.00 1.02553 0.01
2 2 9 2 o 37624.15 41500.81 180.00 1.02518 0.43
0 11 5 2 o 14552.278 15764.294 0.00 1.02465 0.10
8 4 4 2 o 53306.89 54539.65 0.00 1.02428 0.63
5 11 1 1 o 263.605 254.207 0.00 1.02124 0.01
6 10 1 1 o 4007.347 3812.958 0.00 1.02099 0.11
0 13 1 1 o 19.686 18.801 0.00 1.02099 0.00
0 10 6 2 o 21084.516 20774.260 0.00 1.02331 0.13
4 4 8 1 o 8717.321 9292.713 0.00 1.01959 0.17
8 7 0 1 o 1813.415 2170.652 180.00 1.01886 0.03
1 11 5 1 o 1843.922 2075.915 180.00 1.01891 0.05
5 11 1 2 o 235.668 254.207 0.00 1.02124 0.00
6 10 1 2 o 3585.766 3812.958 0.00 1.02099 0.05
0 13 1 2 o 17.772 18.801 0.00 1.02099 0.00
9 3 2 1 o 4876.130 4885.236 0.00 1.01773 0.11
1 10 6 1 o 41250.60 41838.96 0.00 1.01760 1.09
4 4 8 2 o 9342.815 9292.713 0.00 1.01959 0.09
8 1 5 1 o 36049.25 34059.930 180.00 1.01669 0.86
8 7 0 2 o 2382.482 2170.652 180.00 1.01886 0.02
1 11 5 2 o 2209.462 2075.915 180.00 1.01891 0.03
5 0 8 1 o 35417.72 33062.992 0.00 1.01589 0.42
9 3 2 2 o 4997.557 4885.236 0.00 1.01773 0.05
1 13 1 1 o 1207.966 1171.706 0.00 1.01531 0.03
1 10 6 2 o 42431.02 41838.96 0.00 1.01760 0.57
7 3 6 1 o 966.880 921.782 180.00 1.01466 0.03
9 4 1 1 o 3572.285 3264.244 180.00 1.01434 0.09
8 1 5 2 o 37903.94 34059.930 180.00 1.01669 0.46
6 3 7 1 o 936.624 861.845 0.00 1.01342 0.02
5 0 8 2 o 36147.52 33062.992 0.00 1.01589 0.22
8 7 1 1 o 927.928 871.070 0.00 1.01312 0.02
5 1 8 1 o 12304.134 11623.331 0.00 1.01297 0.28
9 1 3 1 o 5337.467 4898.589 180.00 1.01260 0.15
1 13 1 2 o 1235.563 1171.706 0.00 1.01531 0.02
7 3 6 2 o 1072.249 921.782 180.00 1.01466 0.01
9 4 1 2 o 3851.898 3264.244 180.00 1.01434 0.05
7 7 4 1 o 29.818 23.588 0.00 1.01170 0.00
6 3 7 2 o 1129.968 861.845 0.00 1.01342 0.01
8 7 1 2 o 1087.051 871.070 0.00 1.01312 0.01
5 1 8 2 o 13834.476 11623.331 0.00 1.01297 0.16
2 3 9 1 o 1193.848 1028.354 180.00 1.01039 0.03
9 1 3 2 o 5391.405 4898.589 180.00 1.01260 0.07
4 12 0 1 o 15194.590 14158.790 0.00 1.01007 0.20
7 7 4 2 o 23.289 23.588 0.00 1.01170 0.00
6 6 6 1 o 217.954 218.885 180.00 1.00861 0.00
4 7 7 1 o 1319.809 1318.838 180.00 1.00859 0.03
0 12 4 1 o 4561.542 4536.693 0.00 1.00856 0.05
8 2 5 1 o 15799.353 13851.968 180.00 1.00796 0.39
2 3 9 2 o 1179.213 1028.354 180.00 1.01039 0.01
7 8 3 1 o 3222.360 2762.276 0.00 1.00778 0.09
4 12 0 2 o 16572.301 14158.790 0.00 1.01007 0.11
1 7 8 1 o 6.270 3.973 0.00 1.00718 0.00
1 4 9 1 o 28.368 25.519 0.00 1.00679 0.00
6 6 6 2 o 245.388 218.885 180.00 1.00861 0.00
4 7 7 2 o 1485.787 1318.838 180.00 1.00859 0.02
3 1 9 1 o 11942.946 10380.446 0.00 1.00584 0.30
0 12 4 2 o 5004.183 4536.693 0.00 1.00856 0.03
8 6 3 1 o 1272.489 1133.259 0.00 1.00564 0.03
8 2 5 2 o 15611.090 13851.968 180.00 1.00796 0.19
7 8 3 2 o 3122.126 2762.276 0.00 1.00778 0.04
0 9 7 1 o 1323.918 1193.539 180.00 1.00477 0.02
1 7 8 2 o 4.973 3.973 0.00 1.00718 0.00
5 2 8 1 o 9002.539 8250.531 0.00 1.00433 0.21
1 4 9 2 o 26.688 25.519 0.00 1.00679 0.00
4 12 1 1 o 3270.793 2953.851 0.00 1.00448 0.10
9 2 3 1 o 33936.527 32712.857 0.00 1.00398 0.79
2 13 0 1 o 29423.916 26942.992 0.00 1.00433 0.44
5 11 2 1 o 9805.863 9115.879 0.00 1.00420 0.27
3 8 7 1 o 7554.293 7196.942 0.00 1.00406 0.18
6 10 2 1 o 6810.502 6576.299 180.00 1.00396 0.18
7 9 1 1 o 9254.760 9155.029 0.00 1.00377 0.28
3 1 9 2 o 10449.461 10380.446 0.00 1.00584 0.13
8 6 3 2 o 1152.272 1133.259 0.00 1.00564 0.01
1 12 4 1 o 3154.763 3090.598 0.00 1.00309 0.09
0 9 7 2 o 1194.479 1193.539 180.00 1.00477 0.01
2 11 5 1 o 7862.100 7854.203 0.00 1.00226 0.21
5 2 8 2 o 8320.361 8250.531 0.00 1.00433 0.10
4 12 1 2 o 2975.437 2953.851 0.00 1.00448 0.04
9 2 3 2 o 32758.805 32712.857 0.00 1.00398 0.38
2 13 0 2 o 27173.492 26942.992 0.00 1.00433 0.20
5 11 2 2 o 9179.689 9115.879 0.00 1.00420 0.13
3 8 7 2 o 7220.211 7196.942 0.00 1.00406 0.09
5 9 5 1 o 3058.000 3051.961 180.00 1.00156 0.06
6 10 2 2 o 6583.807 6576.299 180.00 1.00396 0.09
7 9 1 2 o 9160.589 9155.029 0.00 1.00377 0.14
2 10 6 1 o 2037.014 2014.931 180.00 1.00101 0.06
3 6 8 1 o 37962.41 38342.56 180.00 1.00056 0.92
1 12 4 2 o 3084.121 3090.598 0.00 1.00309 0.04
2 11 5 2 o 7437.166 7854.203 0.00 1.00226 0.10
1 9 7 1 o 5540.158 5781.232 180.00 0.99936 0.15
5 9 5 2 o 3036.179 3051.961 180.00 1.00156 0.03
7 6 5 1 o 596.723 568.771 0.00 0.99875 0.02
2 13 1 1 o 15043.660 14593.029 0.00 0.99884 0.44
2 10 6 2 o 2131.885 2014.931 180.00 1.00101 0.03
1 13 2 1 o 11528.033 10969.977 180.00 0.99856 0.32
8 5 4 1 o 6461.749 6372.559 0.00 0.99817 0.14
3 12 3 1 o 14929.732 14305.287 0.00 0.99834 0.44
3 6 8 2 o 38400.06 38342.56 180.00 1.00056 0.47
9 4 2 1 o 77.510 83.931 0.00 0.99764 0.00
3 2 9 1 o 217.445 273.303 180.00 0.99738 0.01
5 10 4 1 o 11062.033 12292.711 0.00 0.99747 0.29
1 9 7 2 o 5549.486 5781.232 180.00 0.99936 0.07
5 6 7 1 o 28673.797 28640.418 180.00 0.99657 0.73
4 10 5 1 o 318.922 320.047 0.00 0.99666 0.01
8 7 2 1 o 1160.384 1155.305 0.00 0.99648 0.04
7 6 5 2 o 571.184 568.771 0.00 0.99875 0.01
2 13 1 2 o 14641.734 14593.029 0.00 0.99884 0.21
1 13 2 2 o 11025.476 10969.977 180.00 0.99856 0.15
8 5 4 2 o 6437.508 6372.559 0.00 0.99817 0.07
3 12 3 2 o 14436.349 14305.287 0.00 0.99834 0.21
9 4 2 2 o 88.896 83.931 0.00 0.99764 0.00
3 2 9 2 o 314.415 273.303 180.00 0.99738 0.01
5 10 4 2 o 13231.008 12292.711 0.00 0.99747 0.18
7 4 6 1 o 57409.87 54132.19 180.00 0.99474 1.36
5 6 7 2 o 28405.592 28640.418 180.00 0.99657 0.36
4 10 5 2 o 319.447 320.047 0.00 0.99666 0.00
8 7 2 2 o 1131.608 1155.305 0.00 0.99648 0.02
8 3 5 1 o 6773.703 6949.301 0.00 0.99389 0.15
4 5 8 1 o 720.396 739.864 0.00 0.99384 0.01
6 4 7 1 o 110.671 118.040 180.00 0.99358 0.00
7 4 6 2 o 57094.07 54132.19 180.00 0.99474 0.68
6 9 4 1 o 22192.666 22523.984 180.00 0.99172 0.54
8 3 5 2 o 6865.173 6949.301 0.00 0.99389 0.08
4 5 8 2 o 735.791 739.864 0.00 0.99384 0.01
6 4 7 2 o 122.407 118.040 180.00 0.99358 0.00
2 7 8 1 o 186.881 178.266 180.00 0.99109 0.01
2 4 9 1 o 10750.941 9941.583 0.00 0.99072 0.26
5 3 8 1 o 2824.903 2636.709 0.00 0.99041 0.06
6 8 5 1 o 24066.514 22870.428 180.00 0.99024 0.61
9 3 3 1 o 3033.900 2978.350 180.00 0.99007 0.06
4 9 6 1 o 118.462 118.395 0.00 0.98994 0.00
5 8 6 1 o 14306.410 15590.085 0.00 0.98926 0.34
6 9 4 2 o 20789.373 22523.984 180.00 0.99172 0.25
9 5 1 1 o 2742.264 3322.470 180.00 0.98897 0.08
2 7 8 2 o 140.494 178.266 180.00 0.99109 0.00
2 4 9 2 o 8429.314 9941.583 0.00 0.99072 0.10
4 12 2 1 o 14458.612 17173.859 0.00 0.98825 0.41
5 3 8 2 o 2339.937 2636.709 0.00 0.99041 0.02
6 8 5 2 o 20657.457 22870.428 180.00 0.99024 0.25
9 3 3 2 o 2783.319 2978.350 180.00 0.99007 0.03
7 9 2 1 o 2601.846 2802.547 0.00 0.98757 0.06
4 9 6 2 o 114.998 118.395 0.00 0.98994 0.00
0 5 9 1 o 1399.310 1547.662 180.00 0.98710 0.02
4 11 4 1 o 11.945 20.675 0.00 0.98719 0.00
2 12 4 1 o 9909.199 10928.971 180.00 0.98719 0.30
5 8 6 2 o 13333.078 15590.085 0.00 0.98926 0.15
9 5 1 2 o 2498.078 3322.470 180.00 0.98897 0.04
4 12 2 2 o 11906.563 17173.859 0.00 0.98825 0.16
7 9 2 2 o 2142.534 2802.547 0.00 0.98757 0.02
0 5 9 2 o 1359.182 1547.662 180.00 0.98710 0.01
4 11 4 2 o 4.547 20.675 0.00 0.98719 0.00
2 12 4 2 o 9049.491 10928.971 180.00 0.98719 0.13
3 3 9 1 o 14458.699 12913.663 0.00 0.98374 0.33
2 9 7 1 o 1512.720 1354.569 0.00 0.98363 0.04
2 13 2 1 o 2152.579 2158.969 0.00 0.98288 0.07
1 5 9 1 o 11382.593 9847.729 180.00 0.98197 0.28
3 3 9 2 o 14285.701 12913.663 0.00 0.98374 0.16
2 9 7 2 o 1514.303 1354.569 0.00 0.98363 0.02
2 13 2 2 o 2627.971 2158.969 0.00 0.98288 0.04
1 5 9 2 o 12695.959 9847.729 180.00 0.98197 0.16
9 0 4 1 o 8658.765 7945.347 0.00 0.97766 0.11
5 11 3 1 o 661.814 600.226 0.00 0.97760 0.02
6 10 3 1 o 769.978 721.910 180.00 0.97738 0.02
0 13 3 1 o 26594.586 24794.648 180.00 0.97738 0.39
8 8 0 1 o 43086.25 41942.05 0.00 0.97706 0.54
3 11 5 1 o 13393.545 12974.995 0.00 0.97624 0.35
9 0 4 2 o 8746.878 7945.347 0.00 0.97766 0.05
8 4 5 1 o 2613.217 2390.828 0.00 0.97515 0.06
9 1 4 1 o 3705.698 3413.792 0.00 0.97505 0.08
5 11 3 2 o 666.388 600.226 0.00 0.97760 0.01
3 10 6 1 o 1380.097 1267.642 0.00 0.97509 0.04
6 10 3 2 o 779.251 721.910 180.00 0.97738 0.01
0 13 3 2 o 26945.270 24794.648 180.00 0.97738 0.20
8 8 0 2 o 44475.40 41942.05 0.00 0.97706 0.28
3 11 5 2 o 13312.807 12974.995 0.00 0.97624 0.18
9 5 2 1 o 35060.754 36084.03 180.00 0.97347 0.82
6 7 6 1 o 882.438 953.598 0.00 0.97314 0.03
3 13 1 1 o 3624.449 3785.491 0.00 0.97307 0.08
8 4 5 2 o 2286.950 2390.828 0.00 0.97515 0.03
9 1 4 2 o 3299.371 3413.792 0.00 0.97505 0.04
3 10 6 2 o 1219.843 1267.642 0.00 0.97509 0.02
1 13 3 1 o 1321.709 1318.979 0.00 0.97240 0.04
8 8 1 1 o 5193.821 5098.875 0.00 0.97200 0.13
5 4 8 1 o 1932.037 1910.693 0.00 0.97186 0.05
9 4 3 1 o 5374.251 5370.112 180.00 0.97155 0.12
0 8 8 1 o 13756.019 13717.219 0.00 0.97165 0.19
9 5 2 2 o 36290.85 36084.03 180.00 0.97347 0.43
7 5 6 1 o 1866.118 1867.391 0.00 0.97078 0.04
6 7 6 2 o 950.429 953.598 0.00 0.97314 0.02
7 8 4 1 o 12052.883 12083.178 180.00 0.97074 0.29
8 7 3 1 o 24288.650 24756.498 180.00 0.97047 0.58
3 13 1 2 o 3765.452 3785.491 0.00 0.97307 0.04
1 13 3 2 o 1269.415 1318.979 0.00 0.97240 0.02
6 5 7 1 o 574.049 598.639 0.00 0.96970 0.01
4 1 9 1 o 13148.407 13895.520 180.00 0.96959 0.30
8 8 1 2 o 4831.835 5098.875 0.00 0.97200 0.06
5 4 8 2 o 1794.512 1910.693 0.00 0.97186 0.02
9 4 3 2 o 5044.955 5370.112 180.00 0.97155 0.06
0 8 8 2 o 12708.518 13717.219 0.00 0.97165 0.08
8 6 4 1 o 283.034 293.419 180.00 0.96882 0.01
7 5 6 2 o 1757.887 1867.391 0.00 0.97078 0.02
7 8 4 2 o 11380.913 12083.178 180.00 0.97074 0.14
6 11 0 1 o 4005.622 4217.531 180.00 0.96845 0.04
8 7 3 2 o 23466.600 24756.498 180.00 0.97047 0.28
4 8 7 1 o -0.009 0.001 180.00 0.96799 0.00
9 2 4 1 o 3911.159 4257.859 0.00 0.96734 0.09
7 1 7 1 o 33159.020 35737.19 0.00 0.96736 0.70
6 5 7 2 o 551.961 598.639 0.00 0.96970 0.01
4 1 9 2 o 12312.434 13895.520 180.00 0.96959 0.14
2 5 9 1 o 37.127 42.694 180.00 0.96704 0.00
1 8 8 1 o 1459.503 1801.415 0.00 0.96675 0.03
8 6 4 2 o 237.710 293.419 180.00 0.96882 0.00
6 11 0 2 o 3739.670 4217.531 180.00 0.96845 0.02
3 7 8 1 o 22.750 24.522 0.00 0.96591 0.00
3 4 9 1 o 227.441 205.846 180.00 0.96556 0.01
4 8 7 2 o 0.016 0.001 180.00 0.96799 0.00
9 2 4 2 o 4840.012 4257.859 0.00 0.96734 0.06
7 1 7 2 o 40383.47 35737.19 0.00 0.96736 0.46
4 6 8 1 o 4580.750 4080.290 180.00 0.96486 0.11
2 5 9 2 o 46.414 42.694 180.00 0.96704 0.00
10 0 0 1 o 340.808 331.873 0.00 0.96424 0.00
1 8 8 2 o 1912.095 1801.415 0.00 0.96675 0.02
7 7 5 1 o 21677.486 20703.713 0.00 0.96428 0.56
3 7 8 2 o 23.451 24.522 0.00 0.96591 0.00
6 11 1 1 o 22589.271 23418.287 0.00 0.96352 0.59
3 4 9 2 o 199.628 205.846 180.00 0.96556 0.00
4 12 3 1 o 569.776 575.709 180.00 0.96287 0.02
4 6 8 2 o 4062.774 4080.290 180.00 0.96486 0.05
5 7 7 1 o 517.850 517.252 180.00 0.96232 0.02
7 9 3 1 o 4000.297 3991.763 0.00 0.96224 0.08
3 12 4 1 o 5032.111 5024.962 180.00 0.96230 0.13
4 2 9 1 o 2848.739 2844.832 180.00 0.96200 0.07
10 0 0 2 o 331.497 331.873 0.00 0.96424 0.00
7 7 5 2 o 20692.596 20703.713 0.00 0.96428 0.27
10 1 0 1 o 8412.273 8456.488 180.00 0.96173 0.09
8 0 6 1 o 2601.100 2662.219 180.00 0.96130 0.03
6 11 1 2 o 22819.045 23418.287 0.00 0.96352 0.30
1 11 6 1 o 3859.103 3963.496 0.00 0.96067 0.11
9 6 1 1 o 9826.645 10317.931 180.00 0.96040 0.24
4 12 3 2 o 553.871 575.709 180.00 0.96287 0.01
5 7 7 2 o 514.808 517.252 180.00 0.96232 0.01
7 2 7 1 o 1724.589 1693.525 180.00 0.95983 0.04
7 9 3 2 o 4028.916 3991.763 0.00 0.96224 0.04
3 12 4 2 o 5028.540 5024.962 180.00 0.96230 0.07
4 2 9 2 o 2974.677 2844.832 180.00 0.96200 0.04
10 1 0 2 o 8950.820 8456.488 180.00 0.96173 0.05
6 0 8 1 o 2832.009 2617.364 180.00 0.95903 0.03
8 0 6 2 o 2921.266 2662.219 180.00 0.96130 0.02
3 9 7 1 o 15653.937 14357.823 0.00 0.95900 0.38
8 1 6 1 o 9283.661 8342.447 180.00 0.95881 0.25
5 12 1 1 o 10081.571 9257.274 0.00 0.95875 0.27
1 11 6 2 o 4178.598 3963.496 0.00 0.96067 0.06
9 6 1 2 o 10501.652 10317.931 180.00 0.96040 0.13
3 13 2 1 o 6477.779 6160.881 0.00 0.95830 0.19
2 13 3 1 o 5719.469 5719.201 0.00 0.95790 0.16
7 2 7 2 o 1682.918 1693.525 180.00 0.95983 0.02
8 8 2 1 o 12770.489 12583.614 0.00 0.95727 0.32
10 1 1 1 o 29889.969 29018.865 0.00 0.95690 0.71
6 0 8 2 o 2653.580 2617.364 180.00 0.95903 0.01
6 1 8 1 o 14904.741 14844.788 0.00 0.95657 0.38
1 12 5 1 o 210.935 208.109 0.00 0.95682 0.00
3 9 7 2 o 14533.142 14357.823 0.00 0.95900 0.17
8 1 6 2 o 8231.641 8342.447 180.00 0.95881 0.11
5 12 1 2 o 9074.856 9257.274 0.00 0.95875 0.12
0 0 10 1 o 11168.600 11687.397 0.00 0.95614 0.05
3 13 2 2 o 5747.285 6160.881 0.00 0.95830 0.08
2 13 3 2 o 5221.782 5719.201 0.00 0.95790 0.07
9 3 4 1 o 1233.171 1330.774 0.00 0.95489 0.03
8 8 2 2 o 11602.187 12583.614 0.00 0.95727 0.14
10 1 1 2 o 28944.324 29018.865 0.00 0.95690 0.34
10 2 0 1 o 21998.986 21741.430 180.00 0.95433 0.27
6 1 8 2 o 15017.632 14844.788 0.00 0.95657 0.19
1 12 5 2 o 208.731 208.109 0.00 0.95682 0.00
1 6 9 1 o 2341.286 2335.190 0.00 0.95399 0.07
0 0 10 2 o 11563.619 11687.397 0.00 0.95614 0.03
7 10 1 1 o 108.875 109.613 0.00 0.95384 0.00
0 14 0 1 o 75452.41 78210.47 0.00 0.95351 0.53
9 3 4 2 o 1408.091 1330.774 0.00 0.95489 0.02
8 5 5 1 o 984.929 933.707 180.00 0.95255 0.02
2 8 8 1 o 669.448 608.462 0.00 0.95250 0.03
0 14 0 2 o 85098.49 78210.47 0.00 0.95351 0.31
10 2 0 2 o 25133.539 21741.430 180.00 0.95433 0.16
5 10 5 1 o 3.539 0.441 180.00 0.95194 0.00
8 5 5 2 o 1042.514 933.707 180.00 0.95255 0.01
1 6 9 2 o 2834.923 2335.190 0.00 0.95399 0.04
2 8 8 2 o 720.720 608.462 0.00 0.95250 0.01
8 2 6 1 o 4482.312 3912.424 0.00 0.95148 0.10
1 0 10 1 o 32137.051 27883.506 0.00 0.95147 0.39
1 10 7 1 o 203.901 199.820 180.00 0.95005 0.00
7 10 1 2 o 124.033 109.613 0.00 0.95384 0.00
4 3 9 1 o 32867.797 30359.760 0.00 0.94975 0.79
10 2 1 1 o 11051.950 10559.087 180.00 0.94961 0.26
5 10 5 2 o 1.336 0.441 180.00 0.95194 0.00
5 5 8 1 o 15279.709 15074.377 180.00 0.94948 0.36
6 2 8 1 o 62.010 65.392 0.00 0.94928 0.00
9 5 3 1 o 506.667 522.074 180.00 0.94918 0.01
8 2 6 2 o 3668.993 3912.424 0.00 0.95148 0.04
1 0 10 2 o 26014.900 27883.506 0.00 0.95147 0.15
1 1 10 1 o 3007.072 3264.036 0.00 0.94907 0.07
6 11 2 1 o 2162.238 2334.535 180.00 0.94917 0.07
7 3 7 1 o 2701.355 2669.331 180.00 0.94766 0.05
1 10 7 2 o 200.138 199.820 180.00 0.95005 0.00
4 3 9 2 o 31279.514 30359.760 0.00 0.94975 0.37
10 2 1 2 o 10900.720 10559.087 180.00 0.94961 0.13
5 5 8 2 o 15531.276 15074.377 180.00 0.94948 0.18
6 2 8 2 o 67.579 65.392 0.00 0.94928 0.00
9 5 3 2 o 527.722 522.074 180.00 0.94918 0.00
6 9 5 1 o 2108.963 2061.926 0.00 0.94694 0.06
1 1 10 2 o 3342.762 3264.036 0.00 0.94907 0.04
6 11 2 2 o 2395.154 2334.535 180.00 0.94917 0.04
2 11 6 1 o 5604.987 5440.522 180.00 0.94668 0.16
0 2 10 1 o 4176.792 3967.308 180.00 0.94648 0.05
9 6 2 1 o 1869.528 1754.751 0.00 0.94619 0.04
5 9 6 1 o 21701.660 20370.967 0.00 0.94609 0.57
7 3 7 2 o 2615.680 2669.331 180.00 0.94766 0.02
10 0 2 1 o 2425.665 2529.409 180.00 0.94520 0.02
6 9 5 2 o 2172.789 2061.926 0.00 0.94694 0.03
4 13 0 1 o 665.500 654.802 0.00 0.94472 0.01
5 12 2 1 o 2500.466 2373.145 0.00 0.94461 0.07
2 11 6 2 o 5963.326 5440.522 180.00 0.94668 0.09
0 2 10 2 o 4344.949 3967.308 180.00 0.94648 0.03
1 14 1 1 o 2516.200 2241.581 0.00 0.94425 0.10
9 6 2 2 o 1935.478 1754.751 0.00 0.94619 0.02
7 6 6 1 o 220.993 196.212 0.00 0.94372 0.01
5 9 6 2 o 22769.035 20370.967 0.00 0.94609 0.30
3 5 9 1 o 7212.683 6491.830 0.00 0.94360 0.16
5 11 4 1 o 1603.811 1428.381 0.00 0.94368 0.04
6 10 4 1 o 20966.260 18649.850 180.00 0.94349 0.56
10 0 2 2 o 2611.306 2529.409 180.00 0.94520 0.01
10 1 2 1 o 2509.711 2430.108 180.00 0.94284 0.07
4 11 5 1 o 55825.08 52256.07 180.00 0.94299 1.53
2 12 5 1 o 35705.05 33451.000 180.00 0.94299 1.00
6 6 7 1 o 114.174 114.245 180.00 0.94272 0.00
10 3 0 1 o 997.059 1015.528 180.00 0.94236 0.01
4 13 0 2 o 640.160 654.802 0.00 0.94472 0.00
5 12 2 2 o 2313.405 2373.145 0.00 0.94461 0.03
1 2 10 1 o 6802.509 6954.529 0.00 0.94195 0.16
4 10 6 1 o 4771.353 4885.607 180.00 0.94195 0.13
1 14 1 2 o 2173.987 2241.581 0.00 0.94425 0.04
7 6 6 2 o 201.294 196.212 0.00 0.94372 0.00
3 5 9 2 o 6787.026 6491.830 0.00 0.94360 0.07
5 11 4 2 o 1475.447 1428.381 0.00 0.94368 0.02
6 10 4 2 o 20039.502 18649.850 180.00 0.94349 0.26
10 1 2 2 o 2718.065 2430.108 180.00 0.94284 0.04
4 11 5 2 o 58300.83 52256.07 180.00 0.94299 0.81
2 12 5 2 o 37275.20 33451.000 180.00 0.94299 0.53
6 6 7 2 o 124.919 114.245 180.00 0.94272 0.00
2 6 9 1 o 22627.146 21461.178 0.00 0.94028 0.56
10 3 0 2 o 1027.251 1015.528 180.00 0.94236 0.00
4 13 1 1 o 34007.719 33042.621 180.00 0.94014 0.96
7 10 2 1 o 15790.195 15705.158 0.00 0.93991 0.41
8 3 6 1 o 4322.277 4394.121 180.00 0.93962 0.13
1 2 10 2 o 6867.951 6954.529 0.00 0.94195 0.08
4 10 6 2 o 4822.593 4885.607 180.00 0.94195 0.07
1 13 4 1 o 1802.105 1948.585 180.00 0.93900 0.05
9 4 4 1 o 2044.487 1916.496 0.00 0.93823 0.05
2 6 9 2 o 22292.596 21461.178 0.00 0.94028 0.28
10 3 1 1 o 9.081 9.063 180.00 0.93782 0.00
2 0 10 1 o 218.915 217.654 0.00 0.93787 0.00
4 13 1 2 o 33122.266 33042.621 180.00 0.94014 0.46
6 3 8 1 o 5786.758 6454.807 0.00 0.93750 0.16
7 10 2 2 o 14734.287 15705.158 0.00 0.93991 0.19
8 3 6 2 o 3728.442 4394.121 180.00 0.93962 0.05
8 7 4 1 o 937.603 1135.469 180.00 0.93727 0.03
6 8 6 1 o 692.253 684.472 180.00 0.93653 0.02
1 13 4 2 o 1938.492 1948.585 180.00 0.93900 0.03
2 10 7 1 o 18.369 18.157 180.00 0.93651 0.00
9 4 4 2 o 2056.125 1916.496 0.00 0.93823 0.02
10 2 2 1 o 8545.760 7897.701 180.00 0.93586 0.20
10 3 1 2 o 10.488 9.063 180.00 0.93782 0.00
2 0 10 2 o 223.985 217.654 0.00 0.93787 0.00
2 1 10 1 o 21479.230 19895.891 180.00 0.93557 0.53
8 9 0 1 o 14554.045 13768.714 0.00 0.93540 0.20
6 3 8 2 o 6587.571 6454.807 0.00 0.93750 0.09
2 14 0 1 o 9154.791 8646.212 180.00 0.93539 0.15
8 7 4 2 o 1081.537 1135.469 180.00 0.93727 0.02
3 13 3 1 o 26938.652 27000.203 0.00 0.93510 0.80
0 14 2 1 o 23331.094 23434.668 0.00 0.93509 0.36
6 8 6 2 o 645.427 684.472 180.00 0.93653 0.01
8 8 3 1 o 913.199 935.819 180.00 0.93415 0.02
2 10 7 2 o 17.275 18.157 180.00 0.93651 0.00
10 2 2 2 o 8562.785 7897.701 180.00 0.93586 0.10
4 7 8 1 o 840.834 745.164 180.00 0.93367 0.03
4 4 9 1 o 430.795 409.686 0.00 0.93336 0.01
2 1 10 2 o 20616.410 19895.891 180.00 0.93557 0.25
8 9 0 2 o 13822.740 13768.714 0.00 0.93540 0.09
2 14 0 2 o 8674.750 8646.212 180.00 0.93539 0.07
3 13 3 2 o 26010.791 27000.203 0.00 0.93510 0.38
0 14 2 2 o 22539.250 23434.668 0.00 0.93509 0.17
9 1 5 1 o 1466.107 1559.186 180.00 0.93239 0.02
8 8 3 2 o 893.252 935.819 180.00 0.93415 0.01
7 4 7 1 o 509.001 492.586 0.00 0.93137 0.01
4 7 8 2 o 780.519 745.164 180.00 0.93367 0.01
4 4 9 2 o 431.812 409.686 0.00 0.93336 0.00
8 9 1 1 o 15551.877 14746.846 180.00 0.93095 0.40
2 14 1 1 o 75.795 71.879 180.00 0.93095 0.00
1 14 2 1 o 26549.488 25681.896 0.00 0.93073 0.79
1 3 10 1 o 1527.122 1540.458 0.00 0.93044 0.04
4 12 4 1 o 413.156 416.240 0.00 0.93041 0.01
9 1 5 2 o 1495.290 1559.186 180.00 0.93239 0.01
3 8 8 1 o 23988.717 25624.254 180.00 0.93008 0.59
7 9 4 1 o 411.073 454.024 0.00 0.92985 0.01
9 7 1 1 o 325.786 375.704 0.00 0.92964 0.01
7 4 7 2 o 506.634 492.586 0.00 0.93137 0.01
2 2 10 1 o 48.548 46.644 0.00 0.92875 0.00
8 9 1 2 o 15570.572 14746.846 180.00 0.93095 0.20
7 8 5 1 o 61.019 58.304 180.00 0.92862 0.00
2 14 1 2 o 75.888 71.879 180.00 0.93095 0.00
5 1 9 1 o 3081.791 3060.923 180.00 0.92827 0.06
1 14 2 2 o 26525.686 25681.896 0.00 0.93073 0.40
1 3 10 2 o 1530.661 1540.458 0.00 0.93044 0.02
0 7 9 1 o 32010.834 32405.340 0.00 0.92808 0.39
4 12 4 2 o 414.000 416.240 0.00 0.93041 0.00
3 8 8 2 o 25147.580 25624.254 180.00 0.93008 0.31
7 9 4 2 o 450.545 454.024 0.00 0.92985 0.01
9 7 1 2 o 378.861 375.704 0.00 0.92964 0.01
4 9 7 1 o 980.827 980.530 180.00 0.92743 0.03
8 6 5 1 o 6377.121 6181.810 0.00 0.92694 0.16
5 8 7 1 o 15548.355 15056.126 0.00 0.92687 0.38
4 13 2 1 o 383.170 366.604 0.00 0.92679 0.01
6 11 3 1 o 3207.450 3069.798 0.00 0.92662 0.09
2 2 10 2 o 48.000 46.644 0.00 0.92875 0.00
10 4 0 1 o 38304.64 37185.20 180.00 0.92635 0.45
7 8 5 2 o 59.818 58.304 180.00 0.92862 0.00
1 9 8 1 o 10265.797 9970.646 180.00 0.92634 0.26
5 1 9 2 o 2953.292 3060.923 180.00 0.92827 0.03
0 7 9 2 o 29411.158 32405.340 0.00 0.92808 0.18
9 2 5 1 o 981.809 1101.091 180.00 0.92564 0.02
2 13 4 1 o 16724.244 17831.771 180.00 0.92592 0.48
4 9 7 2 o 930.501 980.530 180.00 0.92743 0.01
8 6 5 2 o 6609.028 6181.810 0.00 0.92694 0.08
10 3 2 1 o 2178.980 1977.409 180.00 0.92457 0.07
5 8 7 2 o 16162.946 15056.126 0.00 0.92687 0.20
3 11 6 1 o 1703.647 1593.853 180.00 0.92466 0.05
4 13 2 2 o 404.595 366.604 0.00 0.92679 0.01
6 11 3 2 o 3401.190 3069.798 0.00 0.92662 0.05
10 4 0 2 o 41413.40 37185.20 180.00 0.92635 0.25
5 6 8 1 o 20791.441 18572.084 0.00 0.92412 0.53
1 9 8 2 o 11116.089 9970.646 180.00 0.92634 0.15
9 6 3 1 o 15180.399 14076.992 180.00 0.92384 0.37
8 4 6 1 o 17346.676 16515.449 0.00 0.92374 0.42
1 7 9 1 o 10725.056 10036.684 180.00 0.92381 0.26
9 2 5 2 o 1050.211 1101.091 180.00 0.92564 0.01
2 13 4 2 o 18172.455 17831.771 180.00 0.92592 0.27
10 3 2 2 o 2198.956 1977.409 180.00 0.92457 0.03
3 11 6 2 o 1745.690 1593.853 180.00 0.92466 0.02
5 12 3 1 o 27280.248 24896.242 0.00 0.92237 0.79
10 4 1 1 o 2820.192 2705.705 0.00 0.92203 0.07
5 6 8 2 o 18996.629 18572.084 0.00 0.92412 0.24
6 4 8 1 o 139.799 138.762 0.00 0.92173 0.00
5 2 9 1 o 5.057 5.006 0.00 0.92161 0.00
9 6 3 2 o 14099.840 14076.992 180.00 0.92384 0.17
8 4 6 2 o 16288.470 16515.449 0.00 0.92374 0.20
1 7 9 2 o 10014.229 10036.684 180.00 0.92381 0.12
3 12 5 1 o 826.011 893.926 180.00 0.92122 0.03
10 1 3 1 o 1700.806 1936.672 0.00 0.92072 0.04
5 12 3 2 o 22296.557 24896.242 0.00 0.92237 0.31
10 4 1 2 o 2069.767 2705.705 0.00 0.92203 0.02
6 4 8 2 o 120.055 138.762 0.00 0.92173 0.00
5 2 9 2 o 2.564 5.006 0.00 0.92161 0.00
0 4 10 1 o 10246.950 14039.090 180.00 0.91916 0.09
3 12 5 2 o 561.030 893.926 180.00 0.92122 0.01
3 6 9 1 o 110.123 290.034 0.00 0.91869 0.01
10 1 3 2 o 1384.071 1936.672 0.00 0.92072 0.01
9 5 4 1 o 4862.931 6004.612 180.00 0.91805 0.11
8 9 2 1 o 45.814 49.121 0.00 0.91799 0.00
7 10 3 1 o 821.675 1042.609 0.00 0.91800 0.02
2 14 2 1 o 2852.152 3375.808 180.00 0.91799 0.07
2 3 10 1 o 4643.797 5946.711 180.00 0.91771 0.11
0 4 10 2 o 7600.563 14039.090 180.00 0.91916 0.02
9 7 2 1 o 1.703 2.601 0.00 0.91673 0.00
3 0 10 1 o 97.594 275.245 180.00 0.91645 0.00
3 6 9 2 o -43.549 290.034 0.00 0.91869 0.00
9 5 4 2 o 5337.084 6004.612 180.00 0.91805 0.06
8 9 2 2 o 47.910 49.121 0.00 0.91799 0.00
7 10 3 2 o 955.467 1042.609 0.00 0.91800 0.01
2 14 2 2 o 3189.531 3375.808 180.00 0.91799 0.04
2 3 10 2 o 6271.346 5946.711 180.00 0.91771 0.08
3 10 7 1 o 6487.975 5928.838 0.00 0.91518 0.21
1 4 10 1 o 1045.235 961.928 0.00 0.91501 0.02
9 3 5 1 o 9364.905 8622.140 180.00 0.91471 0.26
6 12 0 1 o 6368.429 5955.128 180.00 0.91467 0.09
9 7 2 2 o 2.620 2.601 0.00 0.91673 0.00
7 7 6 1 o 65.858 64.576 180.00 0.91448 0.00
3 1 10 1 o 1491.770 1550.152 180.00 0.91430 0.04
10 2 3 1 o 3325.063 3512.169 0.00 0.91422 0.08
3 0 10 2 o 258.110 275.245 180.00 0.91645 0.00
2 9 8 1 o 6967.946 8864.874 180.00 0.91377 0.15
6 7 7 1 o 708.944 1073.781 0.00 0.91357 0.02
4 5 9 1 o 883.330 1343.683 0.00 0.91348 0.02
3 10 7 2 o 4804.344 5928.838 0.00 0.91518 0.08
1 4 10 2 o 899.842 961.928 0.00 0.91501 0.01
9 3 5 2 o 9011.921 8622.140 180.00 0.91471 0.12
6 12 0 2 o 6244.231 5955.128 180.00 0.91467 0.04
7 7 6 2 o 69.652 64.576 180.00 0.91448 0.00
3 1 10 2 o 1643.770 1550.152 180.00 0.91430 0.02
10 2 3 2 o 3723.375 3512.169 0.00 0.91422 0.05
0 12 6 1 o 11104.237 10382.277 0.00 0.91216 0.18
7 5 7 1 o 7747.544 7093.943 0.00 0.91162 0.23
2 9 8 2 o 9608.383 8864.874 180.00 0.91377 0.12
2 7 9 1 o 586.255 521.902 0.00 0.91135 0.02
6 7 7 2 o 1223.701 1073.781 0.00 0.91357 0.02
4 5 9 2 o 1557.355 1343.683 0.00 0.91348 0.02
5 3 9 1 o 19351.242 15943.457 180.00 0.91082 0.53
6 12 1 1 o 18471.076 16796.332 180.00 0.91051 0.54
3 14 1 1 o 1151.108 1163.291 0.00 0.90998 0.05
0 12 6 2 o 10359.077 10382.277 0.00 0.91216 0.08
10 4 2 1 o 15745.914 15224.688 180.00 0.90943 0.41
7 5 7 2 o 7334.633 7093.943 0.00 0.91162 0.11
1 14 3 1 o 686.118 651.640 180.00 0.90943 0.03
2 7 9 2 o 527.905 521.902 0.00 0.91135 0.01
5 3 9 2 o 17292.107 15943.457 180.00 0.91082 0.23
6 12 1 2 o 18213.715 16796.332 180.00 0.91051 0.26
3 2 10 1 o 11832.321 11988.108 180.00 0.90793 0.29
1 12 6 1 o 8794.562 8409.162 0.00 0.90811 0.25
3 14 1 2 o 1050.179 1163.291 0.00 0.90998 0.02
10 4 2 2 o 13808.271 15224.688 180.00 0.90943 0.17
0 11 7 1 o 749.679 818.339 180.00 0.90722 0.01
10 5 0 1 o 10928.369 11766.775 0.00 0.90690 0.12
1 14 3 2 o 560.408 651.640 180.00 0.90943 0.01
7 11 1 1 o 8824.917 9614.348 0.00 0.90648 0.22
3 2 10 2 o 9484.770 11988.108 180.00 0.90793 0.11
1 12 6 2 o 6910.102 8409.162 0.00 0.90811 0.09
4 13 3 1 o 1078.883 1377.534 180.00 0.90576 0.03
3 13 4 1 o 363.608 435.791 0.00 0.90529 0.01
0 11 7 2 o 730.414 818.339 180.00 0.90722 0.00
5 11 5 1 o 8837.294 9773.181 180.00 0.90485 0.25
10 5 0 2 o 10930.042 11766.775 0.00 0.90690 0.06
6 10 5 1 o 4652.936 5064.761 180.00 0.90468 0.13
8 5 6 1 o 6307.642 6840.088 0.00 0.90446 0.18
0 13 5 1 o 24496.383 26524.543 180.00 0.90468 0.34
8 8 4 1 o 119.033 126.945 180.00 0.90442 0.00
7 11 1 2 o 9215.188 9614.348 0.00 0.90648 0.12
5 10 6 1 o 600.863 580.796 0.00 0.90394 0.02
10 3 3 1 o 18856.078 17652.834 0.00 0.90369 0.48
4 13 3 2 o 1463.858 1377.534 180.00 0.90576 0.02
1 11 7 1 o 414.793 396.864 0.00 0.90323 0.01
10 5 1 1 o 4152.360 3928.585 0.00 0.90285 0.10
2 4 10 1 o 1040.786 954.812 0.00 0.90290 0.04
3 13 4 2 o 456.879 435.791 0.00 0.90529 0.01
7 0 8 1 o 2574.944 2448.238 0.00 0.90274 0.03
6 5 8 1 o 14121.988 13896.695 180.00 0.90257 0.37
5 11 5 2 o 10071.077 9773.181 180.00 0.90485 0.15
6 10 5 2 o 4982.498 5064.761 180.00 0.90468 0.07
8 5 6 2 o 6308.330 6840.088 0.00 0.90446 0.09
0 13 5 2 o 26106.838 26524.543 180.00 0.90468 0.19
8 8 4 2 o 118.171 126.945 180.00 0.90442 0.00
5 13 1 1 o 4976.173 5272.081 180.00 0.90233 0.17
8 1 7 1 o 863.606 923.002 180.00 0.90169 0.02
5 10 6 2 o 543.737 580.796 0.00 0.90394 0.01
10 3 3 2 o 16844.607 17652.834 0.00 0.90369 0.21
4 8 8 1 o 659.422 679.257 180.00 0.90119 0.01
1 11 7 2 o 374.262 396.864 0.00 0.90323 0.01
7 1 8 1 o 683.561 719.114 180.00 0.90068 0.02
10 5 1 2 o 3751.345 3928.585 0.00 0.90285 0.04
2 4 10 2 o 883.512 954.812 0.00 0.90290 0.02
7 0 8 2 o 2358.197 2448.238 0.00 0.90274 0.02
1 13 5 1 o 8637.884 9135.967 180.00 0.90072 0.26
6 5 8 2 o 13825.212 13896.695 180.00 0.90257 0.18
9 4 5 1 o 503.425 473.531 0.00 0.90004 0.01
5 13 1 2 o 5558.067 5272.081 180.00 0.90233 0.09
6 9 6 1 o 13712.247 12255.910 180.00 0.89965 0.40
8 1 7 2 o 1038.081 923.002 180.00 0.90169 0.01
8 7 5 1 o 45668.23 42183.77 180.00 0.89919 1.22
4 8 8 2 o 689.936 679.257 180.00 0.90119 0.01
7 1 8 2 o 728.500 719.114 180.00 0.90068 0.01
1 13 5 2 o 9179.213 9135.967 180.00 0.90072 0.14
6 12 2 1 o 4428.101 4275.921 180.00 0.89838 0.12
9 4 5 2 o 544.275 473.531 0.00 0.90004 0.01
3 14 2 1 o 14221.946 12425.374 0.00 0.89787 0.44
3 3 10 1 o 173.712 157.967 180.00 0.89761 0.00
9 8 1 1 o 5946.250 5361.769 0.00 0.89756 0.15
8 9 3 1 o 4547.877 4072.829 180.00 0.89754 0.13
6 11 4 1 o 13532.155 11906.186 0.00 0.89758 0.44
6 9 6 2 o 13584.077 12255.910 180.00 0.89965 0.20
2 14 3 1 o 30.704 27.494 0.00 0.89754 0.00
8 7 5 2 o 45208.38 42183.77 180.00 0.89919 0.60
5 7 8 1 o 13.942 13.431 0.00 0.89661 0.00
9 7 3 1 o 1168.330 1161.692 180.00 0.89636 0.04
5 4 9 1 o 86.342 86.039 180.00 0.89633 0.00
1 5 10 1 o 5623.854 5597.559 180.00 0.89626 0.15
4 11 6 1 o 1433.405 1425.846 180.00 0.89626 0.05
2 12 6 1 o 68.661 68.646 180.00 0.89626 0.00
6 12 2 2 o 4333.115 4275.921 180.00 0.89838 0.06
7 2 8 1 o 15881.137 13154.605 180.00 0.89459 0.42
8 10 0 1 o 3157.693 2604.743 180.00 0.89460 0.05
7 11 2 1 o 1597.774 1297.007 180.00 0.89450 0.05
5 7 8 2 o 16.162 13.431 0.00 0.89661 0.00
8 2 7 1 o 34.700 29.878 0.00 0.89558 0.00
10 0 4 1 o 38026.13 33802.008 180.00 0.89422 0.50
9 7 3 2 o 1279.245 1161.692 180.00 0.89636 0.02
3 14 2 2 o 14024.669 12425.374 0.00 0.89787 0.22
3 3 10 2 o 175.088 157.967 180.00 0.89761 0.00
5 4 9 2 o 91.924 86.039 180.00 0.89633 0.00
9 8 1 2 o 6015.464 5361.769 0.00 0.89756 0.08
1 5 10 2 o 5808.283 5597.559 180.00 0.89626 0.08
8 9 3 2 o 4611.505 4072.829 180.00 0.89754 0.07
6 11 4 2 o 13703.395 11906.186 0.00 0.89758 0.22
4 11 6 2 o 1494.333 1425.846 180.00 0.89626 0.03
2 12 6 2 o 68.783 68.646 180.00 0.89626 0.00
3 9 8 1 o 4755.077 4880.585 0.00 0.89392 0.13
2 14 3 2 o 31.142 27.494 0.00 0.89754 0.00
9 6 4 1 o 5493.138 4848.432 0.00 0.89506 0.15
5 12 4 1 o 3849.674 4288.125 0.00 0.89372 0.11
8 2 7 2 o 23.949 29.878 0.00 0.89558 0.00
4 12 5 1 o 2617.101 3078.112 180.00 0.89313 0.08
9 6 4 2 o 4541.050 4848.432 0.00 0.89506 0.06
7 9 5 1 o 8491.265 8420.094 0.00 0.89263 0.27
7 2 8 2 o 13842.880 13154.605 180.00 0.89459 0.18
8 10 0 2 o 2743.396 2604.743 180.00 0.89460 0.02
10 1 4 1 o 14372.481 13485.944 0.00 0.89222 0.39
1 8 9 1 o 71.854 69.592 180.00 0.89232 0.00
7 11 2 2 o 1383.828 1297.007 180.00 0.89450 0.02
10 0 4 2 o 35245.52 33802.008 180.00 0.89422 0.23
3 9 8 2 o 4868.045 4880.585 0.00 0.89392 0.07
3 7 9 1 o 5280.678 5318.351 0.00 0.89165 0.15
2 11 7 1 o 792.525 798.983 0.00 0.89157 0.02
5 12 4 2 o 4255.742 4288.125 0.00 0.89372 0.06
10 5 2 1 o 1971.334 1990.303 0.00 0.89101 0.06
5 9 7 1 o 15649.859 15738.316 180.00 0.89108 0.46
4 6 9 1 o 1609.272 1649.282 0.00 0.89083 0.04
4 12 5 2 o 3036.640 3078.112 180.00 0.89313 0.05
8 10 1 1 o 948.075 992.549 0.00 0.89071 0.03
7 9 5 2 o 7197.465 8420.094 0.00 0.89263 0.11
5 13 2 1 o 11732.278 13017.804 0.00 0.89051 0.34
0 10 8 1 o 5486.420 6213.717 180.00 0.89044 0.07
10 1 4 2 o 10006.784 13485.944 0.00 0.89222 0.13
1 8 9 2 o 61.116 69.592 180.00 0.89232 0.00
