#------------------------------------------------------------------------------
#$Date: 2016-03-21 01:21:50 +0200 (Mon, 21 Mar 2016) $
#$Revision: 178377 $
#$URL: svn://www.crystallography.net/cod/cif/4/00/12/4001201.cif $
#------------------------------------------------------------------------------
#
# This file is available in the Crystallography Open Database (COD),
# http://www.crystallography.net/
#
# All data on this site have been placed in the public domain by the
# contributors.
#
data_4001201
loop_
_publ_author_name
'Zhou, Yongkai'
'Adams, Stefan'
'Rao, R. Prasada'
'Edwards, Doreen D.'
'Neiman, Arkady'
'Pestereva, N.'
_publ_section_title
;
 Charge Transport by Polyatomic Anion Diffusion in Sc2(WO4)3
;
_journal_issue                   20
_journal_name_full               'Chemistry of Materials'
_journal_page_first              6335
_journal_paper_doi               10.1021/cm800466y
_journal_volume                  20
_journal_year                    2008
_chemical_formula_moiety         ' Sc2(WO4)3 '
_chemical_formula_sum            'O12 Sc2 W3'
_chemical_formula_weight         833.45
_chemical_melting_point          1913
_chemical_name_common            ' Scandium Tungstate '
_chemical_name_systematic        ' Scandium Tungstate '
_space_group_IT_number           60
_symmetry_cell_setting           orthorhombic
_symmetry_space_group_name_Hall  '-P 2a 2n'
_symmetry_space_group_name_H-M   'P n c a'
_audit_creation_date             2008-01-25T12:03
_audit_creation_method           'from EXP file using GSAS2CIF'
_audit_update_record
' 2008-01-25T12:03  Initial CIF as created by GSAS2CIF'
_cell_angle_alpha                90.0
_cell_angle_beta                 90.0
_cell_angle_gamma                90.0
_cell_formula_units_Z            4
_cell_length_a                   9.62970(5)
_cell_length_b                   13.35375(7)
_cell_length_c                   9.55309(5)
_cell_measurement_temperature    950
_cell_volume                     1228.457(11)
_computing_structure_refinement  GSAS
_diffrn_radiation_polarisn_ratio 0.68
_diffrn_radiation_probe          x-ray
_exptl_absorpt_correction_T_max  1.00000
_exptl_absorpt_correction_T_min  1.00000
_exptl_absorpt_process_details
;   GSAS Absorption/surface roughness correction: function number 0
 No correction is applied.
;
_pd_block_id
2008-01-25T12:03|T11K|Zhou_Yongkai|Philips_Xpert
_pd_calc_method                  'Rietveld Refinement'
_pd_instr_location               ' ?'
_pd_meas_2theta_range_inc        0.017
_pd_meas_2theta_range_max        119.9874
_pd_meas_2theta_range_min        10.0144
_pd_meas_number_of_points        6470
_pd_proc_2theta_range_inc        0.017
_pd_proc_2theta_range_max        119.9874
_pd_proc_2theta_range_min        10.0144
_pd_proc_info_datetime           2008-01-25T12:30:26
_pd_proc_info_excluded_regions   ' ?'
_pd_proc_ls_background_function
;   GSAS Background function number 1 with 12 terms.
 Shifted Chebyshev function of 1st kind
      1:    378.982     2:   -28.0866     3:  -0.803686     4:    51.3320    
      5:   -5.66943     6:    9.64221     7:   -11.0840     8:    5.58454    
      9:    10.1841    10:   -24.4693    11:    21.7270    12:   -6.03264    
;
_pd_proc_ls_peak_cutoff          0.00250
_pd_proc_ls_pref_orient_corr
;   March-Dollase
 AXIS  1 Ratio=   0.95758  h= 0.000  k= 1.000  l= 0.000
 Prefered orientation correction range: Min=   0.93705, Max=   1.13886
;
_pd_proc_ls_profile_function
;
 CW Profile function number 3 with  19 terms
 Pseudovoigt profile coefficients as parameterized in
 P. Thompson, D.E. Cox & J.B. Hastings (1987). J. Appl. Cryst.,20,79-83.
 Asymmetry correction of L.W. Finger, D.E. Cox & A. P. Jephcoat (1994).
 J. Appl. Cryst.,27,892-900.
 Peak tails are ignored  where the intensity is below 0.0025 times the peak
   Aniso. broadening axis   0.0   0.0   1.0
;
_pd_proc_ls_prof_R_factor        0.0496
_pd_proc_ls_prof_wR_expected     0.0362
_pd_proc_ls_prof_wR_factor       0.0647
_pd_proc_number_of_points        6470
_pd_spec_mounting                ' ?'
_refine_ls_goodness_of_fit_all   1.85
_refine_ls_matrix_type           full
_refine_ls_number_parameters     51
_refine_ls_number_restraints     0
_refine_ls_R_Fsqd_factor         0.06829
_refine_ls_shift/su_max          0.03
_refine_ls_shift/su_mean         0.01
_reflns_d_resolution_high        0.890
_reflns_d_resolution_low         6.677
_reflns_limit_h_max              10
_reflns_limit_h_min              0
_reflns_limit_k_max              15
_reflns_limit_k_min              0
_reflns_limit_l_max              10
_reflns_limit_l_min              0
_reflns_number_total             1827
_cod_data_source_file            cm800466y_si_020.cif
_cod_data_source_block           T950K
_cod_depositor_comments
;
The following automatic conversions were performed:

'_chemical_melting_point' value ' 1913K ' was changed to '1913' - the
value should be numeric and without a unit
designator.

'_geom_bond_publ_flag' value 'N' changed to 'n'
according to /home/saulius/struct/CIF-dictionaries/cif_core.dic
dictionary named 'cif_core.dic' version 2.4.1 from 2010-06-29 (26
times).

'_geom_angle_publ_flag' value 'N' changed to 'n' according
to /home/saulius/struct/CIF-dictionaries/cif_core.dic dictionary
named 'cif_core.dic' version 2.4.1 from 2010-06-29 (33 times).

Automatic conversion script
Id: cif_fix_values 1715 2011-07-08 13:25:40Z adriana 
;
_cod_original_cell_volume        1228.457(13)
_cod_database_code               4001201
#BEGIN Tags that were not found in dictionaries:
_gsas_exptl_extinct_corr_t_min   1.00000
_gsas_exptl_extinct_corr_t_max   1.00000
#END Tags that were not found in dictionaries
loop_
_symmetry_equiv_pos_site_id
_symmetry_equiv_pos_as_xyz
1 +x,+y,+z
2 -x+1/2,+y+1/2,+z+1/2
3 +x,-y+1/2,+z+1/2
4 -x+1/2,-y,+z
-1 -x,-y,-z
-2 +x+1/2,-y+1/2,-z+1/2
-3 -x,+y+1/2,-z+1/2
-4 +x+1/2,+y,-z
loop_
_atom_site_type_symbol
_atom_site_label
_atom_site_fract_x
_atom_site_fract_y
_atom_site_fract_z
_atom_site_occupancy
_atom_site_thermal_displace_type
_atom_site_U_iso_or_equiv
_atom_site_symmetry_multiplicity
Sc Sc1 0.4707(4) 0.38197(25) 0.2468(5) 1.0 Uiso 0.0275(12) 8
W W1 0.25 0.0 0.47137(16) 1.0 Uiso 0.02924(32) 4
W W2 0.11289(12) 0.35635(8) 0.39097(12) 1.0 Uiso 0.02924(32) 8
O O1 0.0907(13) 0.1263(9) 0.0666(13) 1.0 Uiso 0.0658(20) 8
O O2 0.1539(13) 0.0745(9) 0.3722(14) 1.0 Uiso 0.0658(20) 8
O O3 0.0050(13) 0.2656(10) 0.3140(12) 1.0 Uiso 0.0658(20) 8
O O4 0.3345(13) 0.4058(9) 0.0737(13) 1.0 Uiso 0.0658(20) 8
O O5 0.0569(12) 0.4735(10) 0.3211(13) 1.0 Uiso 0.0658(20) 8
O O6 0.2921(14) 0.3474(9) 0.3398(13) 1.0 Uiso 0.0658(20) 8
loop_
_atom_type_symbol
_atom_type_number_in_cell
_atom_type_scat_dispersion_real
_atom_type_scat_dispersion_imag
_atom_type_scat_Cromer_Mann_a1
_atom_type_scat_Cromer_Mann_a2
_atom_type_scat_Cromer_Mann_a3
_atom_type_scat_Cromer_Mann_a4
_atom_type_scat_Cromer_Mann_b1
_atom_type_scat_Cromer_Mann_b2
_atom_type_scat_Cromer_Mann_b3
_atom_type_scat_Cromer_Mann_b4
_atom_type_scat_Cromer_Mann_c
_atom_type_scat_source
Sc 8.0 0.000 0.000 9.18900 9.02130 7.36790 0.57290 1.64090 136.108 1.46800
51.3531 1.33290 International_Tables_Vol_C
W 12.0 0.000 0.000 29.0818 1.72029 15.4300 9.22590 14.4327 0.32170 5.11982
57.0560 9.88750 International_Tables_Vol_C
O 48.0 0.000 0.000 3.04850 13.2771 2.28680 5.70110 1.54630 0.32390 0.86700
32.9089 0.25080 International_Tables_Vol_C
loop_
_diffrn_radiation_wavelength
_diffrn_radiation_wavelength_wt
_diffrn_radiation_type
_diffrn_radiation_wavelength_id
1.540500 1.000 K\a~1~ 1
1.544300 0.000 K\a~2~ 2
loop_
_geom_angle_atom_site_label_1
_geom_angle_atom_site_label_2
_geom_angle_atom_site_label_3
_geom_angle
_geom_angle_site_symmetry_1
_geom_angle_site_symmetry_3
_geom_angle_publ_flag
O1 Sc1 O2 90.7(5) -2_666 -2_666 n
O1 Sc1 O3 95.7(5) -2_666 -2_666 n
O1 Sc1 O4 172.2(5) -2_666 1_555 n
O1 Sc1 O5 80.3(5) -2_666 4_565 n
O1 Sc1 O6 94.8(5) -2_666 1_555 n
O2 Sc1 O3 88.7(5) -2_666 -2_666 n
O2 Sc1 O4 93.0(5) -2_666 1_555 n
O2 Sc1 O5 92.0(5) -2_666 4_565 n
O2 Sc1 O6 174.3(6) -2_666 1_555 n
O3 Sc1 O4 91.3(5) -2_666 1_555 n
O3 Sc1 O5 175.9(5) -2_666 4_565 n
O3 Sc1 O6 92.4(5) -2_666 1_555 n
O4 Sc1 O5 92.7(5) 1_555 4_565 n
O4 Sc1 O6 81.4(5) 1_555 1_555 n
O5 Sc1 O6 87.3(5) 4_565 1_555 n
O2 W1 O2 110.3(9) 1_555 4_555 n
O2 W1 O4 118.7(6) 1_555 2_545 n
O2 W1 O4 98.3(6) 1_555 3_555 n
O2 W1 O4 98.3(6) 4_555 2_545 n
O2 W1 O4 118.7(6) 4_555 3_555 n
O4 W1 O4 113.8(8) 2_545 3_555 n
O1 W2 O3 115.5(6) 3_555 1_555 n
O1 W2 O5 102.1(5) 3_555 1_555 n
O1 W2 O6 113.4(6) 3_555 1_555 n
O3 W2 O5 105.6(6) 1_555 1_555 n
O3 W2 O6 114.1(6) 1_555 1_555 n
O5 W2 O6 104.3(5) 1_555 1_555 n
Sc1 O1 W2 154.0(7) -2_466 3_554 n
Sc1 O2 W1 155.7(7) -2_555 1_555 n
Sc1 O3 W2 149.8(8) -2_466 1_555 n
Sc1 O4 W1 143.9(7) 1_555 2_554 n
Sc1 O5 W2 169.4(7) 4_565 1_555 n
Sc1 O6 W2 159.3(8) 1_555 1_555 n
loop_
_geom_bond_atom_site_label_1
_geom_bond_atom_site_label_2
_geom_bond_distance
_geom_bond_site_symmetry_2
_geom_bond_publ_flag
Sc1 O1 2.127(13) -2_555 n
Sc1 O2 2.178(13) -2_555 n
Sc1 O3 2.081(13) -2_555 n
Sc1 O4 2.135(12) 1_555 n
Sc1 O5 2.073(12) 4_565 n
Sc1 O6 1.990(13) 1_555 n
W1 O2 1.657(13) 1_555 n
W1 O2 1.657(13) 4_555 n
W1 O4 1.789(11) 2_545 n
W1 O4 1.789(11) 3_555 n
W2 O1 1.707(12) 3_555 n
W2 O3 1.757(13) 1_555 n
W2 O5 1.785(12) 1_555 n
W2 O6 1.798(14) 1_555 n
O1 Sc1 2.127(13) -2_455 n
O1 W2 1.707(12) 3_554 n
O2 Sc1 2.178(13) -2_455 n
O2 W1 1.657(13) 1_555 n
O3 Sc1 2.081(13) -2_455 n
O3 W2 1.757(13) 1_555 n
O4 Sc1 2.135(12) 1_555 n
O4 W1 1.789(11) 2_554 n
O5 Sc1 2.073(12) 4_565 n
O5 W2 1.785(12) 1_555 n
O6 Sc1 1.990(13) 1_555 n
O6 W2 1.798(14) 1_555 n
loop_
_pd_meas_counts_total
_pd_proc_ls_weight
_pd_proc_intensity_bkg_calc
_pd_calc_intensity_total
314.0 0.0 669.10803 .
293.0 0.0 665.29517 .
331.0 0.0 661.51160 .
328.0 0.0 657.75665 .
318.0 0.0 654.02997 .
310.0 0.0 650.33228 .
323.0 0.0 646.66266 .
353.0 0.0 643.02112 .
333.0 0.0 639.40820 .
321.0 0.0 635.82233 .
336.0 0.0 632.26483 .
341.0 0.0 628.73474 .
326.0 0.0 625.23212 .
314.0 0.0 621.75702 .
301.0 0.0 618.30902 .
309.0 0.0 614.88800 .
352.0 0.0 611.49384 .
332.0 0.0 608.12640 .
318.0 0.0 604.78601 .
331.0 0.0 601.47211 .
339.0 0.0 598.18457 .
325.0 0.0 594.92316 .
329.0 0.0 591.68762 .
336.0 0.0 588.47839 .
343.0 0.0 585.29517 .
343.0 0.0 582.13751 .
342.0 0.0 579.00537 .
334.0 0.0 575.89862 .
319.0 0.0 572.81720 .
319.0 0.0 569.76135 .
344.0 0.0 566.73016 .
360.0 0.0 563.72394 .
362.0 0.0 560.74243 .
350.0 0.0 557.78601 .
354.0 0.0 554.85413 .
356.0 0.0 551.94641 .
317.0 0.0 549.06299 .
300.0 0.0 546.20361 .
313.0 0.0 543.36847 .
317.0 0.0 540.55743 .
326.0 0.0 537.76996 .
321.0 0.0 535.00604 .
318.0 0.0 532.26563 .
352.0 0.0 529.54889 .
339.0 0.0 526.85553 .
355.0 0.0 524.18512 .
359.0 0.0 521.53772 .
374.0 0.0 518.91309 .
336.0 0.0 516.31171 .
351.0 0.0 513.73285 .
351.0 0.0 511.17670 .
357.0 0.0 508.64252 .
341.0 0.0 506.13083 .
327.0 0.0 503.64145 .
318.0 0.0 501.17422 .
341.0 0.0 498.72894 .
357.0 0.0 496.30536 .
350.0 0.0 493.90338 .
343.0 0.0 491.52332 .
341.0 0.0 489.16483 .
340.0 0.0 486.82761 .
332.0 0.0 484.51141 .
362.0 0.0 482.21631 .
339.0 0.0 479.94250 .
335.0 0.0 477.68976 .
347.0 0.0 475.45764 .
342.0 0.0 473.24603 .
353.0 0.0 471.05511 .
330.0 0.0 468.88467 .
356.0 0.0 466.73471 .
351.0 0.0 464.60495 .
334.0 0.0 462.49518 .
352.0 0.0 460.40546 .
328.0 0.0 458.33563 .
329.0 0.0 456.28580 .
322.0 0.0 454.25549 .
320.0 0.0 452.24466 .
333.0 0.0 450.25345 .
322.0 0.0 448.28137 .
328.0 0.0 446.32877 .
332.0 0.0 444.39542 .
342.0 0.0 442.48093 .
347.0 0.0 440.58527 .
355.0 0.0 438.70847 .
356.0 0.0 436.85056 .
342.0 0.0 435.01120 .
352.0 0.0 433.19025 .
359.0 0.0 431.38773 .
330.0 0.0 429.60352 .
317.0 0.0 427.83759 .
338.0 0.0 426.08972 .
320.0 0.0 424.35977 .
306.0 0.0 422.64755 .
339.0 0.0 420.95328 .
348.0 0.0 419.27679 .
358.0 0.0 417.61786 .
371.0 0.0 415.97617 .
357.0 0.0 414.35199 .
361.0 0.0 412.74509 .
348.0 0.0 411.15549 .
332.0 0.0 409.58282 .
339.0 0.0 408.02713 .
349.0 0.0 406.48828 .
317.0 0.0 404.96640 .
330.0 0.0 403.46097 .
325.0 0.0 401.97229 .
312.0 0.0 400.49991 .
323.0 0.0 399.04410 .
339.0 0.0 397.60449 .
350.0 0.0 396.18106 .
327.0 0.0 394.77390 .
322.0 0.0 393.38260 .
329.0 0.0 392.00714 .
320.0 0.0 390.64771 .
344.0 0.0 389.30383 .
313.0 0.0 387.97562 .
285.0 0.0 386.66296 .
330.0 0.003030 385.36563 385.37146
361.0 0.002770 384.08386 384.08960
343.0 0.002915 382.81726 382.82294
341.0 0.002933 381.56583 381.57150
358.0 0.002793 380.32950 380.33508
350.0 0.002857 379.10809 379.11359
327.0 0.003058 377.90155 377.90710
335.0 0.002985 376.70993 376.71536
304.0 0.003289 375.53296 375.53839
336.0 0.002976 374.37054 374.37598
344.0 0.002907 373.22269 373.22800
345.0 0.002899 372.08939 372.09460
338.0 0.002959 370.97031 370.97552
318.0 0.003145 369.86560 369.87079
321.0 0.003115 368.77502 368.78018
339.0 0.002950 367.69849 367.70361
345.0 0.002899 366.63605 366.64111
324.0 0.003086 365.58752 365.59250
355.0 0.002817 364.55283 364.55780
347.0 0.002882 363.53186 363.53677
351.0 0.002849 362.52444 362.52930
334.0 0.002994 361.53073 361.53555
325.0 0.003077 360.55054 360.55536
338.0 0.002959 359.58374 359.58844
345.0 0.002899 358.63016 358.63492
333.0 0.003003 357.68985 357.69443
315.0 0.003175 356.76273 356.76736
299.0 0.003344 355.84872 355.85327
313.0 0.003195 354.94766 354.95224
329.0 0.003040 354.05951 354.06400
342.0 0.002924 353.18408 353.18854
354.0 0.002825 352.32159 352.32593
351.0 0.002849 351.47162 351.47601
345.0 0.002899 350.63431 350.63861
337.0 0.002967 349.80948 349.81372
326.0 0.003067 348.99689 349.00122
345.0 0.002899 348.19687 348.20111
361.0 0.002770 347.40906 347.41321
342.0 0.002924 346.63339 346.63748
356.0 0.002809 345.86984 345.87390
346.0 0.002890 345.11823 345.12225
339.0 0.002950 344.37866 344.38269
340.0 0.002941 343.65097 343.65491
359.0 0.002786 342.93506 342.93893
355.0 0.002817 342.23071 342.23474
321.0 0.003115 341.53815 341.54202
353.0 0.002833 340.85718 340.86099
333.0 0.003003 340.18762 340.19135
362.0 0.002762 339.52948 343.56860
399.0 0.002506 338.88263 343.27649
362.0 0.002762 338.24692 345.06897
333.0 0.003003 337.62262 345.10388
365.0 0.002740 337.00934 345.27039
385.0 0.002597 336.40695 345.60880
365.0 0.002740 335.81570 346.18423
369.0 0.002710 335.23520 347.12650
365.0 0.002740 334.66556 348.89349
382.0 0.002618 334.10675 353.23560
426.0 0.002347 333.55853 363.30536
432.0 0.002315 333.02078 380.29105
461.0 0.002169 332.49356 403.32538
429.0 0.002331 331.97693 431.27036
473.0 0.002114 331.47064 462.78140
515.0 0.001942 330.97458 497.37195
529.0 0.001890 330.48877 535.24908
531.0 0.001883 330.01306 576.80469
577.0 0.001733 329.54752 622.54431
633.0 0.001580 329.09204 673.21368
709.0 0.001410 328.64645 729.69043
772.0 0.001295 328.21075 793.08215
815.0 0.001227 327.78479 864.97961
917.0 0.001091 327.36865 947.29071
980.0 0.001020 326.96216 1042.89221
1089.0 0.000918 326.56534 1155.65210
1280.0 0.000781 326.17795 1291.50391
1502.0 0.000666 325.80002 1459.56348
1808.0 0.000553 325.43152 1675.36743
2331.0 0.000429 325.07242 1968.97400
2990.0 0.0003344 324.72253 2413.11279
3747.0 0.0002669 324.38184 3151.45728
4317.0 0.0002316 324.05029 3959.85107
3794.0 0.0002636 323.72784 3615.31958
2718.0 0.000368 323.41437 2544.70166
1720.0 0.000581 323.10980 1594.35815
986.0 0.001014 322.81409 808.37164
652.0 0.001534 322.52728 511.64572
484.0 0.002066 322.24915 433.05515
413.0 0.002421 321.97968 400.26508
389.0 0.002571 321.71884 380.65549
362.0 0.002762 321.46655 367.64932
372.0 0.002688 321.22278 358.50223
367.0 0.002725 320.98743 351.78018
379.0 0.002639 320.76044 346.66608
398.0 0.002513 320.54172 342.66534
386.0 0.002591 320.33121 339.46280
388.0 0.002577 320.12897 336.84964
371.0 0.002695 319.93469 334.68234
357.0 0.002801 319.74860 332.85938
362.0 0.002762 319.57053 331.30731
355.0 0.002817 319.40030 329.97189
362.0 0.002762 319.23792 328.81238
353.0 0.002833 319.08337 327.79761
340.0 0.002941 318.93665 321.89755
332.0 0.003012 318.79758 321.50259
321.0 0.003115 318.66608 318.66797
351.0 0.002849 318.54221 318.54404
348.0 0.002874 318.42584 318.42767
383.0 0.002611 318.31696 318.31873
337.0 0.002967 318.21539 318.21719
316.0 0.003165 318.12128 318.12292
319.0 0.003135 318.03433 318.03604
328.0 0.003049 317.95462 317.95639
366.0 0.002732 317.88214 317.88382
350.0 0.002857 317.81677 317.81836
332.0 0.003012 317.75845 317.76004
364.0 0.002747 317.70706 317.70862
329.0 0.003040 317.66263 317.66415
329.0 0.003040 317.62512 317.62665
319.0 0.003135 317.59436 317.59592
344.0 0.002907 317.57043 317.57196
385.0 0.002597 317.55325 317.55469
341.0 0.002933 317.54272 317.54410
321.0 0.003115 317.53879 317.54016
346.0 0.002890 317.54132 317.54269
355.0 0.002817 317.55048 317.55182
339.0 0.002950 317.56601 317.56732
337.0 0.002967 317.58801 317.58926
359.0 0.002786 317.61630 317.61752
355.0 0.002817 317.65079 317.65207
347.0 0.002882 317.69159 322.80322
353.0 0.002833 317.73859 323.25543
378.0 0.002646 317.79175 323.76785
354.0 0.002825 317.85092 327.06616
369.0 0.002710 317.91614 327.95996
406.0 0.002463 317.98730 328.99081
400.0 0.002500 318.06436 330.19257
386.0 0.002591 318.14728 331.61377
376.0 0.002660 318.23615 333.32736
390.0 0.002564 318.33075 335.45081
429.0 0.002331 318.43094 338.22064
439.0 0.002278 318.53696 342.47116
424.0 0.002358 318.64844 351.26395
450.0 0.002222 318.76559 369.71445
489.0 0.002045 318.88828 399.49918
522.0 0.001916 319.01639 439.31238
528.0 0.001894 319.14990 487.97617
564.0 0.001773 319.28888 543.63440
623.0 0.001605 319.43311 605.45032
664.0 0.001506 319.58255 673.87622
735.0 0.001361 319.73730 749.90460
819.0 0.001221 319.89722 834.84143
915.0 0.001093 320.06232 930.40417
1030.0 0.000971 320.23236 1038.99707
1088.0 0.000919 320.40756 1163.97681
1228.0 0.000814 320.58780 1309.78015
1386.0 0.000722 320.77289 1482.64026
1601.0 0.000625 320.96286 1692.61853
1932.0 0.000518 321.15775 1955.27527
2316.0 0.000432 321.35739 2298.14990
2814.0 0.000355 321.56177 2779.04810
3807.0 0.0002627 321.77100 3542.03711
4842.0 0.0002065 321.98483 4730.82861
5128.0 0.0001950 322.20325 5441.06299
4105.0 0.0002436 322.42624 4240.12549
2809.0 0.000356 322.65381 3019.22241
1718.0 0.000582 322.88580 1831.60413
833.0 0.001200 323.12231 884.52368
531.0 0.001883 323.36322 559.72479
458.0 0.002183 323.60843 470.10822
451.0 0.002217 323.85806 429.05801
417.0 0.002398 324.11194 404.04041
387.0 0.002584 324.36990 387.42572
388.0 0.002577 324.63223 375.79504
359.0 0.002786 324.89862 367.33002
400.0 0.002500 325.16913 360.98181
387.0 0.002584 325.44373 356.10910
353.0 0.002833 325.72223 352.29901
345.0 0.002899 326.00488 349.27542
365.0 0.002740 326.29135 346.84802
388.0 0.002577 326.58173 344.88101
357.0 0.002801 326.87604 343.27640
344.0 0.002907 327.17398 341.96112
331.0 0.003021 327.47586 340.87997
346.0 0.002890 327.78143 339.99045
370.0 0.002703 328.09073 332.28397
349.0 0.002865 328.40366 332.23520
360.0 0.002778 328.72009 328.72031
356.0 0.002809 329.04019 329.04037
366.0 0.002732 329.36380 329.36398
360.0 0.002778 329.69092 329.69110
371.0 0.002695 330.02151 330.02167
358.0 0.002793 330.35553 330.35562
344.0 0.002907 330.69281 330.69296
334.0 0.002994 331.03354 331.03360
337.0 0.002967 331.37750 331.37762
332.0 0.003012 331.72482 331.72485
344.0 0.002907 332.07529 332.07538
360.0 0.002778 332.42896 332.42899
348.0 0.002874 332.78574 332.78580
337.0 0.002967 333.14569 333.14575
334.0 0.002994 333.50876 333.50870
324.0 0.003086 333.87479 333.87482
332.0 0.003012 334.24387 334.24380
364.0 0.002747 334.61578 334.61581
367.0 0.002725 334.99075 334.99078
336.0 0.002976 335.36862 335.36862
352.0 0.002841 335.74939 335.74933
362.0 0.002762 336.13290 336.13284
371.0 0.002695 336.51920 336.51913
358.0 0.002793 336.90826 336.90817
343.0 0.002915 337.30008 337.29990
361.0 0.002770 337.69449 337.69437
384.0 0.002604 338.09164 338.09149
344.0 0.002907 338.49133 338.49118
316.0 0.003165 338.89365 338.89346
340.0 0.002941 339.29849 339.29840
365.0 0.002740 339.70581 339.70572
342.0 0.002924 340.11569 340.11551
350.0 0.002857 340.52795 340.52771
339.0 0.002950 340.94266 340.94247
356.0 0.002809 341.35971 341.35956
352.0 0.002841 341.77911 341.77893
340.0 0.002941 342.20084 342.20062
361.0 0.002770 342.62479 342.62457
335.0 0.002985 343.05106 343.05084
345.0 0.002899 343.47952 343.47931
341.0 0.002933 343.91019 343.91000
370.0 0.002703 344.34293 344.34271
349.0 0.002865 344.77783 344.77762
371.0 0.002695 345.21487 345.21463
330.0 0.003030 345.65396 345.65372
360.0 0.002778 346.09506 346.09485
376.0 0.002660 346.53809 346.53778
324.0 0.003086 346.98309 346.98282
315.0 0.003175 347.43008 347.42981
343.0 0.002915 347.87900 347.87872
343.0 0.002915 348.32974 348.32947
354.0 0.002825 348.78232 348.78201
377.0 0.002653 349.23669 349.23642
360.0 0.002778 349.69284 349.69257
343.0 0.002915 350.15076 350.15051
355.0 0.002817 350.61044 350.61020
356.0 0.002809 351.07181 351.07147
338.0 0.002959 351.53476 351.53448
341.0 0.002933 351.99945 351.99908
326.0 0.003067 352.46573 352.46539
353.0 0.002833 352.93350 352.93317
371.0 0.002695 353.40292 353.40256
354.0 0.002825 353.87375 353.87341
348.0 0.002874 354.34622 354.34592
342.0 0.002924 354.82004 354.81970
353.0 0.002833 355.29532 355.29501
357.0 0.002801 355.77206 355.77176
368.0 0.002717 356.25015 356.24982
354.0 0.002825 356.72958 356.72922
352.0 0.002841 357.21042 357.21008
358.0 0.002793 357.69250 357.69214
364.0 0.002747 358.17581 358.17548
357.0 0.002801 358.66040 358.66000
361.0 0.002770 359.14624 359.14590
346.0 0.002890 359.63327 359.63290
345.0 0.002899 360.12149 360.12112
351.0 0.002849 360.61078 360.61041
372.0 0.002688 361.10123 361.10086
382.0 0.002618 361.59274 361.59238
365.0 0.002740 362.08539 362.08496
363.0 0.002755 362.57904 362.57864
362.0 0.002762 363.07370 363.07333
342.0 0.002924 363.56927 363.56888
330.0 0.003030 364.06598 364.06564
343.0 0.002915 364.56357 364.56314
378.0 0.002646 365.06204 365.06168
375.0 0.002667 365.56137 365.56097
348.0 0.002874 366.06161 366.06122
329.0 0.003040 366.56268 366.56235
361.0 0.002770 367.06454 367.06421
343.0 0.002915 367.56729 367.56686
330.0 0.003030 368.07074 368.07034
346.0 0.002890 368.57498 368.57452
338.0 0.002959 369.07993 369.07956
342.0 0.002924 369.58563 369.58524
334.0 0.002994 370.09198 370.09158
339.0 0.002950 370.59891 370.59845
358.0 0.002793 371.10648 371.10614
387.0 0.002584 371.61472 371.61432
343.0 0.002915 372.12360 372.12314
346.0 0.002890 372.63293 372.63263
378.0 0.002646 373.14285 373.14252
346.0 0.002890 373.65329 373.65292
354.0 0.002825 374.16434 374.16391
364.0 0.002747 374.67575 374.67532
337.0 0.002967 375.18756 375.18719
318.0 0.003145 375.69989 375.69949
330.0 0.003030 376.21262 376.21219
342.0 0.002924 376.72574 376.72540
340.0 0.002941 377.23923 377.23889
341.0 0.002933 377.75311 377.75269
325.0 0.003077 378.26724 378.26688
346.0 0.002890 378.78171 378.78128
348.0 0.002874 379.29654 379.29611
349.0 0.002865 379.81158 379.81119
359.0 0.002786 380.32681 380.32645
349.0 0.002865 380.84232 380.84192
333.0 0.003003 381.35803 381.35764
360.0 0.002778 381.87399 381.87363
361.0 0.002770 382.39001 382.38962
376.0 0.002660 382.90628 382.90591
380.0 0.002632 383.42264 383.42224
324.0 0.003086 383.93903 383.93866
334.0 0.002994 384.45566 384.45526
351.0 0.002849 384.97229 384.97195
344.0 0.002907 385.48895 385.48853
347.0 0.002882 386.00562 386.00525
344.0 0.002907 386.52231 386.52200
347.0 0.002882 387.03909 387.03876
348.0 0.002874 387.55579 387.55545
348.0 0.002874 388.07245 388.07211
341.0 0.002933 388.58908 388.58871
339.0 0.002950 389.10550 389.10522
356.0 0.002809 389.62195 389.62170
361.0 0.002770 390.13834 390.13803
357.0 0.002801 390.65448 390.65417
366.0 0.002732 391.17050 391.17023
380.0 0.002632 391.68640 391.68610
354.0 0.002825 392.20209 392.20187
365.0 0.002740 392.71759 392.71729
375.0 0.002667 393.23285 393.23257
369.0 0.002710 393.74796 393.74765
345.0 0.002899 394.26273 394.26233
350.0 0.002857 394.77725 394.77692
333.0 0.003003 395.29147 395.29126
346.0 0.002890 395.80539 395.80515
366.0 0.002732 396.31909 396.31879
327.0 0.003058 396.83234 396.83209
357.0 0.002801 397.34531 397.34509
374.0 0.002674 397.85791 397.85767
392.0 0.002551 398.37006 398.36990
403.0 0.002481 398.88177 398.88159
353.0 0.002833 399.39331 399.39297
382.0 0.002618 399.90417 399.90405
411.0 0.002433 400.41483 400.41461
360.0 0.002778 400.92487 400.92462
368.0 0.002717 401.43445 401.43423
340.0 0.002941 401.94357 401.94339
334.0 0.002994 402.45215 402.45200
362.0 0.002762 402.96030 402.96005
373.0 0.002681 403.46783 403.46768
370.0 0.002703 403.97485 403.97467
347.0 0.002882 404.48126 404.48111
378.0 0.002646 404.98715 404.98703
344.0 0.002907 405.49255 405.49231
346.0 0.002890 405.99713 406.00610
359.0 0.002786 406.50125 406.51080
346.0 0.002890 407.00470 407.01501
349.0 0.002865 407.50742 407.52332
347.0 0.002882 408.00967 408.02673
349.0 0.002865 408.51111 408.52966
344.0 0.002907 409.01178 409.03204
363.0 0.002755 409.51187 409.53403
376.0 0.002660 410.01129 410.03552
387.0 0.002584 410.50995 411.73224
373.0 0.002681 411.00787 412.32053
354.0 0.002825 411.50500 412.91901
368.0 0.002717 412.00131 414.13629
388.0 0.002577 412.49698 414.80600
375.0 0.002667 412.99182 416.19772
380.0 0.002632 413.48578 416.97128
366.0 0.002732 413.97903 418.12021
380.0 0.002632 414.47141 419.02835
392.0 0.002551 414.96292 420.02679
387.0 0.002584 415.45367 421.12936
385.0 0.002597 415.94342 422.35464
388.0 0.002577 416.43243 423.73407
411.0 0.002433 416.92044 425.31119
442.0 0.002262 417.40768 427.16348
428.0 0.002336 417.89383 429.48459
417.0 0.002398 418.37918 432.98486
419.0 0.002387 418.86359 439.43854
432.0 0.002315 419.34708 450.24002
449.0 0.002227 419.82956 465.19098
464.0 0.002155 420.31116 484.44510
466.0 0.002146 420.79166 509.12122
501.0 0.001996 421.27124 540.26147
537.0 0.001862 421.74976 578.30969
583.0 0.001715 422.22742 621.89642
642.0 0.001558 422.70395 669.68384
705.0 0.001418 423.17947 727.74274
827.0 0.001209 423.65387 798.88208
931.0 0.001074 424.12735 886.16327
979.0 0.001021 424.59970 1000.26593
1155.0 0.000866 425.07098 1159.88318
1466.0 0.000682 425.54117 1407.75220
1845.0 0.000542 426.01028 1745.95044
1900.0 0.000526 426.47827 1841.50549
1654.0 0.000605 426.94522 1539.91467
1537.0 0.000651 427.41098 1465.85376
1464.0 0.000683 427.87564 1457.89307
1351.0 0.000740 428.33911 1298.34753
1060.0 0.000943 428.80154 1009.63049
808.0 0.001238 429.26266 834.62415
739.0 0.001353 429.72278 752.83221
563.0 0.001776 430.18155 597.62360
516.0 0.001938 430.63925 501.94116
419.0 0.002387 431.09567 472.09393
400.0 0.002500 431.55103 461.20505
354.0 0.002825 432.00507 455.03680
334.0 0.002994 432.45792 451.03204
363.0 0.002755 432.90952 448.28568
384.0 0.002604 433.35983 446.33569
367.0 0.002725 433.80899 444.93723
398.0 0.002513 434.25687 443.92252
412.0 0.002427 434.70352 443.18793
424.0 0.002358 435.14880 442.66339
420.0 0.002381 435.59283 442.29984
402.0 0.002488 436.03568 440.10156
405.0 0.002469 436.47714 440.12497
414.0 0.002415 436.91730 440.20932
418.0 0.002392 437.35608 439.38980
424.0 0.002358 437.79364 439.64075
397.0 0.002519 438.22986 438.88651
433.0 0.002309 438.66470 450.63467
437.0 0.002288 439.09830 451.28784
426.0 0.002347 439.53052 452.63022
412.0 0.002427 439.96124 459.79111
448.0 0.002232 440.39078 461.77917
446.0 0.002242 440.81888 463.96362
443.0 0.002257 441.24557 466.38095
433.0 0.002309 441.67090 469.07718
450.0 0.002222 442.09485 472.11105
477.0 0.002096 442.51743 475.55859
466.0 0.002146 442.93851 479.52042
464.0 0.002155 443.35834 484.13318
482.0 0.002075 443.77661 489.58939
543.0 0.001842 444.19339 496.17090
580.0 0.001724 444.60892 504.31598
635.0 0.001575 445.02298 514.77917
672.0 0.001488 445.43552 529.40741
681.0 0.001468 445.84671 555.09991
725.0 0.001379 446.25638 609.99878
836.0 0.001196 446.66455 709.67102
933.0 0.001072 447.07135 850.85101
997.0 0.001003 447.47665 1031.69080
1172.0 0.000853 447.88046 1257.36169
1414.0 0.000707 448.28275 1527.36670
1613.0 0.000620 448.68356 1842.86951
1911.0 0.000523 449.08289 2212.84424
2491.0 0.000401 449.48068 2653.48828
3092.0 0.0003234 449.87698 3190.37036
3824.0 0.0002615 450.27179 3863.98218
4657.0 0.0002147 450.66510 4746.70313
6050.0 0.0001653 451.05685 5994.61719
8315.0 0.0001203 451.44714 7980.07520
11222.0 0.0000891 451.83588 10878.31738
11960.0 0.0000836 452.22299 11930.19336
8591.0 0.0001164 452.60867 8469.16992
6502.0 0.0001538 452.99274 6478.61230
5464.0 0.0001830 453.37524 5460.65869
2974.0 0.0003362 453.75616 2916.06201
1373.0 0.000728 454.13559 1375.95813
876.0 0.001142 454.51349 922.20984
727.0 0.001376 454.88974 769.83978
650.0 0.001538 455.26450 687.76318
611.0 0.001637 455.63754 635.49622
583.0 0.001715 456.00906 599.84302
576.0 0.001736 456.37906 574.33148
505.0 0.001980 456.74747 555.40698
523.0 0.001912 457.11407 540.96747
487.0 0.002053 457.47931 529.69733
530.0 0.001887 457.84290 520.73676
534.0 0.001873 458.20480 513.50220
534.0 0.001873 458.56516 507.58627
463.0 0.002160 458.92389 502.69617
454.0 0.002203 459.28094 498.61606
479.0 0.002088 459.63638 495.18524
450.0 0.002222 459.99023 472.75967
493.0 0.002028 460.34250 471.90582
454.0 0.002203 460.69308 471.21478
459.0 0.002179 461.04205 461.04315
486.0 0.002058 461.38934 461.39047
461.0 0.002169 461.73505 461.73615
463.0 0.002160 462.07901 462.08014
464.0 0.002155 462.42139 462.42255
456.0 0.002193 462.76208 462.76321
451.0 0.002217 463.10120 463.10233
475.0 0.002105 463.43851 463.43970
476.0 0.002101 463.77429 463.77545
462.0 0.002165 464.10837 464.10959
480.0 0.002083 464.44077 464.44196
491.0 0.002037 464.77145 479.36612
479.0 0.002088 465.10052 480.72668
461.0 0.002169 465.42795 482.20105
473.0 0.002114 465.75363 491.05161
494.0 0.002024 466.07764 493.32358
470.0 0.002128 466.39999 495.83447
486.0 0.002058 466.72067 498.62732
491.0 0.002037 467.03967 501.75522
461.0 0.002169 467.35681 505.28491
497.0 0.002012 467.67245 509.30261
545.0 0.001835 467.98630 513.91968
536.0 0.001866 468.29852 519.28442
537.0 0.001862 468.60901 525.60071
537.0 0.001862 468.91776 533.14795
590.0 0.001695 469.22488 542.34802
634.0 0.001577 469.53018 553.84253
662.0 0.001511 469.83389 568.74585
766.0 0.001305 470.13589 589.71844
855.0 0.001170 470.43610 626.54102
932.0 0.001073 470.73471 705.01172
1102.0 0.000907 471.03140 846.67340
1253.0 0.000798 471.32651 1050.09290
1343.0 0.000745 471.61996 1311.71558
1576.0 0.000635 471.91162 1640.67090
1848.0 0.000541 472.20157 2041.93518
2241.0 0.000446 472.48975 2518.50269
2742.0 0.000365 472.77625 3086.70483
3431.0 0.0002915 473.06116 3777.02344
4143.0 0.0002414 473.34412 4639.16699
5288.0 0.0001891 473.62546 5762.97070
6920.0 0.0001445 473.90500 7333.15234
9584.0 0.0001043 474.18286 9792.87695
13643.0 0.0000733 474.45908 13484.58105
15451.0 0.0000647 474.73346 15373.46484
10728.0 0.0000932 475.00626 11132.58301
7665.0 0.0001305 475.27707 8151.23535
7109.0 0.0001407 475.54630 7458.70850
4433.0 0.0002256 475.81381 4553.05908
1752.0 0.000571 476.07956 2032.10522
1022.0 0.000978 476.34357 1184.73181
875.0 0.001143 476.60580 930.09802
757.0 0.001321 476.86636 805.81329
712.0 0.001404 477.12518 728.81024
676.0 0.001479 477.38220 677.07800
648.0 0.001543 477.63757 640.41675
622.0 0.001608 477.89111 613.40741
589.0 0.001698 478.14291 592.88037
581.0 0.001721 478.39313 576.89142
584.0 0.001712 478.64145 564.19415
604.0 0.001656 478.88806 553.93353
559.0 0.001789 479.13287 545.52917
578.0 0.001730 479.37610 538.55878
597.0 0.001675 479.61755 532.71649
594.0 0.001684 479.85715 527.77887
580.0 0.001724 480.09512 523.56940
578.0 0.001730 480.33130 496.06213
589.0 0.001698 480.56567 494.85712
596.0 0.001678 480.79846 508.85934
583.0 0.001715 481.02933 497.13391
580.0 0.001724 481.25864 498.57095
588.0 0.001701 481.48605 507.53217
602.0 0.001661 481.71176 509.80679
601.0 0.001664 481.93585 526.70563
637.0 0.001570 482.15808 530.55200
650.0 0.001538 482.37863 534.87439
652.0 0.001534 482.59741 546.81927
689.0 0.001451 482.81439 552.88385
700.0 0.001429 483.02982 559.83868
727.0 0.001376 483.24332 567.88458
789.0 0.001267 483.45520 577.30505
768.0 0.001302 483.66525 588.47906
816.0 0.001225 483.87360 601.96600
864.0 0.001157 484.08032 618.61658
967.0 0.001034 484.28519 639.85272
1059.0 0.000944 484.48837 669.11646
1151.0 0.000869 484.68985 748.74341
1243.0 0.000805 484.88953 849.48676
1386.0 0.000722 485.08749 1021.82019
1607.0 0.000622 485.28372 1261.42554
1834.0 0.000545 485.47827 1584.07141
2200.0 0.000455 485.67105 1977.52661
2717.0 0.000368 485.86215 2481.89575
3083.0 0.0003244 486.05154 3136.18262
3735.0 0.0002677 486.23914 3976.72607
4701.0 0.0002127 486.42505 5038.45264
6019.0 0.0001661 486.60922 6402.51465
7917.0 0.0001263 486.79163 8235.93262
11246.0 0.0000889 486.97247 10915.94043
15509.0 0.0000645 487.15143 14942.36621
18937.0 0.0000528 487.32877 18376.17773
16974.0 0.0000589 487.50433 16022.27539
13818.0 0.0000724 487.67825 13469.58887
14799.0 0.0000676 487.85043 14672.56055
16187.0 0.0000618 488.02087 15451.61523
16555.0 0.0000604 488.18964 16240.71582
16038.0 0.0000624 488.35666 16035.18848
11595.0 0.0000862 488.52197 11394.84570
9306.0 0.0001075 488.68567 9509.59961
9257.0 0.0001080 488.84763 9661.26953
7366.0 0.0001358 489.00784 7613.43652
5641.0 0.0001773 489.16629 6171.91943
5679.0 0.0001761 489.32321 6558.40674
6825.0 0.0001465 489.47842 7792.36475
8495.0 0.0001177 489.63190 9548.95117
11033.0 0.0000906 489.78363 11963.45020
15144.0 0.0000660 489.93362 15486.26563
21393.0 0.0000467 490.08203 21170.13672
27774.0 0.0000360 490.22879 28846.97852
27604.0 0.0000362 490.37375 29627.26172
19882.0 0.0000503 490.51709 19618.08984
15080.0 0.0000663 490.65875 15460.39160
13140.0 0.0000761 490.79868 14570.15918
8359.0 0.0001196 490.93701 8525.58594
3602.0 0.0002776 491.07361 3603.23779
1881.0 0.000532 491.20862 1964.66418
1406.0 0.000711 491.34189 1458.49304
1205.0 0.000830 491.47348 1178.45654
1103.0 0.000907 491.60349 1020.83008
1003.0 0.000997 491.73172 914.18231
949.0 0.001054 491.85837 843.01233
874.0 0.001144 491.98334 775.08044
821.0 0.001218 492.10672 733.24078
777.0 0.001287 492.22839 703.04791
720.0 0.001389 492.34836 677.37097
698.0 0.001433 492.46674 656.73492
685.0 0.001460 492.58340 639.97827
645.0 0.001550 492.69852 629.35278
688.0 0.001453 492.81198 618.29852
661.0 0.001513 492.92377 609.28497
683.0 0.001464 493.03394 603.49634
651.0 0.001536 493.14246 548.86572
612.0 0.001634 493.24939 548.46576
639.0 0.001565 493.35461 548.93085
623.0 0.001605 493.45828 525.45154
653.0 0.001531 493.56033 529.95483
697.0 0.001435 493.66068 535.61407
716.0 0.001397 493.75949 543.04333
729.0 0.001372 493.85672 553.95789
733.0 0.001364 493.95224 574.22711
810.0 0.001235 494.04617 615.21198
832.0 0.001202 494.13852 682.19159
902.0 0.001109 494.22922 771.76801
971.0 0.001030 494.31842 885.78845
1118.0 0.000894 494.40594 1030.80591
1272.0 0.000786 494.49197 1211.49854
1446.0 0.000692 494.57623 1435.96082
1659.0 0.000603 494.65903 1724.33069
1988.0 0.000503 494.74026 2106.84106
2622.0 0.000381 494.81985 2631.72485
3465.0 0.0002886 494.89789 3418.31201
4895.0 0.0002043 494.97433 4631.12402
5766.0 0.0001734 495.04922 5646.76123
4649.0 0.0002151 495.12253 4722.88525
3672.0 0.0002723 495.19424 3612.95093
3670.0 0.0002725 495.26450 3701.97803
3483.0 0.0002871 495.33301 3561.30981
2967.0 0.0003370 495.40012 2959.59326
2978.0 0.0003358 495.46564 3122.60376
3389.0 0.0002951 495.52957 3649.83838
2997.0 0.0003337 495.59198 3137.82324
2077.0 0.000481 495.65289 2186.68555
1814.0 0.000551 495.71219 2012.88794
1731.0 0.000578 495.76996 1840.79773
1178.0 0.000849 495.82623 1180.78503
767.0 0.001304 495.88092 780.58124
661.0 0.001513 495.93411 656.42706
608.0 0.001645 495.98578 610.85199
591.0 0.001692 496.03592 584.93848
587.0 0.001704 496.08459 567.73792
579.0 0.001727 496.13168 555.52209
561.0 0.001783 496.17731 546.44415
580.0 0.001724 496.22137 539.45978
604.0 0.001656 496.26404 533.94147
569.0 0.001757 496.30508 521.40442
524.0 0.001908 496.34473 518.40729
537.0 0.001862 496.38284 515.94458
553.0 0.001808 496.41940 509.74075
527.0 0.001898 496.45456 508.35510
507.0 0.001972 496.48825 507.18744
531.0 0.001883 496.52045 506.19354
546.0 0.001832 496.55109 500.12494
536.0 0.001866 496.58035 499.81448
552.0 0.001812 496.60809 499.54898
540.0 0.001852 496.63443 496.63730
533.0 0.001876 496.65927 496.66214
565.0 0.001770 496.68262 496.68552
546.0 0.001832 496.70459 506.09067
529.0 0.001890 496.72504 506.77390
506.0 0.001976 496.74411 507.52896
515.0 0.001942 496.76175 512.88177
541.0 0.001848 496.77789 514.13074
514.0 0.001946 496.79260 515.52856
516.0 0.001938 496.80591 517.10144
505.0 0.001980 496.81775 518.88037
530.0 0.001887 496.82828 520.90637
558.0 0.001792 496.83731 523.22894
573.0 0.001745 496.84494 525.91357
528.0 0.001894 496.85114 529.04480
558.0 0.001792 496.85596 532.73212
576.0 0.001736 496.85941 537.12946
587.0 0.001704 496.86139 542.44611
608.0 0.001645 496.86209 548.99115
625.0 0.001600 496.86124 557.23383
669.0 0.001495 496.85907 567.93164
651.0 0.001536 496.85556 582.59186
763.0 0.001311 496.85068 605.79254
849.0 0.001178 496.84439 652.42883
961.0 0.001041 496.83673 746.52649
1055.0 0.000948 496.82767 894.82288
1232.0 0.000812 496.81726 1089.51465
1475.0 0.000678 496.80554 1337.67200
1728.0 0.000579 496.79245 1656.10498
2088.0 0.000479 496.77798 2057.00415
2545.0 0.000393 496.76224 2559.04321
3115.0 0.0003210 496.74506 3204.70093
4130.0 0.0002421 496.72662 4081.14551
5862.0 0.0001706 496.70685 5397.33691
8159.0 0.0001226 496.68573 7484.24365
9624.0 0.0001039 496.66330 9453.01172
8329.0 0.0001201 496.63950 7861.78906
5452.0 0.0001834 496.61441 5123.44141
4930.0 0.0002028 496.58807 4752.18750
4574.0 0.0002186 496.56036 4518.35791
2828.0 0.000354 496.53134 2622.00415
1348.0 0.000742 496.50107 1313.67285
905.0 0.001105 496.46939 901.25604
773.0 0.001294 496.43655 764.73071
677.0 0.001477 496.40234 693.28754
651.0 0.001536 496.36691 666.99683
642.0 0.001558 496.33026 637.63483
649.0 0.001541 496.29227 617.14380
649.0 0.001541 496.25296 611.42102
634.0 0.001577 496.21243 601.34216
632.0 0.001582 496.17062 594.30396
625.0 0.001600 496.12759 589.51337
597.0 0.001675 496.08331 586.59149
582.0 0.001718 496.03775 585.29547
604.0 0.001656 495.99094 585.42596
640.0 0.001563 495.94290 586.95099
624.0 0.001603 495.89365 589.89758
633.0 0.001580 495.84317 578.39618
661.0 0.001513 495.79156 585.92291
695.0 0.001439 495.73856 595.37689
749.0 0.001335 495.68442 607.29816
778.0 0.001285 495.62909 614.89459
848.0 0.001179 495.57251 635.38843
888.0 0.001126 495.51477 662.87994
995.0 0.001005 495.45581 703.63574
1116.0 0.000896 495.39569 779.54755
1253.0 0.000798 495.33426 938.90253
1451.0 0.000689 495.27179 1209.39880
1709.0 0.000585 495.20810 1588.48474
2142.0 0.000467 495.14325 2076.73535
2645.0 0.000378 495.07715 2704.37500
3255.0 0.0003072 495.00998 3505.27808
4019.0 0.0002488 494.94159 4517.08203
5394.0 0.0001854 494.87201 5824.64307
7322.0 0.0001366 494.80130 7606.20557
10472.0 0.0000955 494.72952 10277.78516
15197.0 0.0000658 494.65656 14469.19727
19993.0 0.0000500 494.58246 18273.72070
15358.0 0.0000651 494.50723 14900.75586
9100.0 0.0001099 494.43079 9498.18262
9090.0 0.0001100 494.35327 8829.51367
9515.0 0.0001051 494.27469 8698.36621
5238.0 0.0001909 494.19498 5103.81592
2118.0 0.000472 494.11417 2302.93311
1240.0 0.000806 494.03214 1368.81824
980.0 0.001020 493.94910 1071.93201
861.0 0.001161 493.86496 921.84210
794.0 0.001259 493.77972 817.76849
736.0 0.001359 493.69339 746.22430
708.0 0.001412 493.60596 698.31445
627.0 0.001595 493.51752 663.92401
575.0 0.001739 493.42789 637.82867
556.0 0.001799 493.33725 617.43799
561.0 0.001783 493.24557 601.14679
536.0 0.001866 493.15280 587.89569
574.0 0.001742 493.05899 576.96143
559.0 0.001789 492.96408 567.81494
546.0 0.001832 492.86823 560.08167
515.0 0.001942 492.77130 553.47473
506.0 0.001976 492.67331 515.59436
521.0 0.001919 492.57425 513.28217
498.0 0.002008 492.47415 511.27609
482.0 0.002075 492.37311 492.57080
467.0 0.002141 492.27106 492.44992
497.0 0.002012 492.16791 492.23691
497.0 0.002012 492.06384 492.12650
496.0 0.002016 491.95868 492.01587
497.0 0.002012 491.85260 491.85568
482.0 0.002075 491.74548 491.74857
473.0 0.002114 491.63736 491.64041
468.0 0.002137 491.52823 491.53140
467.0 0.002141 491.41827 491.42130
480.0 0.002083 491.30716 491.31024
477.0 0.002096 491.19522 491.19824
480.0 0.002083 491.08218 491.08521
474.0 0.002110 490.96832 490.97131
469.0 0.002132 490.85336 490.85638
489.0 0.002045 490.73752 490.74051
462.0 0.002165 490.62067 490.62378
484.0 0.002066 490.50296 490.50607
481.0 0.002079 490.38434 490.38730
488.0 0.002049 490.26471 490.26770
477.0 0.002096 490.14413 490.14719
478.0 0.002092 490.02274 490.02573
507.0 0.001972 489.90030 489.90335
515.0 0.001942 489.77704 489.78006
506.0 0.001976 489.65280 489.65579
468.0 0.002137 489.52774 489.53070
474.0 0.002110 489.40176 489.40472
482.0 0.002075 489.27481 489.27783
462.0 0.002165 489.14703 489.15002
466.0 0.002146 489.01834 489.02133
454.0 0.002203 488.88882 488.89182
513.0 0.001949 488.75839 488.76135
479.0 0.002088 488.62711 488.63007
478.0 0.002092 488.49493 488.49789
492.0 0.002033 488.36188 488.36481
465.0 0.002151 488.22794 488.23096
467.0 0.002141 488.09323 488.09628
452.0 0.002212 487.95770 487.96063
463.0 0.002160 487.82129 487.82419
452.0 0.002212 487.68393 487.68686
437.0 0.002288 487.54584 494.15054
462.0 0.002165 487.40695 494.46848
521.0 0.001919 487.26712 494.83521
484.0 0.002066 487.12659 495.25809
501.0 0.001996 486.98520 499.06183
500.0 0.002000 486.84299 499.85654
491.0 0.002037 486.69995 500.76599
515.0 0.001942 486.55621 501.81055
505.0 0.001980 486.41162 503.01428
479.0 0.002088 486.26617 504.40918
484.0 0.002066 486.12003 506.03354
506.0 0.001976 485.97311 507.93829
482.0 0.002075 485.82526 510.18893
513.0 0.001949 485.67682 512.87036
546.0 0.001832 485.52753 516.10107
534.0 0.001873 485.37753 520.04150
544.0 0.001838 485.22678 524.92596
559.0 0.001789 485.07520 531.10480
595.0 0.001681 484.92291 539.12671
667.0 0.001499 484.76984 549.97473
695.0 0.001439 484.61609 566.05133
733.0 0.001364 484.46164 595.59845
788.0 0.001269 484.30627 657.67786
919.0 0.001088 484.15033 765.15881
1074.0 0.000931 483.99362 918.64697
1199.0 0.000834 483.83633 1120.83142
1407.0 0.000711 483.67819 1378.11353
1727.0 0.000579 483.51932 1713.39307
2155.0 0.000464 483.35986 2153.91260
2756.0 0.000363 483.19958 2750.89087
3770.0 0.0002653 483.03873 3619.67065
5590.0 0.0001789 482.87714 4992.34277
7206.0 0.0001388 482.71484 6541.50293
6283.0 0.0001592 482.55191 5995.80371
4114.0 0.0002431 482.38828 3829.61133
3530.0 0.0002833 482.22397 3222.64795
3712.0 0.0002694 482.05908 3497.04443
3027.0 0.0003304 481.89340 2776.57983
1686.0 0.000593 481.72714 1481.69177
900.0 0.001111 481.56021 908.08691
722.0 0.001385 481.39270 739.53113
676.0 0.001479 481.22449 671.61981
655.0 0.001527 481.05560 633.95355
619.0 0.001616 480.88617 611.70026
652.0 0.001534 480.71603 599.39789
652.0 0.001534 480.54538 595.50360
669.0 0.001495 480.37399 603.55292
676.0 0.001479 480.20200 634.15070
693.0 0.001443 480.02951 693.37610
782.0 0.001279 479.85632 782.10132
897.0 0.001115 479.68265 900.48749
1058.0 0.000945 479.50824 1053.85840
1223.0 0.000818 479.33325 1256.59009
1439.0 0.000695 479.15778 1527.70581
2079.0 0.000481 478.98172 1890.71265
2620.0 0.000382 478.80502 2455.01196
3730.0 0.0002681 478.62778 3326.99609
4275.0 0.0002339 478.44992 4074.94312
3419.0 0.0002925 478.27158 3316.55322
2316.0 0.000432 478.09259 2209.98730
2229.0 0.000449 477.91318 2069.09595
2252.0 0.000444 477.73312 2211.90015
1668.0 0.000600 477.55246 1652.86731
992.0 0.001008 477.37143 965.09900
670.0 0.001493 477.18976 696.35706
591.0 0.001692 477.00760 615.71417
575.0 0.001739 476.82486 580.01245
520.0 0.001923 476.64163 559.23346
515.0 0.001942 476.45792 546.28198
538.0 0.001859 476.27368 538.22485
521.0 0.001919 476.08896 533.80316
524.0 0.001908 475.90369 533.19855
552.0 0.001812 475.71786 538.93103
568.0 0.001761 475.53165 554.08649
571.0 0.001751 475.34485 579.59082
585.0 0.001709 475.15768 613.95142
622.0 0.001608 474.96994 659.27026
693.0 0.001443 474.78171 720.43665
747.0 0.001339 474.59311 803.10968
836.0 0.001196 474.40393 909.64850
1058.0 0.000945 474.21448 1078.78931
1356.0 0.000737 474.02438 1348.41577
1674.0 0.000597 473.83389 1644.61426
1550.0 0.000645 473.64297 1543.94580
1177.0 0.000850 473.45151 1216.22546
1137.0 0.000880 473.25970 1193.99597
1298.0 0.000770 473.06754 1350.13110
1313.0 0.000762 472.87476 1367.65955
1262.0 0.000792 472.68167 1305.03174
1405.0 0.000712 472.48816 1450.62390
1789.0 0.000559 472.29425 1821.81506
2164.0 0.000462 472.09988 2247.69092
1885.0 0.000531 471.90500 2047.41016
1376.0 0.000727 471.70987 1418.80908
1199.0 0.000834 471.51431 1245.70483
1281.0 0.000781 471.31833 1341.56726
1097.0 0.000912 471.12201 1187.61511
786.0 0.001272 470.92520 800.56122
551.0 0.001815 470.72803 608.76306
502.0 0.001992 470.53055 550.12939
472.0 0.002119 470.33270 526.67914
475.0 0.002105 470.13440 513.05841
478.0 0.002092 469.93576 504.03772
469.0 0.002132 469.73682 497.65536
448.0 0.002232 469.53745 490.73996
455.0 0.002198 469.33786 487.26422
450.0 0.002222 469.13779 484.51898
457.0 0.002188 468.93732 482.29605
440.0 0.002273 468.73666 479.37579
409.0 0.002445 468.53558 477.91898
442.0 0.002262 468.33426 476.67603
433.0 0.002309 468.13254 475.59967
476.0 0.002101 467.93045 474.65546
391.0 0.002558 467.72812 470.31586
413.0 0.002421 467.52542 469.85526
428.0 0.002336 467.32251 469.43137
461.0 0.002169 467.11926 469.03732
407.0 0.002457 466.91559 466.91757
430.0 0.002326 466.71179 466.71375
423.0 0.002364 466.50757 466.50952
403.0 0.002481 466.30310 466.30511
393.0 0.002545 466.09836 466.10040
423.0 0.002364 465.89334 465.89526
425.0 0.002353 465.68811 465.69000
426.0 0.002347 465.48251 465.48441
433.0 0.002309 465.27664 465.27859
443.0 0.002257 465.07056 465.07245
426.0 0.002347 464.86414 464.86603
454.0 0.002203 464.65759 464.65948
447.0 0.002237 464.45071 464.45255
430.0 0.002326 464.24362 464.24548
427.0 0.002342 464.03619 464.03809
440.0 0.002273 463.82858 463.83047
432.0 0.002315 463.62088 463.62262
439.0 0.002278 463.41275 463.41455
438.0 0.002283 463.20450 463.20633
418.0 0.002392 462.99597 462.99783
431.0 0.002320 462.78717 462.78900
456.0 0.002193 462.57831 462.58008
454.0 0.002203 462.36914 462.37094
432.0 0.002315 462.15988 462.16156
417.0 0.002398 461.95026 461.95200
439.0 0.002278 461.74051 461.74216
462.0 0.002165 461.53058 461.53226
468.0 0.002137 461.32043 461.32211
457.0 0.002188 461.11017 461.11176
455.0 0.002198 460.89966 460.90134
464.0 0.002155 460.68893 460.69058
460.0 0.002174 460.47806 460.47968
469.0 0.002132 460.26700 465.75412
466.0 0.002146 460.05585 465.91437
466.0 0.002146 459.84457 466.11377
455.0 0.002198 459.63300 469.69098
431.0 0.002320 459.42133 472.89926
471.0 0.002123 459.20953 473.68723
446.0 0.002242 458.99753 474.59171
466.0 0.002146 458.78549 479.33243
452.0 0.002212 458.57321 480.78293
482.0 0.002075 458.36081 482.44769
496.0 0.002016 458.14825 484.36771
510.0 0.001961 457.93570 486.59155
504.0 0.001984 457.72293 490.26254
515.0 0.001942 457.50995 493.37802
544.0 0.001838 457.29706 497.05399
536.0 0.001866 457.08389 501.43460
545.0 0.001835 456.87073 506.70969
557.0 0.001795 456.65744 513.15051
540.0 0.001852 456.44397 521.14868
570.0 0.001754 456.23056 531.28949
554.0 0.001805 456.01688 544.54205
620.0 0.001613 455.80322 562.77277
686.0 0.001458 455.58942 591.45410
786.0 0.001272 455.37546 646.15356
860.0 0.001163 455.16162 747.15063
1014.0 0.000986 454.94757 905.14490
1219.0 0.000820 454.73349 1124.77527
1510.0 0.000662 454.51935 1433.13049
1872.0 0.000534 454.30511 1859.55627
2385.0 0.000419 454.09085 2433.22754
3072.0 0.0003255 453.87646 3250.86328
4320.0 0.0002315 453.66214 4506.03564
5863.0 0.0001706 453.44778 6209.09424
6461.0 0.0001548 453.23322 7017.48877
5901.0 0.0001695 453.01877 5985.95850
6017.0 0.0001662 452.80417 5866.53320
6057.0 0.0001651 452.58969 6075.40723
5206.0 0.0001921 452.37506 5395.37695
4492.0 0.0002226 452.16031 4416.80078
4608.0 0.0002170 451.94568 4169.25293
4296.0 0.0002328 451.73099 4063.01001
2861.0 0.0003495 451.51633 2701.32227
1844.0 0.000542 451.30164 1712.49670
1604.0 0.000623 451.08688 1542.10974
1596.0 0.000627 450.87222 1573.04260
1303.0 0.000767 450.65738 1243.14429
863.0 0.001159 450.44278 838.09662
645.0 0.001550 450.22803 668.04407
599.0 0.001669 450.01331 606.77966
578.0 0.001730 449.79865 575.11353
549.0 0.001821 449.58386 554.37354
521.0 0.001919 449.36926 539.72095
494.0 0.002024 449.15469 528.95227
479.0 0.002088 448.94000 520.86597
478.0 0.002092 448.72546 504.04965
501.0 0.001996 448.51089 500.38101
503.0 0.001988 448.29642 497.87274
490.0 0.002041 448.08194 490.07120
478.0 0.002092 447.86743 490.07541
487.0 0.002053 447.65311 486.00119
512.0 0.001953 447.43878 489.99536
505.0 0.001980 447.22452 493.70285
527.0 0.001898 447.01031 492.33759
560.0 0.001786 446.79608 500.64261
572.0 0.001748 446.58200 513.81616
632.0 0.001582 446.36795 536.12732
646.0 0.001548 446.15414 580.88202
758.0 0.001319 445.94019 664.53308
873.0 0.001145 445.72638 791.32697
949.0 0.001054 445.51266 955.31891
1140.0 0.000877 445.29898 1170.11389
1412.0 0.000708 445.08548 1466.70923
1909.0 0.000524 444.87201 1887.48804
2579.0 0.000388 444.65860 2523.83472
3629.0 0.0002756 444.44534 3496.02026
4503.0 0.0002221 444.23215 4319.73584
3492.0 0.0002864 444.01917 3496.25684
2056.0 0.000486 443.80618 2243.93286
2041.0 0.000490 443.59326 2018.70605
2291.0 0.000436 443.38055 2306.42090
2150.0 0.000465 443.16791 2124.41821
1271.0 0.000787 442.95541 1286.71265
762.0 0.001312 442.74304 813.57715
652.0 0.001534 442.53073 680.79449
644.0 0.001553 442.31870 658.41632
672.0 0.001488 442.10660 677.54688
690.0 0.001449 441.89481 723.06372
699.0 0.001431 441.68307 794.98376
879.0 0.001138 441.47144 903.44220
1041.0 0.000961 441.26004 1067.08655
1234.0 0.000810 441.04871 1325.89124
1593.0 0.000628 440.83755 1698.85242
1857.0 0.000539 440.62665 1877.89185
1405.0 0.000712 440.41568 1430.46643
1002.0 0.000998 440.20511 1074.62061
1037.0 0.000964 439.99454 1073.57288
1135.0 0.000881 439.78424 1179.65295
1016.0 0.000984 439.57397 1030.40833
785.0 0.001274 439.36395 746.48291
707.0 0.001414 439.15417 630.57599
720.0 0.001389 438.94449 632.63818
776.0 0.001289 438.73508 695.25739
874.0 0.001144 438.52582 816.43188
976.0 0.001025 438.31659 982.61426
1129.0 0.000886 438.10770 1205.80176
1494.0 0.000669 437.89896 1516.91309
2054.0 0.000487 437.69049 1961.19421
2873.0 0.0003481 437.48215 2643.88794
4008.0 0.0002495 437.27390 3680.05420
4670.0 0.0002141 437.06604 4515.13330
3747.0 0.0002669 436.85828 3583.18701
2441.0 0.000410 436.65076 2283.09497
2108.0 0.000474 436.44351 2056.23706
2455.0 0.000407 436.23633 2367.15503
2258.0 0.000443 436.02951 2225.63428
1439.0 0.000695 435.82278 1343.76343
814.0 0.001229 435.61636 810.01733
583.0 0.001715 435.41019 640.15399
541.0 0.001848 435.20416 581.04358
528.0 0.001894 434.99847 555.20026
573.0 0.001745 434.79294 540.44946
542.0 0.001845 434.58765 518.84937
457.0 0.002188 434.38266 497.58688
468.0 0.002137 434.17776 487.40973
470.0 0.002128 433.97324 483.61322
474.0 0.002110 433.76895 478.13297
442.0 0.002262 433.56491 467.25232
427.0 0.002342 433.36111 459.40414
417.0 0.002398 433.15756 455.12848
386.0 0.002591 432.95425 452.24271
407.0 0.002457 432.75125 449.93570
400.0 0.002500 432.54846 439.61075
399.0 0.002506 432.34601 438.63467
393.0 0.002545 432.14368 437.78732
372.0 0.002688 431.94180 437.03979
370.0 0.002703 431.74008 432.01688
390.0 0.002564 431.53870 431.77731
384.0 0.002604 431.33752 431.54553
389.0 0.002571 431.13669 431.31967
402.0 0.002488 430.93613 431.09848
397.0 0.002519 430.73581 430.88083
373.0 0.002681 430.53589 430.66623
419.0 0.002387 430.33618 430.38730
363.0 0.002755 430.13669 430.18259
425.0 0.002353 429.93765 429.97891
401.0 0.002494 429.73880 429.77621
367.0 0.002725 429.54037 429.53958
405.0 0.002469 429.34216 429.34134
392.0 0.002551 429.14413 429.14340
390.0 0.002564 428.94662 428.94589
388.0 0.002577 428.74924 428.74844
401.0 0.002494 428.55234 428.55151
417.0 0.002398 428.35577 428.35486
368.0 0.002717 428.15936 428.15851
371.0 0.002695 427.96332 427.96249
389.0 0.002571 427.76764 427.76672
398.0 0.002513 427.57239 427.57144
405.0 0.002469 427.37729 427.37631
400.0 0.002500 427.18250 427.18158
374.0 0.002674 426.98819 426.98724
385.0 0.002597 426.79410 426.79309
381.0 0.002625 426.60049 426.59946
386.0 0.002591 426.40707 426.40601
373.0 0.002681 426.21411 426.21301
364.0 0.002747 426.02133 426.02026
385.0 0.002597 425.82901 425.82794
377.0 0.002653 425.63705 425.63589
377.0 0.002653 425.44543 425.44427
379.0 0.002639 425.25409 425.25287
371.0 0.002695 425.06320 425.06198
365.0 0.002740 424.87256 424.87140
387.0 0.002584 424.68240 424.68118
391.0 0.002558 424.49252 424.49130
381.0 0.002625 424.30301 424.30179
376.0 0.002660 424.11389 424.11264
374.0 0.002674 423.92511 423.92386
386.0 0.002591 423.73679 423.73550
388.0 0.002577 423.54874 423.54745
397.0 0.002519 423.36108 423.35971
390.0 0.002564 423.17383 423.17249
398.0 0.002513 422.98694 422.98553
392.0 0.002551 422.80048 422.79910
409.0 0.002445 422.61435 422.61288
419.0 0.002387 422.42850 422.42703
380.0 0.002632 422.24313 422.24182
369.0 0.002710 422.05811 422.05676
406.0 0.002463 421.87366 421.87222
397.0 0.002519 421.68948 421.68796
376.0 0.002660 421.50565 421.50412
405.0 0.002469 421.32227 421.32074
395.0 0.002532 421.13922 421.13770
429.0 0.002331 420.95667 420.95511
389.0 0.002571 420.77454 420.77289
396.0 0.002525 420.59265 420.59103
391.0 0.002558 420.41135 420.40964
382.0 0.002618 420.23032 420.22867
397.0 0.002519 420.04974 420.04810
415.0 0.002410 419.86963 419.86789
411.0 0.002433 419.68982 419.68808
403.0 0.002481 419.51056 419.50885
441.0 0.002268 419.33160 419.32986
419.0 0.002387 419.15314 419.15137
389.0 0.002571 418.97507 418.97330
392.0 0.002551 418.79742 418.79556
389.0 0.002571 418.62018 418.61835
378.0 0.002646 418.44333 418.44156
407.0 0.002457 418.26703 420.23721
411.0 0.002433 418.09113 420.19223
427.0 0.002342 417.91556 420.16116
376.0 0.002660 417.74054 420.14606
416.0 0.002404 417.56580 420.14923
414.0 0.002415 417.39169 421.16708
430.0 0.002326 417.21793 421.28183
420.0 0.002381 417.04453 421.43188
394.0 0.002538 416.87173 421.62311
411.0 0.002433 416.69925 421.86279
423.0 0.002364 416.52728 422.15964
422.0 0.002370 416.35577 430.61313
420.0 0.002381 416.18454 431.60995
424.0 0.002358 416.01398 432.76526
450.0 0.002222 415.84381 434.11176
449.0 0.002227 415.67407 435.68976
422.0 0.002370 415.50482 441.62338
443.0 0.002257 415.33588 444.12451
425.0 0.002353 415.16757 447.11243
405.0 0.002469 414.99960 454.37796
438.0 0.002283 414.83221 459.10019
474.0 0.002110 414.66522 465.03827
493.0 0.002028 414.49866 472.78662
510.0 0.001961 414.33264 483.72876
511.0 0.001957 414.16696 505.17209
529.0 0.001890 414.00198 540.62360
592.0 0.001689 413.83737 598.20874
694.0 0.001441 413.67310 684.36786
794.0 0.001259 413.50940 795.59155
975.0 0.001026 413.34613 946.60223
1206.0 0.000829 413.18347 1166.95959
1596.0 0.000627 413.02121 1507.20276
2153.0 0.000464 412.85934 2001.76965
2429.0 0.000412 412.69806 2311.96289
2047.0 0.000489 412.53720 1837.54382
1531.0 0.000653 412.37695 1422.18335
1588.0 0.000630 412.21707 1534.04236
1994.0 0.000502 412.05768 1961.29175
2311.0 0.000433 411.89880 2353.46094
2369.0 0.000422 411.74039 2506.93311
2721.0 0.000368 411.58252 2947.87866
3789.0 0.0002639 411.42508 3937.99023
5295.0 0.0001889 411.26819 5614.05371
7102.0 0.0001408 411.11176 7363.65234
5875.0 0.0001702 410.95581 6540.16748
3590.0 0.0002786 410.80042 4161.73389
2964.0 0.0003374 410.64548 3497.02832
3843.0 0.0002602 410.49106 4143.75928
4811.0 0.0002079 410.33713 5019.51465
4591.0 0.0002178 410.18369 4675.88525
4148.0 0.0002411 410.03082 4138.53711
4162.0 0.0002403 409.87842 4078.37476
3157.0 0.0003168 409.72641 3064.61621
2175.0 0.000460 409.57510 2200.37061
2071.0 0.000483 409.42419 2193.51685
2684.0 0.000373 409.27383 2668.62158
3034.0 0.0003296 409.12396 2913.27954
2074.0 0.000482 408.97452 2069.56787
1188.0 0.000842 408.82574 1244.77576
918.0 0.001089 408.67740 984.04437
947.0 0.001056 408.52966 989.25348
938.0 0.001066 408.38229 1002.04742
822.0 0.001217 408.23550 812.44208
580.0 0.001724 408.08926 619.40393
489.0 0.002045 407.94351 538.29193
462.0 0.002165 407.79834 490.98569
456.0 0.002193 407.65366 474.22873
430.0 0.002326 407.50946 462.90900
417.0 0.002398 407.36584 454.68118
409.0 0.002445 407.22266 448.43948
428.0 0.002336 407.08014 436.02194
405.0 0.002469 406.93811 432.80469
395.0 0.002532 406.79645 430.31134
398.0 0.002513 406.65552 421.87268
406.0 0.002463 406.51498 421.11221
421.0 0.002375 406.37512 420.98599
402.0 0.002488 406.23575 422.05759
400.0 0.002500 406.09680 427.88388
430.0 0.002326 405.95850 429.42297
421.0 0.002375 405.82065 440.71320
411.0 0.002433 405.68344 455.80237
438.0 0.002283 405.54669 476.48010
452.0 0.002212 405.41049 508.81442
502.0 0.001992 405.27490 557.44849
526.0 0.001901 405.13974 621.46039
532.0 0.001880 405.00522 628.93530
472.0 0.002119 404.87109 543.92548
453.0 0.002208 404.73767 495.97635
469.0 0.002132 404.60477 499.22272
501.0 0.001996 404.47235 521.80029
511.0 0.001957 404.34048 516.44708
472.0 0.002119 404.20923 467.39896
427.0 0.002342 404.07843 437.09421
433.0 0.002309 403.94824 427.84842
422.0 0.002370 403.81857 425.58768
417.0 0.002398 403.68958 425.51968
391.0 0.002558 403.56100 426.74445
431.0 0.002320 403.43289 429.13858
480.0 0.002083 403.30548 434.28323
498.0 0.002008 403.17856 440.00742
543.0 0.001842 403.05231 448.99237
528.0 0.001894 402.92651 465.64090
556.0 0.001799 402.80124 502.36209
584.0 0.001712 402.67661 565.06885
652.0 0.001534 402.55246 660.95538
774.0 0.001292 402.42889 788.63049
969.0 0.001032 402.30594 963.69092
1336.0 0.000749 402.18347 1227.24658
1823.0 0.000549 402.06158 1643.66089
2383.0 0.000420 401.94025 2193.26099
2322.0 0.000431 401.81952 2302.73486
1559.0 0.000641 401.69934 1586.83911
1098.0 0.000911 401.57965 1142.44531
1168.0 0.000856 401.46066 1143.94287
1443.0 0.000693 401.34213 1333.34351
1356.0 0.000737 401.22415 1335.68384
1000.0 0.001000 401.10681 924.52576
605.0 0.001653 400.98993 631.99084
523.0 0.001912 400.87369 531.65472
465.0 0.002151 400.75806 499.32870
489.0 0.002045 400.64288 486.01749
546.0 0.001832 400.52838 481.94424
544.0 0.001838 400.41434 487.05927
554.0 0.001805 400.30099 506.21158
597.0 0.001675 400.18814 543.29358
671.0 0.001490 400.07584 603.80261
731.0 0.001368 399.96417 691.81519
905.0 0.001105 399.85303 828.13837
1116.0 0.000896 399.74249 1033.90759
1447.0 0.000691 399.63248 1358.16931
1892.0 0.000529 399.52307 1796.97607
2048.0 0.000488 399.41425 2053.61377
1962.0 0.000510 399.30591 1866.25623
2035.0 0.000491 399.19824 1928.60474
2457.0 0.000407 399.09116 2334.29492
2496.0 0.000401 398.98456 2380.98291
1908.0 0.000524 398.87860 1823.09106
1349.0 0.000741 398.77322 1318.28967
1170.0 0.000855 398.66840 1161.40283
1235.0 0.000810 398.56415 1246.08618
1198.0 0.000835 398.46057 1183.46606
903.0 0.001107 398.35745 840.80988
659.0 0.001517 398.25491 640.25409
609.0 0.001642 398.15295 600.80963
636.0 0.001572 398.05161 629.13818
667.0 0.001499 397.95074 694.89380
729.0 0.001372 397.85062 799.63971
952.0 0.001050 397.75098 957.36951
1234.0 0.000810 397.65189 1217.87183
1571.0 0.000637 397.55350 1595.75989
1738.0 0.000575 397.45557 1792.99329
1379.0 0.000725 397.35831 1445.44922
1128.0 0.000887 397.26154 1213.23682
1334.0 0.000750 397.16537 1322.76660
1668.0 0.000600 397.06985 1671.97595
2152.0 0.000465 396.97485 2082.68848
2167.0 0.000461 396.88049 2078.23267
1453.0 0.000688 396.78662 1480.22852
940.0 0.001064 396.69345 996.62122
871.0 0.001148 396.60080 893.17645
1020.0 0.000980 396.50876 980.85797
1051.0 0.000951 396.41724 1066.06091
925.0 0.001081 396.32629 880.00787
565.0 0.001770 396.23599 620.75128
494.0 0.002024 396.14627 508.16684
453.0 0.002208 396.05713 470.97528
433.0 0.002309 395.96851 454.60605
452.0 0.002212 395.88052 445.39551
446.0 0.002242 395.79312 439.93539
426.0 0.002347 395.70636 436.64563
438.0 0.002283 395.62009 435.15222
434.0 0.002304 395.53445 432.48911
445.0 0.002247 395.44934 435.18686
473.0 0.002114 395.36490 440.54739
437.0 0.002288 395.28101 451.01636
499.0 0.002004 395.19763 474.00815
547.0 0.001828 395.11490 519.69934
592.0 0.001689 395.03275 592.40106
690.0 0.001449 394.95126 695.35425
815.0 0.001227 394.87027 841.26489
1026.0 0.000975 394.78989 1052.84436
1459.0 0.000685 394.71008 1389.12952
1890.0 0.000529 394.63083 1825.27625
1887.0 0.000530 394.55219 1892.24780
1284.0 0.000779 394.47409 1311.62878
892.0 0.001121 394.39664 957.04742
925.0 0.001081 394.31976 948.84723
1128.0 0.000887 394.24350 1100.79919
1135.0 0.000881 394.16782 1161.24109
878.0 0.001139 394.09262 865.16315
600.0 0.001667 394.01810 593.32532
483.0 0.002070 393.94412 489.12668
454.0 0.002203 393.87079 454.13358
430.0 0.002326 393.79800 437.19995
420.0 0.002381 393.72577 426.84915
415.0 0.002410 393.65417 419.92218
414.0 0.002415 393.58310 415.01013
452.0 0.002212 393.51266 411.37320
421.0 0.002375 393.44284 408.59024
415.0 0.002410 393.37354 406.40021
410.0 0.002439 393.30487 404.64035
405.0 0.002469 393.23672 404.62003
398.0 0.002513 393.16913 403.51489
422.0 0.002370 393.10223 402.60739
435.0 0.002299 393.03592 401.85843
424.0 0.002358 392.97009 401.24139
416.0 0.002404 392.90497 401.42792
412.0 0.002427 392.84024 401.06381
399.0 0.002506 392.77621 400.79031
381.0 0.002625 392.71277 400.60095
379.0 0.002639 392.65002 406.75610
426.0 0.002347 392.58765 407.14169
425.0 0.002353 392.52597 407.65323
422.0 0.002370 392.46487 406.37402
402.0 0.002488 392.40424 407.29553
404.0 0.002475 392.34436 408.38293
439.0 0.002278 392.28497 412.91309
387.0 0.002584 392.22617 414.65759
424.0 0.002358 392.16794 416.72070
434.0 0.002304 392.11026 418.27026
463.0 0.002160 392.05325 421.30173
475.0 0.002105 391.99680 425.00763
445.0 0.002247 391.94086 429.64197
501.0 0.001996 391.88559 435.61633
464.0 0.002155 391.83081 443.75385
497.0 0.002012 391.77667 456.69504
506.0 0.001976 391.72308 479.75931
549.0 0.001821 391.67010 521.42413
599.0 0.001669 391.61765 586.04266
682.0 0.001466 391.56586 675.96216
812.0 0.001232 391.51453 803.60022
1041.0 0.000961 391.46387 992.64325
1382.0 0.000724 391.41373 1286.12183
1804.0 0.000554 391.36420 1608.13831
1707.0 0.000586 391.31522 1536.75830
1317.0 0.000759 391.26685 1158.62793
1225.0 0.000816 391.21906 1100.80542
1404.0 0.000712 391.17172 1344.99109
1751.0 0.000571 391.12515 1798.46826
2185.0 0.000458 391.07901 2251.82666
2679.0 0.000373 391.03348 2679.89233
3600.0 0.0002778 390.98853 3525.11719
4973.0 0.0002011 390.94409 4903.23096
5337.0 0.0001874 390.90036 5596.39063
3783.0 0.0002643 390.85709 3904.57178
2278.0 0.000439 390.81451 2400.42383
2042.0 0.000490 390.77237 2133.92944
2492.0 0.000401 390.73087 2544.62524
2917.0 0.0003428 390.68991 3023.21069
2398.0 0.000417 390.64948 2471.44116
1358.0 0.000736 390.60974 1372.95142
821.0 0.001218 390.57047 852.21271
670.0 0.001493 390.53177 694.77899
626.0 0.001597 390.49371 646.82800
651.0 0.001536 390.45612 643.14136
703.0 0.001422 390.41913 674.37189
773.0 0.001294 390.38281 739.17920
777.0 0.001287 390.34695 774.89368
666.0 0.001502 390.31161 681.55737
581.0 0.001721 390.27689 599.08307
586.0 0.001706 390.24277 600.57507
630.0 0.001587 390.20917 656.58527
711.0 0.001406 390.17609 739.50000
754.0 0.001326 390.14371 793.79773
814.0 0.001229 390.11179 849.85175
921.0 0.001086 390.08044 1013.36194
1128.0 0.000887 390.04962 1208.34045
1113.0 0.000898 390.01941 1147.49890
899.0 0.001112 389.98975 963.21088
869.0 0.001151 389.96066 983.63409
1165.0 0.000858 389.93210 1184.87244
1548.0 0.000646 389.90411 1525.60986
1777.0 0.000563 389.87671 1745.29517
1384.0 0.000723 389.84982 1362.88562
887.0 0.001127 389.82349 902.19733
706.0 0.001416 389.79770 758.91089
754.0 0.001326 389.77249 798.98724
935.0 0.001070 389.74777 899.79187
846.0 0.001182 389.72372 872.76453
666.0 0.001502 389.70016 647.59607
436.0 0.002294 389.67715 504.18173
448.0 0.002232 389.65469 453.08228
431.0 0.002320 389.63278 433.52786
458.0 0.002183 389.61145 422.87659
403.0 0.002481 389.59073 415.99359
403.0 0.002481 389.57043 411.20236
370.0 0.002703 389.55069 407.69266
423.0 0.002364 389.53149 405.02249
427.0 0.002342 389.51294 402.57648
390.0 0.002564 389.49478 400.92133
365.0 0.002740 389.47729 399.57104
396.0 0.002525 389.46033 398.45148
372.0 0.002688 389.44388 397.51062
369.0 0.002710 389.42795 396.52930
355.0 0.002817 389.41260 395.85397
374.0 0.002674 389.39777 395.45303
385.0 0.002597 389.38354 394.95554
378.0 0.002646 389.36978 393.64417
384.0 0.002604 389.35660 393.31680
390.0 0.002564 389.34393 393.03033
364.0 0.002747 389.33182 392.77917
373.0 0.002681 389.32025 392.65228
367.0 0.002725 389.30914 392.01541
382.0 0.002618 389.29868 390.63391
389.0 0.002571 389.28864 390.59512
387.0 0.002584 389.27921 390.56870
383.0 0.002611 389.27029 390.55472
387.0 0.002584 389.26190 390.55365
410.0 0.002439 389.25409 389.92636
402.0 0.002488 389.24673 389.99350
387.0 0.002584 389.23993 390.07422
389.0 0.002571 389.23367 390.17230
367.0 0.002725 389.22791 390.29218
382.0 0.002618 389.22269 390.44028
400.0 0.002500 389.21799 391.15631
409.0 0.002445 389.21387 391.42844
389.0 0.002571 389.21021 391.77591
379.0 0.002639 389.20703 392.23267
386.0 0.002591 389.20447 392.85730
389.0 0.002571 389.20242 394.03052
397.0 0.002519 389.20084 395.63669
425.0 0.002353 389.19980 398.87070
416.0 0.002404 389.19928 404.82272
406.0 0.002463 389.19922 415.56549
427.0 0.002342 389.19980 428.90372
453.0 0.002208 389.20081 448.69821
495.0 0.002020 389.20236 478.91348
551.0 0.001815 389.20441 520.75305
595.0 0.001681 389.20703 540.12799
519.0 0.001927 389.21005 491.07208
456.0 0.002193 389.21368 449.14389
436.0 0.002294 389.21777 442.03812
431.0 0.002320 389.22238 454.11115
503.0 0.001988 389.22748 471.00729
477.0 0.002096 389.23309 464.32391
470.0 0.002128 389.23923 433.37466
439.0 0.002278 389.24594 416.71310
406.0 0.002463 389.25305 413.18399
427.0 0.002342 389.26071 414.95108
428.0 0.002336 389.26883 421.43884
436.0 0.002294 389.27753 435.49231
447.0 0.002237 389.28668 458.46368
444.0 0.002252 389.29636 493.63745
507.0 0.001972 389.30646 543.69366
669.0 0.001495 389.31714 619.23267
774.0 0.001292 389.32825 732.29828
876.0 0.001142 389.33990 822.86926
795.0 0.001258 389.35205 734.89392
636.0 0.001572 389.36472 612.29419
622.0 0.001608 389.37781 606.94342
687.0 0.001456 389.39142 685.46228
807.0 0.001239 389.40549 821.05261
926.0 0.001080 389.42007 959.02966
1073.0 0.000932 389.43515 1072.39160
1255.0 0.000797 389.45074 1295.95337
1389.0 0.000720 389.46680 1481.55920
1168.0 0.000856 389.48331 1199.03882
794.0 0.001259 389.50034 837.29657
692.0 0.001445 389.51785 738.90100
771.0 0.001297 389.53583 801.90350
928.0 0.001078 389.55435 937.18738
945.0 0.001058 389.57321 979.11279
825.0 0.001212 389.59265 797.24274
737.0 0.001357 389.61255 681.63885
739.0 0.001353 389.63300 684.59937
705.0 0.001418 389.65384 660.09229
583.0 0.001715 389.67517 558.27991
488.0 0.002049 389.69693 498.45959
506.0 0.001976 389.71924 491.07004
520.0 0.001923 389.74197 510.15945
572.0 0.001748 389.76517 531.88879
540.0 0.001852 389.78885 505.93350
449.0 0.002227 389.81305 454.56137
413.0 0.002421 389.83765 427.93982
427.0 0.002342 389.86270 418.79968
400.0 0.002500 389.88831 415.10583
403.0 0.002481 389.91431 413.24454
420.0 0.002381 389.94080 411.84061
415.0 0.002410 389.96771 411.64853
418.0 0.002392 389.99503 411.97705
414.0 0.002415 390.02292 412.77261
410.0 0.002439 390.05121 414.03558
457.0 0.002188 390.08002 415.54041
424.0 0.002358 390.10925 418.53522
459.0 0.002179 390.13882 421.70135
465.0 0.002151 390.16910 425.82986
486.0 0.002058 390.19955 429.91159
495.0 0.002020 390.23065 437.29446
497.0 0.002012 390.26212 447.46536
473.0 0.002114 390.29407 462.53342
563.0 0.001776 390.32642 486.59814
647.0 0.001546 390.35922 533.27264
720.0 0.001389 390.39246 630.02814
868.0 0.001152 390.42618 784.50208
1054.0 0.000949 390.46036 1036.06177
1455.0 0.000687 390.49496 1375.25696
2132.0 0.000469 390.52994 1921.65759
3073.0 0.0003254 390.56546 2699.75171
3562.0 0.0002807 390.60123 3217.21558
2590.0 0.000386 390.63763 2435.19409
1521.0 0.000657 390.67444 1501.82642
1251.0 0.000799 390.71167 1235.91992
1410.0 0.000709 390.74930 1384.16492
1808.0 0.000553 390.78735 1707.82983
1897.0 0.000527 390.82587 1808.32800
1367.0 0.000732 390.86478 1262.87732
820.0 0.001220 390.90414 780.57935
625.0 0.001600 390.94391 594.63123
511.0 0.001957 390.98407 536.94385
521.0 0.001919 391.02475 515.03595
560.0 0.001786 391.06580 515.06824
565.0 0.001770 391.10727 532.08698
604.0 0.001656 391.14920 570.81000
701.0 0.001427 391.19147 629.97882
804.0 0.001244 391.23422 727.99902
991.0 0.001009 391.27740 860.94135
1033.0 0.000968 391.32092 904.35889
809.0 0.001236 391.36487 735.07562
645.0 0.001550 391.40930 608.30603
622.0 0.001608 391.45404 588.23499
651.0 0.001536 391.49930 625.24951
743.0 0.001346 391.54492 685.84418
800.0 0.001250 391.59097 690.80823
727.0 0.001376 391.63736 599.81580
632.0 0.001582 391.68417 544.08246
614.0 0.001629 391.73141 538.33398
674.0 0.001484 391.77902 557.83856
750.0 0.001333 391.82712 600.55267
848.0 0.001179 391.87552 692.06183
1011.0 0.000989 391.92441 877.62286
1251.0 0.000799 391.97360 1184.16614
1666.0 0.000600 392.02325 1683.86926
2335.0 0.000428 392.07327 2373.84863
3568.0 0.0002803 392.12369 3473.19604
5269.0 0.0001898 392.17450 4967.38721
5797.0 0.0001725 392.22565 5631.30664
4012.0 0.0002493 392.27728 3856.52197
2343.0 0.000427 392.32922 2304.65601
1887.0 0.000530 392.38159 1956.85413
2236.0 0.000447 392.43439 2287.25195
3001.0 0.0003332 392.48746 2911.56299
3177.0 0.0003148 392.54099 3043.73608
2203.0 0.000454 392.59488 1997.09070
1243.0 0.000805 392.64911 1161.32397
902.0 0.001109 392.70377 883.35883
906.0 0.001104 392.75885 855.83185
991.0 0.001009 392.81418 923.70593
1187.0 0.000842 392.86996 1090.78296
1519.0 0.000658 392.92606 1360.76160
1893.0 0.000528 392.98260 1584.08655
1496.0 0.000668 393.03955 1402.68188
1185.0 0.000844 393.09677 1183.81018
1308.0 0.000765 393.15436 1208.72583
1609.0 0.000622 393.21240 1435.52173
2019.0 0.000495 393.27075 1784.57227
2167.0 0.000461 393.32944 1825.61389
1506.0 0.000664 393.38858 1317.44519
1042.0 0.000960 393.44794 951.94086
937.0 0.001067 393.50772 859.95978
994.0 0.001006 393.56793 907.03491
1098.0 0.000911 393.62842 1013.30328
1121.0 0.000892 393.68927 1002.81885
982.0 0.001018 393.75049 868.67462
958.0 0.001044 393.81207 861.26007
1165.0 0.000858 393.87399 1008.99078
1411.0 0.000709 393.93628 1295.22766
1924.0 0.000520 393.99887 1779.03577
2439.0 0.000410 394.06186 2415.36279
2718.0 0.000368 394.12518 2746.06494
2717.0 0.000368 394.18887 2834.82813
3267.0 0.0003061 394.25281 3412.39551
3740.0 0.0002674 394.31714 3880.81201
3236.0 0.0003090 394.38184 3324.38794
2401.0 0.000416 394.44687 2497.74829
1891.0 0.000529 394.51221 2014.47278
1668.0 0.000600 394.57785 1799.70752
1800.0 0.000556 394.64386 1949.91553
1923.0 0.000520 394.71027 2067.37256
1637.0 0.000611 394.77695 1651.78540
1091.0 0.000917 394.84390 1068.45947
758.0 0.001319 394.91122 742.56940
649.0 0.001541 394.97891 624.02771
617.0 0.001621 395.04694 586.13678
623.0 0.001605 395.11523 591.79510
631.0 0.001585 395.18390 633.85388
728.0 0.001374 395.25287 715.14325
933.0 0.001072 395.32214 847.00598
1199.0 0.000834 395.39172 1062.28174
1484.0 0.000674 395.46161 1370.60095
1676.0 0.000597 395.53186 1590.14832
1392.0 0.000718 395.60245 1297.13708
965.0 0.001036 395.67331 914.77130
856.0 0.001168 395.74445 814.60059
950.0 0.001053 395.81592 896.87830
1120.0 0.000893 395.88766 1086.25684
1340.0 0.000746 395.95972 1278.55298
1324.0 0.000755 396.03217 1273.45471
1282.0 0.000780 396.10492 1224.94336
1166.0 0.000858 396.17789 1125.97534
833.0 0.001200 396.25116 846.14905
704.0 0.001420 396.32474 686.71454
670.0 0.001493 396.39868 662.55121
723.0 0.001383 396.47287 714.04285
868.0 0.001152 396.54736 803.78491
939.0 0.001065 396.62213 834.38470
790.0 0.001266 396.69727 759.57043
830.0 0.001205 396.77258 764.00488
949.0 0.001054 396.84824 894.69727
1194.0 0.000838 396.92419 1134.64795
1604.0 0.000623 397.00046 1546.38391
2306.0 0.000434 397.07697 2130.41846
2640.0 0.000379 397.15375 2546.27808
2322.0 0.000431 397.23087 2253.55518
2347.0 0.000426 397.30820 2117.70459
2856.0 0.0003501 397.38580 2456.93604
2913.0 0.0003433 397.46375 2560.44531
2284.0 0.000438 397.54196 2092.08130
1846.0 0.000542 397.62045 1809.94763
1501.0 0.000666 397.69919 1485.73853
1357.0 0.000737 397.77820 1277.77307
1503.0 0.000665 397.85748 1338.44104
1499.0 0.000667 397.93701 1320.77051
1084.0 0.000923 398.01685 952.35883
727.0 0.001376 398.09692 662.96198
581.0 0.001721 398.17731 547.22070
530.0 0.001887 398.25790 502.70850
473.0 0.002114 398.33878 478.83759
436.0 0.002294 398.41989 464.58167
460.0 0.002174 398.50131 454.42313
453.0 0.002208 398.58295 448.72876
444.0 0.002252 398.66486 445.35886
436.0 0.002294 398.74704 444.38116
450.0 0.002222 398.82947 446.59714
475.0 0.002105 398.91205 455.05264
496.0 0.002016 398.99500 475.14789
533.0 0.001876 399.07819 510.98169
588.0 0.001701 399.16159 570.28461
672.0 0.001488 399.24527 658.56561
799.0 0.001252 399.32916 793.72473
942.0 0.001062 399.41330 938.91168
896.0 0.001116 399.49768 895.39990
666.0 0.001502 399.58224 676.86627
549.0 0.001821 399.66711 569.89044
566.0 0.001767 399.75229 563.28918
625.0 0.001600 399.83759 608.75159
649.0 0.001541 399.92316 673.21295
611.0 0.001637 400.00882 671.78455
563.0 0.001776 400.09500 557.13464
498.0 0.002008 400.18118 479.00491
439.0 0.002278 400.26770 455.55588
482.0 0.002075 400.35437 458.88486
469.0 0.002132 400.44128 477.29803
490.0 0.002041 400.52841 511.34378
549.0 0.001821 400.61588 567.21527
655.0 0.001527 400.70346 651.87097
691.0 0.001447 400.79126 731.83887
632.0 0.001582 400.87933 680.06982
545.0 0.001835 400.96753 551.94299
474.0 0.002110 401.05597 497.59937
482.0 0.002075 401.14462 498.35098
541.0 0.001848 401.23355 527.80707
576.0 0.001736 401.32263 566.93610
550.0 0.001818 401.41193 556.94257
479.0 0.002088 401.50140 485.49008
382.0 0.002618 401.59116 439.72238
387.0 0.002584 401.68106 422.81445
450.0 0.002222 401.77112 416.30591
386.0 0.002591 401.86148 412.86349
432.0 0.002315 401.95200 410.70285
380.0 0.002632 402.04276 409.24127
398.0 0.002513 402.13364 407.44980
418.0 0.002392 402.22473 406.73444
414.0 0.002415 402.31601 406.20233
370.0 0.002703 402.40750 405.79987
420.0 0.002381 402.49921 405.49213
438.0 0.002283 402.59103 405.25580
406.0 0.002463 402.68314 404.69342
408.0 0.002451 402.77539 404.57907
397.0 0.002519 402.86780 404.49692
368.0 0.002717 402.96042 404.44077
382.0 0.002618 403.05316 404.48825
420.0 0.002381 403.14615 404.47641
408.0 0.002451 403.23926 404.62540
434.0 0.002304 403.33255 404.65161
435.0 0.002299 403.42612 404.69034
398.0 0.002513 403.51981 404.74045
403.0 0.002481 403.61359 404.34030
394.0 0.002538 403.70764 404.48239
393.0 0.002545 403.80179 404.59259
417.0 0.002398 403.89618 404.78690
407.0 0.002457 403.99063 404.92093
398.0 0.002513 404.08530 405.06735
391.0 0.002558 404.18018 404.99545
380.0 0.002632 404.27521 405.19141
388.0 0.002577 404.37036 405.41367
390.0 0.002564 404.46573 405.68011
390.0 0.002564 404.56116 406.03952
387.0 0.002584 404.65680 406.59430
411.0 0.002433 404.75259 407.41763
420.0 0.002381 404.84854 408.63266
388.0 0.002577 404.94467 410.37857
390.0 0.002564 405.04083 412.95691
392.0 0.002551 405.13727 415.71405
395.0 0.002532 405.23380 415.93948
406.0 0.002463 405.33051 413.22058
396.0 0.002525 405.42731 412.37509
387.0 0.002584 405.52432 413.77051
448.0 0.002232 405.62143 417.18857
452.0 0.002212 405.71869 423.35971
403.0 0.002481 405.81607 432.47275
423.0 0.002364 405.91357 445.96967
473.0 0.002114 406.01129 467.07080
528.0 0.001894 406.10904 499.46042
536.0 0.001866 406.20700 527.78937
620.0 0.001613 406.30502 537.14423
556.0 0.001799 406.40329 538.07483
509.0 0.001965 406.50156 498.96680
495.0 0.002020 406.59998 467.87589
445.0 0.002247 406.69861 465.89294
487.0 0.002053 406.79724 476.25107
487.0 0.002053 406.89603 481.80969
493.0 0.002028 406.99490 481.35284
440.0 0.002273 407.09406 468.54752
423.0 0.002364 407.19318 444.40765
408.0 0.002451 407.29248 432.42841
414.0 0.002415 407.39185 428.95120
434.0 0.002304 407.49136 428.55457
423.0 0.002364 407.59100 429.48337
414.0 0.002415 407.69073 431.48367
416.0 0.002404 407.79065 434.98010
426.0 0.002347 407.89056 441.41266
452.0 0.002212 407.99051 452.88278
465.0 0.002151 408.09070 470.24292
485.0 0.002062 408.19095 498.26901
570.0 0.001754 408.29141 539.48712
595.0 0.001681 408.39178 591.95801
679.0 0.001473 408.49234 614.39301
620.0 0.001613 408.59296 564.48816
534.0 0.001873 408.69376 527.93591
534.0 0.001873 408.79456 533.54724
557.0 0.001795 408.89554 566.56158
663.0 0.001508 408.99655 627.65106
788.0 0.001269 409.09766 719.70374
882.0 0.001134 409.19885 845.17432
1096.0 0.000912 409.30020 1047.04077
1427.0 0.000701 409.40152 1436.21545
2079.0 0.000481 409.50296 2027.50513
2967.0 0.0003370 409.60455 2902.10571
3419.0 0.0002925 409.70618 3513.48096
2786.0 0.000359 409.80789 2727.84570
1605.0 0.000623 409.90964 1612.83838
1108.0 0.000903 410.01151 1206.20093
1198.0 0.000835 410.11343 1261.59814
1458.0 0.000686 410.21542 1549.66553
1834.0 0.000545 410.31754 1932.25061
1844.0 0.000542 410.41965 1895.62781
1297.0 0.000771 410.52188 1244.74829
831.0 0.001203 410.62411 794.93988
648.0 0.001543 410.72656 625.94946
560.0 0.001786 410.82892 567.20203
552.0 0.001812 410.93140 545.84106
575.0 0.001739 411.03397 552.51477
593.0 0.001686 411.13651 582.77539
653.0 0.001531 411.23923 645.37854
801.0 0.001248 411.34192 748.31793
1074.0 0.000931 411.44467 908.19354
1247.0 0.000802 411.54749 1049.08240
1119.0 0.000894 411.65039 947.01678
810.0 0.001235 411.75336 712.78943
621.0 0.001610 411.85635 608.86566
604.0 0.001656 411.95935 608.21515
687.0 0.001456 412.06241 656.26941
838.0 0.001193 412.16553 734.20081
856.0 0.001168 412.26874 762.51215
744.0 0.001344 412.37195 654.24139
670.0 0.001493 412.47522 556.65356
552.0 0.001812 412.57846 522.42004
517.0 0.001934 412.68182 519.35229
574.0 0.001742 412.78522 525.63690
597.0 0.001675 412.88864 550.74304
667.0 0.001499 412.99207 602.58209
725.0 0.001379 413.09558 713.99768
867.0 0.001153 413.19910 922.02545
1308.0 0.000765 413.30264 1260.02588
1767.0 0.000566 413.40619 1798.09753
2553.0 0.000392 413.50980 2603.53052
3497.0 0.0002860 413.61340 3406.12671
3145.0 0.0003180 413.71707 3110.64746
1841.0 0.000543 413.82074 1919.07495
1244.0 0.000804 413.92450 1338.83911
1171.0 0.000854 414.02820 1337.48682
1422.0 0.000703 414.13190 1601.93347
1852.0 0.000540 414.23569 1965.01025
2013.0 0.000497 414.33948 2099.77490
1601.0 0.000625 414.44336 1575.33850
962.0 0.001040 414.54706 983.23615
719.0 0.001391 414.65085 732.52911
622.0 0.001608 414.75473 664.82074
551.0 0.001815 414.85855 641.79120
539.0 0.001855 414.96243 586.20239
531.0 0.001883 415.06622 529.10217
482.0 0.002075 415.17010 508.14236
444.0 0.002252 415.27396 507.19180
488.0 0.002049 415.37793 522.36041
551.0 0.001815 415.48172 552.85663
603.0 0.001658 415.58560 598.03058
624.0 0.001603 415.68945 616.51050
576.0 0.001736 415.79333 556.50732
507.0 0.001972 415.89719 500.98065
451.0 0.002217 416.00110 482.84494
441.0 0.002268 416.10492 487.21561
488.0 0.002049 416.20871 503.70840
513.0 0.001949 416.31259 524.74597
532.0 0.001880 416.41644 521.98022
488.0 0.002049 416.52029 486.74597
433.0 0.002309 416.62405 464.95447
439.0 0.002278 416.72775 460.87567
453.0 0.002208 416.83157 461.60928
481.0 0.002079 416.93536 474.75781
490.0 0.002041 417.03912 495.63232
551.0 0.001815 417.14285 524.99713
573.0 0.001745 417.24652 540.52332
517.0 0.001934 417.35022 513.28937
468.0 0.002137 417.45383 485.48553
478.0 0.002092 417.55756 483.03098
511.0 0.001957 417.66110 495.87686
559.0 0.001789 417.76465 520.22638
597.0 0.001675 417.86819 558.15430
678.0 0.001475 417.97171 609.81299
773.0 0.001294 418.07523 695.70667
877.0 0.001140 418.17862 857.08630
1173.0 0.000853 418.28204 1148.53052
1605.0 0.000623 418.38538 1586.50598
2306.0 0.000434 418.48871 2133.88306
2464.0 0.000406 418.59210 2250.47192
1686.0 0.000593 418.69534 1544.08008
1025.0 0.000976 418.79849 1008.22748
850.0 0.001176 418.90176 872.30756
960.0 0.001042 419.00485 953.49847
1164.0 0.000859 419.10788 1160.11548
1378.0 0.000726 419.21100 1401.98547
1554.0 0.000644 419.31396 1351.49255
1028.0 0.000973 419.41690 993.84790
827.0 0.001209 419.51984 819.35754
823.0 0.001215 419.62274 838.74921
1023.0 0.000978 419.72549 935.99786
966.0 0.001035 419.82819 924.39557
766.0 0.001305 419.93088 728.63031
587.0 0.001704 420.03357 597.69916
538.0 0.001859 420.13611 563.83307
587.0 0.001704 420.23859 582.32355
624.0 0.001603 420.34109 631.35010
650.0 0.001538 420.44345 685.15393
684.0 0.001462 420.54578 657.02472
578.0 0.001730 420.64801 555.92822
497.0 0.002012 420.75021 496.21896
476.0 0.002101 420.85233 474.39575
467.0 0.002141 420.95441 466.66400
457.0 0.002188 421.05643 463.74130
461.0 0.002169 421.15836 463.57736
456.0 0.002193 421.26022 465.61551
498.0 0.002008 421.36197 470.06183
513.0 0.001949 421.46368 478.00665
532.0 0.001880 421.56531 493.52075
537.0 0.001862 421.66693 519.90155
581.0 0.001721 421.76834 573.28326
720.0 0.001389 421.86978 661.84698
903.0 0.001107 421.97113 804.70148
1099.0 0.000910 422.07236 1022.53796
1345.0 0.000743 422.17352 1230.05823
1324.0 0.000755 422.27460 1223.31152
1275.0 0.000784 422.37552 1213.33875
1507.0 0.000664 422.47647 1436.70972
1731.0 0.000578 422.57727 1686.02722
1623.0 0.000616 422.67804 1580.37549
1390.0 0.000719 422.77866 1421.74158
1250.0 0.000800 422.87915 1315.50647
1036.0 0.000965 422.97964 1069.50134
909.0 0.001100 423.08005 939.65985
959.0 0.001043 423.18027 992.64728
1042.0 0.000960 423.28043 1055.11853
933.0 0.001072 423.38055 929.25702
789.0 0.001267 423.48050 796.42590
661.0 0.001513 423.58038 689.03748
562.0 0.001779 423.68021 580.02917
526.0 0.001901 423.77979 524.70941
498.0 0.002008 423.87939 506.39639
487.0 0.002053 423.97885 501.46771
510.0 0.001961 424.07819 494.79086
491.0 0.002037 424.17749 493.13748
493.0 0.002028 424.27661 510.38132
558.0 0.001792 424.37558 551.81555
624.0 0.001603 424.47455 620.58746
722.0 0.001385 424.57336 742.24243
858.0 0.001166 424.67212 893.59894
965.0 0.001036 424.77066 976.10663
825.0 0.001212 424.86914 810.91608
555.0 0.001802 424.96747 623.80859
501.0 0.001996 425.06577 559.75970
524.0 0.001908 425.16391 563.50983
541.0 0.001848 425.26187 609.64282
639.0 0.001565 425.35971 679.75311
676.0 0.001479 425.45749 709.84241
614.0 0.001629 425.55515 617.73993
514.0 0.001946 425.65265 520.07007
514.0 0.001946 425.75003 479.43951
466.0 0.002146 425.84732 463.77774
443.0 0.002257 425.94443 456.79425
424.0 0.002358 426.04150 454.77795
428.0 0.002336 426.13837 453.10532
451.0 0.002217 426.23511 452.47025
442.0 0.002262 426.33173 451.87955
452.0 0.002212 426.42822 452.63727
413.0 0.002421 426.52454 453.64374
447.0 0.002237 426.62079 455.50388
466.0 0.002146 426.71680 457.94797
453.0 0.002208 426.81274 461.06720
445.0 0.002247 426.90863 465.00909
485.0 0.002062 427.00424 469.96320
480.0 0.002083 427.09976 476.32516
485.0 0.002062 427.19513 484.56708
493.0 0.002028 427.29037 495.49323
525.0 0.001905 427.38544 510.44775
580.0 0.001724 427.48047 531.90485
617.0 0.001621 427.57526 565.68652
682.0 0.001466 427.66986 627.80280
804.0 0.001244 427.76440 750.76831
1071.0 0.000934 427.85870 964.95892
1410.0 0.000709 427.95297 1327.02124
1944.0 0.000514 428.04706 1929.38806
2730.0 0.000366 428.14087 2689.36523
3055.0 0.0003273 428.23462 3076.42041
2910.0 0.0003436 428.32825 2800.47534
2948.0 0.0003392 428.42166 2788.10864
2759.0 0.000362 428.51495 2613.91162
2095.0 0.000477 428.60812 1931.01880
1658.0 0.000603 428.70108 1645.41724
1729.0 0.000578 428.79382 1785.29651
1810.0 0.000552 428.88654 1890.32874
1656.0 0.000604 428.97897 1696.92871
1643.0 0.000609 429.07132 1627.28760
1558.0 0.000642 429.16345 1486.35852
1166.0 0.000858 429.25546 1051.29028
768.0 0.001302 429.34732 744.94122
631.0 0.001585 429.43893 617.52222
561.0 0.001783 429.53046 565.27472
509.0 0.001965 429.62180 537.80371
489.0 0.002045 429.71295 520.99030
560.0 0.001786 429.80392 513.15454
507.0 0.001972 429.89481 506.55835
483.0 0.002070 429.98532 502.83829
491.0 0.002037 430.07584 501.42938
485.0 0.002062 430.16611 502.09863
509.0 0.001965 430.25629 504.86368
532.0 0.001880 430.34619 509.98782
525.0 0.001905 430.43588 518.04242
563.0 0.001776 430.52545 531.60419
550.0 0.001818 430.61493 549.63605
580.0 0.001724 430.70410 577.57306
634.0 0.001577 430.79315 624.48010
731.0 0.001368 430.88202 717.71423
894.0 0.001119 430.97061 910.01575
1195.0 0.000837 431.05911 1250.64941
1645.0 0.000608 431.14746 1822.50854
2412.0 0.000415 431.23557 2699.69653
3384.0 0.0002955 431.32352 3665.71558
3405.0 0.0002937 431.41116 3583.50854
2251.0 0.000444 431.49875 2240.33569
1242.0 0.000805 431.58612 1379.56848
1040.0 0.000962 431.67328 1172.58606
1149.0 0.000870 431.76022 1299.80261
1406.0 0.000711 431.84702 1658.58972
1872.0 0.000534 431.93359 2113.42578
1981.0 0.000505 432.01996 2165.92310
1559.0 0.000641 432.10620 1515.12207
1066.0 0.000938 432.19217 1024.87549
872.0 0.001147 432.27798 895.92505
925.0 0.001081 432.36356 986.78119
1144.0 0.000874 432.44891 1225.50000
1530.0 0.000654 432.53418 1678.86108
2119.0 0.000472 432.61908 2240.23389
2363.0 0.000423 432.70392 2450.80591
1804.0 0.000554 432.78851 1762.43066
1110.0 0.000901 432.87286 1118.36682
824.0 0.001214 432.95703 901.39825
804.0 0.001244 433.04099 921.25867
956.0 0.001046 433.12482 1099.30444
1261.0 0.000793 433.20834 1365.67029
1477.0 0.000677 433.29166 1546.07800
1288.0 0.000776 433.37485 1290.61609
1000.0 0.001000 433.45767 959.26129
787.0 0.001271 433.54041 788.16156
626.0 0.001597 433.62299 661.89258
564.0 0.001773 433.70526 588.31860
535.0 0.001869 433.78729 562.61163
547.0 0.001828 433.86917 563.82990
600.0 0.001667 433.95078 582.95325
670.0 0.001493 434.03226 634.71301
739.0 0.001353 434.11340 713.50958
825.0 0.001212 434.19443 803.35516
993.0 0.001007 434.27521 984.09265
1354.0 0.000739 434.35571 1246.49255
1509.0 0.000663 434.43607 1435.50305
1207.0 0.000829 434.51614 1182.25159
830.0 0.001205 434.59607 818.47327
632.0 0.001582 434.67572 664.52863
624.0 0.001603 434.75516 649.84192
637.0 0.001570 434.83435 712.98999
799.0 0.001252 434.91333 828.95654
889.0 0.001125 434.99210 942.12494
831.0 0.001203 435.07062 865.86005
707.0 0.001414 435.14890 658.83673
556.0 0.001799 435.22699 542.26294
531.0 0.001883 435.30481 497.42160
440.0 0.002273 435.38245 479.16122
470.0 0.002128 435.45978 469.46796
490.0 0.002041 435.53696 463.87231
449.0 0.002227 435.61389 461.03015
490.0 0.002041 435.69052 460.86792
438.0 0.002283 435.76697 461.42157
485.0 0.002062 435.84314 465.49258
473.0 0.002114 435.91910 468.73911
476.0 0.002101 435.99496 468.21902
473.0 0.002114 436.07040 471.61783
504.0 0.001984 436.14563 483.04709
535.0 0.001869 436.22064 496.87769
534.0 0.001873 436.29541 494.99698
481.0 0.002079 436.36993 478.31195
451.0 0.002217 436.44427 467.75458
467.0 0.002141 436.51834 463.62805
439.0 0.002278 436.59210 463.15433
468.0 0.002137 436.66565 467.97595
485.0 0.002062 436.73901 474.16235
483.0 0.002070 436.81207 478.35229
452.0 0.002212 436.88492 474.24069
456.0 0.002193 436.95746 475.89676
460.0 0.002174 437.02975 488.52441
472.0 0.002119 437.10181 513.79218
510.0 0.001961 437.17374 555.44427
502.0 0.001992 437.24533 602.87402
508.0 0.001969 437.31659 610.90747
539.0 0.001855 437.38766 570.53906
567.0 0.001764 437.45850 560.26923
591.0 0.001692 437.52908 597.02167
672.0 0.001488 437.59943 654.27148
700.0 0.001429 437.66953 679.06207
635.0 0.001575 437.73923 646.41388
595.0 0.001681 437.80887 633.43567
603.0 0.001658 437.87811 637.75031
628.0 0.001592 437.94717 686.44067
747.0 0.001339 438.01590 789.30780
865.0 0.001156 438.08447 890.31421
872.0 0.001147 438.15277 843.13013
760.0 0.001316 438.22073 702.48004
664.0 0.001506 438.28854 635.77002
676.0 0.001479 438.35602 666.38739
769.0 0.001300 438.42319 782.76379
970.0 0.001031 438.49017 993.92065
1267.0 0.000789 438.55688 1321.11633
1569.0 0.000637 438.62335 1628.63049
1525.0 0.000656 438.68942 1569.13086
1114.0 0.000898 438.75537 1114.40991
768.0 0.001302 438.82108 819.14941
741.0 0.001350 438.88638 759.84009
807.0 0.001239 438.95154 844.94275
956.0 0.001046 439.01633 1051.80164
1353.0 0.000739 439.08087 1384.41125
1624.0 0.000616 439.14514 1706.47021
1635.0 0.000612 439.20920 1660.74634
1207.0 0.000829 439.27298 1248.23694
1036.0 0.000965 439.33649 987.44043
961.0 0.001041 439.39963 995.14850
1171.0 0.000854 439.46265 1119.41223
1248.0 0.000801 439.52533 1138.76697
1065.0 0.000939 439.58774 1030.30566
955.0 0.001047 439.64984 987.89447
868.0 0.001152 439.71164 883.42163
723.0 0.001383 439.77322 737.91589
674.0 0.001484 439.83456 696.49384
742.0 0.001348 439.89554 728.77832
768.0 0.001302 439.95630 748.26068
684.0 0.001462 440.01678 660.69012
588.0 0.001701 440.07693 566.61670
517.0 0.001934 440.13687 524.31372
532.0 0.001880 440.19653 512.61774
515.0 0.001942 440.25589 513.99652
545.0 0.001835 440.31491 528.44733
568.0 0.001761 440.37375 565.09454
680.0 0.001471 440.43222 634.68939
809.0 0.001236 440.49045 761.99207
1010.0 0.000990 440.54843 935.55835
1191.0 0.000840 440.60608 1088.85632
1240.0 0.000806 440.66345 1072.16138
1202.0 0.000832 440.72049 959.54688
973.0 0.001028 440.77734 766.97888
756.0 0.001323 440.83392 647.94427
694.0 0.001441 440.89014 633.37268
704.0 0.001420 440.94608 684.82300
801.0 0.001248 441.00177 763.22241
883.0 0.001133 441.05710 791.82318
854.0 0.001171 441.11215 751.54675
768.0 0.001302 441.16699 665.98938
639.0 0.001565 441.22153 572.12976
556.0 0.001799 441.27576 526.43317
505.0 0.001980 441.32968 517.51837
506.0 0.001976 441.38333 532.56451
567.0 0.001764 441.43665 571.31067
629.0 0.001590 441.48972 644.20551
724.0 0.001381 441.54251 753.43481
788.0 0.001269 441.59497 848.09930
731.0 0.001368 441.64716 789.77209
637.0 0.001570 441.69901 652.82159
576.0 0.001736 441.75064 598.97632
600.0 0.001667 441.80197 630.05457
664.0 0.001506 441.85300 729.59381
868.0 0.001152 441.90372 916.44543
1115.0 0.000897 441.95404 1170.41992
1233.0 0.000811 442.00418 1332.10242
1064.0 0.000940 442.05402 1102.57495
766.0 0.001305 442.10358 778.43640
610.0 0.001639 442.15280 629.26489
565.0 0.001770 442.20172 597.91534
567.0 0.001764 442.25034 624.74609
632.0 0.001582 442.29865 699.22980
762.0 0.001312 442.34671 791.19531
763.0 0.001311 442.39444 803.37311
653.0 0.001531 442.44180 670.93695
531.0 0.001883 442.48904 563.13373
476.0 0.002101 442.53580 519.41040
484.0 0.002066 442.58231 507.25311
500.0 0.002000 442.62860 511.26797
511.0 0.001957 442.67453 529.45215
546.0 0.001832 442.72012 565.98145
634.0 0.001577 442.76544 623.72803
707.0 0.001414 442.81042 680.50684
665.0 0.001504 442.85513 669.28583
618.0 0.001618 442.89957 621.76642
644.0 0.001553 442.94366 638.84137
724.0 0.001381 442.98743 731.78369
943.0 0.001060 443.03098 912.40802
1170.0 0.000855 443.07410 1134.71362
1213.0 0.000824 443.11707 1212.65063
986.0 0.001014 443.15958 984.00787
720.0 0.001389 443.20184 750.86725
645.0 0.001550 443.24384 651.60071
662.0 0.001511 443.28540 661.18207
760.0 0.001316 443.32678 753.97723
934.0 0.001071 443.36786 930.01013
1169.0 0.000855 443.40848 1172.63818
1370.0 0.000730 443.44894 1321.71106
1204.0 0.000831 443.48901 1233.60083
911.0 0.001098 443.52881 922.65332
668.0 0.001497 443.56830 687.52069
561.0 0.001783 443.60754 598.63391
543.0 0.001842 443.64633 589.40442
556.0 0.001799 443.68494 624.14325
661.0 0.001513 443.72318 699.71692
750.0 0.001333 443.76108 778.42529
738.0 0.001355 443.79868 750.42017
606.0 0.001650 443.83600 619.00525
520.0 0.001923 443.87292 533.77240
454.0 0.002203 443.90967 499.04584
420.0 0.002381 443.94601 485.01852
441.0 0.002268 443.98206 477.88025
462.0 0.002165 444.01779 473.71078
445.0 0.002247 444.05322 470.91833
444.0 0.002252 444.08832 469.59067
439.0 0.002278 444.12308 472.42166
446.0 0.002242 444.15756 472.84949
450.0 0.002222 444.19174 473.96054
476.0 0.002101 444.22559 475.78937
498.0 0.002008 444.25909 477.27682
500.0 0.002000 444.29230 480.86823
488.0 0.002049 444.32516 487.22931
464.0 0.002155 444.35776 494.34760
489.0 0.002045 444.39001 505.99982
511.0 0.001957 444.42197 520.67883
510.0 0.001961 444.45355 543.74060
587.0 0.001704 444.48489 587.19611
704.0 0.001420 444.51587 675.30005
857.0 0.001167 444.54651 855.55597
1087.0 0.000920 444.57687 1138.19958
1436.0 0.000696 444.60690 1614.44397
2050.0 0.000488 444.63660 2093.32349
2062.0 0.000485 444.66599 2018.14453
1300.0 0.000769 444.69501 1349.63403
885.0 0.001130 444.72375 916.15363
760.0 0.001316 444.75217 785.66046
796.0 0.001256 444.78036 817.85388
921.0 0.001086 444.80807 942.81580
1113.0 0.000898 444.83557 1187.00793
1310.0 0.000763 444.86264 1384.07813
1294.0 0.000773 444.88947 1261.30627
993.0 0.001007 444.91605 943.23645
879.0 0.001138 444.94214 795.88007
889.0 0.001125 444.96802 815.90717
1027.0 0.000974 444.99356 984.94360
1346.0 0.000743 445.01877 1303.24329
1793.0 0.000558 445.04364 1838.82007
2503.0 0.000400 445.06821 2486.99316
2621.0 0.000382 445.09244 2571.64429
1845.0 0.000542 445.11633 1834.23059
1290.0 0.000775 445.13992 1318.25537
1219.0 0.000820 445.16318 1252.61938
1476.0 0.000678 445.18610 1506.60730
1754.0 0.000570 445.20880 1804.68042
1891.0 0.000529 445.23108 1945.43579
2002.0 0.000500 445.25302 2026.99890
1971.0 0.000507 445.27466 1972.09167
1733.0 0.000577 445.29602 1763.98059
1700.0 0.000588 445.31705 1744.71338
1573.0 0.000636 445.33765 1638.73425
1300.0 0.000769 445.35806 1366.19629
1163.0 0.000860 445.37805 1189.11365
1033.0 0.000968 445.39774 1015.83978
964.0 0.001037 445.41711 930.14563
1020.0 0.000980 445.43613 1014.20709
1278.0 0.000782 445.45486 1256.22119
1617.0 0.000618 445.47324 1593.87061
1819.0 0.000550 445.49130 1731.38635
1594.0 0.000627 445.50900 1453.80115
1159.0 0.000863 445.52649 1062.24023
978.0 0.001022 445.54349 922.42999
1049.0 0.000953 445.56027 1025.64075
1340.0 0.000746 445.57675 1315.30225
1900.0 0.000526 445.59280 1833.21155
2530.0 0.000395 445.60858 2400.06396
2408.0 0.000415 445.62405 2375.14063
1702.0 0.000588 445.63916 1641.32043
1106.0 0.000904 445.65393 1066.22241
857.0 0.001167 445.66843 847.17853
831.0 0.001203 445.68256 845.77112
947.0 0.001056 445.69641 962.72717
1130.0 0.000885 445.70990 1206.80261
1401.0 0.000714 445.72302 1417.47375
1289.0 0.000776 445.73584 1290.90210
969.0 0.001032 445.74829 929.32532
656.0 0.001524 445.76050 716.44775
561.0 0.001783 445.77231 623.58417
543.0 0.001842 445.78384 574.63159
548.0 0.001825 445.79504 553.57996
493.0 0.002028 445.80585 551.89008
493.0 0.002028 445.81641 549.14197
516.0 0.001938 445.82666 528.52301
495.0 0.002020 445.83649 511.82513
488.0 0.002049 445.84607 505.67377
498.0 0.002008 445.85522 498.07819
497.0 0.002012 445.86414 488.79385
466.0 0.002146 445.87271 481.15030
467.0 0.002141 445.88092 476.91653
445.0 0.002247 445.88882 474.11078
415.0 0.002410 445.89636 473.81332
462.0 0.002165 445.90366 474.43173
466.0 0.002146 445.91052 475.68869
486.0 0.002058 445.91708 477.73764
483.0 0.002070 445.92337 482.31555
494.0 0.002024 445.92932 487.46225
474.0 0.002110 445.93484 493.46576
526.0 0.001901 445.94016 505.68863
541.0 0.001848 445.94507 525.49805
560.0 0.001786 445.94971 552.36682
624.0 0.001603 445.95395 584.92932
688.0 0.001453 445.95795 642.30988
762.0 0.001312 445.96155 773.16711
1048.0 0.000954 445.96487 992.29059
1415.0 0.000707 445.96780 1343.42004
1712.0 0.000584 445.97043 1601.90662
1544.0 0.000648 445.97272 1398.92126
1042.0 0.000960 445.97470 971.91254
761.0 0.001314 445.97635 747.53992
636.0 0.001572 445.97772 685.63214
662.0 0.001511 445.97867 719.09735
806.0 0.001241 445.97937 818.87323
1036.0 0.000965 445.97971 1000.08972
1237.0 0.000808 445.97964 1162.73291
1246.0 0.000803 445.97931 1145.19727
1216.0 0.000822 445.97873 1098.82971
1323.0 0.000756 445.97772 1272.96716
1687.0 0.000593 445.97632 1707.35120
2122.0 0.000471 445.97479 2155.32666
2026.0 0.000494 445.97278 2015.91272
1434.0 0.000697 445.97046 1355.23169
970.0 0.001031 445.96783 952.82794
851.0 0.001175 445.96487 844.50909
940.0 0.001064 445.96155 904.59296
1100.0 0.000909 445.95798 1044.29016
1235.0 0.000810 445.95404 1247.89722
1456.0 0.000687 445.94974 1484.88843
1502.0 0.000666 445.94519 1501.60278
1360.0 0.000735 445.94025 1290.84424
1238.0 0.000808 445.93497 1154.11816
1103.0 0.000907 445.92941 1042.65076
1070.0 0.000935 445.92349 1033.00964
1211.0 0.000826 445.91721 1111.83630
1166.0 0.000858 445.91068 1060.67700
941.0 0.001063 445.90378 856.79523
740.0 0.001351 445.89664 738.78699
766.0 0.001305 445.88904 738.67615
810.0 0.001235 445.88113 769.00488
785.0 0.001274 445.87302 766.25500
782.0 0.001279 445.86441 796.62244
936.0 0.001068 445.85556 901.21027
988.0 0.001012 445.84634 997.34808
1048.0 0.000954 445.83685 967.07025
830.0 0.001205 445.82703 812.13531
593.0 0.001686 445.81686 651.40424
572.0 0.001748 445.80640 574.92816
525.0 0.001905 445.79556 553.38116
534.0 0.001873 445.78442 562.00732
552.0 0.001812 445.77298 593.21527
629.0 0.001590 445.76117 648.64673
679.0 0.001473 445.74902 710.98578
756.0 0.001323 445.73663 736.76447
752.0 0.001330 445.72388 782.61176
889.0 0.001125 445.71078 929.46552
1197.0 0.000835 445.69733 1199.79846
1353.0 0.000739 445.68359 1380.37109
1216.0 0.000822 445.66949 1176.03638
832.0 0.001202 445.65512 829.20642
612.0 0.001634 445.64044 652.32800
594.0 0.001684 445.62540 600.65814
612.0 0.001634 445.60999 618.77063
658.0 0.001520 445.59430 686.97498
795.0 0.001258 445.57834 811.14374
887.0 0.001127 445.56195 919.12927
815.0 0.001227 445.54532 854.47412
666.0 0.001502 445.52832 674.53625
556.0 0.001799 445.51105 565.59924
490.0 0.002041 445.49341 516.28516
462.0 0.002165 445.47543 493.07419
447.0 0.002237 445.45718 480.95676
440.0 0.002273 445.43860 474.07330
454.0 0.002203 445.41968 469.64868
462.0 0.002165 445.40042 467.58237
443.0 0.002257 445.38089 466.45462
422.0 0.002370 445.36093 466.14233
418.0 0.002392 445.34082 464.11539
438.0 0.002283 445.32025 465.12582
444.0 0.002252 445.29941 464.12912
458.0 0.002183 445.27820 464.27567
488.0 0.002049 445.25671 465.23199
467.0 0.002141 445.23492 467.01343
467.0 0.002141 445.21283 469.69702
458.0 0.002183 445.19034 474.93967
468.0 0.002137 445.16757 484.80884
509.0 0.001965 445.14450 504.77145
544.0 0.001838 445.12109 535.27484
579.0 0.001727 445.09735 582.83435
621.0 0.001610 445.07336 636.57031
639.0 0.001565 445.04895 681.63153
695.0 0.001439 445.02426 764.01416
830.0 0.001205 444.99927 837.75873
767.0 0.001304 444.97394 773.77386
637.0 0.001570 444.94836 639.19781
602.0 0.001661 444.92236 571.49396
565.0 0.001770 444.89612 561.28680
589.0 0.001698 444.86954 576.83429
575.0 0.001739 444.84262 595.46588
627.0 0.001595 444.81543 628.78754
671.0 0.001490 444.78790 676.37897
706.0 0.001416 444.76001 673.50256
594.0 0.001684 444.73187 612.85577
539.0 0.001855 444.70337 578.98712
578.0 0.001730 444.67462 584.31067
667.0 0.001499 444.64548 624.36108
738.0 0.001355 444.61615 720.87634
922.0 0.001085 444.58630 933.67365
1307.0 0.000765 444.55630 1318.90967
1906.0 0.000525 444.52594 1923.40125
2575.0 0.000388 444.49524 2513.79199
2374.0 0.000421 444.46423 2340.45361
1459.0 0.000685 444.43295 1516.67749
997.0 0.001003 444.40143 987.47192
764.0 0.001309 444.36945 796.53412
746.0 0.001340 444.33722 786.67334
845.0 0.001183 444.30469 901.87567
1056.0 0.000947 444.27182 1132.33496
1386.0 0.000722 444.23862 1450.49646
1508.0 0.000663 444.20517 1525.17322
1188.0 0.000842 444.17136 1154.97046
806.0 0.001241 444.13730 812.67566
636.0 0.001572 444.10281 661.59766
583.0 0.001715 444.06821 621.57404
592.0 0.001689 444.03314 639.32208
652.0 0.001534 443.99777 698.63208
695.0 0.001439 443.96216 782.16248
713.0 0.001403 443.92618 796.21191
678.0 0.001475 443.88992 718.92090
664.0 0.001506 443.85336 682.00153
727.0 0.001376 443.81650 717.10089
766.0 0.001305 443.77930 742.62360
708.0 0.001412 443.74182 688.56378
668.0 0.001497 443.70398 636.16705
625.0 0.001600 443.66589 641.02032
630.0 0.001587 443.62753 655.00769
647.0 0.001546 443.58884 623.38281
589.0 0.001698 443.54980 589.13049
587.0 0.001704 443.51044 593.67120
627.0 0.001595 443.47089 614.04834
609.0 0.001642 443.43097 600.40912
532.0 0.001880 443.39075 555.54810
496.0 0.002016 443.35022 534.22449
556.0 0.001799 443.30939 533.14227
537.0 0.001862 443.26822 544.54572
569.0 0.001757 443.22681 567.19244
633.0 0.001580 443.18509 607.56274
754.0 0.001326 443.14304 687.45953
938.0 0.001066 443.10071 859.11066
1242.0 0.000805 443.05807 1207.66406
1887.0 0.000530 443.01514 1783.01343
2708.0 0.000369 442.97189 2572.90503
3001.0 0.0003332 442.92834 2882.74658
2223.0 0.000450 442.88449 2125.18359
1380.0 0.000725 442.84039 1295.67749
886.0 0.001129 442.79599 912.33978
800.0 0.001250 442.75125 808.13092
809.0 0.001236 442.70630 860.29468
1015.0 0.000985 442.66092 1049.24866
1335.0 0.000749 442.61533 1378.12085
1721.0 0.000581 442.56937 1687.37073
1619.0 0.000618 442.52316 1539.16248
1077.0 0.000929 442.47668 1052.68665
747.0 0.001339 442.42993 742.79156
575.0 0.001739 442.38287 611.11780
496.0 0.002016 442.33545 555.79944
486.0 0.002058 442.28772 526.61725
484.0 0.002066 442.23975 508.79932
504.0 0.001984 442.19153 497.01700
475.0 0.002105 442.14294 488.99100
449.0 0.002227 442.09409 483.33777
485.0 0.002062 442.04504 479.94708
452.0 0.002212 441.99557 481.23685
458.0 0.002183 441.94583 481.75745
470.0 0.002128 441.89581 487.66068
500.0 0.002000 441.84555 497.90582
528.0 0.001894 441.79495 522.33685
548.0 0.001825 441.74408 570.51184
677.0 0.001477 441.69293 646.82416
778.0 0.001285 441.64145 728.10181
803.0 0.001245 441.58972 716.05579
658.0 0.001520 441.53772 611.79956
540.0 0.001852 441.48541 533.33508
520.0 0.001923 441.43283 506.16794
515.0 0.001942 441.37994 502.22192
544.0 0.001838 441.32675 514.47186
574.0 0.001742 441.27325 542.36359
608.0 0.001645 441.21957 585.58020
654.0 0.001529 441.16550 612.95294
594.0 0.001684 441.11118 583.35205
516.0 0.001938 441.05661 534.99097
512.0 0.001953 441.00171 517.06110
520.0 0.001923 440.94666 522.30054
535.0 0.001869 440.89120 542.25079
570.0 0.001754 440.83554 570.29498
572.0 0.001748 440.77951 581.84082
573.0 0.001745 440.72318 568.24695
549.0 0.001821 440.66669 564.28595
587.0 0.001704 440.60986 583.05200
643.0 0.001555 440.55273 623.57782
756.0 0.001323 440.49530 702.52557
977.0 0.001024 440.43768 865.96332
1268.0 0.000789 440.37973 1202.16724
1839.0 0.000544 440.32153 1788.65979
2639.0 0.000379 440.26306 2626.06445
3227.0 0.0003099 440.20422 3231.66577
2877.0 0.0003476 440.14520 2936.99829
2028.0 0.000493 440.08594 2049.95752
1286.0 0.000778 440.02628 1305.50110
932.0 0.001073 439.96640 979.43542
851.0 0.001175 439.90628 924.34552
1025.0 0.000976 439.84583 1053.70618
1298.0 0.000770 439.78519 1353.14587
1739.0 0.000575 439.72421 1749.22705
1888.0 0.000530 439.66290 1907.30579
1610.0 0.000621 439.60144 1614.00098
1132.0 0.000883 439.53970 1159.23706
833.0 0.001200 439.47769 879.51233
796.0 0.001256 439.41541 812.11554
824.0 0.001214 439.35281 900.25592
1053.0 0.000950 439.28995 1105.00281
1250.0 0.000800 439.22681 1365.57751
1274.0 0.000785 439.16348 1387.37744
891.0 0.001122 439.09982 1056.23816
663.0 0.001508 439.03589 778.47327
613.0 0.001631 438.97171 660.30084
582.0 0.001718 438.90720 638.68213
685.0 0.001460 438.84262 685.56421
796.0 0.001256 438.77759 810.49921
992.0 0.001008 438.71237 1014.39465
1259.0 0.000794 438.64685 1209.72461
1145.0 0.000873 438.58112 1133.07263
826.0 0.001211 438.51511 841.23730
610.0 0.001639 438.44882 648.97906
550.0 0.001818 438.38226 568.35791
528.0 0.001894 438.31549 537.68176
515.0 0.001942 438.24844 537.11835
575.0 0.001739 438.18103 555.54047
624.0 0.001603 438.11349 594.90784
636.0 0.001572 438.04565 623.63190
612.0 0.001634 437.97757 592.55988
528.0 0.001894 437.90924 539.45282
539.0 0.001855 437.84064 513.86108
530.0 0.001887 437.77173 513.25568
536.0 0.001866 437.70264 535.61969
588.0 0.001701 437.63321 594.06671
692.0 0.001445 437.56360 703.80084
784.0 0.001276 437.49365 864.41986
858.0 0.001166 437.42358 970.72229
805.0 0.001242 437.35324 855.82947
646.0 0.001548 437.28256 666.28625
541.0 0.001848 437.21170 564.52588
517.0 0.001934 437.14056 527.76392
513.0 0.001949 437.06912 528.14783
519.0 0.001927 436.99747 556.57104
597.0 0.001675 436.92557 614.63824
677.0 0.001477 436.85345 697.92700
707.0 0.001414 436.78110 738.27686
692.0 0.001445 436.70844 679.28436
618.0 0.001618 436.63556 630.60217
667.0 0.001499 436.56238 647.16809
757.0 0.001321 436.48907 685.08826
718.0 0.001393 436.41550 657.10968
634.0 0.001577 436.34164 576.23120
532.0 0.001880 436.26749 525.95178
533.0 0.001876 436.19312 508.25851
484.0 0.002066 436.11853 508.56082
486.0 0.002058 436.04376 522.63586
521.0 0.001919 435.96866 551.82922
566.0 0.001767 435.89334 589.67816
633.0 0.001580 435.81772 631.09174
667.0 0.001499 435.74191 638.11060
706.0 0.001416 435.66592 661.39014
787.0 0.001271 435.58966 773.31665
940.0 0.001064 435.51315 1022.08087
1271.0 0.000787 435.43634 1380.90442
1746.0 0.000573 435.35944 1824.07288
1984.0 0.000504 435.28220 1908.22974
1882.0 0.000531 435.20468 1737.29565
1541.0 0.000649 435.12708 1411.16309
1032.0 0.000969 435.04910 1004.26532
809.0 0.001236 434.97095 801.12885
752.0 0.001330 434.89255 765.21899
801.0 0.001248 434.81390 846.81671
926.0 0.001080 434.73508 1003.17371
1158.0 0.000864 434.65598 1201.06091
1163.0 0.000860 434.57666 1200.48157
1167.0 0.000857 434.49707 1109.89368
1086.0 0.000921 434.41730 936.89893
850.0 0.001176 434.33728 765.07788
744.0 0.001344 434.25711 703.88971
755.0 0.001325 434.17661 708.86951
768.0 0.001302 434.09592 706.24542
695.0 0.001439 434.01498 641.25989
613.0 0.001631 433.93381 596.11853
593.0 0.001686 433.85248 566.87280
549.0 0.001821 433.77090 530.69629
510.0 0.001961 433.68915 512.32159
493.0 0.002028 433.60706 516.94513
541.0 0.001848 433.52481 535.72223
587.0 0.001704 433.44232 560.75806
578.0 0.001730 433.35959 568.48853
560.0 0.001786 433.27667 543.38477
556.0 0.001799 433.19351 528.85181
553.0 0.001808 433.11014 520.80396
547.0 0.001828 433.02652 511.68579
561.0 0.001783 432.94275 516.34668
570.0 0.001754 432.85876 543.23511
630.0 0.001587 432.77454 613.94910
759.0 0.001318 432.69006 745.63037
927.0 0.001079 432.60535 900.40076
1025.0 0.000976 432.52051 1018.34186
896.0 0.001116 432.43542 876.51208
694.0 0.001441 432.35004 683.54779
578.0 0.001730 432.26450 591.93646
567.0 0.001764 432.17880 569.77374
630.0 0.001587 432.09286 589.04688
670.0 0.001493 432.00668 660.12299
826.0 0.001211 431.92032 819.47131
1096.0 0.000912 431.83374 1087.26453
1417.0 0.000706 431.74695 1394.30164
1629.0 0.000614 431.65994 1563.89307
1401.0 0.000714 431.57278 1351.94055
1004.0 0.000996 431.48532 946.90814
721.0 0.001387 431.39771 720.82635
592.0 0.001689 431.30988 651.98505
652.0 0.001534 431.22180 672.56586
732.0 0.001366 431.13367 745.96771
817.0 0.001224 431.04514 859.05536
951.0 0.001052 430.95657 927.86475
1003.0 0.000997 430.86765 990.09143
925.0 0.001081 430.77866 914.32861
721.0 0.001387 430.68939 740.13666
643.0 0.001555 430.59991 646.34998
560.0 0.001786 430.51022 609.98187
565.0 0.001770 430.42041 583.83173
594.0 0.001684 430.33038 576.96979
596.0 0.001678 430.24017 579.21808
528.0 0.001894 430.14972 551.56171
500.0 0.002000 430.05899 525.25928
525.0 0.001905 429.96820 521.83435
541.0 0.001848 429.87720 540.65979
584.0 0.001712 429.78598 580.23517
714.0 0.001401 429.69452 657.30310
808.0 0.001238 429.60294 788.16022
1000.0 0.001000 429.51111 968.11060
1212.0 0.000825 429.41907 1129.38379
1222.0 0.000818 429.32700 1058.99280
917.0 0.001091 429.23456 836.12695
686.0 0.001458 429.14197 659.07928
576.0 0.001736 429.04919 582.09619
533.0 0.001876 428.95627 564.97778
569.0 0.001757 428.86313 588.31030
644.0 0.001553 428.76987 659.70764
778.0 0.001285 428.67627 772.01367
929.0 0.001076 428.58261 911.33850
1023.0 0.000978 428.48868 1003.94666
1053.0 0.000950 428.39462 1076.88428
1138.0 0.000879 428.30045 1174.94556
1147.0 0.000872 428.20593 1159.83472
900.0 0.001111 428.11136 885.40729
668.0 0.001497 428.01654 673.88116
564.0 0.001773 427.92160 580.88617
522.0 0.001916 427.82642 551.91711
534.0 0.001873 427.73111 558.50330
559.0 0.001789 427.63559 603.76715
606.0 0.001650 427.53986 690.27948
704.0 0.001420 427.44403 790.93121
772.0 0.001295 427.34790 839.32758
715.0 0.001399 427.25168 747.79474
681.0 0.001468 427.15533 698.37793
777.0 0.001287 427.05878 771.58740
910.0 0.001099 426.96201 946.65527
1129.0 0.000886 426.86508 1142.44897
1124.0 0.000890 426.76794 1200.35327
903.0 0.001107 426.67072 965.24664
722.0 0.001385 426.57327 777.68396
661.0 0.001513 426.47568 686.48792
587.0 0.001704 426.37790 612.37354
560.0 0.001786 426.27994 580.25165
552.0 0.001812 426.18179 605.67950
648.0 0.001543 426.08350 684.14923
712.0 0.001404 425.98508 777.96228
803.0 0.001245 425.88644 829.43787
730.0 0.001370 425.78766 724.78650
569.0 0.001757 425.68872 618.39490
540.0 0.001852 425.58957 564.95233
502.0 0.001992 425.49036 521.85229
495.0 0.002020 425.39093 491.88010
423.0 0.002364 425.29129 478.80881
520.0 0.001923 425.19147 478.90897
499.0 0.002004 425.09158 485.66483
488.0 0.002049 424.99152 493.26489
510.0 0.001961 424.89130 508.11807
586.0 0.001706 424.79083 531.44360
601.0 0.001664 424.69025 545.69421
548.0 0.001825 424.58954 513.84668
464.0 0.002155 424.48865 478.30185
446.0 0.002242 424.38760 461.12643
446.0 0.002242 424.28647 457.38254
451.0 0.002217 424.18506 459.44806
472.0 0.002119 424.08356 463.17822
455.0 0.002198 423.98196 470.12152
513.0 0.001949 423.88013 481.52036
487.0 0.002053 423.77820 491.08249
479.0 0.002088 423.67603 481.61246
464.0 0.002155 423.57379 463.55310
436.0 0.002294 423.47144 454.26797
440.0 0.002273 423.36884 452.92227
425.0 0.002353 423.26614 456.31421
443.0 0.002257 423.16321 464.08905
452.0 0.002212 423.06027 477.84598
466.0 0.002146 422.95718 500.97391
516.0 0.001938 422.85394 540.68744
597.0 0.001675 422.75043 615.10742
718.0 0.001393 422.64682 742.81171
866.0 0.001155 422.54312 893.25098
983.0 0.001017 422.43930 1001.56219
925.0 0.001081 422.33527 972.46765
740.0 0.001351 422.23111 758.50116
604.0 0.001656 422.12677 606.73059
559.0 0.001789 422.02243 546.27924
552.0 0.001812 421.91782 537.58057
569.0 0.001757 421.81314 564.23126
604.0 0.001656 421.70825 624.11816
692.0 0.001445 421.60327 710.97266
752.0 0.001330 421.49820 769.80554
731.0 0.001368 421.39297 782.72675
675.0 0.001481 421.28760 681.10089
604.0 0.001656 421.18201 577.46515
543.0 0.001842 421.07632 533.64264
529.0 0.001890 420.97061 540.75043
573.0 0.001745 420.86469 595.23352
698.0 0.001433 420.75867 695.18384
805.0 0.001242 420.65247 803.02039
829.0 0.001206 420.54614 817.46588
676.0 0.001479 420.43973 680.71375
549.0 0.001821 420.33313 570.62854
490.0 0.002041 420.22647 515.27167
506.0 0.001976 420.11960 494.00482
502.0 0.001992 420.01270 492.50290
535.0 0.001869 419.90567 510.66330
511.0 0.001957 419.79846 551.65314
566.0 0.001767 419.69113 604.18048
618.0 0.001618 419.58371 639.26471
596.0 0.001678 419.47614 594.51648
541.0 0.001848 419.36847 536.42322
505.0 0.001980 419.26062 511.13538
533.0 0.001876 419.15268 512.11530
580.0 0.001724 419.04465 536.15137
578.0 0.001730 418.93646 594.29413
726.0 0.001377 418.82825 706.03888
886.0 0.001129 418.71985 870.14459
1090.0 0.000917 418.61127 1036.84387
1085.0 0.000922 418.50266 1115.62390
1131.0 0.000884 418.39386 1101.34729
1011.0 0.000989 418.28510 1067.03357
913.0 0.001095 418.17615 883.58380
747.0 0.001339 418.06705 732.18219
686.0 0.001458 417.95782 699.99573
868.0 0.001152 417.84845 780.67267
1090.0 0.000917 417.73904 980.11340
1434.0 0.000697 417.62955 1269.72168
1758.0 0.000569 417.51990 1555.09680
1791.0 0.000558 417.41013 1636.39453
1677.0 0.000596 417.30023 1509.87561
1446.0 0.000692 417.19034 1338.60071
1116.0 0.000896 417.08023 1018.79095
818.0 0.001222 416.97006 775.92395
652.0 0.001534 416.85974 675.13214
682.0 0.001466 416.74933 672.19757
783.0 0.001277 416.63892 736.37830
923.0 0.001083 416.52832 832.48578
953.0 0.001049 416.41760 918.44952
962.0 0.001040 416.30682 888.01147
896.0 0.001116 416.19586 841.10382
770.0 0.001299 416.08487 780.20166
682.0 0.001466 415.97379 714.85583
668.0 0.001497 415.86258 736.61414
737.0 0.001357 415.75128 818.70123
736.0 0.001359 415.63986 882.12714
660.0 0.001515 415.52844 798.79175
631.0 0.001585 415.41690 684.15216
578.0 0.001730 415.30518 601.97241
545.0 0.001835 415.19336 574.70123
576.0 0.001736 415.08151 603.63525
653.0 0.001531 414.96954 690.51257
814.0 0.001229 414.85751 818.57166
859.0 0.001164 414.74536 930.09930
855.0 0.001170 414.63312 912.12372
786.0 0.001272 414.52075 825.38153
718.0 0.001393 414.40842 705.91193
620.0 0.001613 414.29596 624.41321
590.0 0.001695 414.18329 596.52692
637.0 0.001570 414.07062 627.77789
664.0 0.001506 413.95776 737.60101
849.0 0.001178 413.84503 923.30713
1023.0 0.000978 413.73212 1119.81946
1138.0 0.000879 413.61908 1150.65918
1004.0 0.000996 413.50595 1001.55139
984.0 0.001016 413.39270 959.01257
1071.0 0.000934 413.27948 1101.05957
1324.0 0.000755 413.16620 1377.66040
1609.0 0.000622 413.05273 1587.62744
1416.0 0.000706 412.93921 1409.22266
1003.0 0.000997 412.82556 1065.86279
767.0 0.001304 412.71201 894.05493
800.0 0.001250 412.59821 846.37933
737.0 0.001357 412.48444 772.39691
661.0 0.001513 412.37054 707.88086
654.0 0.001529 412.25650 724.34503
815.0 0.001227 412.14249 829.72656
945.0 0.001058 412.02838 968.19989
1027.0 0.000974 411.91418 1003.77155
867.0 0.001153 411.79996 839.52539
703.0 0.001422 411.68558 685.58563
622.0 0.001608 411.57114 644.45770
676.0 0.001479 411.45667 691.20428
733.0 0.001364 411.34210 763.15790
764.0 0.001309 411.22757 764.86493
637.0 0.001570 411.11285 645.24316
535.0 0.001869 410.99805 548.15051
490.0 0.002041 410.88324 502.43176
463.0 0.002160 410.76840 486.37256
467.0 0.002141 410.65335 485.84106
517.0 0.001934 410.53833 500.37817
541.0 0.001848 410.42325 537.71729
580.0 0.001724 410.30817 599.64252
686.0 0.001458 410.19290 676.62030
808.0 0.001238 410.07764 739.28918
872.0 0.001147 409.96225 805.69379
919.0 0.001088 409.84692 880.53778
848.0 0.001179 409.73145 823.45587
676.0 0.001479 409.61600 652.45166
551.0 0.001815 409.50043 541.52020
499.0 0.002004 409.38477 492.65591
469.0 0.002132 409.26904 475.58984
461.0 0.002169 409.15341 475.59210
476.0 0.002101 409.03760 493.92447
543.0 0.001842 408.92166 539.64716
620.0 0.001613 408.80576 601.48132
644.0 0.001553 408.68979 642.78302
595.0 0.001681 408.57382 592.29083
526.0 0.001901 408.45770 514.95813
490.0 0.002041 408.34158 474.52908
463.0 0.002160 408.22543 459.29602
460.0 0.002174 408.10916 457.88309
467.0 0.002141 407.99289 467.62930
468.0 0.002137 407.87668 496.62393
570.0 0.001754 407.76028 561.18024
671.0 0.001490 407.64380 660.58722
766.0 0.001305 407.52744 749.99677
717.0 0.001395 407.41092 720.06995
568.0 0.001761 407.29437 593.03406
502.0 0.001992 407.17773 508.08575
440.0 0.002273 407.06113 470.48505
469.0 0.002132 406.94443 457.65771
491.0 0.002037 406.82776 457.81393
479.0 0.002088 406.71097 471.97937
509.0 0.001965 406.59415 506.86530
515.0 0.001942 406.47726 556.28503
597.0 0.001675 406.36044 592.35388
546.0 0.001832 406.24350 557.22009
499.0 0.002004 406.12650 495.71234
448.0 0.002232 406.00949 459.76108
433.0 0.002309 405.89246 444.85938
446.0 0.002242 405.77542 439.73709
425.0 0.002353 405.65836 438.84918
453.0 0.002208 405.54117 440.62045
445.0 0.002247 405.42395 444.97482
435.0 0.002299 405.30673 453.10675
475.0 0.002105 405.18961 465.85413
501.0 0.001996 405.07230 490.58463
552.0 0.001812 404.95502 543.01202
656.0 0.001524 404.83765 655.95837
874.0 0.001144 404.72021 852.53778
990.0 0.001010 404.60284 1066.70325
1013.0 0.000987 404.48550 1123.41296
837.0 0.001195 404.36804 902.72717
718.0 0.001393 404.25052 726.59186
687.0 0.001456 404.13300 688.83496
716.0 0.001397 404.01544 721.42090
727.0 0.001376 403.89798 731.23706
634.0 0.001577 403.78033 664.61273
641.0 0.001560 403.66275 643.10730
661.0 0.001513 403.54510 701.78204
714.0 0.001401 403.42746 784.10028
718.0 0.001393 403.30978 776.85773
635.0 0.001575 403.19211 653.47852
574.0 0.001742 403.07437 570.97491
549.0 0.001821 402.95660 555.12152
522.0 0.001916 402.83893 567.49713
559.0 0.001789 402.72119 557.90472
500.0 0.002000 402.60333 508.00656
436.0 0.002294 402.48553 469.83395
429.0 0.002331 402.36777 451.70578
444.0 0.002252 402.24985 445.29364
447.0 0.002237 402.13205 445.33383
458.0 0.002183 402.01416 453.80081
495.0 0.002020 401.89627 473.24527
491.0 0.002037 401.77844 515.62799
556.0 0.001799 401.66052 578.71436
648.0 0.001543 401.54260 631.36774
615.0 0.001626 401.42465 605.25153
541.0 0.001848 401.30673 531.28308
523.0 0.001912 401.18878 485.86722
486.0 0.002058 401.07089 469.94363
481.0 0.002079 400.95294 469.62402
492.0 0.002033 400.83490 484.55536
530.0 0.001887 400.71692 514.60144
566.0 0.001767 400.59891 571.16064
659.0 0.001517 400.48099 669.62866
801.0 0.001248 400.36295 835.48694
980.0 0.001020 400.24500 1035.88977
1209.0 0.000827 400.12695 1182.06567
1030.0 0.000971 400.00894 1072.15576
752.0 0.001330 399.89093 796.55804
556.0 0.001799 399.77295 622.20111
528.0 0.001894 399.65494 548.90167
519.0 0.001927 399.53693 529.66901
596.0 0.001678 399.41888 537.56433
557.0 0.001795 399.30090 566.45349
568.0 0.001761 399.18286 629.20294
740.0 0.001351 399.06491 731.63086
789.0 0.001267 398.94696 821.65015
800.0 0.001250 398.82889 781.47455
672.0 0.001488 398.71094 666.66785
616.0 0.001623 398.59286 618.17859
735.0 0.001361 398.47488 660.30402
834.0 0.001199 398.35693 815.88300
1064.0 0.000940 398.23895 1079.89734
1266.0 0.000790 398.12103 1324.75427
1237.0 0.000808 398.00308 1269.48535
905.0 0.001105 397.88516 954.81250
755.0 0.001325 397.76721 745.90710
633.0 0.001580 397.64923 662.49811
610.0 0.001639 397.53131 618.75476
559.0 0.001789 397.41348 584.60736
603.0 0.001658 397.29556 597.81873
661.0 0.001513 397.17767 671.06708
760.0 0.001316 397.05978 811.41119
886.0 0.001129 396.94196 957.63855
882.0 0.001134 396.82407 964.18787
799.0 0.001252 396.70630 819.96918
715.0 0.001399 396.58844 713.97174
717.0 0.001395 396.47067 700.10699
800.0 0.001250 396.35294 776.50830
943.0 0.001060 396.23511 978.61066
1219.0 0.000820 396.11740 1322.49805
1510.0 0.000662 395.99969 1634.66614
1489.0 0.000672 395.88196 1548.36267
1142.0 0.000876 395.76431 1170.31396
927.0 0.001079 395.64664 947.28375
863.0 0.001159 395.52902 862.72357
812.0 0.001232 395.41138 777.16681
721.0 0.001387 395.29373 699.42987
733.0 0.001364 395.17624 702.96948
832.0 0.001202 395.05878 812.27875
962.0 0.001040 394.94125 1011.95227
1116.0 0.000896 394.82370 1189.81482
1083.0 0.000923 394.70621 1140.58826
913.0 0.001095 394.58875 923.24176
816.0 0.001225 394.47137 806.77234
836.0 0.001196 394.35394 807.79736
885.0 0.001130 394.23660 866.72943
982.0 0.001018 394.11920 958.93481
1082.0 0.000924 394.00198 1086.12048
1306.0 0.000766 393.88464 1276.61816
1762.0 0.000568 393.76743 1728.53821
2483.0 0.000403 393.65024 2423.10913
3100.0 0.0003226 393.53299 2932.75537
2756.0 0.000363 393.41589 2595.79614
1765.0 0.000567 393.29874 1707.13599
1145.0 0.000873 393.18167 1129.84058
840.0 0.001190 393.06454 895.26208
808.0 0.001238 392.94760 843.01532
805.0 0.001242 392.83069 866.68011
888.0 0.001126 392.71375 931.73944
1179.0 0.000848 392.59680 1114.25598
1362.0 0.000734 392.47989 1420.74805
1712.0 0.000584 392.36313 1679.06396
1628.0 0.000614 392.24634 1585.64587
1234.0 0.000810 392.12958 1133.96375
836.0 0.001196 392.01285 792.90320
657.0 0.001522 391.89621 624.12280
543.0 0.001842 391.77957 550.25140
519.0 0.001927 391.66293 516.81622
512.0 0.001953 391.54642 502.28522
525.0 0.001905 391.42987 495.14447
527.0 0.001898 391.31345 482.97073
488.0 0.002049 391.19702 465.31168
474.0 0.002110 391.08066 454.37582
485.0 0.002062 390.96432 449.65137
494.0 0.002024 390.84802 444.63440
477.0 0.002096 390.73178 442.43250
463.0 0.002160 390.61563 443.79553
483.0 0.002070 390.49945 448.91626
480.0 0.002083 390.38342 462.82080
509.0 0.001965 390.26736 495.16611
590.0 0.001695 390.15134 562.75800
679.0 0.001473 390.03537 666.81622
790.0 0.001266 389.91946 747.24866
736.0 0.001359 389.80362 707.71857
586.0 0.001706 389.68787 590.31445
519.0 0.001927 389.57211 514.18079
510.0 0.001961 389.45639 485.51501
509.0 0.001965 389.34073 486.52051
568.0 0.001761 389.22516 512.25232
602.0 0.001661 389.10959 564.76715
700.0 0.001429 388.99414 643.90051
825.0 0.001212 388.87872 729.22601
874.0 0.001144 388.76331 792.04425
847.0 0.001181 388.64807 777.69647
789.0 0.001267 388.53278 740.25372
788.0 0.001269 388.41757 774.10223
841.0 0.001189 388.30237 828.32727
816.0 0.001225 388.18735 784.24219
694.0 0.001441 388.07239 698.37103
678.0 0.001475 387.95737 659.31921
681.0 0.001468 387.84247 646.50366
735.0 0.001361 387.72760 661.35901
818.0 0.001222 387.61285 721.65253
926.0 0.001080 387.49817 859.42322
1158.0 0.000864 387.38354 1137.70935
1440.0 0.000694 387.26886 1499.26404
1611.0 0.000621 387.15433 1648.71729
1256.0 0.000796 387.03989 1317.66260
844.0 0.001185 386.92551 925.57697
701.0 0.001427 386.81113 704.86951
629.0 0.001590 386.69687 600.52106
569.0 0.001757 386.58264 551.82587
554.0 0.001805 386.46851 543.33527
549.0 0.001821 386.35449 580.43243
670.0 0.001493 386.24048 685.89532
774.0 0.001292 386.12653 846.16815
971.0 0.001030 386.01260 957.49835
878.0 0.001139 385.89883 853.28204
693.0 0.001443 385.78506 658.95782
502.0 0.001992 385.67148 535.77405
497.0 0.002012 385.55792 479.11490
448.0 0.002232 385.44434 456.12714
524.0 0.001908 385.33087 446.13144
437.0 0.002288 385.21756 438.26685
450.0 0.002222 385.10428 426.97174
444.0 0.002252 384.99100 418.72781
421.0 0.002375 384.87784 416.16144
421.0 0.002375 384.76477 416.23276
427.0 0.002342 384.65176 421.31537
444.0 0.002252 384.53885 429.89844
474.0 0.002110 384.42596 438.00647
456.0 0.002193 384.31323 434.34424
462.0 0.002165 384.20059 422.27722
438.0 0.002283 384.08792 414.02890
430.0 0.002326 383.97537 409.34186
451.0 0.002217 383.86288 405.44748
447.0 0.002237 383.75058 403.27390
438.0 0.002283 383.63821 407.58557
440.0 0.002273 383.52600 416.43365
452.0 0.002212 383.41385 425.31253
447.0 0.002237 383.30176 426.34842
455.0 0.002198 383.18979 420.48462
462.0 0.002165 383.07794 410.36932
418.0 0.002392 382.96613 402.83521
389.0 0.002571 382.85437 400.55893
416.0 0.002404 382.74268 399.84271
442.0 0.002262 382.63113 400.78772
428.0 0.002336 382.51968 402.19870
413.0 0.002421 382.40829 406.80127
426.0 0.002347 382.29691 412.09619
440.0 0.002273 382.18570 414.98691
443.0 0.002257 382.07458 415.78317
462.0 0.002165 381.96356 418.59088
460.0 0.002174 381.85257 425.81656
462.0 0.002165 381.74170 440.04507
496.0 0.002016 381.63089 468.05145
559.0 0.001789 381.52017 527.07025
647.0 0.001546 381.40958 640.29639
771.0 0.001297 381.29907 789.92395
871.0 0.001148 381.18860 873.63025
777.0 0.001287 381.07834 770.80450
634.0 0.001577 380.96799 629.93262
552.0 0.001812 380.85782 563.35486
596.0 0.001678 380.74780 571.22229
657.0 0.001522 380.63785 657.25580
810.0 0.001235 380.52789 839.41510
1089.0 0.000918 380.41812 1065.90564
1184.0 0.000845 380.30850 1161.01282
987.0 0.001013 380.19888 1017.09277
821.0 0.001218 380.08932 871.73956
738.0 0.001355 379.97995 757.04315
602.0 0.001661 379.87064 634.68188
586.0 0.001706 379.76141 561.59668
556.0 0.001799 379.65228 545.09717
612.0 0.001634 379.54327 588.22528
630.0 0.001587 379.43433 714.52557
816.0 0.001225 379.32550 916.58014
1029.0 0.000972 379.21677 986.53894
883.0 0.001133 379.10815 804.22418
739.0 0.001353 378.99960 632.98889
621.0 0.001610 378.89114 556.27808
612.0 0.001634 378.78281 557.57318
642.0 0.001558 378.67462 614.30084
722.0 0.001385 378.56650 682.23798
705.0 0.001418 378.45844 663.64581
687.0 0.001456 378.35049 628.46313
666.0 0.001502 378.24265 659.73651
675.0 0.001481 378.13501 703.93103
742.0 0.001348 378.02734 648.39478
664.0 0.001506 377.91986 559.17120
552.0 0.001812 377.81244 514.02338
501.0 0.001996 377.70508 505.76312
520.0 0.001923 377.59790 532.65955
598.0 0.001672 377.49084 585.50842
645.0 0.001550 377.38385 636.80499
697.0 0.001435 377.27698 676.90271
793.0 0.001261 377.17014 796.04602
941.0 0.001063 377.06348 1035.26318
1185.0 0.000844 376.95694 1294.07202
1341.0 0.000746 376.85046 1258.52893
1174.0 0.000852 376.74411 1009.62225
1013.0 0.000987 376.63782 897.64258
973.0 0.001028 376.53171 934.43927
1026.0 0.000975 376.42566 899.76031
920.0 0.001087 376.31979 750.97400
715.0 0.001399 376.21402 653.11066
644.0 0.001553 376.10831 639.88055
719.0 0.001391 376.00275 703.33313
817.0 0.001224 375.89725 834.90179
948.0 0.001055 375.79190 964.76013
1015.0 0.000985 375.68665 961.21906
1047.0 0.000955 375.58154 993.03815
1184.0 0.000845 375.47647 1252.56689
1407.0 0.000711 375.37158 1677.86267
1590.0 0.000629 375.26682 1733.89661
1385.0 0.000722 375.16205 1303.16016
1025.0 0.000976 375.05756 946.43799
831.0 0.001203 374.95309 786.72260
824.0 0.001214 374.84875 765.40839
868.0 0.001152 374.74460 860.40295
1065.0 0.000939 374.64041 1136.19104
1493.0 0.000670 374.53650 1700.98621
2252.0 0.000444 374.43259 2436.40283
2744.0 0.000364 374.32883 2687.32446
2577.0 0.000388 374.22516 2471.25757
2176.0 0.000460 374.12161 1894.51111
1512.0 0.000661 374.01831 1270.32068
981.0 0.001019 373.91501 905.24353
792.0 0.001263 373.81189 742.26904
671.0 0.001490 373.70877 689.44110
742.0 0.001348 373.60587 720.15979
879.0 0.001138 373.50305 861.97961
1049.0 0.000953 373.40042 1151.48401
1339.0 0.000747 373.29791 1452.20007
1539.0 0.000650 373.19540 1441.39185
1468.0 0.000681 373.09308 1231.74854
1239.0 0.000807 372.99084 954.54077
945.0 0.001058 372.88876 785.66748
785.0 0.001274 372.78693 738.64948
781.0 0.001280 372.68500 683.96423
632.0 0.001582 372.58337 585.80457
538.0 0.001859 372.48172 512.70825
535.0 0.001869 372.38022 475.80560
498.0 0.002008 372.27893 460.73535
506.0 0.001976 372.17776 458.82797
499.0 0.002004 372.07672 468.87000
512.0 0.001953 371.97568 470.11591
531.0 0.001883 371.87488 465.48474
529.0 0.001890 371.77417 478.70047
536.0 0.001866 371.67358 501.86722
556.0 0.001799 371.57312 488.63199
491.0 0.002037 371.47278 450.51843
468.0 0.002137 371.37265 423.49045
438.0 0.002283 371.27252 406.34717
439.0 0.002278 371.17264 400.12732
431.0 0.002320 371.07275 394.21536
450.0 0.002222 370.97311 392.53641
440.0 0.002273 370.87354 391.71387
404.0 0.002475 370.77414 391.52411
408.0 0.002451 370.67484 391.87933
427.0 0.002342 370.57562 392.76819
431.0 0.002320 370.47659 394.23993
438.0 0.002283 370.37778 396.40729
448.0 0.002232 370.27893 397.79736
438.0 0.002283 370.18030 402.14871
426.0 0.002347 370.08176 408.32071
439.0 0.002278 369.98340 416.30524
454.0 0.002203 369.88513 429.76004
489.0 0.002045 369.78705 452.33002
523.0 0.001912 369.68906 495.37115
587.0 0.001704 369.59125 583.29626
714.0 0.001401 369.49341 740.42474
867.0 0.001153 369.39590 927.82477
1063.0 0.000941 369.29849 1059.14478
1184.0 0.000845 369.20111 1179.56335
1237.0 0.000808 369.10391 1110.36011
1050.0 0.000952 369.00687 914.08777
830.0 0.001205 368.90997 723.31226
637.0 0.001570 368.81320 589.44580
539.0 0.001855 368.71655 526.58234
517.0 0.001934 368.62009 514.32001
547.0 0.001828 368.52365 546.92444
604.0 0.001656 368.42749 631.27051
689.0 0.001451 368.33139 746.99670
775.0 0.001290 368.23544 845.96924
902.0 0.001109 368.13962 898.40973
934.0 0.001071 368.04395 813.32355
815.0 0.001227 367.94836 678.99799
667.0 0.001499 367.85297 564.56683
520.0 0.001923 367.75769 488.12741
493.0 0.002028 367.66254 448.42120
464.0 0.002155 367.56757 430.12494
436.0 0.002294 367.47275 424.25604
476.0 0.002101 367.37802 429.97696
501.0 0.001996 367.28339 451.86865
485.0 0.002062 367.18896 489.07629
548.0 0.001825 367.09470 512.13129
542.0 0.001845 367.00055 491.77579
506.0 0.001976 366.90659 448.41919
446.0 0.002242 366.81271 417.77762
449.0 0.002227 366.71890 402.49167
421.0 0.002375 366.62534 395.83545
406.0 0.002463 366.53192 393.10141
438.0 0.002283 366.43863 391.36987
424.0 0.002358 366.34549 392.25681
430.0 0.002326 366.25244 395.36633
431.0 0.002320 366.15955 405.28601
421.0 0.002375 366.06683 419.36539
467.0 0.002141 365.97430 422.19821
459.0 0.002179 365.88184 412.14557
464.0 0.002155 365.78949 405.26013
451.0 0.002217 365.69727 405.33389
439.0 0.002278 365.60535 411.46396
469.0 0.002132 365.51352 424.11331
462.0 0.002165 365.42175 448.03668
492.0 0.002033 365.33017 500.51410
569.0 0.001757 365.23868 615.21808
755.0 0.001325 365.14746 820.43188
941.0 0.001063 365.05630 1015.23499
907.0 0.001103 364.96530 925.33472
740.0 0.001351 364.87442 698.08344
573.0 0.001745 364.78372 545.88483
469.0 0.002132 364.69315 473.56992
430.0 0.002326 364.60278 444.04245
411.0 0.002433 364.51245 433.97241
438.0 0.002283 364.42245 436.59012
468.0 0.002137 364.33240 457.90674
522.0 0.001916 364.24261 512.09961
563.0 0.001776 364.15289 618.75690
651.0 0.001536 364.06339 742.27441
721.0 0.001387 363.97397 737.68097
684.0 0.001462 363.88474 619.69464
566.0 0.001767 363.79565 509.30493
513.0 0.001949 363.70673 446.36505
461.0 0.002169 363.61795 416.45633
446.0 0.002242 363.52930 402.10025
438.0 0.002283 363.44086 394.45526
414.0 0.002415 363.35248 390.36438
418.0 0.002392 363.26431 389.80273
413.0 0.002421 363.17630 392.86276
410.0 0.002439 363.08841 401.92352
434.0 0.002304 363.00067 414.67691
459.0 0.002179 362.91306 415.29303
444.0 0.002252 362.82565 401.61658
407.0 0.002457 362.73840 389.99695
421.0 0.002375 362.65125 384.10260
402.0 0.002488 362.56424 381.90683
406.0 0.002463 362.47742 381.58359
389.0 0.002571 362.39081 382.37933
429.0 0.002331 362.30423 382.63806
411.0 0.002433 362.21783 385.87631
385.0 0.002597 362.13162 391.22253
425.0 0.002353 362.04553 400.44312
424.0 0.002358 361.95972 415.85999
455.0 0.002198 361.87384 437.69437
465.0 0.002151 361.78827 461.23926
507.0 0.001972 361.70282 505.00034
588.0 0.001701 361.61746 609.62268
770.0 0.001299 361.53232 793.89984
889.0 0.001125 361.44733 942.98438
814.0 0.001229 361.36249 834.42114
662.0 0.001511 361.27771 638.64844
547.0 0.001828 361.19321 514.11456
483.0 0.002070 361.10886 457.09482
417.0 0.002398 361.02466 435.77133
389.0 0.002571 360.94052 431.39008
434.0 0.002304 360.85660 433.90369
466.0 0.002146 360.77283 445.72559
464.0 0.002155 360.68921 484.91379
553.0 0.001808 360.60583 565.66937
628.0 0.001592 360.52249 655.32294
652.0 0.001534 360.43933 635.05206
577.0 0.001733 360.35632 538.02002
484.0 0.002066 360.27356 462.45746
421.0 0.002375 360.19083 420.96457
410.0 0.002439 360.10828 401.48480
412.0 0.002427 360.02591 391.87329
419.0 0.002387 359.94376 386.88669
393.0 0.002545 359.86166 384.28189
380.0 0.002632 359.77982 383.47815
409.0 0.002445 359.69800 384.52783
412.0 0.002427 359.61639 388.30295
428.0 0.002336 359.53494 397.17972
449.0 0.002227 359.45367 415.80600
473.0 0.002114 359.37265 448.96747
548.0 0.001825 359.29163 496.39523
567.0 0.001764 359.21078 521.56873
530.0 0.001887 359.13016 482.72174
511.0 0.001957 359.04968 435.44980
474.0 0.002110 358.96939 407.53622
421.0 0.002375 358.88916 398.00845
412.0 0.002427 358.80911 399.16138
424.0 0.002358 358.72931 406.34061
460.0 0.002174 358.64966 412.09518
504.0 0.001984 358.57007 417.85144
504.0 0.001984 358.49063 438.72620
513.0 0.001949 358.41144 482.12488
543.0 0.001842 358.33240 527.88892
516.0 0.001938 358.25345 514.54327
492.0 0.002033 358.17465 465.89044
458.0 0.002183 358.09607 433.31396
446.0 0.002242 358.01767 424.46445
486.0 0.002058 357.93936 434.48843
480.0 0.002083 357.86130 468.59811
540.0 0.001852 357.78329 543.54449
575.0 0.001739 357.70554 667.89056
741.0 0.001350 357.62787 783.39447
760.0 0.001316 357.55042 735.80743
613.0 0.001631 357.47305 613.58142
484.0 0.002066 357.39587 526.16791
476.0 0.002101 357.31885 472.38623
493.0 0.002028 357.24203 448.62582
459.0 0.002179 357.16534 449.61151
489.0 0.002045 357.08881 470.68887
531.0 0.001883 357.01245 497.56577
529.0 0.001890 356.93619 516.22314
534.0 0.001873 356.86023 560.16107
551.0 0.001815 356.78430 637.44238
612.0 0.001634 356.70865 662.19092
658.0 0.001520 356.63303 602.92596
574.0 0.001742 356.55762 525.44104
499.0 0.002004 356.48233 467.34399
459.0 0.002179 356.40726 438.80368
445.0 0.002247 356.33237 432.07190
472.0 0.002119 356.25763 438.90286
447.0 0.002237 356.18295 454.39664
443.0 0.002257 356.10852 466.78549
468.0 0.002137 356.03421 484.31442
519.0 0.001927 355.96011 533.88733
617.0 0.001621 355.88617 632.36639
720.0 0.001389 355.81229 764.28943
882.0 0.001134 355.73871 856.90265
908.0 0.001101 355.66519 881.53320
781.0 0.001280 355.59192 775.09991
662.0 0.001511 355.51871 622.44263
556.0 0.001799 355.44577 525.07672
491.0 0.002037 355.37277 480.02313
473.0 0.002114 355.30020 465.35547
461.0 0.002169 355.22766 468.21106
455.0 0.002198 355.15533 487.97281
511.0 0.001957 355.08316 531.20923
596.0 0.001678 355.01108 606.18188
677.0 0.001477 354.93921 702.54974
796.0 0.001256 354.86752 817.09296
932.0 0.001073 354.79593 972.07147
1086.0 0.000921 354.72458 1183.20142
1264.0 0.000791 354.65326 1388.97998
1311.0 0.000763 354.58228 1298.01563
1186.0 0.000843 354.51138 1102.26843
1068.0 0.000936 354.44061 1055.90869
1108.0 0.000903 354.37003 1148.39258
1101.0 0.000908 354.29953 1109.71960
879.0 0.001138 354.22937 879.43768
673.0 0.001486 354.15921 694.04584
625.0 0.001600 354.08929 610.59967
601.0 0.001664 354.01953 613.76392
674.0 0.001484 353.94983 696.34979
780.0 0.001282 353.88043 837.68958
868.0 0.001152 353.81113 904.71979
857.0 0.001167 353.74203 825.30670
809.0 0.001236 353.67303 766.92981
800.0 0.001250 353.60419 803.07324
856.0 0.001168 353.53555 884.97327
886.0 0.001129 353.46704 900.82086
890.0 0.001124 353.39877 937.53271
1057.0 0.000946 353.33054 1056.61414
1143.0 0.000875 353.26251 1081.87000
973.0 0.001028 353.19476 888.42480
700.0 0.001429 353.12704 707.68903
634.0 0.001577 353.05954 636.35840
606.0 0.001650 352.99213 657.45697
682.0 0.001466 352.92490 697.99829
666.0 0.001502 352.85788 659.38159
604.0 0.001656 352.79102 600.54242
538.0 0.001859 352.72430 587.85352
581.0 0.001721 352.65775 609.84680
666.0 0.001502 352.59137 662.58954
755.0 0.001325 352.52515 728.14093
711.0 0.001406 352.45905 695.92786
647.0 0.001546 352.39313 589.69214
519.0 0.001927 352.32736 518.33740
558.0 0.001792 352.26178 501.16199
488.0 0.002049 352.19629 520.24188
498.0 0.002008 352.13110 528.01947
502.0 0.001992 352.06598 496.07556
466.0 0.002146 352.00101 467.84586
436.0 0.002294 351.93625 455.13907
449.0 0.002227 351.87161 444.54532
452.0 0.002212 351.80713 445.50519
471.0 0.002123 351.74289 472.10254
553.0 0.001808 351.67868 542.13928
639.0 0.001565 351.61469 660.53699
727.0 0.001376 351.55090 754.12555
692.0 0.001445 351.48724 686.68036
614.0 0.001629 351.42380 561.31140
538.0 0.001859 351.36038 480.60760
494.0 0.002024 351.29712 446.85501
489.0 0.002045 351.23419 438.71655
498.0 0.002008 351.17136 432.26828
489.0 0.002045 351.10864 422.21463
458.0 0.002183 351.04605 422.68845
452.0 0.002212 350.98370 441.87720
473.0 0.002114 350.92148 485.98630
498.0 0.002008 350.85944 549.59894
516.0 0.001938 350.79761 578.50757
503.0 0.001988 350.73581 530.14661
469.0 0.002132 350.67419 479.52884
472.0 0.002119 350.61273 469.31256
520.0 0.001923 350.55151 502.16425
591.0 0.001692 350.49045 557.41742
605.0 0.001653 350.42950 561.56427
566.0 0.001767 350.36868 499.61386
464.0 0.002155 350.30804 443.86591
415.0 0.002410 350.24762 414.23947
395.0 0.002532 350.18738 401.45740
393.0 0.002545 350.12711 396.76605
380.0 0.002632 350.06714 396.28043
413.0 0.002421 350.00735 400.69913
422.0 0.002370 349.94766 413.51807
500.0 0.002000 349.88806 438.72345
516.0 0.001938 349.82877 473.52737
504.0 0.001984 349.76956 515.24872
591.0 0.001692 349.71060 547.82587
629.0 0.001590 349.65167 579.19690
582.0 0.001718 349.59293 591.84619
570.0 0.001754 349.53436 536.74805
516.0 0.001938 349.47595 473.17416
447.0 0.002237 349.41772 437.56625
430.0 0.002326 349.35968 426.01904
401.0 0.002494 349.30176 432.62674
486.0 0.002058 349.24396 459.44366
499.0 0.002004 349.18634 514.62817
579.0 0.001727 349.12891 597.31079
663.0 0.001508 349.07162 663.48236
702.0 0.001425 349.01440 668.38971
660.0 0.001515 348.95749 695.68896
760.0 0.001316 348.90060 768.43536
821.0 0.001218 348.84396 797.46234
755.0 0.001325 348.78748 700.90094
618.0 0.001618 348.73111 577.99261
503.0 0.001988 348.67493 505.46930
495.0 0.002020 348.61884 481.55276
528.0 0.001894 348.56296 496.83060
557.0 0.001795 348.50720 558.55713
674.0 0.001484 348.45172 682.58740
800.0 0.001250 348.39627 844.13947
902.0 0.001109 348.34100 928.65369
893.0 0.001120 348.28592 841.99731
757.0 0.001321 348.23093 730.84021
664.0 0.001506 348.17621 657.32745
604.0 0.001656 348.12152 568.52930
499.0 0.002004 348.06705 492.18909
439.0 0.002278 348.01266 448.34689
412.0 0.002427 347.95853 429.22275
388.0 0.002577 347.90454 427.49890
419.0 0.002387 347.85065 444.47253
451.0 0.002217 347.79694 488.58572
504.0 0.001984 347.74338 560.31207
552.0 0.001812 347.69003 607.01434
555.0 0.001802 347.63672 561.83777
532.0 0.001880 347.58365 490.63428
479.0 0.002088 347.53067 446.84970
427.0 0.002342 347.47794 432.79547
455.0 0.002198 347.42529 440.48785
449.0 0.002227 347.37277 457.71564
468.0 0.002137 347.32047 467.56845
495.0 0.002020 347.26834 486.00934
530.0 0.001887 347.21634 539.14465
599.0 0.001669 347.16446 623.73590
701.0 0.001427 347.11270 709.96051
702.0 0.001425 347.06122 700.14075
602.0 0.001661 347.00977 589.46661
508.0 0.001969 346.95847 492.70184
430.0 0.002326 346.90744 439.09573
408.0 0.002451 346.85648 417.47510
422.0 0.002370 346.80566 413.96667
389.0 0.002571 346.75504 418.11609
418.0 0.002392 346.70450 420.44632
404.0 0.002475 346.65424 427.80173
447.0 0.002237 346.60403 453.20706
495.0 0.002020 346.55402 495.34415
550.0 0.001818 346.50412 540.83453
525.0 0.001905 346.45438 544.01172
485.0 0.002062 346.40479 501.91846
435.0 0.002299 346.35535 462.44501
403.0 0.002481 346.30609 426.09290
378.0 0.002646 346.25690 398.26379
358.0 0.002793 346.20795 382.87317
365.0 0.002740 346.15912 375.28909
365.0 0.002740 346.11041 371.87180
357.0 0.002801 346.06186 369.65973
352.0 0.002841 346.01349 368.28162
330.0 0.003030 345.96527 368.37555
352.0 0.002841 345.91718 370.59976
383.0 0.002611 345.86920 376.28418
357.0 0.002801 345.82144 385.17297
355.0 0.002817 345.77383 394.07568
372.0 0.002688 345.72635 397.69974
374.0 0.002674 345.67896 404.12332
396.0 0.002525 345.63174 422.25461
405.0 0.002469 345.58469 448.03970
395.0 0.002532 345.53781 468.71420
449.0 0.002227 345.49106 499.43237
515.0 0.001942 345.44443 550.18030
534.0 0.001873 345.39798 582.52405
482.0 0.002075 345.35168 567.93170
482.0 0.002075 345.30548 560.25073
500.0 0.002000 345.25952 549.86469
476.0 0.002101 345.21362 505.81586
430.0 0.002326 345.16791 468.15411
409.0 0.002445 345.12234 449.17191
406.0 0.002463 345.07684 442.04092
398.0 0.002513 345.03159 446.89529
399.0 0.002506 344.98642 456.01624
416.0 0.002404 344.94138 469.70813
454.0 0.002203 344.89655 497.04333
490.0 0.002041 344.85187 528.71692
505.0 0.001980 344.80725 554.40588
555.0 0.001802 344.76285 614.73743
700.0 0.001429 344.71860 727.56940
796.0 0.001256 344.67447 846.21875
814.0 0.001229 344.63046 878.33606
736.0 0.001359 344.58664 763.50842
572.0 0.001748 344.54288 607.78491
454.0 0.002203 344.49939 505.35306
395.0 0.002532 344.45593 454.38568
385.0 0.002597 344.41266 432.22540
415.0 0.002410 344.36948 424.86047
410.0 0.002439 344.32654 427.77200
397.0 0.002519 344.28366 437.57355
405.0 0.002469 344.24100 460.37329
471.0 0.002123 344.19836 509.85159
530.0 0.001887 344.15598 581.51385
610.0 0.001639 344.11368 629.72388
534.0 0.001873 344.07150 612.90295
519.0 0.001927 344.02957 579.25244
496.0 0.002016 343.98767 596.95374
615.0 0.001626 343.94592 653.34235
590.0 0.001695 343.90442 650.33691
533.0 0.001876 343.86292 576.42365
475.0 0.002105 343.82159 524.44366
510.0 0.001961 343.78052 516.59302
516.0 0.001938 343.73944 527.22266
470.0 0.002128 343.69855 517.17047
481.0 0.002079 343.65778 507.75568
462.0 0.002165 343.61716 524.46802
450.0 0.002222 343.57663 534.26703
425.0 0.002353 343.53641 509.30087
439.0 0.002278 343.49619 495.77267
437.0 0.002288 343.45612 511.09552
448.0 0.002232 343.41623 516.32190
443.0 0.002257 343.37643 481.00687
439.0 0.002278 343.33673 447.72964
416.0 0.002404 343.29727 438.58661
422.0 0.002370 343.25787 446.85654
425.0 0.002353 343.21869 447.92285
422.0 0.002370 343.17953 438.04346
421.0 0.002375 343.14063 438.11340
407.0 0.002457 343.10178 442.26968
395.0 0.002532 343.06305 427.25165
379.0 0.002639 343.02448 404.69501
388.0 0.002577 342.98602 391.35126
375.0 0.002667 342.94775 387.84479
388.0 0.002577 342.90961 395.33749
428.0 0.002336 342.87161 418.32315
463.0 0.002160 342.83371 466.18396
522.0 0.001916 342.79590 539.37689
533.0 0.001876 342.75824 587.93616
509.0 0.001965 342.72079 543.47552
463.0 0.002160 342.68347 469.08585
432.0 0.002315 342.64627 418.98193
403.0 0.002481 342.60913 394.01013
394.0 0.002538 342.57211 383.77878
405.0 0.002469 342.53525 380.95825
384.0 0.002604 342.49857 382.25113
378.0 0.002646 342.46207 390.38889
373.0 0.002681 342.42557 411.67932
411.0 0.002433 342.38922 456.01404
466.0 0.002146 342.35315 526.00702
514.0 0.001946 342.31705 583.21564
499.0 0.002004 342.28110 557.90540
430.0 0.002326 342.24530 491.72263
398.0 0.002513 342.20963 440.33231
359.0 0.002786 342.17413 405.07700
369.0 0.002710 342.13867 384.20679
344.0 0.002907 342.10345 373.59924
326.0 0.003067 342.06827 368.28543
351.0 0.002849 342.03333 366.47601
371.0 0.002695 341.99838 369.20959
363.0 0.002755 341.96362 378.57788
374.0 0.002674 341.92896 396.44775
381.0 0.002625 341.89450 417.12256
403.0 0.002481 341.86011 418.92841
367.0 0.002725 341.82581 402.19510
390.0 0.002564 341.79169 385.34125
348.0 0.002874 341.75766 372.03314
373.0 0.002681 341.72375 361.91074
354.0 0.002825 341.69003 355.95706
349.0 0.002865 341.65643 352.57031
333.0 0.003003 341.62286 350.58905
349.0 0.002865 341.58951 349.55331
343.0 0.002915 341.55618 349.10965
315.0 0.003175 341.52310 349.31915
329.0 0.003040 341.49005 350.37079
327.0 0.003058 341.45721 352.09909
342.0 0.002924 341.42441 352.83945
326.0 0.003067 341.39175 351.25986
298.0 0.003356 341.35919 349.34543
323.0 0.003096 341.32684 347.81720
324.0 0.003086 341.29453 347.37405
337.0 0.002967 341.26242 347.35770
341.0 0.002933 341.23041 347.60449
328.0 0.003049 341.19843 348.06366
314.0 0.003185 341.16663 348.74670
350.0 0.002857 341.13501 349.75470
358.0 0.002793 341.10339 351.12955
348.0 0.002874 341.07202 353.13937
354.0 0.002825 341.04071 356.30374
339.0 0.002950 341.00946 361.67032
364.0 0.002747 340.97836 370.78110
376.0 0.002660 340.94742 384.24063
403.0 0.002481 340.91660 399.93716
430.0 0.002326 340.88589 416.36154
494.0 0.002024 340.85522 447.14713
536.0 0.001866 340.82474 496.60208
560.0 0.001786 340.79431 538.97321
594.0 0.001684 340.76413 562.62378
577.0 0.001733 340.73398 550.39734
507.0 0.001972 340.70389 488.48514
433.0 0.002309 340.67398 430.72446
406.0 0.002463 340.64423 396.98532
388.0 0.002577 340.61456 381.91794
375.0 0.002667 340.58499 378.09280
357.0 0.002801 340.55557 380.19391
363.0 0.002755 340.52621 384.33600
379.0 0.002639 340.49698 392.03781
374.0 0.002674 340.46786 409.56656
441.0 0.002268 340.43890 433.07352
459.0 0.002179 340.41003 448.65652
472.0 0.002119 340.38123 455.10068
449.0 0.002227 340.35260 436.83185
413.0 0.002421 340.32404 403.23157
389.0 0.002571 340.29562 377.98160
366.0 0.002732 340.26724 363.72974
361.0 0.002770 340.23907 356.45129
345.0 0.002899 340.21094 352.65793
369.0 0.002710 340.18295 350.37369
341.0 0.002933 340.15509 348.90720
324.0 0.003086 340.12732 347.91519
338.0 0.002959 340.09967 347.18555
338.0 0.002959 340.07214 346.74896
342.0 0.002924 340.04468 346.73349
345.0 0.002899 340.01736 347.02289
332.0 0.003012 339.99014 348.08569
316.0 0.003165 339.96301 350.62265
361.0 0.002770 339.93597 355.72589
335.0 0.002985 339.90912 362.80313
355.0 0.002817 339.88232 366.69809
355.0 0.002817 339.85556 362.03851
354.0 0.002825 339.82901 355.05994
334.0 0.002994 339.80249 350.61432
368.0 0.002717 339.77625 348.25894
346.0 0.002890 339.74988 347.35809
333.0 0.003003 339.72372 347.21149
331.0 0.003021 339.69769 347.58804
342.0 0.002924 339.67178 348.38257
331.0 0.003021 339.64587 349.73660
339.0 0.002950 339.62018 352.48782
390.0 0.002564 339.59454 356.86469
366.0 0.002732 339.56900 363.14075
371.0 0.002695 339.54355 368.89487
386.0 0.002591 339.51822 375.42285
396.0 0.002525 339.49298 390.56436
405.0 0.002469 339.46783 418.81723
447.0 0.002237 339.44278 450.42734
460.0 0.002174 339.41794 458.17416
424.0 0.002358 339.39307 430.42892
374.0 0.002674 339.36832 397.47549
361.0 0.002770 339.34375 376.53622
384.0 0.002604 339.31921 366.50409
371.0 0.002695 339.29480 363.46631
375.0 0.002667 339.27051 364.94266
398.0 0.002513 339.24631 370.66473
383.0 0.002611 339.22208 379.14243
385.0 0.002597 339.19812 386.47192
411.0 0.002433 339.17416 395.19852
420.0 0.002381 339.15039 413.23419
415.0 0.002410 339.12665 434.77362
441.0 0.002268 339.10297 440.84262
451.0 0.002217 339.07941 428.64136
414.0 0.002415 339.05594 415.36145
393.0 0.002545 339.03262 412.21350
404.0 0.002475 339.00943 424.71707
415.0 0.002410 338.98624 447.58835
412.0 0.002427 338.96317 469.96512
435.0 0.002299 338.94022 472.59180
431.0 0.002320 338.91733 467.63004
426.0 0.002347 338.89459 477.77200
436.0 0.002294 338.87183 491.76178
444.0 0.002252 338.84924 481.85684
443.0 0.002257 338.82678 468.20581
466.0 0.002146 338.80429 471.39087
531.0 0.001883 338.78204 494.50385
543.0 0.001842 338.75980 525.70148
502.0 0.001992 338.73764 520.93811
476.0 0.002101 338.71558 483.75864
440.0 0.002273 338.69373 455.58914
415.0 0.002410 338.67181 441.76672
397.0 0.002519 338.65009 428.76361
385.0 0.002597 338.62836 420.01462
395.0 0.002532 338.60678 423.30899
391.0 0.002558 338.58521 429.20612
404.0 0.002475 338.56387 423.62466
386.0 0.002591 338.54257 419.15359
417.0 0.002398 338.52133 427.89304
392.0 0.002551 338.50015 454.87433
482.0 0.002075 338.47910 498.60837
495.0 0.002020 338.45813 535.90936
535.0 0.001869 338.43726 547.78485
476.0 0.002101 338.41647 523.06464
441.0 0.002268 338.39575 476.79910
387.0 0.002584 338.37512 437.22333
375.0 0.002667 338.35455 419.18140
416.0 0.002404 338.33405 424.07227
427.0 0.002342 338.31375 453.96094
493.0 0.002028 338.29349 508.72858
518.0 0.001931 338.27322 561.08569
515.0 0.001942 338.25305 550.83899
450.0 0.002222 338.23303 502.37753
442.0 0.002262 338.21307 473.68781
446.0 0.002242 338.19321 470.09503
427.0 0.002342 338.17346 469.42102
419.0 0.002387 338.15372 454.76990
405.0 0.002469 338.13412 431.59842
407.0 0.002457 338.11453 413.78519
416.0 0.002404 338.09506 409.07065
412.0 0.002427 338.07568 420.43985
427.0 0.002342 338.05637 453.95639
477.0 0.002096 338.03714 519.42145
570.0 0.001754 338.01804 614.85315
660.0 0.001515 337.99893 701.99634
697.0 0.001435 337.97992 714.65222
617.0 0.001621 337.96103 625.10748
528.0 0.001894 337.94217 523.65204
451.0 0.002217 337.92346 454.39200
408.0 0.002451 337.90482 415.47766
390.0 0.002564 337.88617 396.02747
367.0 0.002725 337.86768 387.20901
357.0 0.002801 337.84921 384.70224
355.0 0.002817 337.83090 388.10629
383.0 0.002611 337.81253 399.82794
401.0 0.002494 337.79437 424.64606
459.0 0.002179 337.77618 465.24753
495.0 0.002020 337.75815 512.92267
515.0 0.001942 337.74014 535.19562
519.0 0.001927 337.72217 508.59988
481.0 0.002079 337.70435 476.02786
470.0 0.002128 337.68652 464.84457
475.0 0.002105 337.66895 483.66586
496.0 0.002016 337.65125 537.10669
545.0 0.001835 337.63373 596.50397
555.0 0.001802 337.61618 589.24658
503.0 0.001988 337.59879 529.30487
469.0 0.002132 337.58142 477.12762
414.0 0.002415 337.56415 442.25177
436.0 0.002294 337.54694 426.01129
423.0 0.002364 337.52979 423.45517
440.0 0.002273 337.51273 426.00739
438.0 0.002283 337.49573 423.05551
480.0 0.002083 337.47879 415.17474
418.0 0.002392 337.46198 412.12708
423.0 0.002364 337.44513 420.31876
410.0 0.002439 337.42847 445.26077
442.0 0.002262 337.41177 477.24789
421.0 0.002375 337.39514 481.44339
470.0 0.002128 337.37866 455.88596
430.0 0.002326 337.36224 432.07028
410.0 0.002439 337.34579 418.39026
400.0 0.002500 337.32950 418.22113
447.0 0.002237 337.31323 436.76709
507.0 0.001972 337.29706 481.28583
614.0 0.001629 337.28088 558.45306
710.0 0.001408 337.26483 662.98145
782.0 0.001279 337.24890 728.68005
760.0 0.001316 337.23291 663.56281
561.0 0.001783 337.21701 550.11627
465.0 0.002151 337.20117 468.70453
415.0 0.002410 337.18546 424.91101
401.0 0.002494 337.16983 405.21671
404.0 0.002475 337.15417 398.59705
405.0 0.002469 337.13855 399.73999
389.0 0.002571 337.12308 409.18164
402.0 0.002488 337.10770 432.86130
500.0 0.002000 337.09225 484.00555
604.0 0.001656 337.07693 579.36987
701.0 0.001427 337.06171 715.31952
779.0 0.001284 337.04648 805.04871
758.0 0.001319 337.03134 734.62225
633.0 0.001580 337.01620 596.16077
482.0 0.002075 337.00122 492.10925
427.0 0.002342 336.98624 433.25879
387.0 0.002584 336.97131 404.03012
383.0 0.002611 336.95651 389.43536
410.0 0.002439 336.94165 382.67789
394.0 0.002538 336.92691 380.82111
390.0 0.002564 336.91226 384.28323
406.0 0.002463 336.89758 396.25269
449.0 0.002227 336.88309 421.96863
474.0 0.002110 336.86850 461.51584
480.0 0.002083 336.85400 494.43378
478.0 0.002092 336.83963 481.21149
439.0 0.002278 336.82526 441.50519
418.0 0.002392 336.81097 410.95242
405.0 0.002469 336.79669 396.55978
404.0 0.002475 336.78250 395.81912
446.0 0.002242 336.76837 408.86371
464.0 0.002155 336.75427 441.79367
498.0 0.002008 336.74020 500.65909
541.0 0.001848 336.72617 572.84259
587.0 0.001704 336.71228 593.37402
533.0 0.001876 336.69839 536.53595
470.0 0.002128 336.68457 472.13550
407.0 0.002457 336.67078 434.34351
405.0 0.002469 336.65701 419.69412
448.0 0.002232 336.64334 423.11383
416.0 0.002404 336.62973 445.71884
481.0 0.002079 336.61612 488.70566
511.0 0.001957 336.60251 530.66095
509.0 0.001965 336.58911 524.39832
466.0 0.002146 336.57556 488.79666
464.0 0.002155 336.56219 472.53693
466.0 0.002146 336.54886 484.18979
480.0 0.002083 336.53549 497.13950
515.0 0.001942 336.52228 475.51416
442.0 0.002262 336.50909 439.62631
422.0 0.002370 336.49588 415.42477
418.0 0.002392 336.48273 405.59930
414.0 0.002415 336.46964 407.67398
417.0 0.002398 336.45657 423.02121
495.0 0.002020 336.44363 458.36984
521.0 0.001919 336.43069 513.88092
581.0 0.001721 336.41776 572.66913
576.0 0.001736 336.40494 606.61169
567.0 0.001764 336.39209 586.54230
575.0 0.001739 336.37930 531.92365
498.0 0.002008 336.36661 497.24301
515.0 0.001942 336.35388 493.55765
508.0 0.001969 336.34116 505.91965
532.0 0.001880 336.32858 531.49890
572.0 0.001748 336.31601 586.76202
619.0 0.001616 336.30344 649.71387
690.0 0.001449 336.29102 660.38080
669.0 0.001495 336.27853 630.91217
587.0 0.001704 336.26608 584.07837
550.0 0.001818 336.25372 543.26532
553.0 0.001808 336.24136 530.31329
524.0 0.001908 336.22906 526.36151
492.0 0.002033 336.21686 509.12250
502.0 0.001992 336.20459 501.34332
530.0 0.001887 336.19238 526.59314
649.0 0.001541 336.18027 597.65131
801.0 0.001248 336.16809 717.07135
920.0 0.001087 336.15604 857.00177
941.0 0.001063 336.14398 898.48810
837.0 0.001195 336.13199 804.16571
701.0 0.001427 336.12003 680.72546
570.0 0.001754 336.10806 587.46667
531.0 0.001883 336.09616 523.25366
501.0 0.001996 336.08432 481.28998
479.0 0.002088 336.07242 456.77710
472.0 0.002119 336.06061 447.63776
465.0 0.002151 336.04880 453.86209
481.0 0.002079 336.03708 480.27194
563.0 0.001776 336.02539 540.69409
657.0 0.001522 336.01376 651.43774
844.0 0.001185 336.00211 806.04230
978.0 0.001022 335.99045 907.81641
844.0 0.001185 335.97894 843.94006
731.0 0.001368 335.96732 731.23071
720.0 0.001389 335.95578 691.99799
744.0 0.001344 335.94434 757.55756
891.0 0.001122 335.93289 909.19458
1006.0 0.000994 335.92142 1028.59937
881.0 0.001135 335.91003 944.57269
669.0 0.001495 335.89859 754.34827
552.0 0.001812 335.88727 607.95612
465.0 0.002151 335.87592 530.99176
518.0 0.001931 335.86462 508.83383
537.0 0.001862 335.85336 524.30304
546.0 0.001832 335.84210 556.13861
572.0 0.001748 335.83090 558.26953
512.0 0.001953 335.81973 526.19849
487.0 0.002053 335.80853 505.99875
516.0 0.001938 335.79739 522.29321
554.0 0.001805 335.78625 580.96027
666.0 0.001502 335.77518 664.54218
657.0 0.001522 335.76407 696.06024
662.0 0.001511 335.75311 626.96368
577.0 0.001733 335.74203 538.19299
457.0 0.002188 335.73105 479.04959
453.0 0.002208 335.72003 449.73721
423.0 0.002364 335.70908 440.05453
450.0 0.002222 335.69821 442.69440
453.0 0.002208 335.68729 456.17465
495.0 0.002020 335.67639 482.97931
536.0 0.001866 335.66559 532.89246
624.0 0.001603 335.65469 620.36920
767.0 0.001304 335.64392 760.28076
983.0 0.001017 335.63312 954.71167
1229.0 0.000814 335.62225 1225.31421
1530.0 0.000654 335.61157 1525.83887
1511.0 0.000662 335.60080 1563.36694
1167.0 0.000857 335.59009 1261.71204
873.0 0.001145 335.57938 926.76172
664.0 0.001506 335.56873 705.94244
584.0 0.001712 335.55798 591.30829
544.0 0.001838 335.54739 544.55249
550.0 0.001818 335.53674 537.56696
583.0 0.001715 335.52612 557.60327
610.0 0.001639 335.51544 584.94489
647.0 0.001546 335.50488 613.27814
681.0 0.001468 335.49429 667.61169
745.0 0.001342 335.48373 761.20703
905.0 0.001105 335.47324 910.41937
1015.0 0.000985 335.46274 1058.50330
973.0 0.001028 335.45221 1042.45789
878.0 0.001139 335.44168 890.56476
771.0 0.001297 335.43124 768.50079
718.0 0.001393 335.42078 727.11603
765.0 0.001307 335.41028 759.69727
879.0 0.001138 335.39987 859.71881
956.0 0.001046 335.38943 949.85626
931.0 0.001074 335.37906 923.72028
811.0 0.001233 335.36862 842.35748
732.0 0.001366 335.35828 747.73468
624.0 0.001603 335.34784 636.00055
549.0 0.001821 335.33749 547.97479
487.0 0.002053 335.32709 499.26920
485.0 0.002062 335.31680 479.26651
458.0 0.002183 335.30640 471.64713
475.0 0.002105 335.29608 474.60992
490.0 0.002041 335.28574 493.71002
487.0 0.002053 335.27551 530.88257
630.0 0.001587 335.26520 595.19952
724.0 0.001381 335.25494 700.31641
794.0 0.001259 335.24460 816.77521
879.0 0.001138 335.23434 896.78308
953.0 0.001049 335.22409 910.34906
794.0 0.001259 335.21384 802.71136
621.0 0.001610 335.20355 650.32227
519.0 0.001927 335.19333 536.43030
448.0 0.002232 335.18307 468.31183
441.0 0.002268 335.17285 436.65796
427.0 0.002342 335.16263 425.20227
439.0 0.002278 335.15240 428.61746
444.0 0.002252 335.14218 445.13809
505.0 0.001980 335.13193 468.18283
495.0 0.002020 335.12173 478.80542
507.0 0.001972 335.11151 480.33209
492.0 0.002033 335.10132 497.30060
501.0 0.001996 335.09113 532.71814
543.0 0.001842 335.08096 545.72534
507.0 0.001972 335.07077 505.77615
479.0 0.002088 335.06058 454.03305
410.0 0.002439 335.05042 418.07065
415.0 0.002410 335.04019 397.52310
415.0 0.002410 335.03000 389.71759
403.0 0.002481 335.01984 389.41785
419.0 0.002387 335.00967 395.38730
449.0 0.002227 334.99945 407.89655
459.0 0.002179 334.98932 423.93045
453.0 0.002208 334.97916 434.98734
453.0 0.002208 334.96899 444.52106
494.0 0.002024 334.95880 466.70364
557.0 0.001795 334.94861 503.44119
587.0 0.001704 334.93839 532.86255
587.0 0.001704 334.92819 541.63324
590.0 0.001695 334.91815 568.63263
675.0 0.001481 334.90796 644.25739
806.0 0.001241 334.89771 758.02673
910.0 0.001099 334.88754 851.14508
862.0 0.001160 334.87738 827.48346
713.0 0.001403 334.86716 706.68829
572.0 0.001748 334.85699 602.29260
560.0 0.001786 334.84677 546.17767
539.0 0.001855 334.83655 530.66431
557.0 0.001795 334.82632 557.90546
637.0 0.001570 334.81607 634.75220
768.0 0.001302 334.80597 742.02191
839.0 0.001192 334.79568 794.10083
729.0 0.001372 334.78555 728.90839
602.0 0.001661 334.77530 645.35260
586.0 0.001706 334.76501 613.81543
614.0 0.001629 334.75476 632.88263
674.0 0.001484 334.74460 664.86243
654.0 0.001529 334.73431 654.47589
649.0 0.001541 334.72403 604.57617
586.0 0.001706 334.71375 577.62158
644.0 0.001553 334.70346 604.64868
689.0 0.001451 334.69312 697.25598
819.0 0.001221 334.68289 850.77393
963.0 0.001038 334.67258 982.28619
920.0 0.001087 334.66226 961.02283
765.0 0.001307 334.65195 832.33679
647.0 0.001546 334.64160 678.23431
506.0 0.001976 334.63129 554.94635
460.0 0.002174 334.62091 479.33817
393.0 0.002545 334.61066 438.33276
396.0 0.002525 334.60019 417.33020
384.0 0.002604 334.58987 407.64569
427.0 0.002342 334.57950 406.07623
412.0 0.002427 334.56903 414.17575
471.0 0.002123 334.55865 437.32596
518.0 0.001931 334.54825 483.14514
534.0 0.001873 334.53787 551.97058
591.0 0.001692 334.52740 609.14417
567.0 0.001764 334.51694 588.45697
469.0 0.002132 334.50644 515.47021
441.0 0.002268 334.49597 451.44470
400.0 0.002500 334.48547 412.02634
400.0 0.002500 334.47491 392.59933
408.0 0.002451 334.46445 386.30957
402.0 0.002488 334.45389 388.26367
418.0 0.002392 334.44336 396.96796
434.0 0.002304 334.43280 404.16025
428.0 0.002336 334.42224 399.30072
409.0 0.002445 334.41162 385.42490
395.0 0.002532 334.40103 373.21735
400.0 0.002500 334.39032 366.51736
397.0 0.002519 334.37979 364.84204
388.0 0.002577 334.36911 369.46399
405.0 0.002469 334.35837 379.97476
421.0 0.002375 334.34775 392.63751
417.0 0.002398 334.33701 396.79974
397.0 0.002519 334.32632 390.34402
390.0 0.002564 334.31552 382.03516
408.0 0.002451 334.30481 376.33624
398.0 0.002513 334.29404 376.24130
411.0 0.002433 334.28317 379.35342
414.0 0.002415 334.27243 379.86667
408.0 0.002451 334.26160 377.24692
416.0 0.002404 334.25076 377.35519
418.0 0.002392 334.23987 381.65976
410.0 0.002439 334.22900 394.88101
421.0 0.002375 334.21811 418.19470
456.0 0.002193 334.20715 441.09140
465.0 0.002151 334.19620 441.61725
419.0 0.002387 334.18524 422.46805
385.0 0.002597 334.17429 399.99124
389.0 0.002571 334.16327 382.87564
411.0 0.002433 334.15216 372.23914
368.0 0.002717 334.14114 366.93045
374.0 0.002674 334.13010 365.95981
397.0 0.002519 334.11902 368.78378
419.0 0.002387 334.10791 375.67569
421.0 0.002375 334.09674 387.90701
418.0 0.002392 334.08557 406.28616
446.0 0.002242 334.07437 437.63104
545.0 0.001835 334.06323 489.95114
597.0 0.001675 334.05200 556.65631
660.0 0.001515 334.04074 592.82135
602.0 0.001661 334.02945 568.22217
553.0 0.001808 334.01816 513.76483
479.0 0.002088 334.00684 458.74814
452.0 0.002212 333.99548 422.13449
454.0 0.002203 333.98413 405.57080
412.0 0.002427 333.97272 406.79575
412.0 0.002427 333.96127 421.94482
468.0 0.002137 333.94992 448.78516
455.0 0.002198 333.93845 472.07446
485.0 0.002062 333.92688 470.93658
433.0 0.002309 333.91537 457.72446
480.0 0.002083 333.90384 458.82535
503.0 0.001988 333.89224 483.67636
550.0 0.001818 333.88074 523.94238
560.0 0.001786 333.86911 558.38104
608.0 0.001645 333.85739 576.86658
537.0 0.001862 333.84576 560.54077
531.0 0.001883 333.83398 521.34753
497.0 0.002012 333.82227 497.48068
489.0 0.002045 333.81052 498.32227
520.0 0.001923 333.79874 523.67145
585.0 0.001709 333.78687 570.45148
609.0 0.001642 333.77505 615.86926
593.0 0.001686 333.76318 604.09338
534.0 0.001873 333.75128 537.31848
456.0 0.002193 333.73932 473.26718
417.0 0.002398 333.72739 434.54916
407.0 0.002457 333.71542 419.42252
419.0 0.002387 333.70334 421.95221
432.0 0.002315 333.69128 435.10608
438.0 0.002283 333.67929 444.49515
425.0 0.002353 333.66714 439.00482
448.0 0.002232 333.65506 431.22723
453.0 0.002208 333.64282 431.81711
465.0 0.002151 333.63065 439.07730
487.0 0.002053 333.61841 452.88129
478.0 0.002092 333.60614 471.83154
501.0 0.001996 333.59384 480.31183
467.0 0.002141 333.58157 463.24823
428.0 0.002336 333.56918 440.02252
419.0 0.002387 333.55679 427.73322
430.0 0.002326 333.54440 430.88638
471.0 0.002123 333.53198 450.75226
479.0 0.002088 333.51947 492.60202
496.0 0.002016 333.50693 562.75446
654.0 0.001529 333.49438 659.84741
825.0 0.001212 333.48181 779.85321
938.0 0.001066 333.46924 889.76764
862.0 0.001160 333.45657 890.05042
803.0 0.001245 333.44391 796.03589
724.0 0.001381 333.43112 714.23364
688.0 0.001453 333.41837 668.65369
680.0 0.001471 333.40561 641.82141
613.0 0.001631 333.39276 602.81866
524.0 0.001908 333.37997 561.85132
543.0 0.001842 333.36703 552.04968
603.0 0.001658 333.35406 590.63776
753.0 0.001328 333.34116 683.29102
836.0 0.001196 333.32822 804.78357
937.0 0.001067 333.31516 864.79272
848.0 0.001179 333.30206 827.13824
756.0 0.001323 333.28900 779.67841
703.0 0.001422 333.27585 740.08551
642.0 0.001558 333.26270 669.50165
617.0 0.001621 333.24942 597.03436
586.0 0.001706 333.23627 551.25122
541.0 0.001848 333.22293 527.06549
512.0 0.001953 333.20966 510.30963
522.0 0.001916 333.19632 489.97623
491.0 0.002037 333.18295 478.08777
453.0 0.002208 333.16946 482.74063
493.0 0.002028 333.15604 501.24667
557.0 0.001795 333.14249 535.84900
598.0 0.001672 333.12897 568.91406
551.0 0.001815 333.11539 555.66766
491.0 0.002037 333.10178 507.25241
441.0 0.002268 333.08810 466.19543
452.0 0.002212 333.07449 439.26910
422.0 0.002370 333.06070 414.63788
395.0 0.002532 333.04697 394.54111
400.0 0.002500 333.03305 380.49753
386.0 0.002591 333.01929 371.80038
395.0 0.002532 333.00543 367.75931
382.0 0.002618 332.99152 367.55112
396.0 0.002525 332.97754 369.67004
391.0 0.002558 332.96353 370.37146
377.0 0.002653 332.94949 366.74677
378.0 0.002646 332.93546 362.51108
373.0 0.002681 332.92136 360.76801
377.0 0.002653 332.90717 362.06439
395.0 0.002532 332.89291 368.16574
405.0 0.002469 332.87866 376.39410
390.0 0.002564 332.86444 380.11746
388.0 0.002577 332.85010 374.66040
374.0 0.002674 332.83575 367.60028
383.0 0.002611 332.82132 362.94562
382.0 0.002618 332.80692 360.95767
369.0 0.002710 332.79239 360.74500
373.0 0.002681 332.77786 362.50574
369.0 0.002710 332.76334 368.38394
372.0 0.002688 332.74872 380.16556
366.0 0.002732 332.73404 401.62869
436.0 0.002294 332.71939 429.38373
457.0 0.002188 332.70462 446.36621
419.0 0.002387 332.68985 435.74951
431.0 0.002320 332.67508 412.14255
421.0 0.002375 332.66019 394.43112
417.0 0.002398 332.64523 384.78433
384.0 0.002604 332.63031 381.58743
404.0 0.002475 332.61536 384.95987
384.0 0.002604 332.60028 396.67444
421.0 0.002375 332.58524 418.83765
450.0 0.002222 332.57019 451.69498
556.0 0.001799 332.55502 486.20728
507.0 0.001972 332.53983 508.67719
523.0 0.001912 332.52457 514.91083
503.0 0.001988 332.50925 512.33661
542.0 0.001845 332.49393 525.32611
560.0 0.001786 332.47858 566.65796
660.0 0.001515 332.46313 638.96088
753.0 0.001328 332.44769 741.80438
875.0 0.001143 332.43222 813.58160
768.0 0.001302 332.41666 766.79877
587.0 0.001704 332.40106 649.69830
525.0 0.001905 332.38538 546.60065
481.0 0.002079 332.36969 484.86810
454.0 0.002203 332.35394 460.79898
454.0 0.002203 332.33826 462.37247
483.0 0.002070 332.32242 472.79480
491.0 0.002037 332.30655 475.65936
468.0 0.002137 332.29068 466.55655
466.0 0.002146 332.27472 450.65356
463.0 0.002160 332.25867 443.27756
483.0 0.002070 332.24265 455.87259
502.0 0.001992 332.22656 493.48471
594.0 0.001684 332.21051 549.98657
639.0 0.001565 332.19427 588.73975
594.0 0.001684 332.17807 570.38336
524.0 0.001908 332.16174 525.11127
520.0 0.001923 332.14548 493.53461
548.0 0.001825 332.12909 480.78345
525.0 0.001905 332.11273 467.13724
495.0 0.002020 332.09622 446.20233
465.0 0.002151 332.07977 432.66071
443.0 0.002257 332.06317 431.29297
489.0 0.002045 332.04660 444.83459
517.0 0.001934 332.02997 469.63193
498.0 0.002008 332.01334 486.12820
464.0 0.002155 331.99652 469.01324
418.0 0.002392 331.97983 433.45474
392.0 0.002551 331.96298 404.40771
375.0 0.002667 331.94614 387.85471
374.0 0.002674 331.92926 382.26987
376.0 0.002660 331.91223 385.34506
390.0 0.002564 331.89526 394.67548
451.0 0.002217 331.87817 405.35001
458.0 0.002183 331.86115 409.51859
458.0 0.002183 331.84396 409.26526
448.0 0.002232 331.82678 418.48260
482.0 0.002075 331.80951 445.47092
528.0 0.001894 331.79227 492.21802
584.0 0.001712 331.77490 539.93701
564.0 0.001773 331.75760 548.48438
526.0 0.001901 331.74005 510.44531
469.0 0.002132 331.72263 463.98816
449.0 0.002227 331.70505 429.16599
410.0 0.002439 331.68753 403.59357
392.0 0.002551 331.66995 385.91153
413.0 0.002421 331.65219 376.22009
363.0 0.002755 331.63452 372.15350
341.0 0.002933 331.61676 371.30045
372.0 0.002688 331.59888 372.76584
375.0 0.002667 331.58112 375.80060
409.0 0.002445 331.56314 381.98837
394.0 0.002538 331.54523 394.59689
423.0 0.002364 331.52725 414.82245
439.0 0.002278 331.50919 435.51913
475.0 0.002105 331.49106 441.08450
453.0 0.002208 331.47293 431.74957
451.0 0.002217 331.45474 426.01270
403.0 0.002481 331.43652 432.85254
485.0 0.002062 331.41818 456.50937
535.0 0.001869 331.39984 503.39346
624.0 0.001603 331.38144 577.19598
741.0 0.001350 331.36307 659.45349
797.0 0.001255 331.34451 714.06952
714.0 0.001401 331.32602 703.11743
622.0 0.001608 331.30740 630.83978
564.0 0.001773 331.28882 563.85999
557.0 0.001795 331.27011 534.85724
536.0 0.001866 331.25137 532.09973
511.0 0.001957 331.23257 518.34576
471.0 0.002123 331.21378 480.84210
453.0 0.002208 331.19492 443.86447
426.0 0.002347 331.17599 420.80099
423.0 0.002364 331.15698 412.91455
435.0 0.002299 331.13797 420.19818
437.0 0.002288 331.11896 444.30026
490.0 0.002041 331.09979 486.54849
556.0 0.001799 331.08069 539.27094
578.0 0.001730 331.06143 579.94891
577.0 0.001733 331.04221 580.36450
555.0 0.001802 331.02289 537.90253
516.0 0.001938 331.00351 493.43588
483.0 0.002070 330.98416 471.56119
474.0 0.002110 330.96460 470.61371
492.0 0.002033 330.94510 474.90674
495.0 0.002020 330.92560 476.14273
495.0 0.002020 330.90591 491.94186
534.0 0.001873 330.88635 540.70898
655.0 0.001527 330.86661 627.30170
750.0 0.001333 330.84683 722.92505
739.0 0.001353 330.82703 743.28442
595.0 0.001681 330.80719 662.52893
519.0 0.001927 330.78732 564.11847
445.0 0.002247 330.76733 493.79111
421.0 0.002375 330.74731 449.63129
410.0 0.002439 330.72736 421.48541
387.0 0.002584 330.70721 405.94177
398.0 0.002513 330.68710 401.13651
400.0 0.002500 330.66693 406.83258
419.0 0.002387 330.64664 425.26666
441.0 0.002268 330.62634 458.60303
542.0 0.001845 330.60602 502.38895
520.0 0.001923 330.58563 536.01080
536.0 0.001866 330.56522 553.67688
546.0 0.001832 330.54468 572.72101
521.0 0.001919 330.52423 576.03601
485.0 0.002062 330.50360 534.51178
458.0 0.002183 330.48297 475.35590
412.0 0.002427 330.46234 429.86914
386.0 0.002591 330.44153 402.71783
384.0 0.002604 330.42081 388.71011
409.0 0.002445 330.39996 380.64716
428.0 0.002336 330.37906 376.21771
364.0 0.002747 330.35815 374.83627
394.0 0.002538 330.33719 377.24350
396.0 0.002525 330.31613 384.77295
431.0 0.002320 330.29510 397.21530
386.0 0.002591 330.27402 405.16324
417.0 0.002398 330.25281 397.23209
380.0 0.002632 330.23157 380.60229
389.0 0.002571 330.21036 365.91620
402.0 0.002488 330.18906 356.79819
399.0 0.002506 330.16766 352.10089
373.0 0.002681 330.14627 350.35919
371.0 0.002695 330.12479 350.14734
371.0 0.002695 330.10333 350.66779
353.0 0.002833 330.08176 350.75998
343.0 0.002915 330.06018 350.67239
362.0 0.002762 330.03848 350.50699
370.0 0.002703 330.01675 350.29474
380.0 0.002632 329.99503 349.68127
353.0 0.002833 329.97321 350.18216
342.0 0.002924 329.95148 350.73837
357.0 0.002801 329.92947 351.54517
364.0 0.002747 329.90753 353.82016
369.0 0.002710 329.88556 358.45615
391.0 0.002558 329.86359 366.98813
401.0 0.002494 329.84146 381.11038
422.0 0.002370 329.81931 400.77448
489.0 0.002045 329.79718 420.78342
485.0 0.002062 329.77493 430.02231
465.0 0.002151 329.75262 433.40643
487.0 0.002053 329.73032 449.47946
517.0 0.001934 329.70792 488.62161
593.0 0.001686 329.68558 547.41632
667.0 0.001499 329.66309 593.39435
623.0 0.001605 329.64059 588.00104
520.0 0.001923 329.61801 539.63080
463.0 0.002160 329.59540 481.05304
442.0 0.002262 329.57272 437.39725
403.0 0.002481 329.55011 413.41296
404.0 0.002475 329.52734 405.66064
419.0 0.002387 329.50455 411.80219
443.0 0.002257 329.48169 433.05304
499.0 0.002004 329.45880 472.93781
511.0 0.001957 329.43588 531.06836
612.0 0.001634 329.41293 597.12427
639.0 0.001565 329.38983 640.36035
588.0 0.001701 329.36679 625.21759
552.0 0.001812 329.34369 584.46716
536.0 0.001866 329.32056 556.59558
574.0 0.001742 329.29730 532.79272
507.0 0.001972 329.27402 498.52762
464.0 0.002155 329.25070 459.58594
406.0 0.002463 329.22739 427.64029
399.0 0.002506 329.20398 408.53674
389.0 0.002571 329.18048 402.01205
444.0 0.002252 329.15707 407.62360
450.0 0.002222 329.13354 427.11176
447.0 0.002237 329.10995 463.25259
505.0 0.001980 329.08630 513.36755
581.0 0.001721 329.06262 557.28094
549.0 0.001821 329.03894 573.75195
532.0 0.001880 329.01517 556.54541
475.0 0.002105 328.99133 509.68381
449.0 0.002227 328.96750 463.38202
405.0 0.002469 328.94357 436.25974
430.0 0.002326 328.91962 429.92398
445.0 0.002247 328.89563 438.91763
467.0 0.002141 328.87164 449.94107
444.0 0.002252 328.84756 445.69464
424.0 0.002358 328.82343 431.05099
406.0 0.002463 328.79926 423.82962
441.0 0.002268 328.77502 433.54449
455.0 0.002198 328.75079 464.94025
534.0 0.001873 328.72653 517.31207
627.0 0.001595 328.70221 571.27069
587.0 0.001704 328.67773 580.70837
477.0 0.002096 328.65332 534.73029
424.0 0.002358 328.62885 477.85657
380.0 0.002632 328.60437 435.40167
388.0 0.002577 328.57974 411.42789
392.0 0.002551 328.55515 402.96509
390.0 0.002564 328.53052 405.96890
410.0 0.002439 328.50583 416.64841
440.0 0.002273 328.48117 428.99097
438.0 0.002283 328.45630 439.33459
461.0 0.002169 328.43152 458.51822
509.0 0.001965 328.40665 499.55432
589.0 0.001698 328.38171 567.53467
649.0 0.001541 328.35687 642.05432
668.0 0.001497 328.33176 674.34692
594.0 0.001684 328.30679 648.09692
514.0 0.001946 328.28174 586.88220
480.0 0.002083 328.25653 520.52917
475.0 0.002105 328.23138 475.43823
456.0 0.002193 328.20621 458.82129
489.0 0.002045 328.18097 469.53131
521.0 0.001919 328.15570 503.41605
550.0 0.001818 328.13037 548.19281
567.0 0.001764 328.10504 579.02325
539.0 0.001855 328.07953 569.82703
516.0 0.001938 328.05414 537.19250
526.0 0.001901 328.02869 516.35278
479.0 0.002088 328.00317 514.48724
533.0 0.001876 327.97754 522.97009
556.0 0.001799 327.95190 529.50659
520.0 0.001923 327.92630 514.85779
498.0 0.002008 327.90063 481.61389
474.0 0.002110 327.87482 449.32379
418.0 0.002392 327.84909 430.10062
423.0 0.002364 327.82330 429.17288
472.0 0.002119 327.79745 449.15259
531.0 0.001883 327.77151 492.06326
576.0 0.001736 327.74564 551.97449
658.0 0.001520 327.71967 599.73096
576.0 0.001736 327.69366 595.40167
492.0 0.002033 327.66757 545.08594
420.0 0.002381 327.64151 487.16211
416.0 0.002404 327.61539 445.63443
428.0 0.002336 327.58926 418.39011
390.0 0.002564 327.56302 398.39774
376.0 0.002660 327.53680 383.32233
421.0 0.002375 327.51050 373.41241
400.0 0.002500 327.48419 368.30878
395.0 0.002532 327.45782 367.54645
393.0 0.002545 327.43146 371.64999
418.0 0.002392 327.40503 381.29214
410.0 0.002439 327.37857 396.45975
446.0 0.002242 327.35205 416.36047
467.0 0.002141 327.32553 440.75262
492.0 0.002033 327.29892 458.11429
484.0 0.002066 327.27231 449.90323
418.0 0.002392 327.24564 422.21945
398.0 0.002513 327.21899 395.03577
392.0 0.002551 327.19223 377.37650
389.0 0.002571 327.16550 369.03656
395.0 0.002532 327.13873 368.79175
405.0 0.002469 327.11188 374.86938
418.0 0.002392 327.08502 384.12921
421.0 0.002375 327.05814 388.34482
409.0 0.002445 327.03119 381.76163
385.0 0.002597 327.00427 371.42392
372.0 0.002688 326.97714 363.72916
371.0 0.002695 326.95016 360.31000
377.0 0.002653 326.92310 358.74588
383.0 0.002611 326.89600 359.07388
386.0 0.002591 326.86887 361.02228
382.0 0.002618 326.84161 361.35373
390.0 0.002564 326.81442 358.14423
373.0 0.002681 326.78726 354.25516
372.0 0.002688 326.75989 351.99005
370.0 0.002703 326.73267 352.19025
363.0 0.002755 326.70532 355.71399
365.0 0.002740 326.67792 362.45102
389.0 0.002571 326.65054 371.47726
395.0 0.002532 326.62311 378.73117
386.0 0.002591 326.59558 379.86386
390.0 0.002564 326.56805 378.35809
403.0 0.002481 326.54059 380.21329
419.0 0.002387 326.51300 388.20306
398.0 0.002513 326.48538 400.22791
417.0 0.002398 326.45776 414.71185
456.0 0.002193 326.43002 434.30927
486.0 0.002058 326.40237 456.05472
479.0 0.002088 326.37473 465.56351
479.0 0.002088 326.34698 459.38104
449.0 0.002227 326.31912 448.08136
415.0 0.002410 326.29132 443.75253
474.0 0.002110 326.26349 458.60275
500.0 0.002000 326.23560 502.13943
586.0 0.001706 326.20764 580.31824
726.0 0.001377 326.17975 684.07111
737.0 0.001357 326.15176 760.97528
752.0 0.001330 326.12381 737.69830
554.0 0.001805 326.09579 645.92981
524.0 0.001908 326.06775 561.88177
477.0 0.002096 326.03967 510.89453
464.0 0.002155 326.01157 485.80591
453.0 0.002208 325.98340 473.97986
445.0 0.002247 325.95526 471.38831
476.0 0.002101 325.92706 474.45251
480.0 0.002083 325.89886 479.90161
478.0 0.002092 325.87061 488.53101
480.0 0.002083 325.84235 494.48752
495.0 0.002020 325.81409 489.44098
470.0 0.002128 325.78574 484.72711
485.0 0.002062 325.75742 498.43707
528.0 0.001894 325.72897 533.82135
529.0 0.001890 325.70059 571.06012
526.0 0.001901 325.67218 569.93262
498.0 0.002008 325.64371 528.74530
469.0 0.002132 325.61523 485.93338
436.0 0.002294 325.58673 461.65836
444.0 0.002252 325.55823 458.21814
488.0 0.002049 325.52972 474.38116
549.0 0.001821 325.50110 514.59253
631.0 0.001585 325.47250 586.50800
723.0 0.001383 325.44388 684.62079
752.0 0.001330 325.41519 764.96698
706.0 0.001416 325.38654 766.58362
658.0 0.001520 325.35785 695.81409
596.0 0.001678 325.32913 606.61884
520.0 0.001923 325.30042 541.19824
470.0 0.002128 325.27167 505.21533
434.0 0.002304 325.24292 480.25934
392.0 0.002551 325.21405 452.28131
379.0 0.002639 325.18524 427.23615
374.0 0.002674 325.15637 410.97867
372.0 0.002688 325.12750 404.34348
378.0 0.002646 325.09857 407.37277
430.0 0.002326 325.06970 421.85187
472.0 0.002119 325.04077 452.63791
500.0 0.002000 325.01178 506.61859
598.0 0.001672 324.98288 585.83582
722.0 0.001385 324.95383 670.73669
717.0 0.001395 324.92480 706.70520
637.0 0.001570 324.89581 666.74628
576.0 0.001736 324.86673 597.16553
501.0 0.001996 324.83765 542.72974
475.0 0.002105 324.80859 507.78162
437.0 0.002288 324.77945 479.18250
426.0 0.002347 324.75031 452.47253
411.0 0.002433 324.72116 433.45248
418.0 0.002392 324.69208 428.13370
460.0 0.002174 324.66290 436.57138
480.0 0.002083 324.63367 450.67563
448.0 0.002232 324.60443 454.37973
439.0 0.002278 324.57520 440.40308
397.0 0.002519 324.54596 425.02469
415.0 0.002410 324.51669 420.90887
428.0 0.002336 324.48743 428.66486
402.0 0.002488 324.45807 439.49002
428.0 0.002336 324.42880 437.59766
416.0 0.002404 324.39941 424.35312
413.0 0.002421 324.37018 413.34106
435.0 0.002299 324.34076 406.88245
404.0 0.002475 324.31143 398.48056
403.0 0.002481 324.28204 387.74316
358.0 0.002793 324.25256 380.13467
389.0 0.002571 324.22321 378.88577
407.0 0.002457 324.19379 384.36734
394.0 0.002538 324.16434 394.97244
432.0 0.002315 324.13492 405.86197
423.0 0.002364 324.10544 410.50803
410.0 0.002439 324.07602 414.41891
427.0 0.002342 324.04648 428.10608
499.0 0.002004 324.01700 454.89291
525.0 0.001905 323.98749 485.34720
521.0 0.001919 323.95795 497.27121
501.0 0.001996 323.92834 487.96030
459.0 0.002179 323.89874 480.93011
501.0 0.001996 323.86932 487.01074
506.0 0.001976 323.83972 490.02161
429.0 0.002331 323.81012 468.83014
423.0 0.002364 323.78052 433.80978
408.0 0.002451 323.75095 403.85330
396.0 0.002525 323.72141 384.03094
377.0 0.002653 323.69171 373.37503
366.0 0.002732 323.66205 369.24213
390.0 0.002564 323.63248 369.92499
407.0 0.002457 323.60281 376.21472
413.0 0.002421 323.57312 390.39252
443.0 0.002257 323.54346 414.67468
484.0 0.002066 323.51385 447.65237
485.0 0.002062 323.48422 476.92975
489.0 0.002045 323.45447 482.48541
467.0 0.002141 323.42480 466.22266
429.0 0.002331 323.39508 448.32880
433.0 0.002309 323.36536 437.59225
429.0 0.002331 323.33575 426.18179
404.0 0.002475 323.30597 407.58514
356.0 0.002809 323.27625 388.72351
346.0 0.002890 323.24658 375.37442
367.0 0.002725 323.21683 368.01230
346.0 0.002890 323.18707 365.56003
328.0 0.003049 323.15738 367.06665
388.0 0.002577 323.12766 371.63034
399.0 0.002506 323.09787 379.76962
359.0 0.002786 323.06808 392.21683
387.0 0.002584 323.03842 412.21512
441.0 0.002268 323.00864 444.10660
488.0 0.002049 322.97891 489.45615
556.0 0.001799 322.94907 546.75616
667.0 0.001499 322.91934 611.08844
669.0 0.001495 322.88962 655.90094
623.0 0.001605 322.85989 647.93774
524.0 0.001908 322.83008 602.38269
494.0 0.002024 322.80038 555.92572
462.0 0.002165 322.77060 519.77173
437.0 0.002288 322.74081 494.27548
452.0 0.002212 322.71103 483.61246
434.0 0.002304 322.68130 481.80368
410.0 0.002439 322.65152 474.07471
413.0 0.002421 322.62177 462.67084
438.0 0.002283 322.59204 460.26004
424.0 0.002358 322.56226 467.92181
433.0 0.002309 322.53250 473.96738
452.0 0.002212 322.50275 469.73578
455.0 0.002198 322.47302 467.23505
472.0 0.002119 322.44330 478.40869
481.0 0.002079 322.41357 501.42154
496.0 0.002016 322.38379 516.70660
511.0 0.001957 322.35403 506.71503
487.0 0.002053 322.32437 482.12122
451.0 0.002217 322.29453 460.35916
447.0 0.002237 322.26483 446.00787
437.0 0.002288 322.23520 441.83621
454.0 0.002203 322.20544 451.53976
504.0 0.001984 322.17572 472.27362
536.0 0.001866 322.14606 494.49326
516.0 0.001938 322.11627 507.19403
477.0 0.002096 322.08667 497.92996
448.0 0.002232 322.05698 473.82401
406.0 0.002463 322.02728 446.98523
375.0 0.002667 321.99759 420.81204
372.0 0.002688 321.96796 401.30981
387.0 0.002584 321.93832 392.26096
402.0 0.002488 321.90863 394.12082
419.0 0.002387 321.87897 405.72934
444.0 0.002252 321.84943 423.28299
456.0 0.002193 321.81973 436.23044
434.0 0.002304 321.79013 432.06866
405.0 0.002469 321.76056 417.38815
411.0 0.002433 321.73096 407.21829
417.0 0.002398 321.70132 409.41385
447.0 0.002237 321.67184 427.22592
503.0 0.001988 321.64224 459.86304
570.0 0.001754 321.61270 499.23596
588.0 0.001701 321.58316 527.57904
595.0 0.001681 321.55365 526.43219
546.0 0.001832 321.52408 494.16162
475.0 0.002105 321.49463 453.77670
432.0 0.002315 321.46518 422.30618
399.0 0.002506 321.43564 405.36197
397.0 0.002519 321.40622 403.48743
436.0 0.002294 321.37680 416.13211
482.0 0.002075 321.34735 441.43860
499.0 0.002004 321.31790 471.70551
502.0 0.001992 321.28854 490.90637
480.0 0.002083 321.25916 484.56885
440.0 0.002273 321.22977 460.84814
420.0 0.002381 321.20041 439.96054
439.0 0.002278 321.17102 432.78549
394.0 0.002538 321.14172 443.22275
489.0 0.002045 321.11243 469.61783
563.0 0.001776 321.08310 501.10825
569.0 0.001757 321.05389 513.16309
500.0 0.002000 321.02457 489.13571
430.0 0.002326 320.99530 447.70074
451.0 0.002217 320.96616 411.25546
378.0 0.002646 320.93695 386.69360
404.0 0.002475 320.90778 373.74329
386.0 0.002591 320.87863 370.18387
385.0 0.002597 320.84946 373.94168
408.0 0.002451 320.82037 383.21143
387.0 0.002584 320.79123 392.52084
396.0 0.002525 320.76215 393.08041
376.0 0.002660 320.73306 384.37057
379.0 0.002639 320.70407 374.58658
380.0 0.002632 320.67508 368.76602
340.0 0.002941 320.64606 368.68890
375.0 0.002667 320.61707 374.28638
361.0 0.002770 320.58807 382.41006
369.0 0.002710 320.55914 387.64264
382.0 0.002618 320.53024 383.97449
359.0 0.002786 320.50134 374.91736
355.0 0.002817 320.47253 367.17520
352.0 0.002841 320.44360 361.33371
351.0 0.002849 320.41483 357.25641
357.0 0.002801 320.38605 356.37222
354.0 0.002825 320.35727 359.35101
373.0 0.002681 320.32852 364.82892
373.0 0.002681 320.29984 368.79916
373.0 0.002681 320.27112 368.58295
356.0 0.002809 320.24243 368.92911
347.0 0.002882 320.21384 375.31271
389.0 0.002571 320.18521 390.49274
426.0 0.002347 320.15662 413.53622
483.0 0.002070 320.12808 437.10645
476.0 0.002101 320.09958 447.26599
430.0 0.002326 320.07104 433.39423
391.0 0.002558 320.04257 406.45178
369.0 0.002710 320.01410 382.15335
355.0 0.002817 319.98575 366.05209
336.0 0.002976 319.95734 356.32855
339.0 0.002950 319.92902 350.60181
351.0 0.002849 319.90063 347.99878
358.0 0.002793 319.87234 348.31650
370.0 0.002703 319.84406 351.02060
372.0 0.002688 319.81592 354.67667
375.0 0.002667 319.78766 357.94589
326.0 0.003067 319.75949 362.74991
348.0 0.002874 319.73132 372.26758
381.0 0.002625 319.70325 385.81668
394.0 0.002538 319.67514 398.12787
403.0 0.002481 319.64716 404.95816
401.0 0.002494 319.61920 404.48792
400.0 0.002500 319.59113 393.76584
381.0 0.002625 319.56323 375.75800
358.0 0.002793 319.53534 359.04214
337.0 0.002967 319.50745 347.16840
348.0 0.002874 319.47964 339.63153
328.0 0.003049 319.45181 335.19531
343.0 0.002915 319.42407 332.67520
334.0 0.002994 319.39636 331.30286
324.0 0.003086 319.36865 330.72043
330.0 0.003030 319.34100 330.87613
323.0 0.003096 319.31332 331.97107
344.0 0.002907 319.28577 334.10727
340.0 0.002941 319.25830 337.60297
355.0 0.002817 319.23071 341.79431
360.0 0.002778 319.20325 344.49622
371.0 0.002695 319.17587 343.77646
360.0 0.002778 319.14844 341.28275
350.0 0.002857 319.12112 339.39963
337.0 0.002967 319.09378 339.45511
342.0 0.002924 319.06659 342.64343
320.0 0.003125 319.03925 349.91388
351.0 0.002849 319.01218 362.37814
397.0 0.002519 318.98495 379.76581
404.0 0.002475 318.95786 397.22922
371.0 0.002695 318.93079 402.62497
386.0 0.002591 318.90375 390.73633
338.0 0.002959 318.87680 372.72009
327.0 0.003058 318.84985 357.86652
355.0 0.002817 318.82294 348.44293
342.0 0.002924 318.79617 343.61301
327.0 0.003058 318.76929 341.91739
346.0 0.002890 318.74255 342.15668
350.0 0.002857 318.71585 344.34021
366.0 0.002732 318.68915 349.62329
350.0 0.002857 318.66251 359.41528
355.0 0.002817 318.63596 373.83487
413.0 0.002421 318.60938 390.89771
443.0 0.002257 318.58298 401.98206
411.0 0.002433 318.55646 400.43655
403.0 0.002481 318.53006 393.30237
383.0 0.002611 318.50372 389.04111
360.0 0.002778 318.47733 386.36871
350.0 0.002857 318.45117 379.43488
364.0 0.002747 318.42493 369.28915
346.0 0.002890 318.39883 360.96588
335.0 0.002985 318.37265 356.47278
336.0 0.002976 318.34659 355.64996
357.0 0.002801 318.32056 358.31601
386.0 0.002591 318.29459 365.79358
382.0 0.002618 318.26871 380.44534
424.0 0.002358 318.24283 405.47049
483.0 0.002070 318.21698 442.88724
535.0 0.001869 318.19125 487.63971
565.0 0.001770 318.16553 521.09906
497.0 0.002012 318.13983 521.21039
440.0 0.002273 318.11429 491.61438
420.0 0.002381 318.08871 455.25778
423.0 0.002364 318.06323 427.52945
400.0 0.002500 318.03778 408.09052
365.0 0.002740 318.01236 392.23206
349.0 0.002865 317.98700 380.25427
355.0 0.002817 317.96173 374.14023
348.0 0.002874 317.93652 373.37219
353.0 0.002833 317.91135 374.99677
356.0 0.002809 317.88623 375.29578
371.0 0.002695 317.86111 374.73093
339.0 0.002950 317.83609 377.52090
375.0 0.002667 317.81119 387.38889
439.0 0.002278 317.78625 407.22501
455.0 0.002198 317.76144 436.18509
491.0 0.002037 317.73657 465.21613
529.0 0.001890 317.71185 477.04703
443.0 0.002257 317.68726 466.59637
455.0 0.002198 317.66260 446.23596
382.0 0.002618 317.63809 424.71243
389.0 0.002571 317.61353 405.79321
356.0 0.002809 317.58908 390.99011
364.0 0.002747 317.56473 380.73181
386.0 0.002591 317.54044 375.56345
330.0 0.003030 317.51614 375.30392
359.0 0.002786 317.49197 379.03082
382.0 0.002618 317.46780 384.50195
357.0 0.002801 317.44379 387.38062
365.0 0.002740 317.41974 386.23459
371.0 0.002695 317.39569 386.11914
419.0 0.002387 317.37186 392.62451
414.0 0.002415 317.34808 408.29303
406.0 0.002463 317.32431 431.39441
413.0 0.002421 317.30057 452.97891
453.0 0.002208 317.27698 462.58380
473.0 0.002114 317.25339 466.69571
481.0 0.002079 317.22980 475.85715
484.0 0.002066 317.20633 486.91306
484.0 0.002066 317.18301 486.74039
469.0 0.002132 317.15967 472.81445
452.0 0.002212 317.13644 457.54083
458.0 0.002183 317.11322 448.11386
463.0 0.002160 317.09009 445.23511
442.0 0.002262 317.06705 445.28470
454.0 0.002203 317.04407 445.46307
451.0 0.002217 317.02115 446.87430
421.0 0.002375 316.99826 446.10611
414.0 0.002415 316.97549 438.31635
438.0 0.002283 316.95276 428.85809
422.0 0.002370 316.93011 427.56989
449.0 0.002227 316.90753 437.78018
455.0 0.002198 316.88501 457.19406
449.0 0.002227 316.86258 479.64178
450.0 0.002222 316.84024 500.84299
503.0 0.001988 316.81784 521.24750
547.0 0.001828 316.79562 547.05396
572.0 0.001748 316.77344 573.93274
614.0 0.001629 316.75137 585.47485
561.0 0.001783 316.72934 568.52942
496.0 0.002016 316.70740 529.56799
482.0 0.002075 316.68549 489.06467
419.0 0.002387 316.66376 459.72220
437.0 0.002288 316.64194 444.31970
489.0 0.002045 316.62027 442.66373
485.0 0.002062 316.59869 448.38528
485.0 0.002062 316.57715 449.23038
466.0 0.002146 316.55573 437.05658
422.0 0.002370 316.53439 417.81039
393.0 0.002545 316.51300 401.92139
355.0 0.002817 316.49182 394.85492
387.0 0.002584 316.47070 395.33975
363.0 0.002755 316.44962 398.49594
406.0 0.002463 316.42862 401.89706
397.0 0.002519 316.40768 408.88538
434.0 0.002304 316.38690 419.95313
408.0 0.002451 316.36612 426.85950
399.0 0.002506 316.34540 420.27966
381.0 0.002625 316.32483 402.27805
398.0 0.002513 316.30426 382.71381
351.0 0.002849 316.28381 368.55594
378.0 0.002646 316.26346 361.55325
376.0 0.002660 316.24316 360.95276
399.0 0.002506 316.22293 364.65897
379.0 0.002639 316.20279 368.38290
369.0 0.002710 316.18271 367.13818
377.0 0.002653 316.16269 361.47519
339.0 0.002950 316.14282 354.71973
354.0 0.002825 316.12305 348.50256
355.0 0.002817 316.10330 343.34656
344.0 0.002907 316.08362 340.16217
359.0 0.002786 316.06400 339.02368
347.0 0.002882 316.04453 340.10403
353.0 0.002833 316.02515 342.54102
360.0 0.002778 316.00580 345.49448
352.0 0.002841 315.98654 349.41403
364.0 0.002747 315.96732 356.47079
401.0 0.002494 315.94821 368.20132
417.0 0.002398 315.92929 383.20471
438.0 0.002283 315.91034 394.59998
426.0 0.002347 315.89148 393.20996
378.0 0.002646 315.87274 380.57013
370.0 0.002703 315.85410 365.65350
353.0 0.002833 315.83560 353.48138
360.0 0.002778 315.81702 345.58328
355.0 0.002817 315.79865 341.01227
326.0 0.003067 315.78033 338.12024
336.0 0.002976 315.76205 336.31491
329.0 0.003040 315.74390 335.61835
338.0 0.002959 315.72586 336.19925
325.0 0.003077 315.70795 338.10086
343.0 0.002915 315.69000 342.11209
367.0 0.002725 315.67221 347.78119
337.0 0.002967 315.65448 355.09100
378.0 0.002646 315.63687 363.96790
358.0 0.002793 315.61932 372.76736
363.0 0.002755 315.60190 380.58084
391.0 0.002558 315.58447 387.75092
397.0 0.002519 315.56723 393.29031
431.0 0.002320 315.55011 399.52386
454.0 0.002203 315.53299 413.68430
478.0 0.002092 315.51599 439.40878
500.0 0.002000 315.49911 473.50739
509.0 0.001965 315.48227 498.36771
472.0 0.002119 315.46552 490.54428
378.0 0.002646 315.44894 455.67453
373.0 0.002681 315.43243 417.38135
380.0 0.002632 315.41589 388.17099
385.0 0.002597 315.39957 369.42691
346.0 0.002890 315.38333 359.40305
342.0 0.002924 315.36719 355.23364
336.0 0.002976 315.35104 355.70020
347.0 0.002882 315.33508 359.89255
345.0 0.002899 315.31921 366.46198
359.0 0.002786 315.30344 373.54037
371.0 0.002695 315.28775 378.72470
380.0 0.002632 315.27209 378.84732
371.0 0.002695 315.25653 376.10577
393.0 0.002545 315.24124 377.02945
378.0 0.002646 315.22592 385.27020
426.0 0.002347 315.21066 400.14221
413.0 0.002421 315.19553 415.22574
417.0 0.002398 315.18051 418.23648
397.0 0.002519 315.16559 406.40179
385.0 0.002597 315.15073 390.91885
381.0 0.002625 315.13602 380.38641
386.0 0.002591 315.12134 376.07840
378.0 0.002646 315.10681 375.29428
370.0 0.002703 315.09238 373.51947
361.0 0.002770 315.07800 369.05618
375.0 0.002667 315.06381 365.79059
361.0 0.002770 315.04965 367.46326
374.0 0.002674 315.03561 375.99356
395.0 0.002532 315.02167 391.43170
406.0 0.002463 315.00778 411.71356
415.0 0.002410 314.99411 432.35565
439.0 0.002278 314.98044 445.22989
428.0 0.002336 314.96689 438.74463
390.0 0.002564 314.95346 416.06311
377.0 0.002653 314.94006 391.02365
385.0 0.002597 314.92685 371.35751
349.0 0.002865 314.91373 358.51691
345.0 0.002899 314.90060 351.64047
353.0 0.002833 314.88773 349.32492
363.0 0.002755 314.87494 350.12372
340.0 0.002941 314.86218 352.48926
351.0 0.002849 314.84961 354.79565
355.0 0.002817 314.83704 355.78894
368.0 0.002717 314.82465 357.00375
369.0 0.002710 314.81235 361.10696
346.0 0.002890 314.80014 369.93167
375.0 0.002667 314.78806 384.16470
427.0 0.002342 314.77606 403.54770
449.0 0.002227 314.76416 428.06189
470.0 0.002128 314.75235 455.86478
505.0 0.001980 314.74069 476.20596
449.0 0.002227 314.72906 478.41110
433.0 0.002309 314.71762 469.36420
460.0 0.002174 314.70630 463.60330
497.0 0.002012 314.69501 463.97476
450.0 0.002222 314.68384 460.62619
451.0 0.002217 314.67282 449.07925
433.0 0.002309 314.66187 438.86722
446.0 0.002242 314.65103 435.86514
442.0 0.002262 314.64032 434.78598
414.0 0.002415 314.62976 427.39450
391.0 0.002558 314.61923 413.94550
396.0 0.002525 314.60886 398.48138
385.0 0.002597 314.59854 385.17279
365.0 0.002740 314.58835 377.03433
351.0 0.002849 314.57834 374.53436
353.0 0.002833 314.56836 375.80255
398.0 0.002513 314.55853 380.54568
364.0 0.002747 314.54883 388.46899
402.0 0.002488 314.53918 397.03491
407.0 0.002457 314.52966 402.66263
401.0 0.002494 314.52020 406.28232
422.0 0.002370 314.51099 408.28207
396.0 0.002525 314.50177 407.57672
369.0 0.002710 314.49274 401.41525
379.0 0.002639 314.48376 392.89224
390.0 0.002564 314.47495 387.54425
392.0 0.002551 314.46622 386.10187
360.0 0.002778 314.45755 384.29977
369.0 0.002710 314.44907 379.09409
381.0 0.002625 314.44070 371.81589
390.0 0.002564 314.43240 364.50781
379.0 0.002639 314.42422 359.53159
364.0 0.002747 314.41620 358.50839
379.0 0.002639 314.40829 362.39511
376.0 0.002660 314.40042 372.07535
413.0 0.002421 314.39270 388.10611
445.0 0.002247 314.38513 409.64166
463.0 0.002160 314.37772 430.76944
439.0 0.002278 314.37033 441.15121
422.0 0.002370 314.36304 436.92715
424.0 0.002358 314.35593 422.54300
417.0 0.002398 314.34891 406.33652
405.0 0.002469 314.34204 394.16437
396.0 0.002525 314.33530 385.75342
370.0 0.002703 314.32858 378.53937
372.0 0.002688 314.32199 373.18430
366.0 0.002732 314.31561 371.80643
392.0 0.002551 314.30927 375.56964
420.0 0.002381 314.30316 385.46915
414.0 0.002415 314.29706 401.91339
432.0 0.002315 314.29105 423.76724
494.0 0.002024 314.28525 448.30020
477.0 0.002096 314.27957 473.90536
502.0 0.001992 314.27393 499.82477
530.0 0.001887 314.26846 523.40625
516.0 0.001938 314.26306 534.47821
505.0 0.001980 314.25787 521.79865
458.0 0.002183 314.25278 491.06973
425.0 0.002353 314.24771 456.96603
411.0 0.002433 314.24283 428.46664
413.0 0.002421 314.23804 408.75192
398.0 0.002513 314.23343 398.33533
391.0 0.002558 314.22894 395.11624
359.0 0.002786 314.22452 398.09518
433.0 0.002309 314.22025 408.82425
477.0 0.002096 314.21609 429.31595
452.0 0.002212 314.21204 458.91800
546.0 0.001832 314.20816 494.39713
535.0 0.001869 314.20432 528.90283
558.0 0.001792 314.20062 548.00275
485.0 0.002062 314.19717 541.59064
483.0 0.002070 314.19370 523.63965
470.0 0.002128 314.19049 511.89444
530.0 0.001887 314.18723 512.99225
526.0 0.001901 314.18417 524.72675
574.0 0.001742 314.18124 542.94800
607.0 0.001647 314.17844 566.02576
595.0 0.001681 314.17572 580.23846
555.0 0.001802 314.17325 561.86761
500.0 0.002000 314.17075 514.84625
421.0 0.002375 314.16843 465.12112
382.0 0.002618 314.16620 426.92728
395.0 0.002532 314.16425 403.31903
415.0 0.002410 314.16223 392.71335
378.0 0.002646 314.16040 392.52582
362.0 0.002762 314.15875 399.64471
410.0 0.002439 314.15714 410.35840
431.0 0.002320 314.15579 420.34680
432.0 0.002315 314.15442 422.51108
425.0 0.002353 314.15323 412.28528
388.0 0.002577 314.15222 397.28156
380.0 0.002632 314.15125 386.37607
406.0 0.002463 314.15042 383.69443
424.0 0.002358 314.14978 390.76584
428.0 0.002336 314.14929 407.10657
436.0 0.002294 314.14880 429.08582
450.0 0.002222 314.14853 445.82791
426.0 0.002347 314.14838 442.61362
386.0 0.002591 314.14832 420.61182
364.0 0.002747 314.14838 394.38312
368.0 0.002717 314.14865 372.93671
360.0 0.002778 314.14902 357.98499
334.0 0.002994 314.14944 348.68176
350.0 0.002857 314.15002 343.38425
373.0 0.002681 314.15073 340.80350
337.0 0.002967 314.15158 340.41370
363.0 0.002755 314.15265 341.92755
376.0 0.002660 314.15378 345.55801
360.0 0.002778 314.15500 351.42899
361.0 0.002770 314.15631 359.53726
393.0 0.002545 314.15787 367.48337
355.0 0.002817 314.15948 371.42914
357.0 0.002801 314.16129 369.84506
339.0 0.002950 314.16315 366.31073
360.0 0.002778 314.16522 365.03473
338.0 0.002959 314.16730 368.04041
356.0 0.002809 314.16965 375.78241
369.0 0.002710 314.17209 389.09912
426.0 0.002347 314.17462 410.04861
465.0 0.002151 314.17728 439.14066
503.0 0.001988 314.18008 470.45535
475.0 0.002105 314.18304 486.17169
447.0 0.002237 314.18607 472.99500
402.0 0.002488 314.18930 442.19852
386.0 0.002591 314.19263 412.46078
397.0 0.002519 314.19614 391.77420
339.0 0.002950 314.19977 381.17059
364.0 0.002747 314.20340 378.53436
408.0 0.002451 314.20737 380.35608
346.0 0.002890 314.21136 382.30743
424.0 0.002358 314.21552 384.08002
360.0 0.002778 314.21973 386.81668
390.0 0.002564 314.22409 393.93848
414.0 0.002415 314.22861 408.98029
504.0 0.001984 314.23334 432.50693
525.0 0.001905 314.23813 459.38852
542.0 0.001845 314.24307 477.38800
473.0 0.002114 314.24808 480.34436
500.0 0.002000 314.25330 479.10806
487.0 0.002053 314.25867 483.28458
489.0 0.002045 314.26416 486.51480
447.0 0.002237 314.26974 473.94778
426.0 0.002347 314.27548 444.81149
398.0 0.002513 314.28134 413.03690
380.0 0.002632 314.28735 387.91803
394.0 0.002538 314.29346 371.19376
374.0 0.002674 314.29977 361.61096
348.0 0.002874 314.30612 356.73755
357.0 0.002801 314.31271 353.90552
371.0 0.002695 314.31940 352.83905
368.0 0.002717 314.32620 354.10495
361.0 0.002770 314.33316 358.66730
372.0 0.002688 314.34027 367.14578
422.0 0.002370 314.34744 379.33502
438.0 0.002283 314.35480 392.37033
408.0 0.002451 314.36227 400.34229
409.0 0.002445 314.36993 398.71075
410.0 0.002439 314.37772 391.28418
413.0 0.002421 314.38559 385.47159
394.0 0.002538 314.39368 384.07452
398.0 0.002513 314.40182 384.72192
393.0 0.002545 314.41016 384.30695
395.0 0.002532 314.41852 383.16544
373.0 0.002681 314.42715 380.98389
365.0 0.002740 314.43591 375.61542
346.0 0.002890 314.44476 367.98956
377.0 0.002653 314.45374 362.06830
366.0 0.002732 314.46289 359.17569
343.0 0.002915 314.47217 357.67630
341.0 0.002933 314.48154 354.35526
362.0 0.002762 314.49112 349.40723
338.0 0.002959 314.50076 344.97113
342.0 0.002924 314.51062 342.41626
327.0 0.003058 314.52054 341.63745
362.0 0.002762 314.53064 341.85101
348.0 0.002874 314.54086 343.85046
361.0 0.002770 314.55130 347.45200
357.0 0.002801 314.56174 351.77045
373.0 0.002681 314.57242 354.44705
329.0 0.003040 314.58313 354.04041
356.0 0.002809 314.59412 352.54501
347.0 0.002882 314.60519 352.33270
395.0 0.002532 314.61639 352.67111
384.0 0.002604 314.62769 351.83707
342.0 0.002924 314.63922 348.94492
353.0 0.002833 314.65085 345.84601
363.0 0.002755 314.66260 344.40549
367.0 0.002725 314.67444 344.43112
373.0 0.002681 314.68649 344.79495
357.0 0.002801 314.69867 343.50775
358.0 0.002793 314.71094 340.73663
338.0 0.002959 314.72339 337.99600
336.0 0.002976 314.73593 336.49338
350.0 0.002857 314.74878 336.65674
337.0 0.002967 314.76160 338.45560
313.0 0.003195 314.77460 340.94839
369.0 0.002710 314.78772 343.38129
340.0 0.002941 314.80106 345.55692
341.0 0.002933 314.81448 347.25806
332.0 0.003012 314.82803 349.20261
347.0 0.002882 314.84174 353.33606
365.0 0.002740 314.85559 360.58115
385.0 0.002597 314.86954 369.75195
369.0 0.002710 314.88364 378.52328
377.0 0.002653 314.89798 382.20013
363.0 0.002755 314.91235 377.31821
368.0 0.002717 314.92688 366.86731
360.0 0.002778 314.94153 356.68103
357.0 0.002801 314.95639 349.28812
348.0 0.002874 314.97137 344.53098
358.0 0.002793 314.98651 341.75836
377.0 0.002653 315.00177 340.75467
366.0 0.002732 315.01706 341.49133
355.0 0.002817 315.03259 344.20776
356.0 0.002809 315.04822 348.79099
361.0 0.002770 315.06406 355.78479
412.0 0.002427 315.08005 366.06406
436.0 0.002294 315.09610 380.73178
446.0 0.002242 315.11234 399.61752
463.0 0.002160 315.12869 419.14206
504.0 0.001984 315.14520 435.73569
517.0 0.001934 315.16183 448.14908
461.0 0.002169 315.17865 453.58881
465.0 0.002151 315.19559 451.44562
451.0 0.002217 315.21262 446.01205
451.0 0.002217 315.22986 441.27234
418.0 0.002392 315.24719 438.57959
437.0 0.002288 315.26471 438.20905
451.0 0.002217 315.28235 442.46341
456.0 0.002193 315.30011 452.26462
456.0 0.002193 315.31802 463.62750
449.0 0.002227 315.33609 472.73941
466.0 0.002146 315.35425 479.07953
459.0 0.002179 315.37259 481.83163
460.0 0.002174 315.39105 483.52786
467.0 0.002141 315.40973 489.70538
526.0 0.001901 315.42847 498.18121
490.0 0.002041 315.44736 498.25626
440.0 0.002273 315.46640 487.35480
451.0 0.002217 315.48560 473.26807
474.0 0.002110 315.50485 461.36087
446.0 0.002242 315.52438 450.12527
415.0 0.002410 315.54395 435.76450
364.0 0.002747 315.56366 419.65430
411.0 0.002433 315.58356 406.88953
402.0 0.002488 315.60364 400.02512
369.0 0.002710 315.62381 398.18048
398.0 0.002513 315.64404 399.77881
374.0 0.002674 315.66452 405.09399
413.0 0.002421 315.68509 413.51834
448.0 0.002232 315.70587 421.89526
423.0 0.002364 315.72678 428.02972
444.0 0.002252 315.74768 432.13489
406.0 0.002463 315.76892 434.43805
404.0 0.002475 315.79013 437.82944
428.0 0.002336 315.81161 447.54736
450.0 0.002222 315.83322 463.17209
471.0 0.002123 315.85492 480.77011
514.0 0.001946 315.87671 497.56149
497.0 0.002012 315.89874 510.35611
466.0 0.002146 315.92090 509.24786
450.0 0.002222 315.94315 491.05145
445.0 0.002247 315.96558 468.10941
438.0 0.002283 315.98819 452.87888
448.0 0.002232 316.01080 450.37741
454.0 0.002203 316.03369 459.16739
463.0 0.002160 316.05661 471.37308
473.0 0.002114 316.07977 477.22992
464.0 0.002155 316.10300 474.23187
454.0 0.002203 316.12640 465.60736
468.0 0.002137 316.14999 456.14368
456.0 0.002193 316.17368 448.11591
414.0 0.002415 316.19748 438.13544
407.0 0.002457 316.22147 423.49298
404.0 0.002475 316.24554 408.95972
392.0 0.002551 316.26984 399.69196
379.0 0.002639 316.29425 398.48456
393.0 0.002545 316.31870 405.74100
438.0 0.002283 316.34338 420.60730
475.0 0.002105 316.36823 439.55905
479.0 0.002088 316.39319 455.38852
489.0 0.002045 316.41827 462.22690
449.0 0.002227 316.44345 459.19608
436.0 0.002294 316.46878 448.52594
455.0 0.002198 316.49432 437.55713
424.0 0.002358 316.51999 432.36212
410.0 0.002439 316.54575 432.84094
420.0 0.002381 316.57166 434.89111
449.0 0.002227 316.59775 436.33835
449.0 0.002227 316.62396 439.69965
429.0 0.002331 316.65027 447.81564
500.0 0.002000 316.67676 461.97095
531.0 0.001883 316.70334 476.18906
466.0 0.002146 316.73016 478.12625
456.0 0.002193 316.75705 461.70367
426.0 0.002347 316.78412 435.31927
423.0 0.002364 316.81131 410.15430
367.0 0.002725 316.83856 391.48257
377.0 0.002653 316.86606 380.38855
402.0 0.002488 316.89365 376.16409
366.0 0.002732 316.92139 377.51968
390.0 0.002564 316.94925 382.23926
422.0 0.002370 316.97723 386.80701
396.0 0.002525 317.00546 388.65137
384.0 0.002604 317.03372 389.85172
387.0 0.002584 317.06216 395.41867
444.0 0.002252 317.09067 409.44342
446.0 0.002242 317.11942 434.09433
525.0 0.001905 317.14832 468.78775
582.0 0.001718 317.17722 507.30606
587.0 0.001704 317.20636 533.54773
549.0 0.001821 317.23560 532.55194
462.0 0.002165 317.26498 510.83945
440.0 0.002273 317.29453 483.45065
437.0 0.002288 317.32419 455.31256
407.0 0.002457 317.35403 429.42279
415.0 0.002410 317.38400 409.39191
394.0 0.002538 317.41400 395.74817
369.0 0.002710 317.44427 385.99142
364.0 0.002747 317.47461 377.13315
333.0 0.003003 317.50513 368.65601
352.0 0.002841 317.53577 362.09384
353.0 0.002833 317.56650 357.97278
346.0 0.002890 317.59741 356.76651
351.0 0.002849 317.62851 358.70776
366.0 0.002732 317.65964 364.46646
382.0 0.002618 317.69098 375.68945
398.0 0.002513 317.72238 393.82312
435.0 0.002299 317.75403 419.86105
499.0 0.002004 317.78571 451.96021
521.0 0.001919 317.81766 481.76910
481.0 0.002079 317.84958 493.62659
464.0 0.002155 317.88171 479.31259
437.0 0.002288 317.91409 450.03391
418.0 0.002392 317.94635 420.90717
393.0 0.002545 317.97897 399.10040
363.0 0.002755 318.01163 386.18118
365.0 0.002740 318.04440 380.90158
375.0 0.002667 318.07736 381.45432
373.0 0.002681 318.11044 386.22952
391.0 0.002558 318.14368 394.63422
415.0 0.002410 318.17703 406.77591
420.0 0.002381 318.21048 420.51135
449.0 0.002227 318.24417 432.75409
479.0 0.002088 318.27786 440.75522
455.0 0.002198 318.31183 439.97104
439.0 0.002278 318.34583 430.22354
413.0 0.002421 318.37997 418.28271
422.0 0.002370 318.41431 411.69824
387.0 0.002584 318.44867 413.95105
431.0 0.002320 318.48322 424.98843
428.0 0.002336 318.51794 440.86932
438.0 0.002283 318.55270 453.63712
409.0 0.002445 318.58774 456.89557
423.0 0.002364 318.62277 453.44327
412.0 0.002427 318.65805 449.82590
425.0 0.002353 318.69345 445.88391
407.0 0.002457 318.72885 436.97504
397.0 0.002519 318.76456 424.17136
386.0 0.002591 318.80029 413.01279
414.0 0.002415 318.83615 406.55533
369.0 0.002710 318.87219 406.19946
428.0 0.002336 318.90833 411.85349
422.0 0.002370 318.94467 422.38843
426.0 0.002347 318.98105 432.97278
435.0 0.002299 319.01764 436.90152
379.0 0.002639 319.05429 429.33780
390.0 0.002564 319.09103 413.35471
374.0 0.002674 319.12799 396.19452
376.0 0.002660 319.16510 383.02908
375.0 0.002667 319.20236 375.68970
358.0 0.002793 319.23969 373.86557
358.0 0.002793 319.27707 375.65222
363.0 0.002755 319.31470 378.13538
370.0 0.002703 319.35242 379.11548
358.0 0.002793 319.39032 379.22269
372.0 0.002688 319.42828 379.48639
375.0 0.002667 319.46640 378.16595
365.0 0.002740 319.50467 373.23431
327.0 0.003058 319.54300 366.22083
335.0 0.002985 319.58148 359.62503
342.0 0.002924 319.62015 354.53497
335.0 0.002985 319.65887 351.39822
346.0 0.002890 319.69778 350.98471
347.0 0.002882 319.73682 352.44937
331.0 0.003021 319.77603 354.47943
352.0 0.002841 319.81525 354.36160
368.0 0.002717 319.85458 351.20078
360.0 0.002778 319.89423 346.41345
341.0 0.002933 319.93381 341.59271
333.0 0.003003 319.97369 337.68137
348.0 0.002874 320.01349 335.08124
350.0 0.002857 320.05356 333.50598
368.0 0.002717 320.09375 332.82330
360.0 0.002778 320.13409 332.97107
339.0 0.002950 320.17444 333.88400
325.0 0.003077 320.21506 335.88834
361.0 0.002770 320.25568 339.27005
365.0 0.002740 320.29648 344.17947
367.0 0.002725 320.33740 350.32956
363.0 0.002755 320.37848 356.93448
396.0 0.002525 320.41968 362.46259
376.0 0.002660 320.46097 364.42596
363.0 0.002755 320.50232 361.05511
342.0 0.002924 320.54395 354.03180
326.0 0.003067 320.58563 346.66718
332.0 0.003012 320.62744 340.76288
324.0 0.003086 320.66931 336.66385
356.0 0.002809 320.71136 334.28378
363.0 0.002755 320.75354 333.28726
377.0 0.002653 320.79584 333.37747
343.0 0.002915 320.83829 334.81870
368.0 0.002717 320.88083 337.66699
351.0 0.002849 320.92349 342.22836
394.0 0.002538 320.96631 348.32028
400.0 0.002500 321.00919 355.16556
392.0 0.002551 321.05225 360.35480
349.0 0.002865 321.09534 360.97202
351.0 0.002849 321.13867 357.64832
397.0 0.002519 321.18204 353.70016
372.0 0.002688 321.22562 351.11957
325.0 0.003077 321.26920 350.15155
379.0 0.002639 321.31296 350.01233
356.0 0.002809 321.35690 349.06876
318.0 0.003145 321.40091 346.28867
348.0 0.002874 321.44504 342.14270
354.0 0.002825 321.48923 338.25092
336.0 0.002976 321.53360 335.03632
343.0 0.002915 321.57809 332.79745
346.0 0.002890 321.62268 331.48819
323.0 0.003096 321.66742 330.91895
342.0 0.002924 321.71231 330.86118
352.0 0.002841 321.75723 331.55594
345.0 0.002899 321.80228 332.98499
367.0 0.002725 321.84753 335.24036
354.0 0.002825 321.89288 338.30057
354.0 0.002825 321.93832 341.77304
372.0 0.002688 321.98383 344.55042
365.0 0.002740 322.02954 345.14899
325.0 0.003077 322.07535 343.51135
329.0 0.003040 322.12122 341.30685
346.0 0.002890 322.16727 339.83136
333.0 0.003003 322.21335 339.75885
352.0 0.002841 322.25964 341.41333
363.0 0.002755 322.30600 345.28680
348.0 0.002874 322.35257 351.53680
365.0 0.002740 322.39914 360.11133
382.0 0.002618 322.44583 369.93640
363.0 0.002755 322.49277 377.68866
379.0 0.002639 322.53964 379.16156
396.0 0.002525 322.58670 374.37341
374.0 0.002674 322.63391 367.65979
369.0 0.002710 322.68121 362.30215
371.0 0.002695 322.72867 360.09924
360.0 0.002778 322.77612 361.69177
327.0 0.003058 322.82382 367.65668
371.0 0.002695 322.87155 378.74161
424.0 0.002358 322.91931 395.22025
443.0 0.002257 322.96738 415.67120
447.0 0.002237 323.01547 435.06247
474.0 0.002110 323.06369 445.88809
467.0 0.002141 323.11200 443.86011
386.0 0.002591 323.16040 430.80908
376.0 0.002660 323.20898 411.59961
344.0 0.002907 323.25757 392.65195
354.0 0.002825 323.30634 378.16220
343.0 0.002915 323.35526 369.27298
324.0 0.003086 323.40414 365.41458
386.0 0.002591 323.45334 365.39795
339.0 0.002950 323.50250 367.06860
369.0 0.002710 323.55185 367.61298
372.0 0.002688 323.60126 365.73254
392.0 0.002551 323.65076 362.64798
385.0 0.002597 323.70044 359.91254
345.0 0.002899 323.75018 358.14899
339.0 0.002950 323.80011 358.13461
346.0 0.002890 323.85001 360.69684
371.0 0.002695 323.90005 366.50528
407.0 0.002457 323.95029 375.81454
394.0 0.002538 324.00052 387.78436
426.0 0.002347 324.05103 399.97424
404.0 0.002475 324.10150 408.70789
424.0 0.002358 324.15207 410.54910
399.0 0.002506 324.20276 405.74255
374.0 0.002674 324.25369 397.07010
382.0 0.002618 324.30453 388.27048
375.0 0.002667 324.35562 381.99365
369.0 0.002710 324.40668 378.57867
363.0 0.002755 324.45798 377.43442
363.0 0.002755 324.50931 379.39520
378.0 0.002646 324.56085 386.22702
411.0 0.002433 324.61243 399.22552
467.0 0.002141 324.66400 418.24420
496.0 0.002016 324.71576 440.40906
502.0 0.001992 324.76764 457.82346
452.0 0.002212 324.81970 459.92297
414.0 0.002415 324.87170 444.94897
386.0 0.002591 324.92389 422.81134
379.0 0.002639 324.97623 402.71609
379.0 0.002639 325.02856 388.53571
385.0 0.002597 325.08115 380.79526
376.0 0.002660 325.13370 378.71771
379.0 0.002639 325.18631 381.20102
415.0 0.002410 325.23920 387.09879
418.0 0.002392 325.29202 394.49347
403.0 0.002481 325.34506 400.36819
394.0 0.002538 325.39816 401.74124
382.0 0.002618 325.45139 398.85571
393.0 0.002545 325.50467 394.81049
403.0 0.002481 325.55801 392.06885
408.0 0.002451 325.61157 392.64111
412.0 0.002427 325.66516 398.09351
415.0 0.002410 325.71878 408.51343
449.0 0.002227 325.77261 423.39413
474.0 0.002110 325.82648 441.97339
505.0 0.001980 325.88049 461.91974
530.0 0.001887 325.93460 477.05942
499.0 0.002004 325.98868 482.07947
487.0 0.002053 326.04300 479.32007
497.0 0.002012 326.09732 472.20804
463.0 0.002160 326.15186 459.02750
395.0 0.002532 326.20642 439.74060
419.0 0.002387 326.26105 420.27557
377.0 0.002653 326.31583 406.00589
430.0 0.002326 326.37073 399.03455
397.0 0.002519 326.42557 398.93878
455.0 0.002198 326.48074 404.05374
432.0 0.002315 326.53583 410.59747
383.0 0.002611 326.59103 413.77899
419.0 0.002387 326.64636 410.50546
370.0 0.002703 326.70178 401.94507
357.0 0.002801 326.75729 392.44293
345.0 0.002899 326.81290 385.34863
369.0 0.002710 326.86856 381.38574
385.0 0.002597 326.92435 379.73322
380.0 0.002632 326.98026 379.79849
397.0 0.002519 327.03622 381.41797
381.0 0.002625 327.09225 384.29996
387.0 0.002584 327.14847 387.47968
395.0 0.002532 327.20462 390.62955
392.0 0.002551 327.26102 394.00430
401.0 0.002494 327.31747 396.25897
384.0 0.002604 327.37393 395.12485
381.0 0.002625 327.43060 391.29831
375.0 0.002667 327.48727 388.57928
370.0 0.002703 327.54404 390.51065
380.0 0.002632 327.60092 399.07556
420.0 0.002381 327.65787 415.13464
488.0 0.002049 327.71494 437.73196
494.0 0.002024 327.77203 462.10553
503.0 0.001988 327.82932 478.00974
468.0 0.002137 327.88654 475.03522
416.0 0.002404 327.94391 455.11938
392.0 0.002551 328.00146 429.09763
373.0 0.002681 328.05896 405.42389
371.0 0.002695 328.11673 386.82147
363.0 0.002755 328.17444 373.49231
358.0 0.002793 328.23218 364.54965
363.0 0.002755 328.29016 358.76373
354.0 0.002825 328.34811 354.97711
330.0 0.003030 328.40628 352.86661
339.0 0.002950 328.46442 351.91354
358.0 0.002793 328.52261 351.91730
372.0 0.002688 328.58096 352.82462
382.0 0.002618 328.63934 354.82727
366.0 0.002732 328.69788 358.26495
371.0 0.002695 328.75653 363.68613
395.0 0.002532 328.81512 371.81064
389.0 0.002571 328.87390 383.29739
400.0 0.002500 328.93265 398.13437
415.0 0.002410 328.99164 415.28641
450.0 0.002222 329.05063 432.79364
458.0 0.002183 329.10968 448.28592
497.0 0.002012 329.16879 460.05823
497.0 0.002012 329.22803 469.65759
511.0 0.001957 329.28732 479.43649
515.0 0.001942 329.34677 487.02222
503.0 0.001988 329.40619 488.12158
482.0 0.002075 329.46579 480.85925
460.0 0.002174 329.52533 464.41028
422.0 0.002370 329.58508 441.41696
431.0 0.002320 329.64493 418.39539
370.0 0.002703 329.70474 399.88293
414.0 0.002415 329.76468 386.70987
363.0 0.002755 329.82474 378.60370
350.0 0.002857 329.88477 374.56168
372.0 0.002688 329.94498 373.69852
396.0 0.002525 330.00522 374.23392
330.0 0.003030 330.06552 374.52625
399.0 0.002506 330.12592 374.36847
344.0 0.002907 330.18643 374.94397
358.0 0.002793 330.24698 377.05536
386.0 0.002591 330.30753 380.27808
379.0 0.002639 330.36829 383.50491
379.0 0.002639 330.42902 386.74753
411.0 0.002433 330.48990 391.39233
418.0 0.002392 330.55084 399.00620
408.0 0.002451 330.61172 409.18890
441.0 0.002268 330.67285 419.05618
444.0 0.002252 330.73398 424.94989
427.0 0.002342 330.79520 425.78784
420.0 0.002381 330.85648 422.07312
421.0 0.002375 330.91779 415.03018
395.0 0.002532 330.97922 407.26923
378.0 0.002646 331.04068 399.89844
380.0 0.002632 331.10229 392.35690
383.0 0.002611 331.16394 385.21826
367.0 0.002725 331.22559 379.75214
348.0 0.002874 331.28738 376.44122
349.0 0.002865 331.34924 375.18610
353.0 0.002833 331.41119 375.62082
362.0 0.002762 331.47314 377.60065
377.0 0.002653 331.53522 381.37677
379.0 0.002639 331.59735 386.62961
378.0 0.002646 331.65948 391.57626
385.0 0.002597 331.72177 393.87317
392.0 0.002551 331.78415 394.29266
389.0 0.002571 331.84647 395.60971
407.0 0.002457 331.90897 400.68958
431.0 0.002320 331.97144 410.79868
442.0 0.002262 332.03406 425.11157
470.0 0.002128 332.09668 439.87595
450.0 0.002222 332.15939 449.09909
433.0 0.002309 332.22223 449.16983
414.0 0.002415 332.28506 442.49506
431.0 0.002320 332.34799 433.77429
454.0 0.002203 332.41101 426.27829
422.0 0.002370 332.47400 420.30289
396.0 0.002525 332.53714 414.63794
381.0 0.002625 332.60025 409.08386
398.0 0.002513 332.66354 403.75430
386.0 0.002591 332.72684 397.88742
375.0 0.002667 332.79013 391.13644
366.0 0.002732 332.85361 385.11752
373.0 0.002681 332.91705 381.46228
388.0 0.002577 332.98059 380.59506
381.0 0.002625 333.04425 382.06564
396.0 0.002525 333.10785 384.72244
380.0 0.002632 333.17160 388.45200
448.0 0.002232 333.23541 394.12302
454.0 0.002203 333.29926 402.48367
414.0 0.002415 333.36316 412.56256
418.0 0.002392 333.42703 422.22607
432.0 0.002315 333.49115 429.67310
438.0 0.002283 333.55521 434.94827
455.0 0.002198 333.61942 439.03473
485.0 0.002062 333.68362 443.67462
493.0 0.002028 333.74777 452.19626
468.0 0.002137 333.81213 466.37582
499.0 0.002004 333.87650 484.71521
545.0 0.001835 333.94098 499.79172
484.0 0.002066 334.00543 501.20404
468.0 0.002137 334.07001 486.58957
400.0 0.002500 334.13455 462.94681
393.0 0.002545 334.19922 437.89459
382.0 0.002618 334.26398 415.47162
366.0 0.002732 334.32874 397.81656
378.0 0.002646 334.39355 385.40698
409.0 0.002445 334.45847 377.68515
389.0 0.002571 334.52338 373.80716
397.0 0.002519 334.58841 373.17679
387.0 0.002584 334.65338 375.45807
396.0 0.002525 334.71848 380.56381
402.0 0.002488 334.78369 388.29233
391.0 0.002558 334.84888 398.18768
437.0 0.002288 334.91415 409.25757
452.0 0.002212 334.97946 421.01846
461.0 0.002169 335.04474 432.28720
452.0 0.002212 335.11020 440.00177
422.0 0.002370 335.17563 442.28107
443.0 0.002257 335.24124 442.59250
488.0 0.002049 335.30676 445.57126
480.0 0.002083 335.37234 451.47678
482.0 0.002075 335.43808 456.07663
472.0 0.002119 335.50375 453.79492
431.0 0.002320 335.56961 443.06909
417.0 0.002398 335.63538 426.53448
391.0 0.002558 335.70117 408.61176
365.0 0.002740 335.76712 392.67950
378.0 0.002646 335.83307 380.27792
373.0 0.002681 335.89911 371.61176
369.0 0.002710 335.96518 366.19037
372.0 0.002688 336.03122 363.13022
390.0 0.002564 336.09744 361.97034
362.0 0.002762 336.16357 362.33017
357.0 0.002801 336.22998 363.89850
353.0 0.002833 336.29626 366.50446
379.0 0.002639 336.36255 370.26657
410.0 0.002439 336.42896 375.25311
413.0 0.002421 336.49536 381.32959
379.0 0.002639 336.56189 386.73987
383.0 0.002611 336.62845 389.26230
407.0 0.002457 336.69498 388.38403
396.0 0.002525 336.76160 386.51132
367.0 0.002725 336.82822 386.22385
394.0 0.002538 336.89499 388.90204
431.0 0.002320 336.96176 394.63629
420.0 0.002381 337.02853 402.18652
439.0 0.002278 337.09537 408.96600
395.0 0.002532 337.16226 411.39291
383.0 0.002611 337.22922 407.75449
372.0 0.002688 337.29620 399.76559
382.0 0.002618 337.36319 390.23599
409.0 0.002445 337.43027 381.33203
382.0 0.002618 337.49734 374.40393
353.0 0.002833 337.56454 369.80038
364.0 0.002747 337.63177 367.59842
343.0 0.002915 337.69891 367.23502
389.0 0.002571 337.76624 368.95093
344.0 0.002907 337.83350 372.29523
387.0 0.002584 337.90097 378.28821
395.0 0.002532 337.96826 387.44092
424.0 0.002358 338.03568 400.95612
449.0 0.002227 338.10318 419.44986
479.0 0.002088 338.17072 442.35410
497.0 0.002012 338.23831 466.31424
479.0 0.002088 338.30591 484.79822
511.0 0.001957 338.37338 491.98141
503.0 0.001988 338.44113 488.72043
470.0 0.002128 338.50879 479.81561
474.0 0.002110 338.57663 469.59457
460.0 0.002174 338.64444 459.55753
440.0 0.002273 338.71216 447.99841
412.0 0.002427 338.78012 433.62982
388.0 0.002577 338.84793 417.81268
395.0 0.002532 338.91592 402.89236
409.0 0.002445 338.98392 390.40710
372.0 0.002688 339.05185 380.97366
358.0 0.002793 339.11996 374.43893
373.0 0.002681 339.18799 370.38632
384.0 0.002604 339.25620 368.36987
368.0 0.002717 339.32431 368.06876
355.0 0.002817 339.39246 369.60556
362.0 0.002762 339.46072 373.18167
353.0 0.002833 339.52896 379.14563
376.0 0.002660 339.59729 388.13617
416.0 0.002404 339.66571 400.75674
454.0 0.002203 339.73398 416.58813
477.0 0.002096 339.80240 433.23529
484.0 0.002066 339.87082 446.24796
464.0 0.002155 339.93930 451.51224
419.0 0.002387 340.00784 448.95111
396.0 0.002525 340.07626 442.10071
433.0 0.002309 340.14496 435.44543
431.0 0.002320 340.21353 431.54074
436.0 0.002294 340.28217 431.15845
464.0 0.002155 340.35083 433.94052
464.0 0.002155 340.41943 438.73444
464.0 0.002155 340.48825 442.34265
463.0 0.002160 340.55701 440.04456
427.0 0.002342 340.62589 430.41718
416.0 0.002404 340.69467 417.26294
381.0 0.002625 340.76346 404.70129
363.0 0.002755 340.83240 394.55948
388.0 0.002577 340.90134 387.35016
375.0 0.002667 340.97028 383.16443
387.0 0.002584 341.03928 381.81046
410.0 0.002439 341.10825 382.82416
412.0 0.002427 341.17734 385.48511
403.0 0.002481 341.24643 388.95486
395.0 0.002532 341.31561 392.07602
409.0 0.002445 341.38467 393.96576
395.0 0.002532 341.45380 395.00159
379.0 0.002639 341.52310 395.69583
411.0 0.002433 341.59225 396.29965
432.0 0.002315 341.66159 397.75116
402.0 0.002488 341.73093 400.95938
371.0 0.002695 341.80011 407.46030
442.0 0.002262 341.86951 418.78827
461.0 0.002169 341.93881 436.56549
466.0 0.002146 342.00827 462.09818
545.0 0.001835 342.07773 495.62137
612.0 0.001634 342.14713 535.79926
668.0 0.001497 342.21671 579.80273
723.0 0.001383 342.28613 622.59180
793.0 0.001261 342.35574 655.51581
755.0 0.001325 342.42529 668.52356
667.0 0.001499 342.49487 655.77289
585.0 0.001709 342.56448 618.98657
501.0 0.001996 342.63422 569.51099
423.0 0.002364 342.70386 521.08105
439.0 0.002278 342.77359 481.42584
433.0 0.002309 342.84326 452.62009
407.0 0.002457 342.91302 432.97003
411.0 0.002433 342.98282 420.45914
428.0 0.002336 343.05264 413.08347
433.0 0.002309 343.12247 409.90939
431.0 0.002320 343.19223 409.95331
425.0 0.002353 343.26221 411.85483
427.0 0.002342 343.33215 414.24594
445.0 0.002247 343.40216 415.90134
466.0 0.002146 343.47211 418.07321
465.0 0.002151 343.54199 422.76074
430.0 0.002326 343.61209 430.56308
422.0 0.002370 343.68207 441.62540
468.0 0.002137 343.75217 456.24030
515.0 0.001942 343.82227 475.62427
540.0 0.001852 343.89236 499.98380
583.0 0.001715 343.96249 526.71002
615.0 0.001626 344.03262 550.83331
592.0 0.001689 344.10287 568.08795
585.0 0.001709 344.17310 576.29761
558.0 0.001792 344.24326 575.82214
535.0 0.001869 344.31357 567.82275
536.0 0.001866 344.38385 552.02203
475.0 0.002105 344.45428 531.31091
504.0 0.001984 344.52457 512.79779
495.0 0.002020 344.59482 502.09845
517.0 0.001934 344.66531 499.40634
506.0 0.001976 344.73569 500.33566
490.0 0.002041 344.80612 498.84048
503.0 0.001988 344.87653 491.24268
428.0 0.002336 344.94696 477.45697
438.0 0.002283 345.01761 460.25436
410.0 0.002439 345.08801 443.06085
435.0 0.002299 345.15860 428.74490
439.0 0.002278 345.22919 418.26019
407.0 0.002457 345.29977 411.21469
430.0 0.002326 345.37039 406.69791
433.0 0.002309 345.44101 403.59708
394.0 0.002538 345.51166 401.11325
363.0 0.002755 345.58240 399.00073
418.0 0.002392 345.65298 397.97565
383.0 0.002611 345.72379 399.18362
417.0 0.002398 345.79453 403.28879
435.0 0.002299 345.86533 410.11926
416.0 0.002404 345.93616 418.19370
420.0 0.002381 346.00690 424.52560
398.0 0.002513 346.07779 426.34821
421.0 0.002375 346.14862 424.35400
415.0 0.002410 346.21957 422.12640
408.0 0.002451 346.29047 422.27011
438.0 0.002283 346.36133 424.95331
430.0 0.002326 346.43231 428.36386
436.0 0.002294 346.50320 429.42792
417.0 0.002398 346.57431 426.89294
425.0 0.002353 346.64539 421.36441
431.0 0.002320 346.71634 415.07339
416.0 0.002404 346.78738 410.17661
388.0 0.002577 346.85849 407.69885
384.0 0.002604 346.92963 406.64929
396.0 0.002525 347.00073 405.81888
400.0 0.002500 347.07181 403.83759
416.0 0.002404 347.14304 400.94788
392.0 0.002551 347.21420 398.43909
353.0 0.002833 347.28555 396.83005
385.0 0.002597 347.35672 396.99472
419.0 0.002387 347.42795 399.91202
420.0 0.002381 347.49927 405.87384
429.0 0.002331 347.57047 415.36182
430.0 0.002326 347.64194 428.44666
445.0 0.002247 347.71320 444.76370
496.0 0.002016 347.78455 463.75717
528.0 0.001894 347.85602 484.16461
535.0 0.001869 347.92740 502.65942
527.0 0.001898 347.99887 514.73450
498.0 0.002008 348.07034 517.58759
521.0 0.001919 348.14169 513.41748
540.0 0.001852 348.21329 507.83490
529.0 0.001890 348.28482 502.96045
498.0 0.002008 348.35638 495.90067
453.0 0.002208 348.42798 482.74667
422.0 0.002370 348.49951 464.42035
440.0 0.002273 348.57111 445.39749
434.0 0.002304 348.64273 428.84406
382.0 0.002618 348.71445 415.41022
373.0 0.002681 348.78613 404.78964
385.0 0.002597 348.85779 396.36539
380.0 0.002632 348.92953 390.43323
380.0 0.002632 349.00131 386.93814
378.0 0.002646 349.07312 385.38525
375.0 0.002667 349.14493 386.13803
378.0 0.002646 349.21664 388.95139
378.0 0.002646 349.28851 393.56320
418.0 0.002392 349.36032 399.81192
409.0 0.002445 349.43228 407.29974
393.0 0.002545 349.50424 416.09119
403.0 0.002481 349.57602 425.52225
448.0 0.002232 349.64807 434.37183
474.0 0.002110 349.72006 440.29562
467.0 0.002141 349.79202 441.76279
432.0 0.002315 349.86404 439.37811
434.0 0.002304 349.93607 435.93918
446.0 0.002242 350.00824 432.88242
429.0 0.002331 350.08023 429.37137
417.0 0.002398 350.15247 423.11356
410.0 0.002439 350.22461 414.01166
400.0 0.002500 350.29669 404.06470
411.0 0.002433 350.36899 395.13916
389.0 0.002571 350.44113 388.36111
387.0 0.002584 350.51343 383.93161
361.0 0.002770 350.58563 381.80115
380.0 0.002632 350.65796 381.90848
393.0 0.002545 350.73029 384.44916
388.0 0.002577 350.80258 389.38855
384.0 0.002604 350.87500 397.28766
391.0 0.002558 350.94745 408.18076
430.0 0.002326 351.01974 421.65796
466.0 0.002146 351.09229 436.26538
456.0 0.002193 351.16473 448.86340
431.0 0.002320 351.23727 454.79391
444.0 0.002252 351.30984 451.87811
439.0 0.002278 351.38226 443.71185
440.0 0.002273 351.45490 435.47214
431.0 0.002320 351.52747 430.25549
409.0 0.002445 351.60013 428.52405
420.0 0.002381 351.67279 428.55249
422.0 0.002370 351.74542 427.61377
407.0 0.002457 351.81818 424.23846
397.0 0.002519 351.89087 420.21375
395.0 0.002532 351.96368 418.26846
404.0 0.002475 352.03650 420.09937
438.0 0.002283 352.10925 425.94482
460.0 0.002174 352.18219 434.39615
423.0 0.002364 352.25494 442.28574
406.0 0.002463 352.32797 444.78732
400.0 0.002500 352.40094 439.79544
395.0 0.002532 352.47379 429.90085
392.0 0.002551 352.54681 419.60550
370.0 0.002703 352.61978 411.88181
404.0 0.002475 352.69293 407.81619
393.0 0.002545 352.76599 407.31976
381.0 0.002625 352.83911 409.73642
451.0 0.002217 352.91226 413.87784
440.0 0.002273 352.98544 417.08478
418.0 0.002392 353.05872 416.78256
398.0 0.002513 353.13190 413.41122
386.0 0.002591 353.20514 409.13214
390.0 0.002564 353.27850 406.36954
410.0 0.002439 353.35172 405.79819
379.0 0.002639 353.42520 407.50980
404.0 0.002475 353.49860 410.65656
444.0 0.002252 353.57187 414.26553
426.0 0.002347 353.64545 418.54129
425.0 0.002353 353.71890 424.67334
397.0 0.002519 353.79239 433.26587
471.0 0.002123 353.86600 443.09979
468.0 0.002137 353.93958 451.21109
449.0 0.002227 354.01324 454.81137
469.0 0.002132 354.08685 452.94379
433.0 0.002309 354.16068 445.96738
399.0 0.002506 354.23441 435.78311
430.0 0.002326 354.30811 425.39063
373.0 0.002681 354.38193 417.27045
394.0 0.002538 354.45572 412.73898
415.0 0.002410 354.52969 412.29550
414.0 0.002415 354.60361 416.24124
452.0 0.002212 354.67746 424.94867
470.0 0.002128 354.75146 438.08591
478.0 0.002092 354.82550 454.23602
532.0 0.001880 354.89963 470.93118
525.0 0.001905 354.97369 485.05481
528.0 0.001894 355.04785 494.94836
526.0 0.001901 355.12207 498.98486
477.0 0.002096 355.19623 494.58728
421.0 0.002375 355.27054 482.55051
409.0 0.002445 355.34482 467.93295
445.0 0.002247 355.41907 456.07288
436.0 0.002294 355.49359 449.81335
450.0 0.002222 355.56793 449.65137
476.0 0.002101 355.64240 454.08511
483.0 0.002070 355.71692 459.41708
456.0 0.002193 355.79141 460.51822
403.0 0.002481 355.86606 454.45374
392.0 0.002551 355.94064 443.23822
392.0 0.002551 356.01535 430.94370
401.0 0.002494 356.09003 420.49484
397.0 0.002519 356.16476 412.92819
395.0 0.002532 356.23965 408.70160
400.0 0.002500 356.31448 407.20352
420.0 0.002381 356.38940 407.69113
432.0 0.002315 356.46429 409.86526
427.0 0.002342 356.53925 413.87799
450.0 0.002222 356.61435 420.35861
456.0 0.002193 356.68939 429.11676
469.0 0.002132 356.76459 439.24207
490.0 0.002041 356.83978 449.75882
489.0 0.002045 356.91486 460.32721
506.0 0.001976 356.99020 470.50641
534.0 0.001873 357.06546 479.26791
557.0 0.001795 357.14093 486.46243
512.0 0.001953 357.21634 493.14316
526.0 0.001901 357.29169 498.70663
539.0 0.001855 357.36728 501.95544
554.0 0.001805 357.44281 503.37943
553.0 0.001808 357.51849 504.91882
542.0 0.001845 357.59418 507.67905
559.0 0.001789 357.66986 509.83359
499.0 0.002004 357.74567 508.14191
488.0 0.002049 357.82144 501.36636
498.0 0.002008 357.89737 491.45587
489.0 0.002045 357.97333 482.13516
531.0 0.001883 358.04929 476.77997
529.0 0.001890 358.12537 475.90076
525.0 0.001905 358.20142 476.88678
490.0 0.002041 358.27768 474.71262
447.0 0.002237 358.35385 465.74405
416.0 0.002404 358.43011 451.33020
425.0 0.002353 358.50644 435.76199
403.0 0.002481 358.58282 422.20447
377.0 0.002653 358.65933 411.99884
440.0 0.002273 358.73584 405.46921
422.0 0.002370 358.81238 402.42749
433.0 0.002309 358.88898 402.81641
428.0 0.002336 358.96570 406.15857
424.0 0.002358 359.04251 411.88501
401.0 0.002494 359.11932 419.05362
451.0 0.002217 359.19614 425.76666
437.0 0.002288 359.27313 430.23495
436.0 0.002294 359.35007 431.85397
441.0 0.002268 359.42725 431.56696
441.0 0.002268 359.50430 430.73636
452.0 0.002212 359.58148 430.03412
428.0 0.002336 359.65878 428.98920
433.0 0.002309 359.73608 426.65479
399.0 0.002506 359.81351 423.07928
406.0 0.002463 359.89099 419.27243
416.0 0.002404 359.96844 416.94925
436.0 0.002294 360.04608 416.59982
446.0 0.002242 360.12378 417.58600
444.0 0.002252 360.20157 417.63751
420.0 0.002381 360.27939 415.03891
424.0 0.002358 360.35718 409.52377
422.0 0.002370 360.43524 402.76160
394.0 0.002538 360.51318 396.33347
370.0 0.002703 360.59134 390.80945
349.0 0.002865 360.66949 386.12668
355.0 0.002817 360.74768 382.53128
372.0 0.002688 360.82602 380.05090
359.0 0.002786 360.90439 378.60852
345.0 0.002899 360.98294 378.14157
363.0 0.002755 361.06155 378.55695
380.0 0.002632 361.14011 379.73468
377.0 0.002653 361.21878 381.53998
363.0 0.002755 361.29758 383.85724
374.0 0.002674 361.37643 386.51483
404.0 0.002475 361.45541 389.19342
382.0 0.002618 361.53436 391.33066
373.0 0.002681 361.61359 392.29813
384.0 0.002604 361.69275 391.88599
388.0 0.002577 361.77206 390.32379
357.0 0.002801 361.85141 387.93140
360.0 0.002778 361.93079 385.23462
392.0 0.002551 362.01038 382.69061
368.0 0.002717 362.08987 380.77045
380.0 0.002632 362.16968 379.64569
365.0 0.002740 362.24945 379.57376
369.0 0.002710 362.32932 380.31250
405.0 0.002469 362.40927 381.94006
383.0 0.002611 362.48929 384.27875
404.0 0.002475 362.56955 387.28018
400.0 0.002500 362.64975 390.71283
431.0 0.002320 362.73001 394.15359
405.0 0.002469 362.81046 396.65564
369.0 0.002710 362.89087 397.06757
359.0 0.002786 362.97156 395.25266
365.0 0.002740 363.05231 391.74619
337.0 0.002967 363.13297 387.79041
389.0 0.002571 363.21396 384.38724
376.0 0.002660 363.29486 382.02478
362.0 0.002762 363.37601 380.82095
381.0 0.002625 363.45721 380.44800
377.0 0.002653 363.53833 380.92365
374.0 0.002674 363.61984 381.53989
380.0 0.002632 363.70123 381.80695
365.0 0.002740 363.78293 381.57437
380.0 0.002632 363.86465 380.93042
349.0 0.002865 363.94635 380.01691
380.0 0.002632 364.02823 379.06104
392.0 0.002551 364.11020 378.37247
394.0 0.002538 364.19232 378.22662
376.0 0.002660 364.27469 378.70700
381.0 0.002625 364.35681 379.95575
371.0 0.002695 364.43927 382.15054
380.0 0.002632 364.52179 385.25772
414.0 0.002415 364.60449 389.44275
427.0 0.002342 364.68726 394.52890
412.0 0.002427 364.77008 399.89767
385.0 0.002597 364.85312 404.60172
393.0 0.002545 364.93610 407.20410
378.0 0.002646 365.01935 407.47424
374.0 0.002674 365.10263 405.95822
371.0 0.002695 365.18604 403.43344
368.0 0.002717 365.26965 400.40765
405.0 0.002469 365.35330 397.35080
385.0 0.002597 365.43713 394.85709
386.0 0.002591 365.52097 393.56650
406.0 0.002463 365.60495 393.72842
393.0 0.002545 365.68918 395.86957
385.0 0.002597 365.77341 399.96106
427.0 0.002342 365.85782 405.81149
447.0 0.002237 365.94238 412.63745
438.0 0.002283 366.02689 419.09128
461.0 0.002169 366.11176 423.93893
421.0 0.002375 366.19656 426.70325
407.0 0.002457 366.28165 427.17688
372.0 0.002688 366.36679 425.09634
380.0 0.002632 366.45193 421.07828
397.0 0.002519 366.53745 416.41986
366.0 0.002732 366.62296 411.98758
381.0 0.002625 366.70874 408.21411
391.0 0.002558 366.79449 405.28534
394.0 0.002538 366.88031 403.30991
400.0 0.002500 366.96643 402.05750
419.0 0.002387 367.05264 401.17130
377.0 0.002653 367.13901 400.42368
391.0 0.002558 367.22552 399.99356
377.0 0.002653 367.31204 400.17093
401.0 0.002494 367.39890 400.97235
390.0 0.002564 367.48566 401.81860
379.0 0.002639 367.57278 401.90933
422.0 0.002370 367.66003 400.81625
403.0 0.002481 367.74728 398.97784
375.0 0.002667 367.83475 397.26648
405.0 0.002469 367.92236 396.51498
388.0 0.002577 368.01019 397.11661
398.0 0.002513 368.09814 399.18799
441.0 0.002268 368.18613 402.37091
456.0 0.002193 368.27435 406.05655
435.0 0.002299 368.36270 409.69421
422.0 0.002370 368.45126 413.10751
409.0 0.002445 368.53992 416.33282
419.0 0.002387 368.62872 419.29230
442.0 0.002262 368.71774 422.24951
475.0 0.002105 368.80688 425.63980
447.0 0.002237 368.89618 429.44287
462.0 0.002165 368.98560 433.04974
444.0 0.002252 369.07516 436.44058
481.0 0.002079 369.16501 440.47580
488.0 0.002049 369.25491 445.74908
522.0 0.001916 369.34503 451.65222
519.0 0.001927 369.43533 456.31152
497.0 0.002012 369.52567 458.24210
483.0 0.002070 369.61630 457.69730
489.0 0.002045 369.70703 455.46146
487.0 0.002053 369.79810 451.19745
459.0 0.002179 369.88913 444.14059
438.0 0.002283 369.98032 434.78598
424.0 0.002358 370.07181 424.75470
414.0 0.002415 370.16345 415.54047
406.0 0.002463 370.25525 407.91309
389.0 0.002571 370.34720 401.93307
408.0 0.002451 370.43924 397.63715
417.0 0.002398 370.53162 394.87738
374.0 0.002674 370.62411 393.47244
378.0 0.002646 370.71680 393.29193
389.0 0.002571 370.80969 394.27048
393.0 0.002545 370.90259 396.54855
403.0 0.002481 370.99597 400.29977
402.0 0.002488 371.08926 405.78772
417.0 0.002398 371.18289 413.19513
407.0 0.002457 371.27670 422.26868
473.0 0.002114 371.37061 432.46274
530.0 0.001887 371.46481 442.68314
498.0 0.002008 371.55911 451.49725
461.0 0.002169 371.65372 457.87537
491.0 0.002037 371.74850 461.67499
483.0 0.002070 371.84335 463.04385
458.0 0.002183 371.93851 461.38022
455.0 0.002198 372.03372 456.50482
487.0 0.002053 372.12930 449.69003
464.0 0.002155 372.22516 442.42654
400.0 0.002500 372.32089 435.38501
405.0 0.002469 372.41711 428.99051
388.0 0.002577 372.51340 424.12558
417.0 0.002398 372.60999 421.32678
431.0 0.002320 372.70667 420.71957
455.0 0.002198 372.80356 421.76727
445.0 0.002247 372.90076 423.16025
447.0 0.002237 372.99811 423.24747
435.0 0.002299 373.09570 420.97168
400.0 0.002500 373.19351 416.83469
402.0 0.002488 373.29135 412.41330
390.0 0.002564 373.38968 408.93875
420.0 0.002381 373.48804 407.12051
389.0 0.002571 373.58673 407.38660
411.0 0.002433 373.68558 409.89227
424.0 0.002358 373.78455 414.76102
445.0 0.002247 373.88397 421.77383
433.0 0.002309 373.98343 430.17282
421.0 0.002375 374.08322 438.43289
436.0 0.002294 374.18314 444.33713
426.0 0.002347 374.28323 446.45880
437.0 0.002288 374.38376 445.18518
422.0 0.002370 374.48434 441.34427
413.0 0.002421 374.58527 435.54257
405.0 0.002469 374.68643 428.60849
419.0 0.002387 374.78763 421.82364
408.0 0.002451 374.88925 416.36703
402.0 0.002488 374.99103 412.93188
398.0 0.002513 375.09320 411.79935
379.0 0.002639 375.19553 413.03018
387.0 0.002584 375.29791 416.93146
412.0 0.002427 375.40076 423.10617
432.0 0.002315 375.50369 431.50000
462.0 0.002165 375.60703 441.34344
474.0 0.002110 375.71057 451.13757
451.0 0.002217 375.81424 458.86896
454.0 0.002203 375.91827 462.85437
453.0 0.002208 376.02249 462.35672
466.0 0.002146 376.12701 457.86502
444.0 0.002252 376.23181 451.14542
410.0 0.002439 376.33673 444.10092
400.0 0.002500 376.44205 437.94925
411.0 0.002433 376.54749 433.02441
436.0 0.002294 376.65329 429.48917
425.0 0.002353 376.75937 427.63647
426.0 0.002347 376.86551 427.34357
428.0 0.002336 376.97217 427.88760
406.0 0.002463 377.07892 428.71509
380.0 0.002632 377.18613 429.44598
371.0 0.002695 377.29340 429.55450
402.0 0.002488 377.40097 428.14929
403.0 0.002481 377.50897 425.21686
394.0 0.002538 377.61700 421.57892
407.0 0.002457 377.72556 418.40338
391.0 0.002558 377.83426 416.78293
430.0 0.002326 377.94305 417.18378
426.0 0.002347 378.05249 419.91943
446.0 0.002242 378.16193 425.24042
450.0 0.002222 378.27185 433.38107
482.0 0.002075 378.38187 444.00742
546.0 0.001832 378.49219 456.36707
493.0 0.002028 378.60294 468.54587
518.0 0.001931 378.71381 477.76724
523.0 0.001912 378.82516 482.21112
500.0 0.002000 378.93668 482.16110
471.0 0.002123 379.04840 479.08530
459.0 0.002179 379.16058 474.40967
483.0 0.002070 379.27289 469.62817
448.0 0.002232 379.38577 466.11002
469.0 0.002132 379.49875 464.39850
473.0 0.002114 379.61191 463.91394
458.0 0.002183 379.72559 462.97812
412.0 0.002427 379.83932 459.74402
434.0 0.002304 379.95367 453.62427
436.0 0.002294 380.06824 445.97870
446.0 0.002242 380.18292 438.68857
437.0 0.002288 380.29810 432.69031
414.0 0.002415 380.41348 428.18375
407.0 0.002457 380.52924 425.07437
405.0 0.002469 380.64539 423.37659
404.0 0.002475 380.76169 423.44684
409.0 0.002445 380.87830 425.33051
397.0 0.002519 380.99533 428.70172
415.0 0.002410 381.11267 432.71817
422.0 0.002370 381.23035 436.03366
464.0 0.002155 381.34818 437.71823
437.0 0.002288 381.46655 437.96323
452.0 0.002212 381.58514 437.61023
455.0 0.002198 381.70413 437.21558
429.0 0.002331 381.82336 436.38556
446.0 0.002242 381.94281 434.78638
444.0 0.002252 382.06281 432.60452
434.0 0.002304 382.18311 430.55719
425.0 0.002353 382.30371 429.07224
408.0 0.002451 382.42468 428.30405
426.0 0.002347 382.54584 428.54144
435.0 0.002299 382.66748 430.11661
435.0 0.002299 382.78943 432.76379
467.0 0.002141 382.91177 435.89740
457.0 0.002188 383.03439 438.59967
419.0 0.002387 383.15726 440.43460
454.0 0.002203 383.28067 441.73447
474.0 0.002110 383.40427 443.37918
501.0 0.001996 383.52838 445.61658
474.0 0.002110 383.65280 447.89697
466.0 0.002146 383.77747 449.71982
467.0 0.002141 383.90265 451.56573
426.0 0.002347 384.02802 454.96011
448.0 0.002232 384.15393 461.44681
487.0 0.002053 384.28012 471.83609
522.0 0.001916 384.40649 485.92880
560.0 0.001786 384.53351 502.29587
565.0 0.001770 384.66071 517.54565
557.0 0.001795 384.78848 527.36810
555.0 0.001802 384.91650 528.80823
549.0 0.001821 385.04474 522.84332
515.0 0.001942 385.17355 513.02618
594.0 0.001684 385.30264 502.02307
504.0 0.001984 385.43219 490.62827
466.0 0.002146 385.56210 478.74335
509.0 0.001965 385.69232 466.96365
449.0 0.002227 385.82297 456.69839
423.0 0.002364 385.95401 449.18878
420.0 0.002381 386.08545 444.89752
434.0 0.002304 386.21732 443.87979
471.0 0.002123 386.34933 445.70215
456.0 0.002193 386.48203 449.48398
476.0 0.002101 386.61499 453.95749
428.0 0.002336 386.74844 457.57666
470.0 0.002128 386.88220 459.61850
451.0 0.002217 387.01624 460.70956
467.0 0.002141 387.15088 461.19601
451.0 0.002217 387.28580 460.85675
470.0 0.002128 387.42133 459.14438
456.0 0.002193 387.55707 456.06320
440.0 0.002273 387.69312 452.83572
455.0 0.002198 387.82980 450.93005
440.0 0.002273 387.96667 451.41364
456.0 0.002193 388.10425 454.55374
485.0 0.002062 388.24207 459.84976
483.0 0.002070 388.38019 465.73550
475.0 0.002105 388.51892 469.98898
437.0 0.002288 388.65790 471.30252
461.0 0.002169 388.79755 469.97726
496.0 0.002016 388.93747 467.36853
477.0 0.002096 389.07767 464.48407
471.0 0.002123 389.21857 461.49918
442.0 0.002262 389.35968 458.26709
461.0 0.002169 389.50140 454.60623
453.0 0.002208 389.64346 450.38849
431.0 0.002320 389.78583 445.67871
426.0 0.002347 389.92889 440.95703
425.0 0.002353 390.07217 437.12262
428.0 0.002336 390.21609 434.63501
411.0 0.002433 390.36041 433.40744
411.0 0.002433 390.50500 432.87912
413.0 0.002421 390.65015 432.28458
398.0 0.002513 390.79568 431.33633
391.0 0.002558 390.94183 430.28290
422.0 0.002370 391.08835 429.55103
439.0 0.002278 391.23514 429.10321
435.0 0.002299 391.38260 428.79294
436.0 0.002294 391.53046 428.57147
459.0 0.002179 391.67880 428.56424
424.0 0.002358 391.82758 429.29367
459.0 0.002179 391.97665 430.80780
456.0 0.002193 392.12643 433.22238
443.0 0.002257 392.27658 436.13232
428.0 0.002336 392.42725 439.31030
454.0 0.002203 392.57837 443.12204
484.0 0.002066 392.72977 448.07440
467.0 0.002141 392.88196 454.45770
504.0 0.001984 393.03433 461.84097
499.0 0.002004 393.18750 469.06766
474.0 0.002110 393.34091 474.64279
462.0 0.002165 393.49466 477.77457
480.0 0.002083 393.64923 478.68997
489.0 0.002045 393.80408 478.30392
527.0 0.001898 393.95953 477.57431
524.0 0.001908 394.11548 476.82965
493.0 0.002028 394.27167 475.48575
483.0 0.002070 394.42862 472.13284
428.0 0.002336 394.58588 466.04068
466.0 0.002146 394.74387 457.90073
426.0 0.002347 394.90219 449.30273
407.0 0.002457 395.06094 441.73718
422.0 0.002370 395.22040 435.88739
429.0 0.002331 395.38013 432.18515
417.0 0.002398 395.54062 430.45071
411.0 0.002433 395.70145 430.60287
406.0 0.002463 395.86264 432.50348
429.0 0.002331 396.02466 435.82846
445.0 0.002247 396.18692 440.04224
481.0 0.002079 396.35001 444.10001
462.0 0.002165 396.51346 447.26059
417.0 0.002398 396.67719 448.73502
453.0 0.002208 396.84174 448.81604
452.0 0.002212 397.00662 448.64444
427.0 0.002342 397.17227 449.44186
450.0 0.002222 397.33835 452.01004
460.0 0.002174 397.50473 456.59436
465.0 0.002151 397.67188 463.11761
476.0 0.002101 397.83951 470.84296
486.0 0.002058 398.00763 479.13135
496.0 0.002016 398.17642 487.59042
499.0 0.002004 398.34549 495.88409
505.0 0.001980 398.51529 503.24011
545.0 0.001835 398.68558 508.56067
530.0 0.001887 398.85645 511.48166
535.0 0.001869 399.02795 512.97644
526.0 0.001901 399.19968 514.11389
531.0 0.001883 399.37228 515.64886
546.0 0.001832 399.54523 517.36951
536.0 0.001866 399.71896 518.06897
520.0 0.001923 399.89313 516.06824
495.0 0.002020 400.06757 510.70941
481.0 0.002079 400.24295 502.56876
469.0 0.002132 400.41867 493.32162
449.0 0.002227 400.59515 484.49509
457.0 0.002188 400.77216 476.56027
436.0 0.002294 400.94940 469.41541
459.0 0.002179 401.12762 462.71848
435.0 0.002299 401.30618 456.51941
417.0 . . .
loop_
_refln_index_h
_refln_index_k
_refln_index_l
_pd_refln_wavelength_id
_refln_observed_status
_refln_F_squared_meas
_refln_F_squared_calc
_refln_phase_calc
_refln_d_spacing
_gsas_i100_meas
0 2 0 1 o 43682.34 39359.17 0.00 6.67688 15.44
0 2 0 2 o 43931.04 39359.17 0.00 6.67688 7.73
1 1 1 1 o 19178.117 18803.768 0.00 6.04683 19.08
1 1 1 2 o 18653.500 18803.768 0.00 6.04683 9.21
2 0 0 1 o 756.411 956.278 180.00 4.81485 0.00
2 0 0 2 o 756.411 956.278 180.00 4.81485 0.00
0 0 2 1 o 34646.066 36892.06 0.00 4.77655 3.90
0 0 2 2 o 35385.92 36892.06 0.00 4.77655 2.00
1 2 1 1 o 6125.698 6350.440 0.00 4.75799 2.21
1 2 1 2 o 5724.179 6350.440 0.00 4.75799 0.96
2 1 0 1 o 160991.48 160773.34 180.00 4.52942 40.64
2 1 0 2 o 160577.56 160773.34 180.00 4.52942 20.16
1 0 2 1 o 225153.38 229541.67 0.00 4.27906 50.65
1 0 2 2 o 222390.14 229541.67 0.00 4.27906 24.84
2 1 1 1 o 124390.38 118530.16 0.00 4.09270 52.80
2 1 1 2 o 122552.05 118530.16 0.00 4.09270 25.82
1 1 2 1 o 122462.62 119650.65 0.00 4.07496 51.15
1 1 2 2 o 119078.88 119650.65 0.00 4.07496 24.64
0 3 1 1 o 432298.3 448165.1 180.00 4.03476 100.00
0 3 1 2 o 434360.9 448165.1 180.00 4.03476 50.02
2 2 0 1 o 87193.47 82485.67 180.00 3.90534 17.28
2 2 0 2 o 84160.13 82485.67 180.00 3.90534 8.25
0 2 2 1 o 52122.04 52759.04 0.00 3.88481 10.12
0 2 2 2 o 52154.98 52759.04 0.00 3.88481 5.04
1 3 1 1 o 84007.10 78587.11 180.00 3.72131 33.10
1 3 1 2 o 82856.62 78587.11 180.00 3.72131 16.21
2 2 1 1 o 186480.83 180678.91 180.00 3.61494 63.01
2 2 1 2 o 184942.98 180678.91 180.00 3.61494 31.05
1 2 2 1 o 464.341 504.651 0.00 3.60269 0.16
1 2 2 2 o 459.593 504.651 0.00 3.60269 0.08
2 0 2 1 o 154777.66 142134.95 180.00 3.39099 23.20
2 0 2 2 o 155206.64 142134.95 180.00 3.39099 11.58
0 4 0 1 o 145661.66 137938.25 180.00 3.33844 12.94
0 4 0 2 o 143240.53 137938.25 180.00 3.33844 6.32
2 1 2 1 o 13098.991 13645.123 180.00 3.28668 3.62
2 1 2 2 o 12875.399 13645.123 180.00 3.28668 1.77
2 3 0 1 o 40384.57 43559.50 180.00 3.26850 5.54
2 3 0 2 o 36694.49 43559.50 180.00 3.26850 2.45
0 1 3 1 o 147434.00 149403.41 180.00 3.09751 17.05
2 3 1 1 o 41323.12 41522.16 0.00 3.09251 10.32
0 1 3 2 o 149374.13 149403.41 180.00 3.09751 8.61
2 3 1 2 o 43175.58 41522.16 0.00 3.09251 5.40
1 3 2 1 o 27539.504 26479.328 0.00 3.08483 6.88
1 3 2 2 o 27630.785 26479.328 0.00 3.08483 3.43
2 2 2 1 o 60081.87 58524.69 180.00 3.02341 13.59
2 2 2 2 o 58213.63 58524.69 180.00 3.02341 6.51
1 4 1 1 o 17545.137 18500.143 180.00 2.99522 4.49
1 4 1 2 o 18162.059 18500.143 180.00 2.99522 2.32
3 1 1 1 o 66649.73 63795.75 0.00 2.96669 14.56
3 1 1 2 o 64301.21 63795.75 0.00 2.96669 6.95
1 1 3 1 o 201.777 651.950 0.00 2.94872 0.00
1 1 3 2 o 201.777 651.950 0.00 2.94872 0.00
3 2 1 1 o 32629.768 31102.559 180.00 2.76878 6.34
3 2 1 2 o 31457.064 31102.559 180.00 2.76878 3.03
1 2 3 1 o 117974.66 125078.46 0.00 2.75415 22.08
1 2 3 2 o 117667.61 125078.46 0.00 2.75415 10.95
2 4 0 1 o 99722.09 101623.30 180.00 2.74348 10.14
2 4 0 2 o 100039.31 101623.30 180.00 2.74348 5.06
0 4 2 1 o 30468.980 31002.389 0.00 2.73634 3.22
0 4 2 2 o 28263.367 31002.389 0.00 2.73634 1.47
2 3 2 1 o 2267.373 3979.125 180.00 2.69743 0.42
2 3 2 2 o 3146.814 3979.125 180.00 2.69743 0.30
3 0 2 1 o 88588.42 83328.76 0.00 2.66421 7.26
3 0 2 2 o 87118.32 83328.76 0.00 2.66421 3.54
2 4 1 1 o 24735.973 23004.654 0.00 2.63690 4.48
1 4 2 1 o 31870.818 30266.660 180.00 2.63214 5.73
2 4 1 2 o 24075.172 23004.654 0.00 2.63690 2.16
1 4 2 2 o 31143.504 30266.660 180.00 2.63214 2.77
3 1 2 1 o 27237.869 27971.654 180.00 2.61271 4.18
3 1 2 2 o 27942.742 27971.654 180.00 2.61271 2.15
2 1 3 1 o 28249.967 28249.609 0.00 2.60501 4.40
2 1 3 2 o 27942.236 28249.609 0.00 2.60501 2.16
0 3 3 1 o 19.838 20.873 0.00 2.58987 0.00
0 3 3 2 o 24.924 20.873 0.00 2.58987 0.00
0 5 1 1 o 62424.57 61571.45 180.00 2.57212 5.49
0 5 1 2 o 61827.73 61571.45 180.00 2.57212 2.70
3 3 1 1 o 29244.848 26251.277 180.00 2.51194 4.52
3 3 1 2 o 27144.197 26251.277 180.00 2.51194 2.06
1 3 3 1 o 119041.18 119584.52 180.00 2.50100 17.93
1 3 3 2 o 116495.91 119584.52 180.00 2.50100 8.69
1 5 1 1 o 6052.526 6020.746 180.00 2.48501 1.02
1 5 1 2 o 5615.682 6020.746 180.00 2.48501 0.47
3 2 2 1 o 16472.484 17872.686 180.00 2.47449 2.20
3 2 2 2 o 17153.533 17872.686 180.00 2.47449 1.15
2 2 3 1 o 24750.717 25770.277 0.00 2.46794 3.33
2 2 3 2 o 23913.416 25770.277 0.00 2.46794 1.58
4 0 0 1 o 20338.381 17880.957 180.00 2.40742 0.61
4 0 0 2 o 20196.854 17880.957 180.00 2.40742 0.30
0 0 4 1 o 48583.47 45940.16 180.00 2.38827 1.52
0 0 4 2 o 45999.72 45940.16 180.00 2.38827 0.71
2 4 2 1 o 27804.941 28641.461 180.00 2.37899 3.57
2 4 2 2 o 28309.969 28641.461 180.00 2.37899 1.82
4 1 0 1 o 14559.963 13278.358 180.00 2.36923 0.95
4 1 0 2 o 14785.070 13278.358 180.00 2.36923 0.48
2 5 0 1 o 158843.50 142733.66 0.00 2.33551 11.29
2 5 0 2 o 152425.88 142733.66 0.00 2.33551 5.34
1 0 4 1 o 35590.41 30088.199 0.00 2.31805 2.06
1 0 4 2 o 36747.20 30088.199 0.00 2.31805 1.07
4 1 1 1 o 164046.75 156328.14 180.00 2.29957 19.67
4 1 1 2 o 162861.59 156328.14 180.00 2.29957 9.70
3 3 2 1 o 28659.773 25304.520 180.00 2.28602 3.88
1 1 4 1 o 2987.101 2764.095 0.00 2.28389 0.30
2 3 3 1 o 31640.240 27983.584 0.00 2.28085 3.79
3 3 2 2 o 29231.211 25304.520 180.00 2.28602 1.97
1 1 4 2 o 3091.685 2764.095 0.00 2.28389 0.16
2 3 3 2 o 31725.430 27983.584 0.00 2.28085 1.89
2 5 1 1 o 37741.94 36085.32 0.00 2.26870 5.00
1 5 2 1 o 58285.96 59064.20 180.00 2.26566 7.26
4 2 0 1 o 70278.48 71702.08 0.00 2.26471 3.99
2 5 1 2 o 34881.773 36085.32 0.00 2.26870 2.26
1 5 2 2 o 56827.50 59064.20 180.00 2.26566 3.49
4 2 0 2 o 70121.19 71702.08 0.00 2.26471 1.98
3 4 1 1 o 4852.221 4453.611 0.00 2.24883 0.61
0 2 4 1 o 65105.56 59786.11 0.00 2.24874 3.81
3 4 1 2 o 4723.440 4453.611 0.00 2.24883 0.29
0 2 4 2 o 63384.63 59786.11 0.00 2.24874 1.84
1 4 3 1 o 19164.111 18291.432 180.00 2.24097 2.37
1 4 3 2 o 20066.260 18291.432 180.00 2.24097 1.25
3 1 3 1 o 60825.31 57251.38 0.00 2.22895 6.47
0 6 0 1 o 202495.34 184079.52 0.00 2.22563 6.75
3 1 3 2 o 61288.34 57251.38 0.00 2.22895 3.25
0 6 0 2 o 205611.00 184079.52 0.00 2.22563 3.42
4 2 1 1 o 16826.803 16517.533 180.00 2.20363 1.97
4 2 1 2 o 15864.648 16517.533 180.00 2.20363 0.91
1 2 4 1 o 10047.722 10874.614 0.00 2.18983 1.06
1 2 4 2 o 9823.608 10874.614 0.00 2.18983 0.51
4 0 2 1 o -412.653 86.983 180.00 2.14981 0.00
4 0 2 2 o -50.553 86.983 180.00 2.14981 0.01
3 2 3 1 o 3664.306 3666.737 180.00 2.14126 0.21
2 0 4 1 o 10700.111 10126.089 180.00 2.13953 0.42
3 2 3 2 o 3596.623 3666.737 180.00 2.14126 0.10
2 0 4 2 o 9076.813 10126.089 180.00 2.13953 0.16
4 1 2 1 o 5432.721 4922.784 180.00 2.12248 0.65
4 3 0 1 o 1575.986 1473.932 180.00 2.11756 0.07
4 1 2 2 o 5383.550 4922.784 180.00 2.12248 0.32
1 6 1 1 o 110.710 108.518 180.00 2.11467 0.01
2 1 4 1 o 108658.34 107787.90 0.00 2.11259 11.07
4 3 0 2 o 1481.434 1473.932 180.00 2.11756 0.03
1 6 1 2 o 106.121 108.518 180.00 2.11467 0.00
2 1 4 2 o 105620.79 107787.90 0.00 2.11259 5.33
2 5 2 1 o 21699.746 17846.658 0.00 2.09813 2.64
2 5 2 2 o 21997.896 17846.658 0.00 2.09813 1.33
3 4 2 1 o 108506.53 108582.09 180.00 2.08239 10.85
2 4 3 1 o 7230.481 7836.091 180.00 2.07848 0.74
3 4 2 2 o 102518.32 108582.09 180.00 2.08239 5.03
2 4 3 2 o 6594.588 7836.091 180.00 2.07848 0.33
4 3 1 1 o 5820.324 6126.431 0.00 2.06738 0.57
4 3 1 2 o 5369.602 6126.431 0.00 2.06738 0.26
1 3 4 1 o 3555.861 3370.665 0.00 2.05597 0.36
1 3 4 2 o 3992.895 3370.665 0.00 2.05597 0.20
4 2 2 1 o 52668.14 49193.29 0.00 2.04635 5.06
0 5 3 1 o 40355.05 37563.71 180.00 2.04631 2.23
4 2 2 2 o 51346.23 49193.29 0.00 2.04635 2.44
0 5 3 2 o 39331.79 37563.71 180.00 2.04631 1.08
2 2 4 1 o 19224.354 18234.428 180.00 2.03748 1.79
2 2 4 2 o 18326.867 18234.428 180.00 2.03748 0.84
2 6 0 1 o 44299.73 39507.63 180.00 2.02024 2.47
0 6 2 1 o 66638.51 63808.82 0.00 2.01738 3.57
3 3 3 1 o 16161.643 16254.881 180.00 2.01561 1.37
2 6 0 2 o 38927.09 39507.63 180.00 2.02024 1.06
0 6 2 2 o 62073.65 63808.82 0.00 2.01738 1.63
3 3 3 2 o 15714.440 16254.881 180.00 2.01561 0.66
3 5 1 1 o 553.838 582.017 180.00 2.00721 0.07
3 5 1 2 o 545.483 582.017 180.00 2.00721 0.03
1 5 3 1 o 18737.031 19889.082 180.00 2.00161 1.77
1 5 3 2 o 17339.885 19889.082 180.00 2.00161 0.80
2 6 1 1 o 72109.45 69564.24 0.00 1.97652 7.40
1 6 2 1 o 69608.05 66730.00 0.00 1.97452 7.09
2 6 1 2 o 69498.94 69564.24 0.00 1.97652 3.52
1 6 2 2 o 68495.33 66730.00 0.00 1.97452 3.46
4 4 0 1 o 259762.39 276929.56 0.00 1.95267 11.24
4 4 0 2 o 253732.50 276929.56 0.00 1.95267 5.43
0 4 4 1 o 161446.17 169612.70 0.00 1.94241 6.68
0 4 4 2 o 158620.91 169612.70 0.00 1.94241 3.25
4 3 2 1 o 5374.369 5594.913 180.00 1.93585 0.56
4 3 2 2 o 5898.563 5594.913 180.00 1.93585 0.30
2 3 4 1 o 40979.93 39399.55 0.00 1.92834 3.66
2 3 4 2 o 37634.36 39399.55 0.00 1.92834 1.65
3 0 4 1 o 1251.011 1065.127 180.00 1.91609 0.06
4 4 1 1 o 2653.390 2098.849 0.00 1.91311 0.24
3 0 4 2 o 1027.335 1065.127 180.00 1.91609 0.03
4 4 1 2 o 1882.721 2098.849 0.00 1.91311 0.08
1 4 4 1 o 3630.188 5772.326 0.00 1.90406 0.32
4 1 3 1 o 7022.725 7270.686 180.00 1.90083 0.58
1 4 4 2 o 5263.030 5772.326 0.00 1.90406 0.24
3 1 4 1 o 13280.757 13861.135 180.00 1.89667 1.14
4 1 3 2 o 7274.714 7270.686 180.00 1.90083 0.30
3 1 4 2 o 13377.935 13861.135 180.00 1.89667 0.57
0 1 5 1 o 97368.10 100792.01 180.00 1.89136 3.68
0 1 5 2 o 96622.28 100792.01 180.00 1.89136 1.81
3 5 2 1 o 32067.617 33100.898 0.00 1.88619 2.65
2 5 3 1 o 22775.123 22017.902 0.00 1.88328 1.87
3 5 2 2 o 33320.867 33100.898 0.00 1.88619 1.38
2 5 3 2 o 22795.742 22017.902 0.00 1.88328 0.93
3 4 3 1 o 19814.930 16740.074 0.00 1.87187 1.76
0 7 1 1 o 35504.31 27688.271 0.00 1.87074 1.79
5 1 1 1 o 134.113 130.850 180.00 1.86936 0.00
3 4 3 2 o 20201.783 16740.074 0.00 1.87187 0.89
0 7 1 2 o 34635.699 27688.271 0.00 1.87074 0.87
5 1 1 2 o 133.068 130.850 180.00 1.86936 0.00
2 6 2 1 o 15744.984 17076.539 180.00 1.86066 1.21
1 1 5 1 o 31121.453 33864.414 180.00 1.85590 2.24
2 6 2 2 o 15741.779 17076.539 180.00 1.86066 0.60
1 1 5 2 o 29477.215 33864.414 180.00 1.85590 1.04
4 2 3 1 o 8286.843 8469.004 0.00 1.84556 0.68
3 2 4 1 o 32164.129 32234.631 180.00 1.84175 2.45
4 2 3 2 o 8317.352 8469.004 0.00 1.84556 0.34
3 2 4 2 o 31670.254 32234.631 180.00 1.84175 1.20
1 7 1 1 o 24196.146 25048.389 0.00 1.83641 2.20
1 7 1 2 o 20916.668 25048.389 0.00 1.83641 0.92
5 2 1 1 o 76766.16 80405.45 180.00 1.81672 5.84
5 2 1 2 o 79067.15 80405.45 180.00 1.81672 3.00
4 4 2 1 o 97873.08 96851.98 0.00 1.80747 7.71
1 2 5 1 o 32653.354 33445.531 180.00 1.80436 2.67
4 4 2 2 o 95292.42 96851.98 0.00 1.80747 3.72
2 4 4 1 o 36719.77 37724.46 180.00 1.80135 3.07
1 2 5 2 o 32901.695 33445.531 180.00 1.80436 1.34
2 4 4 2 o 39327.31 37724.46 180.00 1.80135 1.64
3 6 1 1 o 35351.30 33339.938 0.00 1.79636 3.14
1 6 3 1 o 73067.62 70818.06 180.00 1.79235 6.17
3 6 1 2 o 34340.277 33339.938 0.00 1.79636 1.51
4 5 0 1 o 9870.803 10257.085 0.00 1.78818 0.35
1 6 3 2 o 67825.66 70818.06 180.00 1.79235 2.82
5 0 2 1 o 4099.722 4723.703 180.00 1.78621 0.13
4 5 0 2 o 7673.718 10257.085 0.00 1.78818 0.13
5 0 2 2 o 3956.057 4723.703 180.00 1.78621 0.06
2 7 0 1 o 2651.329 2372.308 180.00 1.77355 0.13
5 1 2 1 o 66017.65 61912.83 180.00 1.77044 4.45
2 7 0 2 o 2469.410 2372.308 180.00 1.77355 0.06
5 1 2 2 o 64880.23 61912.83 180.00 1.77044 2.17
4 3 3 1 o 92475.74 90483.45 180.00 1.76328 6.32
2 1 5 1 o 5807.429 5601.805 0.00 1.76041 0.38
3 3 4 1 o 1794.013 1738.138 180.00 1.75996 0.13
4 3 3 2 o 92610.66 90483.45 180.00 1.76328 3.15
4 5 1 1 o 18658.961 17620.994 180.00 1.75765 1.36
2 1 5 2 o 6076.430 5601.805 0.00 1.76041 0.20
0 3 5 1 o 55831.47 50959.91 0.00 1.75572 1.96
3 3 4 2 o 1912.590 1738.138 180.00 1.75996 0.07
4 5 1 2 o 18674.006 17620.994 180.00 1.75765 0.68
0 3 5 2 o 52103.02 50959.91 0.00 1.75572 0.90
1 5 4 1 o 16992.426 16803.713 180.00 1.75062 1.25
1 5 4 2 o 15412.532 16803.713 180.00 1.75062 0.55
2 7 1 1 o 42833.22 44340.28 0.00 1.74375 3.19
1 7 2 1 o 46.767 49.495 0.00 1.74237 0.00
2 7 1 2 o 39847.74 44340.28 0.00 1.74375 1.45
5 3 1 1 o 652.190 771.023 0.00 1.73808 0.03
1 7 2 2 o 40.522 49.495 0.00 1.74237 0.00
5 3 1 2 o 286.080 771.023 0.00 1.73808 0.00
1 3 5 1 o 4675.549 5059.569 180.00 1.72724 0.29
5 2 2 1 o 9937.745 10604.578 0.00 1.72553 0.64
3 5 3 1 o 7522.783 8088.593 0.00 1.72550 0.59
1 3 5 2 o 5083.056 5059.569 180.00 1.72724 0.16
5 2 2 2 o 10451.209 10604.578 0.00 1.72553 0.34
3 5 3 2 o 7953.053 8088.593 0.00 1.72550 0.31
2 2 5 1 o 120655.57 121354.41 0.00 1.71624 7.69
2 2 5 2 o 115996.55 121354.41 0.00 1.71624 3.65
3 6 2 1 o 13130.552 15214.523 0.00 1.70805 0.86
2 6 3 1 o 12298.779 12242.265 180.00 1.70589 0.82
3 6 2 2 o 15180.544 15214.523 0.00 1.70805 0.52
2 6 3 2 o 12134.178 12242.265 180.00 1.70589 0.40
4 0 4 1 o 295957.63 283672.50 0.00 1.69549 9.45
4 0 4 2 o 279207.56 283672.50 0.00 1.69549 4.39
4 1 4 1 o 17223.424 15381.277 0.00 1.68199 1.15
4 1 4 2 o 17241.850 15381.277 0.00 1.68199 0.57
4 5 2 1 o 3494.694 3563.902 0.00 1.67467 0.26
4 5 2 2 o 3740.990 3563.902 0.00 1.67467 0.14
2 5 4 1 o 102268.82 101220.23 180.00 1.66980 6.52
0 8 0 1 o 247541.30 248943.89 0.00 1.66922 4.69
2 5 4 2 o 98236.20 101220.23 180.00 1.66980 3.09
0 8 0 2 o 241244.94 248943.89 0.00 1.66922 2.26
4 4 3 1 o 102.480 105.547 180.00 1.66462 0.00
2 7 2 1 o 687.267 778.187 0.00 1.66263 0.06
3 4 4 1 o 47686.95 53948.91 180.00 1.66183 2.86
4 4 3 2 o 92.254 105.547 180.00 1.66462 0.00
2 7 2 2 o 731.003 778.187 0.00 1.66263 0.03
5 3 2 1 o 17776.270 18200.646 180.00 1.65772 1.05
3 4 4 2 o 52679.19 53948.91 180.00 1.66183 1.61
5 3 2 2 o 19128.496 18200.646 180.00 1.65772 0.57
2 3 5 1 o 28375.313 31473.725 0.00 1.64947 1.68
2 3 5 2 o 29844.756 31473.725 0.00 1.64947 0.89
5 4 1 1 o 7458.204 6673.870 0.00 1.64337 0.44
4 2 4 1 o 7035.791 6219.115 0.00 1.64334 0.44
5 4 1 2 o 6481.153 6673.870 0.00 1.64337 0.18
4 2 4 2 o 6046.378 6219.115 0.00 1.64334 0.18
0 7 3 1 o 113449.11 114212.52 180.00 1.63649 3.74
5 1 3 1 o 53103.32 50982.55 180.00 1.63556 3.24
4 6 0 1 o 1666.697 1646.362 180.00 1.63425 0.05
1 4 5 1 o 291.674 289.614 0.00 1.63420 0.01
0 7 3 2 o 112719.29 114212.52 180.00 1.63649 1.84
5 1 3 2 o 54925.81 50982.55 180.00 1.63556 1.67
4 6 0 2 o 1878.233 1646.362 180.00 1.63425 0.03
1 4 5 2 o 319.698 289.614 0.00 1.63420 0.01
3 1 5 1 o 12977.868 11258.782 0.00 1.62952 0.79
0 6 4 1 o 8617.932 7635.987 180.00 1.62822 0.28
3 1 5 2 o 12339.715 11258.782 0.00 1.62952 0.37
0 6 4 2 o 9252.104 7635.987 180.00 1.62822 0.15
1 8 1 1 o 30839.861 29280.564 0.00 1.62085 2.18
1 8 1 2 o 30174.654 29280.564 0.00 1.62085 1.06
3 7 1 1 o 55405.67 53751.43 0.00 1.61628 3.58
1 7 3 1 o 9969.466 10322.863 0.00 1.61336 0.60
3 7 1 2 o 53202.59 53751.43 0.00 1.61628 1.69
4 6 1 1 o 3963.428 4217.177 0.00 1.61085 0.24
1 7 3 2 o 10066.964 10322.863 0.00 1.61336 0.30
4 6 1 2 o 4432.654 4217.177 0.00 1.61085 0.14
1 6 4 1 o 32320.502 29804.369 0.00 1.60543 1.97
6 0 0 1 o 78348.68 71885.06 180.00 1.60495 1.02
1 6 4 2 o 29501.156 29804.369 0.00 1.60543 0.88
6 0 0 2 o 71149.05 71885.06 180.00 1.60495 0.45
5 2 3 1 o 49227.77 50419.14 180.00 1.59996 2.49
5 2 3 2 o 43873.46 50419.14 180.00 1.59996 1.06
3 2 5 1 o 664.987 746.167 180.00 1.59430 0.07
6 1 0 1 o 88618.05 95420.68 0.00 1.59348 2.47
0 0 6 1 o 27047.303 30365.057 180.00 1.59218 0.39
3 2 5 2 o 561.886 746.167 180.00 1.59430 0.03
6 1 0 2 o 85275.91 95420.68 0.00 1.59348 1.18
0 0 6 2 o 26386.158 30365.057 180.00 1.59218 0.19
3 6 3 1 o 2394.479 2318.204 0.00 1.58600 0.09
4 3 4 1 o 7360.560 6258.420 0.00 1.58444 0.46
3 6 3 2 o 2196.082 2318.204 0.00 1.58600 0.04
4 3 4 2 o 6078.975 6258.420 0.00 1.58444 0.19
2 8 0 1 o 1956.776 2285.070 180.00 1.57713 0.03
0 8 2 1 o 15488.024 16820.344 0.00 1.57577 0.39
5 4 2 1 o 34552.316 36783.79 0.00 1.57495 1.88
2 8 0 2 o 2300.264 2285.070 180.00 1.57713 0.02
6 1 1 1 o 3240.404 3346.143 0.00 1.57177 0.14
0 8 2 2 o 16340.693 16820.344 0.00 1.57577 0.21
5 4 2 2 o 35371.94 36783.79 0.00 1.57495 0.96
1 0 6 1 o 3721.724 3847.375 180.00 1.57085 0.11
6 1 1 2 o 3302.095 3346.143 0.00 1.57177 0.07
2 4 5 1 o 24635.502 25027.129 180.00 1.56787 1.34
1 0 6 2 o 3665.034 3847.375 180.00 1.57085 0.05
2 4 5 2 o 23844.408 25027.129 180.00 1.56787 0.64
6 2 0 1 o 21255.213 20513.787 180.00 1.56050 0.56
1 1 6 1 o 25293.207 24651.396 180.00 1.56010 1.28
4 5 3 1 o 33661.035 33158.430 180.00 1.55916 1.85
3 5 4 1 o 3465.466 3120.958 0.00 1.55687 0.18
6 2 0 2 o 22981.473 20513.787 180.00 1.56050 0.30
1 1 6 2 o 27487.969 24651.396 180.00 1.56010 0.70
2 8 1 1 o 46288.35 41579.26 180.00 1.55607 2.82
4 5 3 2 o 36556.96 33158.430 180.00 1.55916 1.01
1 8 2 1 o 32861.887 29999.930 0.00 1.55509 1.97
0 5 5 1 o 1018.308 971.150 180.00 1.55392 0.03
3 5 4 2 o 3325.050 3120.958 0.00 1.55687 0.09
2 8 1 2 o 44685.43 41579.26 180.00 1.55607 1.34
1 8 2 2 o 30591.480 29999.930 0.00 1.55509 0.90
3 7 2 1 o 31.452 31.608 0.00 1.55105 0.00
0 5 5 2 o 870.589 971.150 180.00 1.55392 0.01
2 7 3 1 o 18262.578 22034.820 0.00 1.54944 1.05
0 2 6 1 o 10098.800 12020.836 0.00 1.54876 0.23
3 7 2 2 o 26.320 31.608 0.00 1.55105 0.00
4 6 2 1 o 18499.203 20166.691 0.00 1.54625 1.04
5 3 3 1 o 3518.254 3791.416 0.00 1.54546 0.21
2 7 3 2 o 20509.365 22034.820 0.00 1.54944 0.60
0 2 6 2 o 11547.621 12020.836 0.00 1.54876 0.14
4 6 2 2 o 18853.748 20166.691 0.00 1.54625 0.53
2 6 4 1 o 29354.016 31305.275 180.00 1.54241 1.63
5 3 3 2 o 3670.760 3791.416 0.00 1.54546 0.11
5 5 1 1 o 2697.699 2790.209 180.00 1.54166 0.18
3 3 5 1 o 29232.988 30096.707 0.00 1.54035 1.40
6 2 1 1 o 52975.66 54920.46 0.00 1.54009 2.64
2 6 4 2 o 28215.211 31305.275 180.00 1.54241 0.77
5 5 1 2 o 2454.539 2790.209 180.00 1.54166 0.08
3 3 5 2 o 29160.516 30096.707 0.00 1.54035 0.69
6 2 1 2 o 53935.17 54920.46 0.00 1.54009 1.34
1 5 5 1 o 21009.268 21966.465 180.00 1.53408 1.14
1 5 5 2 o 22831.164 21966.465 180.00 1.53408 0.63
1 2 6 1 o 35612.77 33587.582 0.00 1.52911 1.76
1 2 6 2 o 34210.168 33587.582 0.00 1.52911 0.83
6 0 2 1 o 50774.40 51330.18 180.00 1.52136 1.29
6 0 2 2 o 49480.33 51330.18 180.00 1.52136 0.62
6 1 2 1 o 2.279 3.536 0.00 1.51159 0.00
4 4 4 1 o 34963.918 37152.23 180.00 1.51171 1.86
2 0 6 1 o 25303.002 26959.109 180.00 1.51167 0.66
6 3 0 1 o 34010.305 35476.85 0.00 1.50981 0.90
6 1 2 2 o 1.642 3.536 0.00 1.51159 0.00
4 4 4 2 o 33554.781 37152.23 180.00 1.51171 0.89
2 0 6 2 o 24305.508 26959.109 180.00 1.51167 0.32
6 3 0 2 o 31804.926 35476.85 0.00 1.50981 0.41
2 1 6 1 o 17912.834 17519.033 0.00 1.50208 0.82
5 0 4 1 o 2718.486 2660.059 0.00 1.49920 0.06
2 1 6 2 o 17090.785 17519.033 0.00 1.50208 0.39
2 8 2 1 o 45037.89 47019.86 180.00 1.49761 2.67
5 0 4 2 o 2676.225 2660.059 0.00 1.49920 0.03
4 7 0 1 o 2248.995 2260.660 180.00 1.49516 0.08
2 8 2 2 o 46287.45 47019.86 180.00 1.49761 1.37
6 3 1 1 o 71603.91 73019.03 0.00 1.49130 3.39
4 7 0 2 o 2227.460 2260.660 180.00 1.49516 0.04
5 1 4 1 o 6970.210 7277.447 180.00 1.48984 0.31
6 3 1 2 o 68226.89 73019.03 0.00 1.49130 1.59
4 1 5 1 o 5574.510 5888.080 0.00 1.48727 0.25
5 1 4 2 o 7217.039 7277.447 180.00 1.48984 0.16
5 5 2 1 o 88602.04 92603.41 0.00 1.48475 4.31
4 1 5 2 o 5853.628 5888.080 0.00 1.48727 0.13
6 2 2 1 o 16937.828 16825.588 180.00 1.48335 0.76
1 3 6 1 o 9287.567 9506.299 180.00 1.48132 0.44
5 5 2 2 o 90234.60 92603.41 0.00 1.48475 2.19
6 2 2 2 o 17134.793 16825.588 180.00 1.48335 0.38
2 5 5 1 o 19797.809 19390.184 0.00 1.47882 1.00
5 4 3 1 o 15870.530 15454.546 0.00 1.47773 0.76
1 3 6 2 o 9772.321 9506.299 180.00 1.48132 0.23
4 7 1 1 o 182285.06 176635.72 180.00 1.47718 9.42
2 5 5 2 o 18729.561 19390.184 0.00 1.47882 0.47
2 2 6 1 o 4982.762 4971.648 180.00 1.47436 0.23
5 4 3 2 o 15643.269 15454.546 0.00 1.47773 0.37
4 7 1 2 o 183296.16 176635.72 180.00 1.47718 4.72
3 4 5 1 o 881.617 834.043 180.00 1.47327 0.04
1 7 4 1 o 131.369 121.662 0.00 1.47300 0.01
2 2 6 2 o 6040.326 4971.648 180.00 1.47436 0.14
3 4 5 2 o 1151.382 834.043 180.00 1.47327 0.03
1 7 4 2 o 179.336 121.662 0.00 1.47300 0.01
0 9 1 1 o 53975.25 48937.78 180.00 1.46617 1.48
3 8 1 1 o 6397.218 5439.703 180.00 1.46347 0.32
5 2 4 1 o 14876.856 12845.256 0.00 1.46278 0.68
0 9 1 2 o 56114.03 48937.78 180.00 1.46617 0.77
1 8 3 1 o 27729.861 25976.211 0.00 1.46129 1.41
4 2 5 1 o 6893.923 6411.997 0.00 1.46034 0.30
3 8 1 2 o 6004.795 5439.703 180.00 1.46347 0.15
5 2 4 2 o 14370.227 12845.256 0.00 1.46278 0.33
3 7 3 1 o 88592.38 87849.28 0.00 1.45794 4.26
1 8 3 2 o 25906.705 25976.211 0.00 1.46129 0.64
4 2 5 2 o 6512.429 6411.997 0.00 1.46034 0.14
3 7 3 2 o 89856.90 87849.28 0.00 1.45794 2.16
4 6 3 1 o 652.170 623.859 180.00 1.45395 0.03
3 6 4 1 o 1766.976 1335.494 180.00 1.45209 0.09
4 6 3 2 o 791.552 623.859 180.00 1.45395 0.02
1 9 1 1 o 4266.232 2951.929 180.00 1.44947 0.23
3 6 4 2 o 2341.740 1335.494 180.00 1.45209 0.06
6 4 0 1 o 6126.609 3384.742 180.00 1.44648 0.16
1 9 1 2 o 4976.568 2951.929 180.00 1.44947 0.14
6 4 0 2 o 5607.776 3384.742 180.00 1.44648 0.07
5 6 1 1 o 37997.12 35337.48 0.00 1.43973 1.91
6 3 2 1 o 634.283 572.872 180.00 1.43960 0.05
0 4 6 1 o 113596.95 111840.01 0.00 1.43711 2.73
5 6 1 2 o 34859.590 35337.48 0.00 1.43973 0.86
6 3 2 2 o 561.326 572.872 180.00 1.43960 0.02
0 4 6 2 o 116943.07 111840.01 0.00 1.43711 1.40
1 6 5 1 o 14994.640 14219.085 0.00 1.43355 0.81
4 5 4 1 o 17323.490 15208.056 180.00 1.43141 0.86
2 3 6 1 o 2485.738 2244.188 0.00 1.43138 0.09
6 4 1 1 o 13923.804 12450.347 180.00 1.43018 0.64
1 6 5 2 o 16462.504 14219.085 0.00 1.43355 0.45
4 5 4 2 o 15810.381 15208.056 180.00 1.43141 0.38
2 3 6 2 o 2312.755 2244.188 0.00 1.43138 0.04
4 7 2 1 o 3786.600 3775.434 0.00 1.42689 0.23
6 4 1 2 o 12554.372 12450.347 180.00 1.43018 0.28
3 0 6 1 o 139459.59 134237.22 180.00 1.42635 2.97
6 1 3 1 o 39555.04 34525.969 0.00 1.42502 1.73
2 7 4 1 o 157.545 138.314 180.00 1.42387 0.01
4 7 2 2 o 3963.274 3775.434 0.00 1.42689 0.12
3 0 6 2 o 137574.25 134237.22 180.00 1.42635 1.46
6 1 3 2 o 33608.664 34525.969 0.00 1.42502 0.71
1 4 6 1 o 91853.59 93716.09 0.00 1.42137 4.01
5 3 4 1 o 263.117 256.776 180.00 1.42078 0.01
2 7 4 2 o 151.074 138.314 180.00 1.42387 0.01
4 3 5 1 o 131669.77 131479.03 180.00 1.41855 5.60
3 1 6 1 o 15831.571 15390.073 0.00 1.41829 0.69
1 4 6 2 o 100784.50 93716.09 0.00 1.42137 2.23
2 9 0 1 o 97242.14 91247.97 180.00 1.41795 2.45
5 3 4 2 o 275.681 256.776 180.00 1.42078 0.00
4 3 5 2 o 139849.03 131479.03 180.00 1.41855 3.00
3 1 6 2 o 17140.934 15390.073 0.00 1.41829 0.37
3 8 2 1 o 8466.229 7284.040 0.00 1.41452 0.40
2 9 0 2 o 107702.34 91247.97 180.00 1.41795 1.38
2 8 3 1 o 19054.311 15416.171 0.00 1.41329 0.95
3 8 2 2 o 10010.777 7284.040 0.00 1.41452 0.24
2 8 3 2 o 22620.535 15416.171 0.00 1.41329 0.58
5 5 3 1 o 52.201 52.194 180.00 1.40247 0.00
2 9 1 1 o 26249.826 24356.566 0.00 1.40258 1.31
1 9 2 1 o 53335.34 47859.74 0.00 1.40187 2.63
6 2 3 1 o 18448.670 15831.168 180.00 1.40129 0.78
5 5 3 2 o 52.197 52.194 180.00 1.40247 0.00
2 9 1 2 o 24899.908 24356.566 0.00 1.40258 0.61
3 5 5 1 o 12343.646 11516.993 0.00 1.39865 0.49
1 9 2 2 o 54167.36 47859.74 0.00 1.40187 1.33
6 2 3 2 o 20072.451 15831.168 180.00 1.40129 0.43
3 5 5 2 o 14886.840 11516.993 0.00 1.39865 0.31
3 2 6 1 o 9735.902 7132.924 180.00 1.39488 0.42
5 6 2 1 o 199.175 123.526 180.00 1.39305 0.01
3 2 6 2 o 11248.169 7132.924 180.00 1.39488 0.25
5 6 2 2 o 157.564 123.526 180.00 1.39305 0.00
2 6 5 1 o 58750.79 57171.88 180.00 1.38815 2.57
2 6 5 2 o 61191.80 57171.88 180.00 1.38815 1.34
6 4 2 1 o 9676.023 8370.014 180.00 1.38439 0.38
6 4 2 2 o 12691.370 8370.014 180.00 1.38439 0.26
2 4 6 1 o 1793.481 1384.292 0.00 1.37708 0.12
6 5 0 1 o 105819.40 102952.48 180.00 1.37566 2.28
2 4 6 2 o 1281.049 1384.292 0.00 1.37708 0.05
6 5 0 2 o 109038.24 102952.48 180.00 1.37566 1.18
4 8 0 1 o 1600.096 1332.327 0.00 1.37174 0.05
4 8 0 2 o 2166.414 1332.327 0.00 1.37174 0.03
0 8 4 1 o 585.946 295.546 0.00 1.36817 0.02
5 4 4 1 o 20544.283 14936.814 0.00 1.36763 0.85
4 4 5 1 o 2926.828 1890.004 180.00 1.36564 0.13
0 8 4 2 o 625.525 295.546 0.00 1.36817 0.01
6 3 3 1 o 9322.349 7491.187 0.00 1.36423 0.39
5 4 4 2 o 18408.598 14936.814 0.00 1.36763 0.37
4 4 5 2 o 2021.157 1890.004 180.00 1.36564 0.04
6 5 1 1 o 37649.05 37540.24 0.00 1.36162 1.56
6 3 3 2 o 7649.180 7491.187 0.00 1.36423 0.15
2 9 2 1 o 5995.031 5491.580 180.00 1.35932 0.29
3 3 6 1 o 3704.976 3735.944 0.00 1.35832 0.15
6 5 1 2 o 37455.41 37540.24 0.00 1.36162 0.77
4 8 1 1 o 5923.276 5432.197 180.00 1.35781 0.27
0 1 7 1 o 772.377 697.980 180.00 1.35766 0.01
2 9 2 2 o 5529.273 5491.580 180.00 1.35932 0.13
3 3 6 2 o 3624.446 3735.944 0.00 1.35832 0.07
7 1 1 1 o 840.586 845.016 180.00 1.35460 0.02
1 8 4 1 o 17947.637 18092.660 0.00 1.35457 0.76
4 8 1 2 o 5422.530 5432.197 180.00 1.35781 0.12
0 1 7 2 o 704.224 697.980 180.00 1.35766 0.01
1 5 6 1 o 36882.85 35894.71 0.00 1.35401 1.48
4 7 3 1 o 140.050 131.454 0.00 1.35340 0.01
3 7 4 1 o 138.634 150.785 0.00 1.35190 0.01
7 1 1 2 o 824.552 845.016 180.00 1.35460 0.01
1 8 4 2 o 17242.119 18092.660 0.00 1.35457 0.36
1 5 6 2 o 34208.504 35894.71 0.00 1.35401 0.67
4 7 3 2 o 125.665 131.454 0.00 1.35340 0.00
0 7 5 1 o 153347.67 158433.81 180.00 1.34997 3.18
5 1 5 1 o 7372.119 7376.489 180.00 1.34945 0.26
4 6 4 1 o 63910.34 64581.25 0.00 1.34871 2.49
3 7 4 2 o 148.363 150.785 0.00 1.35190 0.00
0 7 5 2 o 154878.38 158433.81 180.00 1.34997 1.60
5 1 5 2 o 7417.341 7376.489 180.00 1.34945 0.13
4 6 4 2 o 63926.54 64581.25 0.00 1.34871 1.24
0 9 3 1 o 8245.313 8336.442 180.00 1.34492 0.18
1 1 7 1 o 66276.21 65199.88 180.00 1.34436 2.48
3 8 3 1 o 20201.604 20807.705 180.00 1.34283 0.90
5 7 1 1 o 5942.810 6145.007 180.00 1.34190 0.22
0 9 3 2 o 8189.652 8336.442 180.00 1.34492 0.09
1 1 7 2 o 67482.20 65199.88 180.00 1.34436 1.26
3 8 3 2 o 20601.176 20807.705 180.00 1.34283 0.46
5 7 1 2 o 6096.519 6145.007 180.00 1.34190 0.11
1 7 5 1 o 38943.80 36601.70 180.00 1.33690 1.64
0 10 0 1 o 15748.649 11477.762 180.00 1.33538 0.18
7 2 1 1 o 990.393 935.369 0.00 1.33417 0.03
1 7 5 2 o 34951.402 36601.70 180.00 1.33690 0.72
3 9 1 1 o 354.863 381.019 0.00 1.33364 0.03
6 0 4 1 o 691.985 604.809 0.00 1.33210 0.02
0 10 0 2 o 12739.547 11477.762 180.00 1.33538 0.07
1 9 3 1 o 18175.846 16110.507 180.00 1.33199 0.81
7 2 1 2 o 961.526 935.369 0.00 1.33417 0.02
3 9 1 2 o 385.064 381.019 0.00 1.33364 0.01
5 2 5 1 o 3239.587 2790.794 0.00 1.32924 0.11
6 0 4 2 o 710.371 604.809 0.00 1.33210 0.01
1 9 3 2 o 18236.871 16110.507 180.00 1.33199 0.40
4 0 6 1 o 47834.21 43522.76 0.00 1.32802 0.86
5 2 5 2 o 2789.323 2790.794 0.00 1.32924 0.04
6 1 4 1 o 25699.361 25569.701 180.00 1.32552 0.88
4 0 6 2 o 44245.98 43522.76 0.00 1.32802 0.39
5 6 3 1 o 18520.102 17897.051 0.00 1.32442 0.65
1 2 7 1 o 22597.436 21804.090 180.00 1.32438 0.72
6 1 4 2 o 25528.090 25569.701 180.00 1.32552 0.43
7 0 2 1 o 99107.54 98750.27 180.00 1.32194 1.77
6 5 2 1 o 133.440 133.315 180.00 1.32193 0.00
4 1 6 1 o 107.033 106.315 0.00 1.32150 0.00
3 6 5 1 o 79.234 74.049 0.00 1.32121 0.01
5 6 3 2 o 18232.314 17897.051 0.00 1.32442 0.32
1 2 7 2 o 22183.826 21804.090 180.00 1.32438 0.35
7 0 2 2 o 90659.23 98750.27 180.00 1.32194 0.79
6 5 2 2 o 130.634 133.315 180.00 1.32193 0.00
4 8 2 1 o 2207.417 2254.018 0.00 1.31845 0.06
4 1 6 2 o 106.821 106.315 0.00 1.32150 0.00
3 6 5 2 o 86.466 74.049 0.00 1.32121 0.00
6 4 3 1 o 5218.605 5203.761 0.00 1.31697 0.20
2 8 4 1 o 6574.897 6711.418 180.00 1.31607 0.21
7 1 2 1 o 6864.567 7004.336 0.00 1.31551 0.27
2 5 6 1 o 27450.449 28012.686 180.00 1.31556 1.03
4 8 2 2 o 2233.914 2254.018 0.00 1.31845 0.03
6 4 3 2 o 4593.534 5203.761 0.00 1.31697 0.09
2 8 4 2 o 6235.378 6711.418 180.00 1.31607 0.10
7 1 2 2 o 6218.170 7004.336 0.00 1.31551 0.12
2 5 6 2 o 25240.605 28012.686 180.00 1.31556 0.46
3 4 6 1 o 3571.819 4520.850 0.00 1.31165 0.13
1 10 1 1 o 313.748 398.858 0.00 1.31022 0.00
3 4 6 2 o 2451.421 4520.850 0.00 1.31165 0.04
5 5 4 1 o 4141.436 6069.238 0.00 1.30732 0.12
1 10 1 2 o 333.484 398.858 0.00 1.31022 0.00
2 1 7 1 o 1292.832 1774.122 0.00 1.30670 0.04
6 2 4 1 o 14216.225 19057.125 180.00 1.30636 0.47
4 5 5 1 o 12028.318 15818.316 180.00 1.30557 0.39
0 3 7 1 o 3852.150 5387.640 180.00 1.30478 0.07
5 5 4 2 o 4302.375 6069.238 0.00 1.30732 0.06
5 7 2 1 o 663.821 1044.839 180.00 1.30387 0.03
2 1 7 2 o 1314.305 1774.122 0.00 1.30670 0.02
6 2 4 2 o 14844.894 19057.125 180.00 1.30636 0.25
4 2 6 1 o 349.096 405.068 0.00 1.30250 0.01
4 5 5 2 o 13502.936 15818.316 180.00 1.30557 0.23
7 3 1 1 o 18734.311 21492.631 0.00 1.30207 0.58
6 6 0 1 o 59891.85 70291.31 180.00 1.30178 1.12
0 3 7 2 o 4527.330 5387.640 180.00 1.30478 0.04
5 7 2 2 o 706.304 1044.839 180.00 1.30387 0.02
2 7 5 1 o 1259.530 1655.627 0.00 1.29985 0.04
4 2 6 2 o 323.236 405.068 0.00 1.30250 0.00
7 3 1 2 o 17590.861 21492.631 0.00 1.30207 0.26
6 6 0 2 o 56297.59 70291.31 180.00 1.30178 0.52
5 3 5 1 o 23504.213 28988.434 180.00 1.29749 0.84
7 2 2 1 o 185.188 220.791 0.00 1.29677 0.01
2 7 5 2 o 1416.017 1655.627 0.00 1.29985 0.02
3 9 2 1 o 9932.154 11647.024 180.00 1.29628 0.35
2 9 3 1 o 10105.153 13777.404 0.00 1.29533 0.36
0 6 6 1 o 23.619 24.646 180.00 1.29494 0.00
5 3 5 2 o 21000.768 28988.434 180.00 1.29749 0.36
7 2 2 2 o 177.287 220.791 0.00 1.29677 0.00
1 3 7 1 o 1098.370 1358.499 0.00 1.29296 0.04
3 9 2 2 o 9665.764 11647.024 180.00 1.29628 0.17
2 9 3 2 o 10877.475 13777.404 0.00 1.29533 0.20
0 6 6 2 o 23.907 24.646 180.00 1.29494 0.00
6 6 1 1 o 23250.262 25597.555 180.00 1.28986 0.84
1 3 7 2 o 1233.763 1358.499 0.00 1.29296 0.02
2 2 7 1 o 121.454 111.713 0.00 1.28833 0.01
6 6 1 2 o 17912.293 25597.555 180.00 1.28986 0.30
2 10 0 1 o 18382.584 25360.334 180.00 1.28680 0.32
0 10 2 1 o 3104.420 4914.565 0.00 1.28606 0.05
2 2 7 2 o -26.001 111.713 0.00 1.28833 0.00
2 10 0 2 o 16565.449 25360.334 180.00 1.28680 0.14
1 6 6 1 o 842.775 1358.525 0.00 1.28339 0.03
0 10 2 2 o 3371.658 4914.565 0.00 1.28606 0.03
1 6 6 2 o 183.522 1358.525 0.00 1.28339 0.00
6 3 4 1 o 3326.604 3708.969 180.00 1.27618 0.09
2 10 1 1 o 10426.122 10067.679 180.00 1.27528 0.44
1 10 2 1 o 17691.975 17408.752 180.00 1.27474 0.73
6 3 4 2 o 3032.809 3708.969 180.00 1.27618 0.04
4 3 6 1 o 1.009 13.613 180.00 1.27259 0.00
2 10 1 2 o 9061.155 10067.679 180.00 1.27528 0.19
1 10 2 2 o 17354.359 17408.752 180.00 1.27474 0.36
4 3 6 2 o -36.680 13.613 180.00 1.27259 0.00
7 3 2 1 o 709.098 1499.195 0.00 1.26723 0.02
4 7 4 1 o 237.259 871.836 180.00 1.26730 0.02
7 3 2 2 o 1580.355 1499.195 0.00 1.26723 0.03
4 7 4 2 o 932.576 871.836 180.00 1.26730 0.02
4 9 0 1 o 7397.744 7698.951 180.00 1.26312 0.14
6 5 3 1 o 10264.435 10806.084 0.00 1.26286 0.35
7 4 1 1 o 2322.921 2019.653 180.00 1.26079 0.09
4 9 0 2 o 7791.264 7698.951 180.00 1.26312 0.07
6 5 3 2 o 10739.604 10806.084 0.00 1.26286 0.18
4 8 3 1 o 1886.425 1892.985 0.00 1.25982 0.07
2 3 7 1 o 2072.592 2151.822 0.00 1.25936 0.07
3 8 4 1 o 1757.855 2158.448 180.00 1.25861 0.06
3 5 6 1 o 8637.966 10920.218 180.00 1.25816 0.27
7 4 1 2 o 1512.600 2019.653 180.00 1.26079 0.03
7 1 3 1 o 9129.199 11652.447 180.00 1.25726 0.32
5 4 5 1 o 1706.196 1891.217 180.00 1.25663 0.06
4 8 3 2 o 1673.418 1892.985 0.00 1.25982 0.03
2 3 7 2 o 2056.948 2151.822 0.00 1.25936 0.03
6 6 2 1 o 17184.752 18171.568 180.00 1.25597 0.57
3 8 4 2 o 1895.422 2158.448 180.00 1.25861 0.04
3 5 6 2 o 8905.803 10920.218 180.00 1.25816 0.14
7 1 3 2 o 8482.160 11652.447 180.00 1.25726 0.15
5 4 5 2 o 1429.214 1891.217 180.00 1.25663 0.02
6 6 2 2 o 14818.831 18171.568 180.00 1.25597 0.24
1 4 7 1 o 9906.349 12198.413 0.00 1.25252 0.33
4 9 1 1 o 5596.033 7037.336 180.00 1.25222 0.20
5 8 1 1 o 14037.418 16837.992 180.00 1.25053 0.48
2 6 6 1 o 5316.105 6373.294 180.00 1.25050 0.17
3 1 7 1 o 677.663 852.909 180.00 1.25041 0.03
1 9 4 1 o 2173.072 2594.542 0.00 1.24967 0.06
1 4 7 2 o 9802.956 12198.413 0.00 1.25252 0.16
4 9 1 2 o 5780.882 7037.336 180.00 1.25222 0.10
5 8 1 2 o 14938.347 16837.992 180.00 1.25053 0.26
2 6 6 2 o 5674.142 6373.294 180.00 1.25050 0.09
3 1 7 2 o 746.011 852.909 180.00 1.25041 0.01
5 7 3 1 o 32786.191 35984.76 180.00 1.24708 1.17
1 9 4 2 o 2431.551 2594.542 0.00 1.24967 0.04
1 8 5 1 o 655.365 696.930 180.00 1.24648 0.02
3 7 5 1 o 2289.530 2629.124 0.00 1.24440 0.08
5 7 3 2 o 33300.676 35984.76 180.00 1.24708 0.59
5 6 4 1 o 2101.452 2181.328 0.00 1.24341 0.06
1 8 5 2 o 675.469 696.930 180.00 1.24648 0.01
2 10 2 1 o 22798.619 25257.336 180.00 1.24250 0.89
4 6 5 1 o 3542.442 3795.489 180.00 1.24191 0.12
3 7 5 2 o 2659.668 2629.124 0.00 1.24440 0.05
7 2 3 1 o 5628.222 5094.347 0.00 1.24086 0.20
5 6 4 2 o 2389.781 2181.328 0.00 1.24341 0.04
3 9 3 1 o 369.046 307.110 180.00 1.24044 0.02
2 10 2 2 o 22831.270 25257.336 180.00 1.24250 0.44
4 6 5 2 o 3636.522 3795.489 180.00 1.24191 0.06
7 2 3 2 o 5516.256 5094.347 0.00 1.24086 0.10
6 4 4 1 o 52363.54 47969.71 180.00 1.23724 1.79
3 9 3 2 o 354.246 307.110 180.00 1.24044 0.01
3 2 7 1 o 35441.71 35176.43 0.00 1.23428 1.23
6 4 4 2 o 48427.77 47969.71 180.00 1.23724 0.81
4 4 6 1 o 860.693 852.966 180.00 1.23397 0.02
3 2 7 2 o 36939.63 35176.43 0.00 1.23428 0.64
4 4 6 2 o 875.305 852.966 180.00 1.23397 0.01
7 4 2 1 o 32846.617 33037.418 0.00 1.22909 1.06
6 7 0 1 o 1530.958 1639.606 180.00 1.22813 0.04
5 0 6 1 o 43347.21 45882.38 0.00 1.22714 0.68
7 4 2 2 o 33190.016 33037.418 0.00 1.22909 0.54
6 7 0 2 o 1780.125 1639.606 180.00 1.22813 0.02
5 0 6 2 o 47398.83 45882.38 0.00 1.22714 0.38
6 1 5 1 o 26273.561 25798.076 0.00 1.22374 0.83
3 10 1 1 o 5774.891 5579.431 180.00 1.22280 0.25
5 1 6 1 o 30170.789 29732.045 0.00 1.22199 0.97
2 4 7 1 o 430.789 421.224 0.00 1.22190 0.02
1 10 3 1 o 12882.909 12397.761 0.00 1.22153 0.54
4 9 2 1 o 406.521 392.041 180.00 1.22114 0.02
6 1 5 2 o 26361.391 25798.076 0.00 1.22374 0.42
3 10 1 2 o 6062.938 5579.431 180.00 1.22280 0.13
5 8 2 1 o 45.123 42.432 180.00 1.21958 0.00
2 9 4 1 o 58024.70 54149.28 0.00 1.21925 2.09
5 1 6 2 o 31480.793 29732.045 0.00 1.22199 0.51
2 4 7 2 o 446.768 421.224 0.00 1.22190 0.01
1 10 3 2 o 13015.812 12397.761 0.00 1.22153 0.27
6 7 1 1 o 1753.443 1642.834 0.00 1.21810 0.06
4 9 2 2 o 420.213 392.041 180.00 1.22114 0.01
5 8 2 2 o 43.903 42.432 180.00 1.21958 0.00
2 8 5 1 o 40120.80 38690.40 0.00 1.21628 1.37
2 9 4 2 o 56093.41 54149.28 0.00 1.21925 1.00
0 5 7 1 o 2427.061 2475.144 180.00 1.21526 0.04
6 7 1 2 o 1591.173 1642.834 0.00 1.21810 0.03
7 3 3 1 o 83025.42 87367.49 0.00 1.21492 2.64
2 8 5 2 o 37850.17 38690.40 0.00 1.21628 0.64
7 5 1 1 o 136.141 136.715 0.00 1.21307 0.00
1 7 6 1 o 95.835 100.128 180.00 1.21264 0.00
0 5 7 2 o 2399.268 2475.144 180.00 1.21526 0.02
7 3 3 2 o 86376.31 87367.49 0.00 1.21492 1.38
7 5 1 2 o 136.915 136.715 0.00 1.21307 0.00
1 7 6 2 o 101.175 100.128 180.00 1.21264 0.00
5 5 5 1 o 18697.951 18572.375 180.00 1.20937 0.64
3 3 7 1 o 123651.98 125954.48 0.00 1.20874 3.91
6 2 5 1 o 48178.26 49405.47 180.00 1.20861 1.48
5 2 6 1 o 11336.685 10911.436 0.00 1.20692 0.36
5 5 5 2 o 18849.957 18572.375 180.00 1.20937 0.32
3 3 7 2 o 123386.92 125954.48 0.00 1.20874 1.94
6 2 5 2 o 48343.05 49405.47 180.00 1.20861 0.74
1 5 7 1 o 6402.375 6534.089 180.00 1.20570 0.19
6 6 3 1 o 8466.019 8524.727 0.00 1.20498 0.28
0 11 1 1 o 106941.29 107202.34 180.00 1.20429 2.00
5 2 6 2 o 10775.706 10911.436 0.00 1.20692 0.17
8 0 0 1 o 112582.82 114569.38 0.00 1.20371 0.85
1 5 7 2 o 6408.051 6534.089 180.00 1.20570 0.10
6 6 3 2 o 8344.697 8524.727 0.00 1.20498 0.14
0 11 1 2 o 107213.29 107202.34 180.00 1.20429 1.00
8 0 0 2 o 113558.95 114569.38 0.00 1.20371 0.43
3 6 6 1 o 50558.79 50770.02 180.00 1.20090 1.60
8 1 0 1 o 24347.709 22545.264 0.00 1.19885 0.40
3 6 6 2 o 52431.80 50770.02 180.00 1.20090 0.83
8 1 0 2 o 27576.502 22545.264 0.00 1.19885 0.23
1 11 1 1 o 16758.438 14453.724 180.00 1.19498 0.63
0 0 8 1 o 53461.05 49099.87 0.00 1.19414 0.43
3 10 2 1 o 59695.70 56269.23 180.00 1.19381 2.10
2 10 3 1 o 3466.122 3385.039 0.00 1.19307 0.13
7 0 4 1 o 35663.71 35094.37 180.00 1.19206 0.54
6 5 4 1 o 35067.633 34539.652 0.00 1.19205 1.05
1 11 1 2 o 14684.441 14453.724 180.00 1.19498 0.27
0 0 8 2 o 48554.71 49099.87 0.00 1.19414 0.19
3 10 2 2 o 56947.29 56269.23 180.00 1.19381 0.99
2 10 3 2 o 3457.524 3385.039 0.00 1.19307 0.06
8 1 1 1 o 789.397 815.678 180.00 1.18952 0.02
6 7 2 1 o 1935.529 2038.769 0.00 1.18944 0.08
4 8 4 1 o 65411.45 67735.64 0.00 1.18950 2.21
7 0 4 2 o 32857.539 35094.37 180.00 1.19206 0.24
6 5 4 2 o 32428.633 34539.652 0.00 1.19205 0.47
4 5 6 1 o 576.727 606.296 180.00 1.18912 0.01
7 1 4 1 o 157.951 151.285 0.00 1.18734 0.00
8 1 1 2 o 816.082 815.678 180.00 1.18952 0.01
6 7 2 2 o 2021.242 2038.769 0.00 1.18944 0.04
4 8 4 2 o 67624.23 67735.64 0.00 1.18950 1.15
4 5 6 2 o 601.198 606.296 180.00 1.18912 0.01
1 0 8 1 o 774.119 595.127 0.00 1.18506 0.01
7 5 2 1 o 5468.768 4162.164 180.00 1.18475 0.18
8 2 0 1 o 5250.604 3987.849 0.00 1.18462 0.08
2 7 6 1 o 619.711 447.357 0.00 1.18479 0.02
6 3 5 1 o 947.191 692.007 180.00 1.18459 0.03
7 1 4 2 o 200.747 151.285 0.00 1.18734 0.00
5 3 6 1 o 9103.796 6752.834 0.00 1.18301 0.29
4 1 7 1 o 2186.146 1670.089 180.00 1.18257 0.06
1 0 8 2 o 896.796 595.127 0.00 1.18506 0.01
7 5 2 2 o 6123.676 4162.164 180.00 1.18475 0.10
8 2 0 2 o 5767.023 3987.849 0.00 1.18462 0.04
2 7 6 2 o 710.219 447.357 0.00 1.18479 0.01
6 3 5 2 o 1047.047 692.007 180.00 1.18459 0.02
7 4 3 1 o 1269.652 884.190 180.00 1.18118 0.04
1 1 8 1 o 15532.495 13096.868 180.00 1.18042 0.48
5 3 6 2 o 7775.127 6752.834 0.00 1.18301 0.12
4 1 7 2 o 2010.308 1670.089 180.00 1.18257 0.03
5 7 4 1 o 3.462 1.819 0.00 1.17876 0.00
7 4 3 2 o 1156.895 884.190 180.00 1.18118 0.02
2 5 7 1 o 1621.470 1247.983 0.00 1.17831 0.05
1 1 8 2 o 15685.281 13096.868 180.00 1.18042 0.24
4 7 5 1 o 28696.375 24053.285 0.00 1.17748 0.94
2 11 0 1 o 21072.504 17707.525 0.00 1.17714 0.40
5 7 4 2 o 2.125 1.819 0.00 1.17876 0.00
8 2 1 1 o 12522.436 11934.646 0.00 1.17561 0.37
3 4 7 1 o 3882.827 3723.243 180.00 1.17550 0.12
0 2 8 1 o 245.286 236.826 180.00 1.17548 0.00
2 5 7 2 o 1297.141 1247.983 0.00 1.17831 0.02
4 7 5 2 o 25420.537 24053.285 0.00 1.17748 0.40
2 11 0 2 o 18392.686 17707.525 0.00 1.17714 0.17
4 9 3 1 o 19288.473 18737.238 180.00 1.17412 0.64
7 2 4 1 o 4305.640 4285.506 180.00 1.17350 0.13
3 9 4 1 o 3256.134 3256.024 180.00 1.17314 0.11
8 2 1 2 o 11769.165 11934.646 0.00 1.17561 0.17
5 8 3 1 o 28093.615 28478.859 180.00 1.17273 0.90
3 4 7 2 o 3647.616 3723.243 180.00 1.17550 0.05
0 2 8 2 o 232.643 236.826 180.00 1.17548 0.00
0 9 5 1 o 248.131 261.497 180.00 1.17188 0.00
4 9 3 2 o 18647.223 18737.238 180.00 1.17412 0.30
7 2 4 2 o 4652.543 4285.506 180.00 1.17350 0.07
3 8 5 1 o 1489.951 1352.800 0.00 1.17050 0.05
3 9 4 2 o 3572.140 3256.024 180.00 1.17314 0.06
5 8 3 2 o 29992.637 28478.859 180.00 1.17273 0.49
4 2 7 1 o 102.133 102.715 180.00 1.16890 0.00
0 9 5 2 o 260.473 261.497 180.00 1.17188 0.00
2 11 1 1 o 9327.166 9479.512 0.00 1.16830 0.32
1 11 2 1 o 8118.575 8026.940 180.00 1.16789 0.28
4 10 0 1 o 122388.05 120689.15 0.00 1.16776 2.06
3 8 5 2 o 1375.264 1352.800 0.00 1.17050 0.02
8 0 2 1 o 23107.008 22578.781 0.00 1.16722 0.33
1 2 8 1 o 23339.797 22808.797 0.00 1.16682 0.68
5 9 1 1 o 764.845 750.235 0.00 1.16659 0.04
4 2 7 2 o 106.983 102.715 180.00 1.16890 0.00
0 10 4 1 o 114138.41 108913.84 0.00 1.16555 1.97
2 11 1 2 o 9859.830 9479.512 0.00 1.16830 0.17
1 11 2 2 o 8129.119 8026.940 180.00 1.16789 0.14
4 10 0 2 o 122063.70 120689.15 0.00 1.16776 1.03
8 0 2 2 o 23591.693 22578.781 0.00 1.16722 0.17
1 2 8 2 o 24038.260 22808.797 0.00 1.16682 0.35
5 9 1 2 o 804.725 750.235 0.00 1.16659 0.02
1 9 5 1 o 5465.896 5340.564 180.00 1.16330 0.17
8 1 2 1 o 4.875 3.247 180.00 1.16279 0.00
0 10 4 2 o 112841.07 108913.84 0.00 1.16555 0.97
8 3 0 1 o 11799.968 10883.784 0.00 1.16198 0.20
7 6 1 1 o 648.834 553.796 180.00 1.16150 0.02
1 9 5 2 o 7190.364 5340.564 180.00 1.16330 0.12
8 1 2 2 o 19.409 3.247 180.00 1.16279 0.00
8 3 0 2 o 15002.049 10883.784 0.00 1.16198 0.13
2 0 8 1 o 2468.160 1744.469 0.00 1.15902 0.05
4 10 1 1 o 1247.992 920.142 180.00 1.15913 0.05
7 6 1 2 o 702.439 553.796 180.00 1.16150 0.01
5 6 5 1 o 1006.636 827.898 180.00 1.15825 0.03
1 10 4 1 o 598.903 583.002 0.00 1.15711 0.02
6 8 0 1 o 32079.002 30466.564 180.00 1.15692 0.49
2 0 8 2 o 2151.566 1744.469 0.00 1.15902 0.02
4 10 1 2 o 1095.354 920.142 180.00 1.15913 0.02
5 6 5 2 o 876.922 827.898 180.00 1.15825 0.01
1 6 7 1 o 12321.163 11480.299 0.00 1.15502 0.33
2 1 8 1 o 15431.030 14595.388 180.00 1.15468 0.43
1 10 4 2 o 605.531 583.002 0.00 1.15711 0.01
6 8 0 2 o 31526.838 30466.564 180.00 1.15692 0.24
8 3 1 1 o 70751.92 69312.21 180.00 1.15347 2.04
6 4 5 1 o 8523.641 8511.820 0.00 1.15325 0.24
1 6 7 2 o 11822.873 11480.299 0.00 1.15502 0.16
0 8 6 1 o 5436.249 5179.937 180.00 1.15211 0.10
2 1 8 2 o 15497.957 14595.388 180.00 1.15468 0.22
5 4 6 1 o 1965.956 1835.618 0.00 1.15179 0.06
7 3 4 1 o 735.228 662.151 0.00 1.15148 0.02
8 3 1 2 o 77592.91 69312.21 180.00 1.15347 1.14
6 4 5 2 o 9562.384 8511.820 0.00 1.15325 0.14
8 2 2 1 o 15512.880 12768.105 0.00 1.14978 0.47
3 10 3 1 o 265.846 242.322 180.00 1.14976 0.00
0 8 6 2 o 6479.076 5179.937 180.00 1.15211 0.06
5 4 6 2 o 2162.249 1835.618 0.00 1.15179 0.03
7 3 4 2 o 749.700 662.151 0.00 1.15148 0.01
6 8 1 1 o 21205.090 19563.551 0.00 1.14853 0.67
4 3 7 1 o 869.661 737.691 180.00 1.14713 0.03
8 2 2 2 o 15741.540 12768.105 0.00 1.14978 0.24
3 10 3 2 o 268.155 242.322 180.00 1.14976 0.00
6 7 3 1 o 27218.697 23860.660 0.00 1.14586 0.84
6 8 1 2 o 21971.863 19563.551 0.00 1.14853 0.35
1 3 8 1 o 4286.292 3854.004 180.00 1.14517 0.13
4 3 7 2 o 737.704 737.691 180.00 1.14713 0.01
1 8 6 1 o 1027.460 1003.264 0.00 1.14396 0.03
6 7 3 2 o 26385.348 23860.660 0.00 1.14586 0.40
6 6 4 1 o 630.520 570.615 180.00 1.14301 0.02
2 11 2 1 o 63.910 61.002 0.00 1.14294 0.00
1 3 8 2 o 4201.274 3854.004 180.00 1.14517 0.06
3 7 6 1 o 10.861 9.369 180.00 1.14235 0.00
2 2 8 1 o 276.726 252.682 180.00 1.14195 0.01
7 5 3 1 o 20130.539 18013.574 0.00 1.14167 0.64
5 9 2 1 o 47897.61 44422.05 180.00 1.14134 1.52
1 8 6 2 o 1060.113 1003.264 0.00 1.14396 0.02
4 6 6 1 o 22106.994 21560.555 0.00 1.14043 0.66
6 6 4 2 o 584.555 570.615 180.00 1.14301 0.01
2 11 2 2 o 61.727 61.002 0.00 1.14294 0.00
3 7 6 2 o 10.189 9.369 180.00 1.14235 0.00
2 2 8 2 o 260.400 252.682 180.00 1.14195 0.00
7 5 3 2 o 18621.301 18013.574 0.00 1.14167 0.29
2 9 5 1 o 7535.292 7305.142 0.00 1.13864 0.24
5 9 2 2 o 45931.21 44422.05 180.00 1.14134 0.72
4 6 6 2 o 22582.859 21560.555 0.00 1.14043 0.34
7 6 2 1 o 33225.762 34102.125 180.00 1.13657 0.95
3 5 7 1 o 31797.768 32891.012 0.00 1.13653 0.95
2 9 5 2 o 6499.220 7305.142 0.00 1.13864 0.10
4 10 2 1 o 19396.596 19843.217 0.00 1.13435 0.59
0 11 3 1 o 24.421 25.438 0.00 1.13434 0.00
7 6 2 2 o 32005.111 34102.125 180.00 1.13657 0.45
3 5 7 2 o 30727.563 32891.012 0.00 1.13653 0.45
2 10 4 1 o 1986.790 1800.706 180.00 1.13283 0.06
8 4 0 1 o 3388.011 2754.060 180.00 1.13236 0.05
4 10 2 2 o 24746.164 19843.217 0.00 1.13435 0.40
0 11 3 2 o 36.479 25.438 0.00 1.13434 0.00
2 6 7 1 o 15.218 11.931 0.00 1.13088 0.00
6 0 6 1 o 587.220 299.207 180.00 1.13033 0.01
2 10 4 2 o 2556.027 1800.706 180.00 1.13283 0.04
8 4 0 2 o 3898.528 2754.060 180.00 1.13236 0.03
8 3 2 1 o 616.853 391.029 180.00 1.12905 0.03
2 6 7 2 o 13.497 11.931 0.00 1.13088 0.00
6 0 6 2 o 440.511 299.207 180.00 1.13033 0.00
3 11 1 1 o 12356.431 9292.441 180.00 1.12755 0.43
1 11 3 1 o 32924.469 29019.260 180.00 1.12655 1.08
6 1 6 1 o 15942.186 14618.869 180.00 1.12630 0.48
8 3 2 2 o 441.558 391.029 180.00 1.12905 0.01
3 11 1 2 o 9535.474 9292.441 180.00 1.12755 0.16
8 4 1 1 o 2028.212 2020.651 180.00 1.12448 0.06
6 8 2 1 o 22853.963 22881.428 180.00 1.12441 0.72
0 4 8 1 o 32352.193 32487.152 180.00 1.12437 0.49
1 11 3 2 o 29129.215 29019.260 180.00 1.12655 0.46
6 1 6 2 o 14701.193 14618.869 180.00 1.12630 0.22
7 4 4 1 o 48.049 45.796 180.00 1.12264 0.00
8 1 3 1 o 21346.416 21643.836 180.00 1.12197 0.57
7 4 4 2 o 44.212 45.796 180.00 1.12264 0.00
8 4 1 2 o 1939.025 2020.651 180.00 1.12448 0.03
2 3 8 1 o 3464.053 3637.875 180.00 1.12162 0.09
6 8 2 2 o 21707.549 22881.428 180.00 1.12441 0.34
0 4 8 2 o 30633.100 32487.152 180.00 1.12437 0.23
8 1 3 2 o 20686.961 21643.836 180.00 1.12197 0.27
3 0 8 1 o 62423.81 65542.22 180.00 1.11920 0.83
2 3 8 2 o 3192.146 3637.875 180.00 1.12162 0.04
4 4 7 1 o 2.713 3.837 180.00 1.11860 0.00
2 8 6 1 o 11512.982 11704.238 180.00 1.12048 0.39
2 8 6 2 o 11237.769 11704.238 180.00 1.12048 0.19
1 4 8 1 o 40523.45 41719.59 0.00 1.11679 1.10
4 9 4 1 o 6412.765 6806.067 0.00 1.11657 0.21
3 0 8 2 o 61358.24 65542.22 180.00 1.11920 0.41
6 5 5 1 o 1945.408 2077.458 0.00 1.11639 0.05
4 4 7 2 o 3.704 3.837 180.00 1.11860 0.00
5 8 4 1 o 2854.116 2849.490 0.00 1.11538 0.08
3 1 8 1 o 5161.612 5177.506 0.00 1.11529 0.14
5 5 6 1 o 30681.885 31188.145 180.00 1.11507 0.86
6 2 6 1 o 6607.602 6642.994 180.00 1.11447 0.19
4 8 5 1 o 2610.908 2582.585 0.00 1.11429 0.08
1 4 8 2 o 43142.29 41719.59 0.00 1.11679 0.59
4 9 4 2 o 7140.645 6806.067 0.00 1.11657 0.12
6 5 5 2 o 2174.253 2077.458 0.00 1.11639 0.03
0 12 0 1 o 1963.400 1870.217 0.00 1.11281 0.01
7 1 5 1 o 29889.846 28843.049 0.00 1.11252 0.88
5 8 4 2 o 2997.266 2849.490 0.00 1.11538 0.04
3 1 8 2 o 5377.887 5177.506 0.00 1.11529 0.07
5 5 6 2 o 31051.582 31188.145 180.00 1.11507 0.43
6 2 6 2 o 6818.441 6642.994 180.00 1.11447 0.10
4 8 5 2 o 2812.365 2582.585 0.00 1.11429 0.04
8 2 3 1 o 3649.143 2870.902 180.00 1.11028 0.10
0 7 7 1 o 133.342 111.818 180.00 1.10995 0.00
0 12 0 2 o 2206.857 1870.217 0.00 1.11281 0.01
7 1 5 2 o 35474.18 28843.049 0.00 1.11252 0.53
5 1 7 1 o 7433.365 6061.738 180.00 1.10966 0.23
7 7 1 1 o 11993.531 8993.934 180.00 1.10828 0.34
8 2 3 2 o 3890.734 2870.902 180.00 1.11028 0.05
0 7 7 2 o 153.199 111.818 180.00 1.10995 0.00
5 1 7 2 o 9317.904 6061.738 180.00 1.10966 0.15
7 7 1 2 o 10883.014 8993.934 180.00 1.10828 0.15
5 7 5 1 o 2261.896 1904.945 180.00 1.10545 0.06
3 11 2 1 o 4251.121 3669.113 0.00 1.10470 0.14
2 11 3 1 o 14744.201 13402.270 0.00 1.10411 0.47
3 2 8 1 o 6217.983 5887.134 180.00 1.10380 0.17
5 7 5 2 o 1886.843 1904.945 180.00 1.10545 0.02
5 9 3 1 o 6331.762 6473.435 180.00 1.10267 0.22
1 7 7 1 o 66540.10 68026.87 180.00 1.10265 1.88
8 4 2 1 o 5629.466 6121.960 0.00 1.10182 0.15
3 11 2 2 o 3365.757 3669.113 0.00 1.10470 0.05
2 11 3 2 o 12652.344 13402.270 0.00 1.10411 0.20
7 2 5 1 o 792.955 834.705 180.00 1.10111 0.02
3 2 8 2 o 5641.135 5887.134 180.00 1.10380 0.07
3 9 5 1 o 13471.478 14090.448 0.00 1.10081 0.41
5 9 3 2 o 5881.560 6473.435 180.00 1.10267 0.10
1 7 7 2 o 62707.34 68026.87 180.00 1.10265 0.87
8 4 2 2 o 5990.788 6121.960 0.00 1.10182 0.08
7 2 5 2 o 816.761 834.705 180.00 1.10111 0.01
7 6 3 1 o 3076.461 3159.699 180.00 1.09837 0.09
5 2 7 1 o 51436.93 52956.34 0.00 1.09834 1.42
3 9 5 2 o 13200.924 14090.448 0.00 1.10081 0.20
1 12 1 1 o 15818.226 16841.609 180.00 1.09813 0.53
8 5 0 1 o 20548.641 25291.604 180.00 1.09740 0.29
4 10 3 1 o 203.818 224.340 0.00 1.09636 0.01
7 6 3 2 o 3083.810 3159.699 180.00 1.09837 0.05
5 2 7 2 o 51667.26 52956.34 0.00 1.09834 0.71
6 3 6 1 o 6503.378 6736.462 180.00 1.09556 0.20
3 10 4 1 o 20671.785 21309.416 180.00 1.09556 0.62
1 12 1 2 o 16037.258 16841.609 180.00 1.09813 0.27
2 4 8 1 o 6901.809 7850.546 180.00 1.09491 0.22
8 5 0 2 o 22517.295 25291.604 180.00 1.09740 0.16
3 6 7 1 o 15625.130 15890.115 180.00 1.09379 0.47
4 10 3 2 o 217.821 224.340 0.00 1.09636 0.00
6 3 6 2 o 6349.310 6736.462 180.00 1.09556 0.10
3 10 4 2 o 20237.029 21309.416 180.00 1.09556 0.30
2 4 8 2 o 8258.093 7850.546 180.00 1.09491 0.13
6 7 4 1 o 2042.314 1926.983 180.00 1.09218 0.08
8 3 3 1 o 224.314 210.683 180.00 1.09157 0.01
3 6 7 2 o 17430.680 15890.115 180.00 1.09379 0.27
8 5 1 1 o 21727.824 20120.555 180.00 1.09023 0.60
5 10 1 1 o 5030.706 4629.394 180.00 1.09022 0.17
4 7 6 1 o 209.626 196.891 0.00 1.08993 0.01
6 7 4 2 o 1953.626 1926.983 180.00 1.09218 0.04
6 9 0 1 o 43816.02 43339.21 0.00 1.08950 0.65
8 3 3 2 o 222.408 210.683 180.00 1.09157 0.00
7 5 4 1 o 485.459 434.457 180.00 1.08855 0.01
8 5 1 2 o 21507.383 20120.555 180.00 1.09023 0.30
5 10 1 2 o 4967.686 4629.394 180.00 1.09022 0.08
1 10 5 1 o 5849.161 5407.844 180.00 1.08753 0.22
6 8 3 1 o 6593.183 6402.624 180.00 1.08738 0.19
4 7 6 2 o 196.989 196.891 0.00 1.08993 0.00
6 9 0 2 o 40103.34 43339.21 0.00 1.08950 0.29
7 7 2 1 o 69.612 85.546 180.00 1.08656 0.00
7 5 4 2 o 361.257 434.457 180.00 1.08855 0.00
3 3 8 1 o 1092.791 1208.021 0.00 1.08541 0.03
4 5 7 1 o 1353.489 1436.162 180.00 1.08487 0.04
1 10 5 2 o 5047.364 5407.844 180.00 1.08753 0.09
6 8 3 2 o 6141.343 6402.624 180.00 1.08738 0.09
3 8 6 1 o 35992.23 38228.79 180.00 1.08438 1.01
2 12 0 1 o 24406.410 26972.223 180.00 1.08423 0.41
7 7 2 2 o 67.374 85.546 180.00 1.08656 0.00
4 11 0 1 o 2322.856 2775.953 0.00 1.08396 0.04
0 12 2 1 o 14715.544 17971.965 0.00 1.08379 0.25
1 5 8 1 o 12872.943 16076.958 0.00 1.08321 0.33
7 3 5 1 o 0.566 2.956 0.00 1.08286 0.00
3 3 8 2 o 1004.999 1208.021 0.00 1.08541 0.01
6 9 1 1 o 13684.053 15919.050 0.00 1.08248 0.37
4 5 7 2 o 1280.068 1436.162 180.00 1.08487 0.02
3 8 6 2 o 36124.17 38228.79 180.00 1.08438 0.51
2 7 7 1 o 1177.139 1230.158 0.00 1.08158 0.03
2 12 0 2 o 25722.875 26972.223 180.00 1.08423 0.22
4 11 0 2 o 2696.400 2775.953 0.00 1.08396 0.02
0 12 2 2 o 17659.416 17971.965 0.00 1.08379 0.15
1 5 8 2 o 16368.783 16076.958 0.00 1.08321 0.22
7 3 5 2 o 2.559 2.956 0.00 1.08286 0.00
5 3 7 1 o 24763.359 25336.838 180.00 1.08022 0.61
6 9 1 2 o 14226.090 15919.050 0.00 1.08248 0.20
2 7 7 2 o 1275.752 1230.158 0.00 1.08158 0.02
1 9 6 1 o 16663.178 15891.852 180.00 1.07865 0.48
5 3 7 2 o 29288.867 25336.838 180.00 1.08022 0.38
2 12 1 1 o 29019.436 25003.684 0.00 1.07732 0.92
4 11 1 1 o 1722.598 1516.896 0.00 1.07705 0.06
1 12 2 1 o 552.354 488.120 0.00 1.07699 0.02
1 9 6 2 o 16939.285 15891.852 180.00 1.07865 0.24
6 6 5 1 o 21953.123 21180.570 0.00 1.07580 0.60
1 11 4 1 o 1711.450 1725.640 180.00 1.07542 0.06
8 0 4 1 o 6039.371 5756.361 180.00 1.07490 0.08
5 6 6 1 o 20486.318 18856.826 0.00 1.07462 0.56
2 12 1 2 o 27091.223 25003.684 0.00 1.07732 0.42
4 11 1 2 o 1664.169 1516.896 0.00 1.07705 0.03
1 12 2 2 o 539.307 488.120 0.00 1.07699 0.01
6 6 5 2 o 22208.488 21180.570 0.00 1.07580 0.30
1 11 4 2 o 1695.463 1725.640 180.00 1.07542 0.03
8 0 4 2 o 5172.066 5756.361 180.00 1.07490 0.03
5 6 6 2 o 16622.496 18856.826 0.00 1.07462 0.21
8 1 4 1 o 2839.828 3105.020 180.00 1.07144 0.05
6 4 6 1 o 6207.259 6361.411 180.00 1.07063 0.15
4 0 8 1 o 10805.754 10669.869 180.00 1.06976 0.13
8 5 2 1 o 9.945 9.930 180.00 1.06954 0.00
5 10 2 1 o 14063.291 13968.867 0.00 1.06953 0.41
3 11 3 1 o 5747.774 5716.262 180.00 1.06952 0.16
8 1 4 2 o 2874.237 3105.020 180.00 1.07144 0.03
6 4 6 2 o 6735.135 6361.411 180.00 1.07063 0.08
2 10 5 1 o 6126.895 6503.108 0.00 1.06731 0.17
4 0 8 2 o 10325.838 10669.869 180.00 1.06976 0.06
8 4 3 1 o 336.487 340.116 0.00 1.06691 0.01
8 5 2 2 o 9.909 9.930 180.00 1.06954 0.00
5 10 2 2 o 13812.903 13968.867 0.00 1.06953 0.20
3 11 3 2 o 5658.746 5716.262 180.00 1.06952 0.08
4 1 8 1 o 23.952 23.944 180.00 1.06635 0.00
2 10 5 2 o 8446.074 6503.108 0.00 1.06731 0.13
8 4 3 2 o 404.735 340.116 0.00 1.06691 0.01
4 1 8 2 o 23.869 23.944 180.00 1.06635 0.00
2 5 8 1 o 15553.700 17441.314 0.00 1.06322 0.38
6 9 2 1 o 603.593 631.846 0.00 1.06222 0.01
8 2 4 1 o 15071.172 14477.146 0.00 1.06124 0.39
3 4 8 1 o 119.574 115.869 0.00 1.06115 0.00
2 5 8 2 o 15364.856 17441.314 0.00 1.06322 0.19
9 1 1 1 o 266.801 348.265 0.00 1.05996 0.01
6 9 2 2 o 624.809 631.846 0.00 1.06222 0.01
8 6 0 1 o 44085.02 44862.00 0.00 1.05878 0.58
7 4 5 1 o 174.797 179.236 0.00 1.05877 0.01
2 9 6 1 o 13878.324 13648.679 0.00 1.05890 0.39
8 2 4 2 o 13586.844 14477.146 0.00 1.06124 0.17
3 4 8 2 o 106.534 115.869 0.00 1.06115 0.00
0 1 9 1 o 12113.888 14256.885 0.00 1.05812 0.14
9 1 1 2 o 225.631 348.265 0.00 1.05996 0.01
2 12 2 1 o 3842.212 4637.536 180.00 1.05733 0.09
4 11 2 1 o 413.523 553.704 180.00 1.05708 0.02
5 4 7 1 o 7035.906 7063.633 180.00 1.05630 0.18
4 2 8 1 o 2871.834 2885.566 0.00 1.05629 0.08
8 6 0 2 o 43983.34 44862.00 0.00 1.05878 0.29
7 4 5 2 o 174.654 179.236 0.00 1.05877 0.00
2 9 6 2 o 13589.605 13648.679 0.00 1.05890 0.19
2 11 4 1 o 6053.073 6666.438 180.00 1.05585 0.16
0 1 9 2 o 12062.671 14256.885 0.00 1.05812 0.07
7 8 1 1 o 830.544 1030.166 0.00 1.05511 0.02
2 12 2 2 o 3976.336 4637.536 180.00 1.05733 0.05
5 9 4 1 o 4388.558 5193.720 180.00 1.05459 0.12
4 11 2 2 o 438.116 553.704 180.00 1.05708 0.01
5 4 7 2 o 6610.667 7063.633 180.00 1.05630 0.08
4 2 8 2 o 2690.438 2885.566 0.00 1.05629 0.04
4 9 5 1 o 12730.256 13599.897 180.00 1.05368 0.35
2 11 4 2 o 6481.518 6666.438 180.00 1.05585 0.09
7 7 3 1 o 20613.740 21049.658 180.00 1.05303 0.58
5 8 5 1 o 4030.173 4051.951 0.00 1.05267 0.12
7 8 1 2 o 1031.195 1030.166 0.00 1.05511 0.01
8 6 1 1 o 5335.397 5331.716 180.00 1.05234 0.14
0 6 8 1 o 9648.119 9673.805 0.00 1.05225 0.12
5 9 4 2 o 5090.635 5193.720 180.00 1.05459 0.07
1 1 9 1 o 13225.574 13685.313 180.00 1.05179 0.33
4 9 5 2 o 13001.755 13599.897 180.00 1.05368 0.18
7 6 4 1 o 13660.100 14459.918 180.00 1.05082 0.35
7 7 3 2 o 20362.406 21049.658 180.00 1.05303 0.28
9 2 1 1 o 17552.660 18005.482 0.00 1.05009 0.45
1 8 7 1 o 20700.902 21212.143 180.00 1.05025 0.58
5 8 5 2 o 3939.879 4051.951 0.00 1.05267 0.06
8 6 1 2 o 5232.693 5331.716 180.00 1.05234 0.07
0 6 8 2 o 9606.064 9673.805 0.00 1.05225 0.06
1 1 9 2 o 14598.476 13685.313 180.00 1.05179 0.19
4 10 4 1 o 6047.383 5720.949 180.00 1.04907 0.16
3 7 7 1 o 8880.088 8413.113 180.00 1.04900 0.25
7 6 4 2 o 13296.916 14459.918 180.00 1.05082 0.17
9 2 1 2 o 17497.938 18005.482 0.00 1.05009 0.22
1 8 7 2 o 20386.275 21212.143 180.00 1.05025 0.29
4 6 7 1 o 1.470 1.606 180.00 1.04751 0.00
4 10 4 2 o 6550.077 5720.949 180.00 1.04907 0.09
3 7 7 2 o 9740.670 8413.113 180.00 1.04900 0.14
1 6 8 1 o 2072.290 1817.132 0.00 1.04602 0.06
3 12 1 1 o 2392.558 1988.226 0.00 1.04511 0.06
8 3 4 1 o 55.529 55.463 180.00 1.04487 0.00
4 6 7 2 o 2.757 1.606 180.00 1.04751 0.00
9 0 2 1 o 4329.406 3691.662 0.00 1.04409 0.06
1 12 3 1 o 16762.451 13843.559 180.00 1.04432 0.50
1 6 8 2 o 1905.491 1817.132 0.00 1.04602 0.03
3 12 1 2 o 1977.824 1988.226 0.00 1.04511 0.02
8 3 4 2 o 55.461 55.463 180.00 1.04487 0.00
1 2 9 1 o 3519.425 3564.452 180.00 1.04213 0.11
9 0 2 2 o 3995.480 3691.662 0.00 1.04409 0.03
1 12 3 2 o 14343.162 13843.559 180.00 1.04432 0.20
6 8 4 1 o 30.307 30.173 180.00 1.04119 0.00
9 1 2 1 o 23302.516 23989.910 0.00 1.04092 0.58
7 0 6 1 o 4824.870 4914.774 0.00 1.04094 0.06
6 5 6 1 o 13338.480 13619.240 0.00 1.04094 0.36
4 3 8 1 o 231.692 305.623 0.00 1.04015 0.01
1 2 9 2 o 2873.346 3564.452 180.00 1.04213 0.05
4 8 6 1 o 8148.400 8782.386 0.00 1.03924 0.19
6 8 4 2 o 30.190 30.173 180.00 1.04119 0.00
9 1 2 2 o 23945.227 23989.910 0.00 1.04092 0.30
7 0 6 2 o 4913.413 4914.774 0.00 1.04094 0.03
6 5 6 2 o 13612.984 13619.240 0.00 1.04094 0.18
7 1 6 1 o 932.499 934.340 180.00 1.03780 0.02
4 3 8 2 o 302.780 305.623 0.00 1.04015 0.01
8 5 3 1 o 5306.995 5348.348 180.00 1.03752 0.14
5 10 3 1 o 1357.429 1365.793 180.00 1.03751 0.03
4 8 6 2 o 8475.400 8782.386 0.00 1.03924 0.10
6 1 7 1 o 1104.577 1163.200 0.00 1.03654 0.03
7 8 2 1 o 21967.422 23312.400 180.00 1.03632 0.58
3 10 5 1 o 387.449 425.128 180.00 1.03596 0.02
7 1 6 2 o 925.149 934.340 180.00 1.03780 0.01
8 5 3 2 o 5300.174 5348.348 180.00 1.03752 0.07
5 10 3 2 o 1356.966 1365.793 180.00 1.03751 0.01
9 3 1 1 o 3167.658 3124.654 180.00 1.03422 0.09
6 1 7 2 o 1194.425 1163.200 0.00 1.03654 0.02
7 8 2 2 o 23586.691 23312.400 180.00 1.03632 0.32
8 6 2 1 o 16360.714 16301.852 0.00 1.03369 0.44
2 1 9 1 o 44.501 44.850 0.00 1.03346 0.00
3 10 5 2 o 416.590 425.128 180.00 1.03596 0.01
6 7 5 1 o 20556.586 20672.846 0.00 1.03310 0.53
0 3 9 1 o 28907.922 29813.068 180.00 1.03250 0.36
3 5 8 1 o 5539.736 5882.850 180.00 1.03223 0.14
5 7 6 1 o 7.347 8.710 180.00 1.03205 0.00
2 8 7 1 o 343.590 375.224 180.00 1.03200 0.01
9 3 1 2 o 2780.966 3124.654 180.00 1.03422 0.04
9 2 2 1 o 1018.699 1115.878 0.00 1.03156 0.03
8 6 2 2 o 15603.663 16301.852 0.00 1.03369 0.20
2 1 9 2 o 43.911 44.850 0.00 1.03346 0.00
6 9 3 1 o 4889.302 5055.985 0.00 1.03084 0.13
6 7 5 2 o 19644.652 20672.846 0.00 1.03310 0.25
7 5 5 1 o 682.185 687.587 0.00 1.03003 0.01
0 3 9 2 o 29660.258 29813.068 180.00 1.03250 0.18
3 5 8 2 o 6277.724 5882.850 180.00 1.03223 0.08
5 7 6 2 o 10.899 8.710 180.00 1.03205 0.00
2 8 7 2 o 427.493 375.224 180.00 1.03200 0.01
9 2 2 2 o 1281.498 1115.878 0.00 1.03156 0.02
7 2 6 1 o 18766.121 17082.748 180.00 1.02852 0.48
6 9 3 2 o 5379.485 5055.985 0.00 1.03084 0.07
3 9 6 1 o 8252.821 7756.829 0.00 1.02828 0.23
2 6 8 1 o 47.247 43.681 180.00 1.02798 0.00
5 5 7 1 o 6544.709 6280.007 180.00 1.02776 0.15
7 5 5 2 o 706.359 687.587 0.00 1.03003 0.00
6 2 7 1 o 460.152 423.139 0.00 1.02729 0.01
3 12 2 1 o 4109.124 3766.052 180.00 1.02684 0.12
1 3 9 1 o 9985.152 9363.648 180.00 1.02662 0.26
6 10 0 1 o 75.082 72.973 180.00 1.02652 0.00
2 12 3 1 o 7422.348 7277.374 180.00 1.02637 0.21
7 2 6 2 o 16446.521 17082.748 180.00 1.02852 0.20
4 11 3 1 o 25831.252 26292.922 180.00 1.02614 0.73
3 9 6 2 o 7369.968 7756.829 0.00 1.02828 0.10
2 6 8 2 o 41.367 43.681 180.00 1.02798 0.00
3 11 4 1 o 366.883 380.690 0.00 1.02548 0.01
5 5 7 2 o 6170.561 6280.007 180.00 1.02776 0.07
6 2 7 2 o 441.350 423.139 0.00 1.02729 0.01
0 11 5 1 o 12695.483 12220.783 0.00 1.02464 0.18
2 2 9 1 o 36063.30 36233.85 180.00 1.02429 0.90
3 12 2 2 o 3759.064 3766.052 180.00 1.02684 0.05
1 3 9 2 o 9078.467 9363.648 180.00 1.02662 0.12
6 10 0 2 o 71.521 72.973 180.00 1.02652 0.00
2 12 3 2 o 7105.310 7277.374 180.00 1.02637 0.10
4 11 3 2 o 26263.037 26292.922 180.00 1.02614 0.37
8 4 4 1 o 43016.96 43665.41 0.00 1.02318 1.07
0 10 6 1 o 15190.974 15449.014 0.00 1.02315 0.19
3 11 4 2 o 362.374 380.690 0.00 1.02548 0.00
0 11 5 2 o 11751.559 12220.783 0.00 1.02464 0.08
2 2 9 2 o 36616.24 36233.85 180.00 1.02429 0.46
0 13 1 1 o 7.665 7.327 0.00 1.02132 0.00
5 11 1 1 o 201.272 190.998 0.00 1.02110 0.00
8 4 4 2 o 43533.57 43665.41 0.00 1.02318 0.55
6 10 1 1 o 2940.867 2959.213 0.00 1.02064 0.08
0 10 6 2 o 15339.563 15449.014 0.00 1.02315 0.10
1 11 5 1 o 1697.614 1593.611 180.00 1.01889 0.05
4 4 8 1 o 8761.948 8793.201 0.00 1.01874 0.19
0 13 1 2 o 7.497 7.327 0.00 1.02132 0.00
5 11 1 2 o 181.865 190.998 0.00 1.02110 0.00
6 10 1 2 o 2624.120 2959.213 0.00 1.02064 0.03
8 7 0 1 o 1540.120 1762.780 180.00 1.01800 0.03
1 10 6 1 o 33882.887 35486.87 0.00 1.01743 0.93
9 3 2 1 o 4298.144 4452.385 0.00 1.01650 0.10
1 11 5 2 o 1570.172 1593.611 180.00 1.01889 0.02
4 4 8 2 o 8866.218 8793.201 0.00 1.01874 0.10
8 1 5 1 o 30858.203 27532.520 180.00 1.01550 0.79
8 7 0 2 o 2064.135 1762.780 180.00 1.01800 0.02
1 13 1 1 o 1139.684 1018.901 0.00 1.01563 0.03
5 0 8 1 o 26875.324 26415.191 0.00 1.01489 0.34
1 10 6 2 o 36233.39 35486.87 0.00 1.01743 0.50
9 3 2 2 o 4913.944 4452.385 0.00 1.01650 0.06
7 3 6 1 o 625.839 531.242 180.00 1.01360 0.02
9 4 1 1 o 3572.834 2997.977 180.00 1.01317 0.09
8 1 5 2 o 32504.330 27532.520 180.00 1.01550 0.42
1 13 1 2 o 1200.459 1018.901 0.00 1.01563 0.02
6 3 7 1 o 1054.513 954.334 0.00 1.01242 0.03
5 0 8 2 o 29243.590 26415.191 0.00 1.01489 0.19
8 7 1 1 o 611.598 567.732 0.00 1.01227 0.02
5 1 8 1 o 9380.054 9209.596 0.00 1.01197 0.23
9 1 3 1 o 4761.292 4811.452 180.00 1.01133 0.14
7 3 6 2 o 533.016 531.242 180.00 1.01360 0.01
7 7 4 1 o 9.510 9.245 0.00 1.01092 0.00
9 4 1 2 o 3222.745 2997.977 180.00 1.01317 0.04
4 12 0 1 o 12514.226 11232.086 0.00 1.01012 0.17
6 3 7 2 o 1072.613 954.334 0.00 1.01242 0.01
8 7 1 2 o 659.525 567.732 0.00 1.01227 0.01
2 3 9 1 o 1291.967 1038.850 180.00 1.00955 0.03
5 1 8 2 o 11551.457 9209.596 0.00 1.01197 0.15
9 1 3 2 o 6670.116 4811.452 180.00 1.01133 0.10
0 12 4 1 o 4995.693 4050.857 0.00 1.00869 0.06
7 7 4 2 o 11.589 9.245 0.00 1.01092 0.00
4 7 7 1 o 1710.234 1645.545 180.00 1.00797 0.04
6 6 6 1 o 108.315 106.947 180.00 1.00780 0.00
4 12 0 2 o 11152.503 11232.086 0.00 1.01012 0.07
7 8 3 1 o 1552.359 1529.834 0.00 1.00711 0.04
2 3 9 2 o 1058.043 1038.850 180.00 1.00955 0.01
8 2 5 1 o 13582.891 13043.539 180.00 1.00680 0.35
1 7 8 1 o 13.120 11.586 0.00 1.00664 0.00
0 12 4 2 o 4846.278 4050.857 0.00 1.00869 0.03
1 4 9 1 o 0.514 0.233 0.00 1.00602 0.00
4 7 7 2 o 2201.916 1645.545 180.00 1.00797 0.03
6 6 6 2 o 139.156 106.947 180.00 1.00780 0.00
3 1 9 1 o 13144.238 9900.997 0.00 1.00493 0.36
8 6 3 1 o 1499.048 1221.575 0.00 1.00470 0.04
7 8 3 2 o 1862.130 1529.834 0.00 1.00711 0.03
2 13 0 1 o 26065.992 21686.004 0.00 1.00460 0.41
8 2 5 2 o 14418.034 13043.539 180.00 1.00680 0.19
4 12 1 1 o 2930.919 2499.124 0.00 1.00452 0.09
0 9 7 1 o 1145.471 1005.857 180.00 1.00445 0.02
1 7 8 2 o 12.982 11.586 0.00 1.00664 0.00
5 11 2 1 o 8535.569 8195.118 0.00 1.00404 0.25
1 4 9 2 o 0.220 0.233 0.00 1.00602 0.00
6 10 2 1 o 6203.480 6254.535 180.00 1.00360 0.17
3 8 7 1 o 5687.239 5745.017 0.00 1.00358 0.14
5 2 8 1 o 7053.021 7292.410 0.00 1.00336 0.17
7 9 1 1 o 7528.120 7912.604 0.00 1.00322 0.24
1 12 4 1 o 2860.566 2985.089 0.00 1.00320 0.08
9 2 3 1 o 27401.543 28784.098 0.00 1.00274 0.67
3 1 9 2 o 9261.654 9900.997 0.00 1.00493 0.12
8 6 3 2 o 1137.140 1221.575 0.00 1.00470 0.01
2 11 5 1 o 6201.331 6696.982 0.00 1.00220 0.17
2 13 0 2 o 19929.764 21686.004 0.00 1.00460 0.14
4 12 1 2 o 2275.741 2499.124 0.00 1.00452 0.03
0 9 7 2 o 918.863 1005.857 180.00 1.00445 0.01
5 11 2 2 o 7496.686 8195.118 0.00 1.00404 0.10
6 10 2 2 o 5953.868 6254.535 180.00 1.00360 0.08
5 9 5 1 o 2768.635 2875.371 180.00 1.00112 0.06
3 8 7 2 o 5493.395 5745.017 0.00 1.00358 0.07
5 2 8 2 o 6942.303 7292.410 0.00 1.00336 0.08
7 9 1 2 o 7346.005 7912.604 0.00 1.00322 0.11
2 10 6 1 o 1700.269 1812.396 180.00 1.00081 0.05
1 12 4 2 o 2800.542 2985.089 0.00 1.00320 0.04
9 2 3 2 o 26860.926 28784.098 0.00 1.00274 0.33
3 6 8 1 o 29234.846 31566.607 180.00 0.99989 0.74
2 11 5 2 o 6186.007 6696.982 0.00 1.00220 0.08
1 9 7 1 o 4708.389 4912.774 180.00 0.99903 0.13
2 13 1 1 o 11910.642 12432.529 0.00 0.99909 0.35
1 13 2 1 o 9618.037 9956.462 180.00 0.99884 0.28
5 9 5 2 o 2797.938 2875.371 180.00 1.00112 0.03
3 12 3 1 o 11485.658 12043.338 0.00 0.99841 0.35
2 10 6 2 o 1719.039 1812.396 180.00 1.00081 0.03
7 6 5 1 o 530.104 549.292 0.00 0.99789 0.02
3 6 8 2 o 32686.514 31566.607 180.00 0.99989 0.42
8 5 4 1 o 6612.305 6489.498 0.00 0.99717 0.15
5 10 4 1 o 10002.308 9800.442 0.00 0.99716 0.28
9 4 2 1 o 316.807 316.737 0.00 0.99649 0.01
3 2 9 1 o 530.233 530.162 180.00 0.99650 0.02
1 9 7 2 o 4882.139 4912.774 180.00 0.99903 0.07
2 13 1 2 o 12323.875 12432.529 0.00 0.99909 0.18
4 10 5 1 o 257.505 255.241 0.00 0.99639 0.01
1 13 2 2 o 10065.629 9956.462 180.00 0.99884 0.15
5 6 7 1 o 25325.012 24582.160 180.00 0.99583 0.69
3 12 3 2 o 12508.274 12043.338 0.00 0.99841 0.19
8 7 2 1 o 1079.124 1056.919 0.00 0.99564 0.04
7 6 5 2 o 556.534 549.292 0.00 0.99789 0.01
8 5 4 2 o 6938.775 6489.498 0.00 0.99717 0.08
5 10 4 2 o 10565.846 9800.442 0.00 0.99716 0.15
9 4 2 2 o 348.435 316.737 0.00 0.99649 0.00
3 2 9 2 o 616.039 530.162 180.00 0.99650 0.01
4 10 5 2 o 275.687 255.241 0.00 0.99639 0.00
7 4 6 1 o 49761.71 47326.99 180.00 0.99376 1.25
5 6 7 2 o 23289.516 24582.160 180.00 0.99583 0.31
8 7 2 2 o 948.441 1056.919 0.00 0.99564 0.02
4 5 8 1 o 759.989 818.511 0.00 0.99306 0.02
7 4 6 2 o 47813.05 47326.99 180.00 0.99376 0.59
8 3 5 1 o 4905.531 5582.244 0.00 0.99279 0.12
6 9 4 1 o 19455.686 19529.551 180.00 0.99123 0.50
6 4 7 1 o 82.088 96.973 180.00 0.99265 0.00
4 5 8 2 o 763.656 818.511 0.00 0.99306 0.01
2 7 8 1 o 179.877 199.808 180.00 0.99054 0.01
8 3 5 2 o 5261.437 5582.244 0.00 0.99279 0.06
6 4 7 2 o 93.236 96.973 180.00 0.99265 0.00
2 4 9 1 o 8541.142 8456.504 0.00 0.98994 0.22
6 8 5 1 o 18506.256 18042.393 180.00 0.98963 0.49
5 3 8 1 o 2228.498 2202.272 0.00 0.98949 0.05
4 9 6 1 o 161.112 159.450 0.00 0.98954 0.00
9 3 3 1 o 1794.623 1922.306 180.00 0.98890 0.04
6 9 4 2 o 17693.281 19529.551 180.00 0.99123 0.22
5 8 6 1 o 11639.991 13041.704 0.00 0.98871 0.29
4 12 2 1 o 12438.463 14573.363 0.00 0.98826 0.37
2 7 8 2 o 166.151 199.808 180.00 0.99054 0.00
9 5 1 1 o 2355.779 2746.016 180.00 0.98790 0.07
2 4 9 2 o 7711.168 8456.504 0.00 0.98994 0.10
6 8 5 2 o 16005.521 18042.393 180.00 0.98963 0.20
2 12 4 1 o 8107.486 9193.707 180.00 0.98726 0.25
5 3 8 2 o 1935.722 2202.272 0.00 0.98949 0.02
4 9 6 2 o 148.411 159.450 0.00 0.98954 0.00
7 9 2 1 o 1679.858 1926.665 0.00 0.98702 0.04
4 11 4 1 o -3.056 2.730 0.00 0.98705 0.00
9 3 3 2 o 1697.087 1922.306 180.00 0.98890 0.02
0 5 9 1 o 721.034 834.501 180.00 0.98641 0.01
5 8 6 2 o 11160.363 13041.704 0.00 0.98871 0.14
4 12 2 2 o 11871.550 14573.363 0.00 0.98826 0.18
9 5 1 2 o 2043.443 2746.016 180.00 0.98790 0.03
2 12 4 2 o 9428.030 9193.707 180.00 0.98726 0.15
7 9 2 2 o 2266.832 1926.665 0.00 0.98702 0.03
4 11 4 2 o 9.903 2.730 0.00 0.98705 0.00
0 5 9 2 o 1340.589 834.501 180.00 0.98641 0.01
2 9 7 1 o 1345.356 953.633 0.00 0.98329 0.04
2 13 2 1 o 1876.839 1388.888 0.00 0.98310 0.06
3 3 9 1 o 11492.526 9359.252 0.00 0.98291 0.29
1 5 9 1 o 13341.667 8794.086 180.00 0.98127 0.37
2 9 7 2 o 1281.275 953.633 0.00 0.98329 0.02
2 13 2 2 o 1802.646 1388.888 0.00 0.98310 0.03
3 3 9 2 o 11550.681 9359.252 0.00 0.98291 0.14
1 5 9 2 o 12436.212 8794.086 180.00 0.98127 0.17
0 13 3 1 o 23476.508 21310.061 180.00 0.97761 0.36
5 11 3 1 o 324.693 292.705 0.00 0.97741 0.01
6 10 3 1 o 620.196 607.727 180.00 0.97701 0.02
9 0 4 1 o 6152.825 6045.716 0.00 0.97645 0.08
8 8 0 1 o 35564.93 35799.78 0.00 0.97633 0.47
3 11 5 1 o 10913.854 12001.636 0.00 0.97611 0.29
0 13 3 2 o 20457.434 21310.061 180.00 0.97761 0.15
5 11 3 2 o 301.760 292.705 0.00 0.97741 0.01
3 10 6 1 o 1352.358 1315.023 0.00 0.97483 0.04
6 10 3 2 o 607.503 607.727 180.00 0.97701 0.01
8 4 5 1 o 2172.493 2073.925 0.00 0.97412 0.05
9 0 4 2 o 6312.783 6045.716 0.00 0.97645 0.04
9 1 4 1 o 2723.623 2698.554 0.00 0.97385 0.07
8 8 0 2 o 36704.96 35799.78 0.00 0.97633 0.24
3 11 5 2 o 11763.873 12001.636 0.00 0.97611 0.16
3 13 1 1 o 3487.102 3670.832 0.00 0.97325 0.09
9 5 2 1 o 32206.531 31449.713 180.00 0.97242 0.82
1 13 3 1 o 1063.317 998.933 0.00 0.97261 0.03
6 7 6 1 o 736.293 705.076 0.00 0.97245 0.03
3 10 6 2 o 1348.147 1315.023 0.00 0.97483 0.02
8 4 5 2 o 2095.941 2073.925 0.00 0.97412 0.03
9 1 4 2 o 2832.279 2698.554 0.00 0.97385 0.03
8 8 1 1 o 4637.507 4431.494 0.00 0.97127 0.12
0 8 8 1 o 13017.406 12450.521 0.00 0.97120 0.19
5 4 8 1 o 1886.426 1812.370 0.00 0.97101 0.05
3 13 1 2 o 3863.180 3670.832 0.00 0.97325 0.05
9 4 3 1 o 5080.524 4582.449 180.00 0.97045 0.13
9 5 2 2 o 34633.223 31449.713 180.00 0.97242 0.45
7 8 4 1 o 10665.494 9637.230 180.00 0.97008 0.28
1 13 3 2 o 1128.170 998.933 0.00 0.97261 0.02
6 7 6 2 o 814.301 705.076 0.00 0.97245 0.02
7 5 6 1 o 1333.696 1244.294 0.00 0.96988 0.03
8 7 3 1 o 21520.051 20942.877 180.00 0.96966 0.55
8 8 1 2 o 4483.458 4431.494 0.00 0.97127 0.06
6 5 7 1 o 485.010 483.686 0.00 0.96885 0.01
0 8 8 2 o 12334.766 12450.521 0.00 0.97120 0.09
4 1 9 1 o 10912.941 11542.964 180.00 0.96868 0.27
5 4 8 2 o 1680.833 1812.370 0.00 0.97101 0.02
9 4 3 2 o 4292.312 4582.449 180.00 0.97045 0.05
6 11 0 1 o 2894.499 3162.406 180.00 0.96820 0.03
8 6 4 1 o 377.990 391.981 180.00 0.96793 0.01
7 8 4 2 o 9478.944 9637.230 180.00 0.97008 0.12
7 5 6 2 o 1214.807 1244.294 0.00 0.96988 0.01
4 8 7 1 o 5.659 5.795 180.00 0.96748 0.00
8 7 3 2 o 19958.654 20942.877 180.00 0.96966 0.25
6 5 7 2 o 480.819 483.686 0.00 0.96885 0.01
7 1 7 1 o 30076.191 30980.941 0.00 0.96631 0.70
2 5 9 1 o 30.495 31.068 180.00 0.96633 0.00
4 1 9 2 o 11136.508 11542.964 180.00 0.96868 0.14
9 2 4 1 o 3325.215 3568.184 0.00 0.96617 0.08
1 8 8 1 o 1732.424 1794.349 0.00 0.96630 0.05
6 11 0 2 o 2851.818 3162.406 180.00 0.96820 0.02
8 6 4 2 o 354.997 391.981 180.00 0.96793 0.00
3 7 8 1 o 44.930 48.894 0.00 0.96533 0.00
4 8 7 2 o 5.978 5.795 180.00 0.96748 0.00
3 4 9 1 o 122.250 101.250 180.00 0.96478 0.00
4 6 8 1 o 5323.664 4817.997 180.00 0.96417 0.14
7 1 7 2 o 33772.637 30980.941 0.00 0.96631 0.41
2 5 9 2 o 33.164 31.068 180.00 0.96633 0.00
9 2 4 2 o 3895.109 3568.184 0.00 0.96617 0.05
1 8 8 2 o 1967.048 1794.349 0.00 0.96630 0.03
7 7 5 1 o 19660.832 18432.582 0.00 0.96353 0.54
6 11 1 1 o 20430.992 20122.061 0.00 0.96327 0.57
10 0 0 1 o 640.612 657.137 0.00 0.96297 0.00
3 7 8 2 o 46.987 48.894 0.00 0.96533 0.00
4 12 3 1 o 604.076 632.165 180.00 0.96284 0.02
3 4 9 2 o 91.176 101.250 180.00 0.96478 0.00
3 12 4 1 o 3840.526 4204.647 180.00 0.96230 0.10
4 6 8 2 o 4547.174 4817.997 180.00 0.96417 0.06
7 9 3 1 o 3480.806 3568.097 0.00 0.96169 0.07
5 7 7 1 o 592.466 611.086 180.00 0.96167 0.02
7 7 5 2 o 18924.455 18432.582 0.00 0.96353 0.26
4 2 9 1 o 2904.422 2840.965 180.00 0.96112 0.07
6 11 1 2 o 19779.031 20122.061 0.00 0.96327 0.27
10 0 0 2 o 604.932 657.137 0.00 0.96297 0.00
10 1 0 1 o 5490.775 6155.457 180.00 0.96048 0.06
1 11 6 1 o 3265.566 3648.490 0.00 0.96056 0.09
4 12 3 2 o 553.662 632.165 180.00 0.96284 0.01
8 0 6 1 o 1685.978 2088.463 180.00 0.96019 0.02
3 12 4 2 o 3386.362 4204.647 180.00 0.96230 0.04
9 6 1 1 o 7282.431 8049.658 180.00 0.95944 0.18
7 9 3 2 o 3376.560 3568.097 0.00 0.96169 0.04
5 7 7 2 o 566.878 611.086 180.00 0.96167 0.01
7 2 7 1 o 837.873 826.426 180.00 0.95881 0.02
4 2 9 2 o 2883.315 2840.965 180.00 0.96112 0.04
5 12 1 1 o 8344.368 8288.869 0.00 0.95867 0.23
3 9 7 1 o 12239.026 12232.755 0.00 0.95862 0.31
3 13 2 1 o 4593.766 4676.206 0.00 0.95844 0.13
10 1 0 2 o 5906.112 6155.457 180.00 0.96048 0.03
1 11 6 2 o 3514.267 3648.490 0.00 0.96056 0.05
6 0 8 1 o 2273.637 2387.529 180.00 0.95805 0.02
2 13 3 1 o 4304.104 4544.441 0.00 0.95806 0.12
8 0 6 2 o 1919.240 2088.463 180.00 0.96019 0.01
8 1 6 1 o 5746.792 6339.542 180.00 0.95772 0.16
9 6 1 2 o 8604.374 8049.658 180.00 0.95944 0.11
1 12 5 1 o 278.911 260.346 0.00 0.95684 0.00
8 8 2 1 o 10467.813 9434.395 0.00 0.95656 0.28
7 2 7 2 o 894.698 826.426 180.00 0.95881 0.01
5 12 1 2 o 9034.941 8288.869 0.00 0.95867 0.13
3 9 7 2 o 13324.777 12232.755 0.00 0.95862 0.17
3 13 2 2 o 5096.190 4676.206 0.00 0.95844 0.08
10 1 1 1 o 24145.877 24070.143 0.00 0.95566 0.61
6 0 8 2 o 2413.025 2387.529 180.00 0.95805 0.01
6 1 8 1 o 12160.461 12401.284 0.00 0.95559 0.32
2 13 3 2 o 4616.811 4544.441 0.00 0.95806 0.07
8 1 6 2 o 5832.971 6339.542 180.00 0.95772 0.08
0 0 10 1 o 8057.105 8567.509 0.00 0.95531 0.04
1 12 5 2 o 284.219 260.346 0.00 0.95684 0.00
8 8 2 2 o 10777.040 9434.395 0.00 0.95656 0.14
9 3 4 1 o 1072.628 970.795 0.00 0.95377 0.03
0 14 0 1 o 69232.26 62574.32 0.00 0.95384 0.52
10 1 1 2 o 25665.668 24070.143 0.00 0.95566 0.33
7 10 1 1 o 31.891 30.381 0.00 0.95340 0.00
1 6 9 1 o 1698.299 1545.672 0.00 0.95337 0.06
6 1 8 2 o 13098.290 12401.284 0.00 0.95559 0.18
10 2 0 1 o 17802.705 17380.396 180.00 0.95311 0.23
0 0 10 2 o 8569.436 8567.509 0.00 0.95531 0.02
2 8 8 1 o 868.595 745.534 0.00 0.95203 0.03
8 5 5 1 o 833.146 736.484 180.00 0.95160 0.02
5 10 5 1 o 1.976 0.018 180.00 0.95160 0.00
9 3 4 2 o 1077.628 970.795 0.00 0.95377 0.01
0 14 0 2 o 69660.51 62574.32 0.00 0.95384 0.26
7 10 1 2 o 32.058 30.381 0.00 0.95340 0.00
1 6 9 2 o 1724.728 1545.672 0.00 0.95337 0.03
10 2 0 2 o 18341.627 17380.396 180.00 0.95311 0.12
1 0 10 1 o 24048.646 23542.604 0.00 0.95064 0.30
8 2 6 1 o 3115.429 3158.603 0.00 0.95041 0.07
1 10 7 1 o 223.637 226.354 180.00 0.94981 0.00
2 8 8 2 o 722.071 745.534 0.00 0.95203 0.01
8 5 5 2 o 799.811 736.484 180.00 0.95160 0.01
5 10 5 2 o 1.321 0.018 180.00 0.95160 0.00
4 3 9 1 o 27822.934 26069.545 0.00 0.94891 0.71
6 11 2 1 o 1967.108 1816.484 180.00 0.94890 0.07
5 5 8 1 o 12267.803 11928.732 180.00 0.94870 0.31
10 2 1 1 o 8340.586 8524.975 180.00 0.94840 0.20
6 2 8 1 o 79.552 83.000 0.00 0.94833 0.00
1 0 10 2 o 22703.104 23542.604 0.00 0.95064 0.14
1 1 10 1 o 3503.813 3661.602 0.00 0.94824 0.09
9 5 3 1 o 382.615 391.927 180.00 0.94817 0.00
8 2 6 2 o 3009.202 3158.603 0.00 0.95041 0.04
1 10 7 2 o 223.512 226.354 180.00 0.94981 0.00
7 3 7 1 o 2497.470 2388.729 180.00 0.94669 0.05
4 3 9 2 o 27328.469 26069.545 0.00 0.94891 0.35
6 11 2 2 o 1924.271 1816.484 180.00 0.94890 0.03
2 11 6 1 o 4141.857 3960.917 180.00 0.94654 0.13
6 9 5 1 o 1493.538 1456.848 0.00 0.94644 0.04
5 5 8 2 o 12104.578 11928.732 180.00 0.94870 0.15
10 2 1 2 o 8789.354 8524.975 180.00 0.94840 0.11
6 2 8 2 o 87.540 83.000 0.00 0.94833 0.00
1 1 10 2 o 3859.741 3661.602 0.00 0.94824 0.05
9 5 3 2 o 403.280 391.927 180.00 0.94817 0.00
0 2 10 1 o 3642.093 3466.746 180.00 0.94568 0.05
5 9 6 1 o 18713.363 17951.973 0.00 0.94563 0.51
9 6 2 1 o 1383.166 1399.653 0.00 0.94525 0.03
4 13 0 1 o 938.634 855.186 0.00 0.94480 0.01
5 12 2 1 o 2003.749 1785.892 0.00 0.94451 0.06
7 3 7 2 o 2595.810 2388.729 180.00 0.94669 0.03
1 14 1 1 o 1941.086 1661.065 0.00 0.94454 0.08
2 11 6 2 o 4360.518 3960.917 180.00 0.94654 0.07
6 9 5 2 o 1590.865 1456.848 0.00 0.94644 0.02
10 0 2 1 o 2650.835 2450.898 180.00 0.94398 0.03
5 11 4 1 o 1151.187 1013.302 0.00 0.94345 0.03
0 2 10 2 o 3988.010 3466.746 180.00 0.94568 0.03
5 9 6 2 o 20662.273 17951.973 0.00 0.94563 0.29
6 10 4 1 o 18004.764 15925.519 180.00 0.94309 0.50
9 6 2 2 o 1509.325 1399.653 0.00 0.94525 0.02
7 6 6 1 o 318.182 293.872 0.00 0.94291 0.01
3 5 9 1 o 5652.674 5319.758 0.00 0.94289 0.13
2 12 5 1 o 29914.766 27149.738 180.00 0.94298 0.88
4 11 5 1 o 42169.91 40854.39 180.00 0.94280 1.20
4 13 0 2 o 814.665 855.186 0.00 0.94480 0.01
5 12 2 2 o 1784.714 1785.892 0.00 0.94451 0.03
1 14 1 2 o 1634.875 1661.065 0.00 0.94454 0.03
6 6 7 1 o 242.823 222.455 180.00 0.94196 0.01
10 0 2 2 o 2803.790 2450.898 180.00 0.94398 0.02
10 1 2 1 o 2254.180 1887.910 180.00 0.94163 0.07
4 10 6 1 o 4106.158 3508.449 180.00 0.94164 0.13
10 3 0 1 o 626.617 581.306 180.00 0.94120 0.00
1 2 10 1 o 6174.092 5466.074 0.00 0.94115 0.16
5 11 4 2 o 1142.272 1013.302 0.00 0.94345 0.02
6 10 4 2 o 17576.336 15925.519 180.00 0.94309 0.24
7 6 6 2 o 316.976 293.872 0.00 0.94291 0.00
3 5 9 2 o 5649.169 5319.758 0.00 0.94289 0.07
2 12 5 2 o 29529.736 27149.738 180.00 0.94298 0.43
4 11 5 2 o 42746.40 40854.39 180.00 0.94280 0.61
4 13 1 1 o 27470.367 27726.061 180.00 0.94021 0.79
6 6 7 2 o 216.465 222.455 180.00 0.94196 0.00
2 6 9 1 o 17275.449 17694.420 0.00 0.93965 0.44
7 10 2 1 o 13304.001 13761.152 0.00 0.93947 0.36
10 1 2 2 o 1811.952 1887.910 180.00 0.94163 0.03
4 10 6 2 o 3380.126 3508.449 180.00 0.94164 0.05
1 13 4 1 o 1392.774 1404.889 180.00 0.93913 0.04
10 3 0 2 o 591.566 581.306 180.00 0.94120 0.00
1 2 10 2 o 5646.585 5466.074 0.00 0.94115 0.07
8 3 6 1 o 3491.843 3414.830 180.00 0.93860 0.11
4 13 1 2 o 27197.404 27726.061 180.00 0.94021 0.39
2 6 9 2 o 17492.182 17694.420 0.00 0.93965 0.23
9 4 4 1 o 1797.432 1814.924 0.00 0.93719 0.04
7 10 2 2 o 13610.312 13761.152 0.00 0.93947 0.18
2 0 10 1 o 217.213 218.676 0.00 0.93704 0.00
10 3 1 1 o 19.052 20.939 180.00 0.93666 0.00
1 13 4 2 o 1343.386 1404.889 180.00 0.93913 0.02
6 3 8 1 o 4848.063 5233.576 0.00 0.93660 0.14
8 7 4 1 o 991.939 1090.488 180.00 0.93647 0.04
8 3 6 2 o 3156.662 3414.830 180.00 0.93860 0.05
2 10 7 1 o 20.669 21.817 180.00 0.93624 0.00
6 8 6 1 o 683.992 674.629 180.00 0.93593 0.02
2 14 0 1 o 7672.032 7241.938 180.00 0.93566 0.13
0 14 2 1 o 19745.924 18628.896 0.00 0.93537 0.32
3 13 3 1 o 24056.443 23154.121 0.00 0.93520 0.75
9 4 4 2 o 1794.952 1814.924 0.00 0.93719 0.02
8 9 0 1 o 11326.158 11751.154 0.00 0.93478 0.16
10 2 2 1 o 6182.981 6571.883 180.00 0.93468 0.15
2 1 10 1 o 14209.613 14889.474 180.00 0.93474 0.36
2 0 10 2 o 214.633 218.676 0.00 0.93704 0.00
10 3 1 2 o 16.907 20.939 180.00 0.93666 0.00
6 3 8 2 o 4382.320 5233.576 0.00 0.93660 0.06
8 7 4 2 o 856.893 1090.488 180.00 0.93647 0.02
2 10 7 2 o 18.877 21.817 180.00 0.93624 0.00
6 8 6 2 o 586.495 674.629 180.00 0.93593 0.01
8 8 3 1 o 939.073 1011.602 180.00 0.93344 0.02
2 14 0 2 o 6760.424 7241.938 180.00 0.93566 0.06
4 7 8 1 o 552.504 560.837 180.00 0.93307 0.02
0 14 2 2 o 18417.020 18628.896 0.00 0.93537 0.15
3 13 3 2 o 23439.994 23154.121 0.00 0.93520 0.36
4 4 9 1 o 380.044 378.049 0.00 0.93258 0.01
8 9 0 2 o 11759.013 11751.154 0.00 0.93478 0.08
10 2 2 2 o 6544.804 6571.883 180.00 0.93468 0.08
2 1 10 2 o 14868.465 14889.474 180.00 0.93474 0.19
9 1 5 1 o 1467.203 1502.422 180.00 0.93128 0.03
8 8 3 2 o 983.941 1011.602 180.00 0.93344 0.01
2 14 1 1 o 61.584 63.357 180.00 0.93120 0.00
1 14 2 1 o 20348.092 21120.889 0.00 0.93099 0.62
4 7 8 2 o 518.781 560.837 180.00 0.93307 0.01
7 4 7 1 o 303.351 333.083 0.00 0.93046 0.01
8 9 1 1 o 11058.402 12339.284 180.00 0.93034 0.29
4 4 9 2 o 338.817 378.049 0.00 0.93258 0.00
4 12 4 1 o 342.489 366.134 0.00 0.93033 0.01
1 3 10 1 o 1237.750 1465.263 0.00 0.92968 0.03
3 8 8 1 o 17293.404 20620.133 180.00 0.92958 0.43
7 9 4 1 o 181.475 222.220 0.00 0.92929 0.00
9 1 5 2 o 1377.115 1502.422 180.00 0.93128 0.01
9 7 1 1 o 119.965 135.626 0.00 0.92878 0.01
2 14 1 2 o 57.605 63.357 180.00 0.93120 0.00
1 14 2 2 o 19681.828 21120.889 0.00 0.93099 0.30
7 4 7 2 o 312.395 333.083 0.00 0.93046 0.00
8 9 1 2 o 11837.098 12339.284 180.00 0.93034 0.16
7 8 5 1 o 42.209 43.277 180.00 0.92798 0.00
2 2 10 1 o 79.892 81.661 0.00 0.92795 0.00
4 12 4 2 o 357.385 366.134 0.00 0.93033 0.00
0 7 9 1 o 27076.418 27615.617 0.00 0.92754 0.35
5 1 9 1 o 3105.819 3211.669 180.00 0.92737 0.07
1 3 10 2 o 1407.244 1465.263 0.00 0.92968 0.02
3 8 8 2 o 19587.670 20620.133 180.00 0.92958 0.26
7 9 4 2 o 208.142 222.220 0.00 0.92929 0.00
4 9 7 1 o 442.324 472.018 180.00 0.92700 0.01
4 13 2 1 o 192.257 198.551 0.00 0.92684 0.01
9 7 1 2 o 153.814 135.626 0.00 0.92878 0.00
5 8 7 1 o 13679.916 12637.981 0.00 0.92632 0.36
6 11 3 1 o 2303.661 2114.293 0.00 0.92633 0.07
8 6 5 1 o 5630.814 5487.876 0.00 0.92609 0.15
1 9 8 1 o 7872.558 8019.102 180.00 0.92597 0.21
2 13 4 1 o 14016.306 14037.596 180.00 0.92602 0.42
7 8 5 2 o 41.087 43.277 180.00 0.92798 0.00
2 2 10 2 o 77.621 81.661 0.00 0.92795 0.00
10 4 0 1 o 30448.389 33363.098 180.00 0.92525 0.37
0 7 9 2 o 25258.719 27615.617 0.00 0.92754 0.16
5 1 9 2 o 2892.129 3211.669 180.00 0.92737 0.03
4 9 7 2 o 449.670 472.018 180.00 0.92700 0.01
9 2 5 1 o 1704.254 1651.861 180.00 0.92455 0.04
4 13 2 2 o 205.328 198.551 0.00 0.92684 0.00
3 11 6 1 o 1352.808 1260.356 180.00 0.92447 0.04
5 8 7 2 o 15042.164 12637.981 0.00 0.92632 0.20
6 11 3 2 o 2540.600 2114.293 0.00 0.92633 0.04
8 6 5 2 o 6656.677 5487.876 0.00 0.92609 0.09
1 9 8 2 o 9684.448 8019.102 180.00 0.92597 0.14
2 13 4 2 o 17006.277 14037.596 180.00 0.92602 0.27
10 3 2 1 o 1911.585 1534.878 180.00 0.92344 0.06
5 6 8 1 o 16341.602 13784.449 0.00 0.92341 0.45
1 7 9 1 o 9183.970 7882.456 180.00 0.92327 0.25
10 4 0 2 o 37645.52 33363.098 180.00 0.92525 0.25
9 6 3 1 o 13551.938 12068.637 180.00 0.92293 0.36
8 4 6 1 o 14221.717 12775.525 0.00 0.92278 0.38
9 2 5 2 o 1765.103 1651.861 180.00 0.92455 0.02
5 12 3 1 o 22755.980 21401.168 0.00 0.92224 0.69
3 11 6 2 o 1322.893 1260.356 180.00 0.92447 0.02
10 3 2 2 o 1730.631 1534.878 180.00 0.92344 0.03
5 6 8 2 o 15083.172 13784.449 0.00 0.92341 0.20
3 12 5 1 o 1203.653 1087.006 180.00 0.92115 0.04
10 4 1 1 o 2051.035 1915.869 0.00 0.92094 0.05
1 7 9 2 o 8466.313 7882.456 180.00 0.92327 0.11
6 4 8 1 o 255.559 246.390 0.00 0.92088 0.00
5 2 9 1 o 34.572 30.030 180.00 0.92074 0.00
9 6 3 2 o 12474.156 12068.637 180.00 0.92293 0.16
8 4 6 2 o 12993.992 12775.525 0.00 0.92278 0.17
5 12 3 2 o 21465.551 21401.168 0.00 0.92224 0.32
10 1 3 1 o 988.155 1431.868 0.00 0.91956 0.02
3 12 5 2 o 611.041 1087.006 180.00 0.92115 0.01
10 4 1 2 o 1320.774 1915.869 0.00 0.92094 0.01
6 4 8 2 o 203.782 246.390 0.00 0.92088 0.00
5 2 9 2 o 2.037 30.030 180.00 0.92074 0.00
0 4 10 1 o 8268.886 10877.790 180.00 0.91845 0.08
2 14 2 1 o 2010.966 2664.614 180.00 0.91821 0.04
3 6 9 1 o 199.866 366.619 0.00 0.91805 0.01
7 10 3 1 o 708.713 765.731 0.00 0.91754 0.02
0 4 10 2 o 8427.039 10877.790 180.00 0.91845 0.04
10 1 3 2 o 1401.156 1431.868 0.00 0.91956 0.02
8 9 2 1 o 54.765 55.159 0.00 0.91738 0.00
9 7 2 1 o 12.430 14.760 0.00 0.91589 0.00
9 5 4 1 o 3656.227 4295.187 180.00 0.91708 0.09
2 14 2 2 o 2195.891 2664.614 180.00 0.91821 0.03
3 6 9 2 o 289.653 366.619 0.00 0.91805 0.01
2 3 10 1 o 3260.099 4505.021 180.00 0.91695 0.08
3 0 10 1 o 41.112 42.712 180.00 0.91562 0.00
7 10 3 2 o 780.136 765.731 0.00 0.91754 0.01
8 9 2 2 o 55.436 55.159 0.00 0.91738 0.00
9 5 4 2 o 3692.245 4295.187 180.00 0.91708 0.05
3 10 7 1 o 3863.347 4447.828 0.00 0.91487 0.13
2 3 10 2 o 3549.344 4505.021 180.00 0.91695 0.05
6 12 0 1 o 4240.235 5423.422 180.00 0.91449 0.06
1 4 10 1 o 583.319 677.578 0.00 0.91430 0.01
7 7 6 1 o 44.229 43.623 180.00 0.91376 0.00
9 3 5 1 o 7159.057 7238.454 180.00 0.91367 0.21
9 7 2 2 o 14.455 14.760 0.00 0.91589 0.00
3 1 10 1 o 1222.148 1381.329 180.00 0.91347 0.03
3 0 10 2 o 33.909 42.712 180.00 0.91562 0.00
2 9 8 1 o 7613.071 9107.874 180.00 0.91339 0.19
10 2 3 1 o 2305.072 3132.192 0.00 0.91309 0.05
6 7 7 1 o 440.366 581.532 0.00 0.91290 0.01
4 5 9 1 o 1058.599 1311.559 0.00 0.91276 0.03
3 10 7 2 o 3559.625 4447.828 0.00 0.91487 0.06
6 12 0 2 o 4795.945 5423.422 180.00 0.91449 0.03
1 4 10 2 o 646.809 677.578 0.00 0.91430 0.01
0 12 6 1 o 6747.524 7344.879 0.00 0.91211 0.11
7 7 6 2 o 55.286 43.623 180.00 0.91376 0.00
9 3 5 2 o 9091.920 7238.454 180.00 0.91367 0.14
3 1 10 2 o 1699.348 1381.329 180.00 0.91347 0.02
2 9 8 2 o 11115.201 9107.874 180.00 0.91339 0.16
10 2 3 2 o 3967.755 3132.192 0.00 0.91309 0.06
7 5 7 1 o 7398.164 5635.560 0.00 0.91078 0.23
2 7 9 1 o 498.048 394.769 0.00 0.91079 0.01
6 7 7 2 o 758.470 581.532 0.00 0.91290 0.01
4 5 9 2 o 1710.305 1311.559 0.00 0.91276 0.02
6 12 1 1 o 17000.381 13202.093 180.00 0.91033 0.53
3 14 1 1 o 1026.120 754.726 0.00 0.91017 0.05
5 3 9 1 o 13795.287 11591.007 180.00 0.90998 0.40
0 12 6 2 o 8473.202 7344.879 0.00 0.91211 0.07
1 14 3 1 o 458.956 416.708 180.00 0.90964 0.02
7 5 7 2 o 6652.865 5635.560 0.00 0.91078 0.10
2 7 9 2 o 452.953 394.769 0.00 0.91079 0.01
10 4 2 1 o 13264.837 11290.337 180.00 0.90836 0.37
6 12 1 2 o 14607.352 13202.093 180.00 0.91033 0.22
1 12 6 1 o 7826.632 7165.760 0.00 0.90805 0.23
3 14 1 2 o 817.866 754.726 0.00 0.91017 0.02
5 3 9 2 o 11666.167 11591.007 180.00 0.90998 0.16
1 14 3 2 o 436.515 416.708 180.00 0.90964 0.01
3 2 10 1 o 10408.743 9936.176 180.00 0.90713 0.28
0 11 7 1 o 1154.448 1123.568 180.00 0.90705 0.02
10 4 2 2 o 10262.466 11290.337 180.00 0.90836 0.14
7 11 1 1 o 7576.610 8253.336 0.00 0.90613 0.20
10 5 0 1 o 7899.362 9102.284 0.00 0.90588 0.09
1 12 6 2 o 6054.119 7165.760 0.00 0.90805 0.08
4 13 3 1 o 667.746 810.952 180.00 0.90577 0.02
3 13 4 1 o 311.372 380.275 0.00 0.90532 0.01
3 2 10 2 o 9032.303 9936.176 180.00 0.90713 0.12
0 11 7 2 o 1030.657 1123.568 180.00 0.90705 0.01
0 13 5 1 o 19497.354 21319.881 180.00 0.90474 0.28
5 11 5 1 o 6981.439 7865.199 180.00 0.90459 0.20
6 10 5 1 o 3144.251 3763.193 180.00 0.90427 0.09
7 11 1 2 o 6579.339 8253.336 0.00 0.90613 0.08
8 8 4 1 o 47.455 60.264 180.00 0.90373 0.00
10 5 0 2 o 6877.803 9102.284 0.00 0.90588 0.04
8 5 6 1 o 3686.875 5177.093 0.00 0.90357 0.10
5 10 6 1 o 375.098 502.685 0.00 0.90356 0.01
4 13 3 2 o 587.860 810.952 180.00 0.90577 0.01
3 13 4 2 o 383.919 380.275 0.00 0.90532 0.01
1 11 7 1 o 272.054 260.624 0.00 0.90305 0.01
10 3 3 1 o 17131.188 14881.469 0.00 0.90260 0.47
0 13 5 2 o 23956.496 21319.881 180.00 0.90474 0.18
5 11 5 2 o 8442.364 7865.199 180.00 0.90459 0.13
5 13 1 1 o 4530.499 4283.073 180.00 0.90230 0.16
2 4 10 1 o 975.636 959.962 0.00 0.90218 0.04
6 10 5 2 o 3674.233 3763.193 180.00 0.90427 0.05
10 5 1 1 o 3030.026 3242.010 0.00 0.90184 0.08
7 0 8 1 o 1504.739 1641.170 0.00 0.90178 0.02
6 5 8 1 o 10983.919 11952.749 180.00 0.90178 0.30
8 8 4 2 o 54.797 60.264 180.00 0.90373 0.00
8 5 6 2 o 4388.439 5177.093 0.00 0.90357 0.06
5 10 6 2 o 434.342 502.685 0.00 0.90356 0.01
8 1 7 1 o 369.099 381.374 180.00 0.90068 0.01
1 11 7 2 o 236.861 260.624 0.00 0.90305 0.00
1 13 5 1 o 7193.472 7729.741 180.00 0.90078 0.22
4 8 8 1 o 773.500 788.256 180.00 0.90067 0.01
10 3 3 2 o 15359.633 14881.469 0.00 0.90260 0.21
5 13 1 2 o 4429.481 4283.073 180.00 0.90230 0.08
2 4 10 2 o 1010.533 959.962 0.00 0.90218 0.02
7 1 8 1 o 507.946 469.795 180.00 0.89973 0.01
10 5 1 2 o 3583.464 3242.010 0.00 0.90184 0.05
7 0 8 2 o 1852.961 1641.170 0.00 0.90178 0.01
6 5 8 2 o 13456.604 11952.749 180.00 0.90178 0.19
9 4 5 1 o 502.316 439.622 0.00 0.89906 0.01
6 9 6 1 o 9640.042 8292.669 180.00 0.89914 0.30
8 1 7 2 o 437.406 381.374 180.00 0.90068 0.01
8 7 5 1 o 36537.14 31965.246 180.00 0.89843 1.05
1 13 5 2 o 8863.195 7729.741 180.00 0.90078 0.14
4 8 8 2 o 865.256 788.256 180.00 0.90067 0.01
6 12 2 1 o 3692.145 3330.562 180.00 0.89818 0.10
3 14 2 1 o 11413.729 10496.179 0.00 0.89802 0.36
7 1 8 2 o 474.989 469.795 180.00 0.89973 0.01
2 14 3 1 o 23.994 23.638 0.00 0.89771 0.00
6 11 4 1 o 9209.123 9101.427 0.00 0.89727 0.31
8 9 3 1 o 3074.216 3070.660 180.00 0.89694 0.09
9 4 5 2 o 439.850 439.622 0.00 0.89906 0.01
6 9 6 2 o 8302.146 8292.669 180.00 0.89914 0.12
3 3 10 1 o 182.043 181.941 180.00 0.89684 0.00
9 8 1 1 o 4981.127 4978.112 0.00 0.89682 0.13
8 7 5 2 o 32322.988 31965.246 180.00 0.89843 0.45
2 12 6 1 o 69.884 69.805 180.00 0.89617 0.00
5 7 8 1 o 33.675 33.669 0.00 0.89598 0.00
4 11 6 1 o 1051.427 1048.323 180.00 0.89602 0.04
6 12 2 2 o 3328.135 3330.562 180.00 0.89818 0.04
3 14 2 2 o 10270.895 10496.179 0.00 0.89802 0.16
1 5 10 1 o 4879.074 5279.074 180.00 0.89560 0.14
9 7 3 1 o 1317.251 1466.905 180.00 0.89554 0.04
5 4 9 1 o 63.630 70.254 180.00 0.89555 0.00
2 14 3 2 o 21.280 23.638 0.00 0.89771 0.00
6 11 4 2 o 7195.211 9101.427 0.00 0.89727 0.12
8 9 3 2 o 2953.614 3070.660 180.00 0.89694 0.04
8 2 7 1 o 139.738 133.190 0.00 0.89460 0.00
3 3 10 2 o 185.319 181.941 180.00 0.89684 0.00
9 8 1 2 o 5155.639 4978.112 0.00 0.89682 0.07
9 6 4 1 o 3943.764 3427.026 0.00 0.89418 0.11
7 11 2 1 o 743.960 640.006 180.00 0.89415 0.02
8 10 0 1 o 1873.628 1628.723 180.00 0.89409 0.03
2 12 6 2 o 71.144 69.805 180.00 0.89617 0.00
5 7 8 2 o 39.272 33.669 0.00 0.89598 0.00
4 11 6 2 o 1242.550 1048.323 180.00 0.89602 0.02
7 2 8 1 o 11839.892 10516.558 180.00 0.89367 0.33
5 12 4 1 o 3756.645 3381.824 0.00 0.89355 0.12
3 9 8 1 o 3676.065 3329.033 0.00 0.89351 0.11
1 5 10 2 o 5789.509 5279.074 180.00 0.89560 0.08
9 7 3 2 o 1606.912 1466.905 180.00 0.89554 0.03
5 4 9 2 o 76.608 70.254 180.00 0.89555 0.00
10 0 4 1 o 27870.633 27694.377 180.00 0.89310 0.38
4 12 5 1 o 2337.790 2449.237 180.00 0.89300 0.07
8 2 7 2 o 115.196 133.190 0.00 0.89460 0.00
7 9 5 1 o 6349.749 6616.312 0.00 0.89208 0.21
9 6 4 2 o 3325.568 3427.026 0.00 0.89418 0.05
7 11 2 2 o 620.129 640.006 180.00 0.89415 0.01
8 10 0 2 o 1584.308 1628.723 180.00 0.89409 0.01
1 8 9 1 o 1.371 1.398 180.00 0.89185 0.00
7 2 8 2 o 10665.424 10516.558 180.00 0.89367 0.14
2 11 7 1 o 534.640 520.095 0.00 0.89137 0.02
5 12 4 2 o 3481.614 3381.824 0.00 0.89355 0.05
3 9 8 2 o 3444.315 3329.033 0.00 0.89351 0.05
10 1 4 1 o 11122.122 10505.722 0.00 0.89111 0.33
3 7 9 1 o 5389.629 5090.882 0.00 0.89108 0.16
10 0 4 2 o 29239.156 27694.377 180.00 0.89310 0.20
4 12 5 2 o 2557.834 2449.237 180.00 0.89300 0.04
5 9 7 1 o 12871.311 12911.844 180.00 0.89061 0.40
5 13 2 1 o 10326.610 10892.025 0.00 0.89047 0.31
8 10 1 1 o 659.630 762.359 0.00 0.89020 0.02
4 6 9 1 o 1262.619 1474.654 0.00 0.89017 0.03
10 5 2 1 o 1198.932 1472.752 0.00 0.89002 0.04
0 10 8 1 o 5051.812 5831.493 180.00 0.89014 0.06
