#------------------------------------------------------------------------------
#$Date: 2016-03-21 01:21:50 +0200 (Mon, 21 Mar 2016) $
#$Revision: 178377 $
#$URL: svn://www.crystallography.net/cod/cif/4/00/11/4001190.cif $
#------------------------------------------------------------------------------
#
# This file is available in the Crystallography Open Database (COD),
# http://www.crystallography.net/
#
# All data on this site have been placed in the public domain by the
# contributors.
#
data_4001190
loop_
_publ_author_name
'Zhou, Yongkai'
'Adams, Stefan'
'Rao, R. Prasada'
'Edwards, Doreen D.'
'Neiman, Arkady'
'Pestereva, N.'
_publ_section_title
;
 Charge Transport by Polyatomic Anion Diffusion in Sc2(WO4)3
;
_journal_issue                   20
_journal_name_full               'Chemistry of Materials'
_journal_page_first              6335
_journal_paper_doi               10.1021/cm800466y
_journal_volume                  20
_journal_year                    2008
_chemical_formula_moiety         ' Sc2(WO4)3 '
_chemical_formula_sum            'O12 Sc2 W3'
_chemical_formula_weight         833.45
_chemical_melting_point          1913
_chemical_name_common            ' Scandium Tungstate '
_chemical_name_systematic        ' Scandium Tungstate '
_space_group_IT_number           60
_symmetry_cell_setting           orthorhombic
_symmetry_space_group_name_Hall  '-P 2a 2n'
_symmetry_space_group_name_H-M   'P n c a'
_audit_creation_date             2008-01-25T12:03
_audit_creation_method           'from EXP file using GSAS2CIF'
_audit_update_record
' 2008-01-25T12:03  Initial CIF as created by GSAS2CIF'
_cell_angle_alpha                90.0
_cell_angle_beta                 90.0
_cell_angle_gamma                90.0
_cell_formula_units_Z            4
_cell_length_a                   9.66276(6)
_cell_length_b                   13.33496(8)
_cell_length_c                   9.57504(6)
_cell_measurement_temperature    400
_cell_volume                     1233.768(13)
_computing_structure_refinement  GSAS
_diffrn_radiation_polarisn_ratio 0.68
_diffrn_radiation_probe          x-ray
_exptl_absorpt_correction_T_max  1.00000
_exptl_absorpt_correction_T_min  1.00000
_exptl_absorpt_process_details
;   GSAS Absorption/surface roughness correction: function number 0
 No correction is applied.
;
_pd_block_id
2008-01-25T12:03|T11K|Zhou_Yongkai|Philips_Xpert
_pd_calc_method                  'Rietveld Refinement'
_pd_instr_location               ' ?'
_pd_meas_2theta_range_inc        0.017
_pd_meas_2theta_range_max        119.9874
_pd_meas_2theta_range_min        10.0144
_pd_meas_number_of_points        6470
_pd_proc_2theta_range_inc        0.017
_pd_proc_2theta_range_max        119.9874
_pd_proc_2theta_range_min        10.0144
_pd_proc_info_datetime           2008-01-25T12:07:56
_pd_proc_info_excluded_regions   ' ?'
_pd_proc_ls_background_function
;   GSAS Background function number 1 with 12 terms.
 Shifted Chebyshev function of 1st kind
      1:    314.299     2:   -52.8852     3:    37.6447     4:    31.1906    
      5:   -9.46692     6:    13.7145     7:   -9.99606     8:    4.82981    
      9:    7.01768    10:   -18.4546    11:    18.6642    12:   -6.35775    
;
_pd_proc_ls_peak_cutoff          0.00250
_pd_proc_ls_pref_orient_corr
;   March-Dollase
 AXIS  1 Ratio=   0.95224  h= 0.000  k= 1.000  l= 0.000
 Prefered orientation correction range: Min=   0.92921, Max=   1.15818
;
_pd_proc_ls_profile_function
;
 CW Profile function number 3 with  19 terms
 Pseudovoigt profile coefficients as parameterized in
 P. Thompson, D.E. Cox & J.B. Hastings (1987). J. Appl. Cryst.,20,79-83.
 Asymmetry correction of L.W. Finger, D.E. Cox & A. P. Jephcoat (1994).
 J. Appl. Cryst.,27,892-900.
 Peak tails are ignored  where the intensity is below 0.0025 times the peak
   Aniso. broadening axis   0.0   0.0   1.0
;
_pd_proc_ls_prof_R_factor        0.0484
_pd_proc_ls_prof_wR_expected     0.0356
_pd_proc_ls_prof_wR_factor       0.0643
_pd_proc_number_of_points        6470
_pd_spec_mounting                ' ?'
_refine_ls_goodness_of_fit_all   1.85
_refine_ls_matrix_type           full
_refine_ls_number_parameters     51
_refine_ls_number_restraints     0
_refine_ls_R_Fsqd_factor         0.04520
_refine_ls_shift/su_max          0.03
_refine_ls_shift/su_mean         0.01
_reflns_d_resolution_high        0.890
_reflns_d_resolution_low         6.667
_reflns_limit_h_max              10
_reflns_limit_h_min              0
_reflns_limit_k_max              15
_reflns_limit_k_min              0
_reflns_limit_l_max              10
_reflns_limit_l_min              0
_reflns_number_total             1837
_cod_data_source_file            cm800466y_si_009.cif
_cod_data_source_block           T400K
_cod_depositor_comments
;
The following automatic conversions were performed:

'_chemical_melting_point' value ' 1913K ' was changed to '1913' - the
value should be numeric and without a unit
designator.

'_geom_bond_publ_flag' value 'N' changed to 'n'
according to /home/saulius/struct/CIF-dictionaries/cif_core.dic
dictionary named 'cif_core.dic' version 2.4.1 from 2010-06-29 (26
times).

'_geom_angle_publ_flag' value 'N' changed to 'n' according
to /home/saulius/struct/CIF-dictionaries/cif_core.dic dictionary
named 'cif_core.dic' version 2.4.1 from 2010-06-29 (33 times).

Automatic conversion script
Id: cif_fix_values 1715 2011-07-08 13:25:40Z adriana 
;
_cod_original_cell_volume        1233.769(15)
_cod_database_code               4001190
#BEGIN Tags that were not found in dictionaries:
_gsas_exptl_extinct_corr_t_min   1.00000
_gsas_exptl_extinct_corr_t_max   1.00000
#END Tags that were not found in dictionaries
loop_
_symmetry_equiv_pos_site_id
_symmetry_equiv_pos_as_xyz
1 +x,+y,+z
2 -x+1/2,+y+1/2,+z+1/2
3 +x,-y+1/2,+z+1/2
4 -x+1/2,-y,+z
-1 -x,-y,-z
-2 +x+1/2,-y+1/2,-z+1/2
-3 -x,+y+1/2,-z+1/2
-4 +x+1/2,+y,-z
loop_
_atom_site_type_symbol
_atom_site_label
_atom_site_fract_x
_atom_site_fract_y
_atom_site_fract_z
_atom_site_occupancy
_atom_site_thermal_displace_type
_atom_site_U_iso_or_equiv
_atom_site_symmetry_multiplicity
Sc Sc1 0.46764(32) 0.38098(22) 0.2488(4) 1.0 Uiso 0.0185(10) 8
W W1 0.25 0.0 0.47255(13) 1.0 Uiso 0.01708(24) 4
W W2 0.11562(9) 0.35615(7) 0.39366(10) 1.0 Uiso 0.01708(24) 8
O O1 0.0906(10) 0.1350(7) 0.0751(10) 1.0 Uiso 0.0290(14) 8
O O2 0.1379(11) 0.0677(7) 0.3676(11) 1.0 Uiso 0.0290(14) 8
O O3 0.0076(11) 0.2641(8) 0.3189(10) 1.0 Uiso 0.0290(14) 8
O O4 0.3336(10) 0.4069(7) 0.0789(10) 1.0 Uiso 0.0290(14) 8
O O5 0.0662(9) 0.4764(8) 0.3243(10) 1.0 Uiso 0.0290(14) 8
O O6 0.2940(11) 0.3404(7) 0.3523(10) 1.0 Uiso 0.0290(14) 8
loop_
_atom_type_symbol
_atom_type_number_in_cell
_atom_type_scat_dispersion_real
_atom_type_scat_dispersion_imag
_atom_type_scat_Cromer_Mann_a1
_atom_type_scat_Cromer_Mann_a2
_atom_type_scat_Cromer_Mann_a3
_atom_type_scat_Cromer_Mann_a4
_atom_type_scat_Cromer_Mann_b1
_atom_type_scat_Cromer_Mann_b2
_atom_type_scat_Cromer_Mann_b3
_atom_type_scat_Cromer_Mann_b4
_atom_type_scat_Cromer_Mann_c
_atom_type_scat_source
Sc 8.0 0.000 0.000 9.18900 9.02130 7.36790 0.57290 1.64090 136.108 1.46800
51.3531 1.33290 International_Tables_Vol_C
W 12.0 0.000 0.000 29.0818 1.72029 15.4300 9.22590 14.4327 0.32170 5.11982
57.0560 9.88750 International_Tables_Vol_C
O 48.0 0.000 0.000 3.04850 13.2771 2.28680 5.70110 1.54630 0.32390 0.86700
32.9089 0.25080 International_Tables_Vol_C
loop_
_diffrn_radiation_wavelength
_diffrn_radiation_wavelength_wt
_diffrn_radiation_type
_diffrn_radiation_wavelength_id
1.540500 1.000 K\a~1~ 1
1.544300 0.500 K\a~2~ 2
loop_
_geom_angle_atom_site_label_1
_geom_angle_atom_site_label_2
_geom_angle_atom_site_label_3
_geom_angle
_geom_angle_site_symmetry_1
_geom_angle_site_symmetry_3
_geom_angle_publ_flag
O1 Sc1 O2 90.9(4) -2_666 -2_666 n
O1 Sc1 O3 93.0(4) -2_666 -2_666 n
O1 Sc1 O4 175.1(4) -2_666 1_555 n
O1 Sc1 O5 84.3(4) -2_666 4_565 n
O1 Sc1 O6 92.8(4) -2_666 1_555 n
O2 Sc1 O3 89.6(4) -2_666 -2_666 n
O2 Sc1 O4 91.1(4) -2_666 1_555 n
O2 Sc1 O5 90.6(4) -2_666 4_565 n
O2 Sc1 O6 175.2(5) -2_666 1_555 n
O3 Sc1 O4 91.5(4) -2_666 1_555 n
O3 Sc1 O5 177.3(4) -2_666 4_565 n
O3 Sc1 O6 93.3(4) -2_666 1_555 n
O4 Sc1 O5 91.3(4) 1_555 4_565 n
O4 Sc1 O6 85.0(4) 1_555 1_555 n
O5 Sc1 O6 86.8(4) 4_565 1_555 n
O2 W1 O2 109.1(7) 1_555 4_555 n
O2 W1 O4 114.1(5) 1_555 2_545 n
O2 W1 O4 104.4(4) 1_555 3_555 n
O2 W1 O4 104.4(4) 4_555 2_545 n
O2 W1 O4 114.1(5) 4_555 3_555 n
O4 W1 O4 111.0(6) 2_545 3_555 n
O1 W2 O3 111.5(4) 3_555 1_555 n
O1 W2 O5 105.6(4) 3_555 1_555 n
O1 W2 O6 111.1(4) 3_555 1_555 n
O3 W2 O5 108.3(5) 1_555 1_555 n
O3 W2 O6 113.6(5) 1_555 1_555 n
O5 W2 O6 106.3(4) 1_555 1_555 n
Sc1 O1 W2 152.8(6) -2_466 3_554 n
Sc1 O2 W1 165.3(6) -2_555 1_555 n
Sc1 O3 W2 152.3(6) -2_466 1_555 n
Sc1 O4 W1 145.7(5) 1_555 2_554 n
Sc1 O5 W2 173.5(6) 4_565 1_555 n
Sc1 O6 W2 151.6(6) 1_555 1_555 n
loop_
_geom_bond_atom_site_label_1
_geom_bond_atom_site_label_2
_geom_bond_distance
_geom_bond_site_symmetry_2
_geom_bond_publ_flag
Sc1 O1 2.074(10) -2_555 n
Sc1 O2 2.102(11) -2_555 n
Sc1 O3 2.077(10) -2_555 n
Sc1 O4 2.108(10) 1_555 n
Sc1 O5 2.060(10) 4_565 n
Sc1 O6 2.023(10) 1_555 n
W1 O2 1.731(10) 1_555 n
W1 O2 1.731(10) 4_555 n
W1 O4 1.798(9) 2_545 n
W1 O4 1.798(9) 3_555 n
W2 O1 1.758(10) 3_555 n
W2 O3 1.763(10) 1_555 n
W2 O5 1.801(10) 1_555 n
W2 O6 1.781(10) 1_555 n
O1 Sc1 2.074(10) -2_455 n
O1 W2 1.758(10) 3_554 n
O2 Sc1 2.102(11) -2_455 n
O2 W1 1.731(10) 1_555 n
O3 Sc1 2.077(10) -2_455 n
O3 W2 1.763(10) 1_555 n
O4 Sc1 2.108(10) 1_555 n
O4 W1 1.798(9) 2_554 n
O5 Sc1 2.060(10) 4_565 n
O5 W2 1.801(10) 1_555 n
O6 Sc1 2.023(10) 1_555 n
O6 W2 1.781(10) 1_555 n
loop_
_pd_meas_counts_total
_pd_proc_ls_weight
_pd_proc_intensity_bkg_calc
_pd_calc_intensity_total
322.0 0.0 623.85565 .
296.0 0.0 620.64709 .
290.0 0.0 617.46326 .
319.0 0.0 614.30402 .
300.0 0.0 611.16876 .
311.0 0.0 608.05829 .
315.0 0.0 604.97162 .
309.0 0.0 601.90887 .
311.0 0.0 598.87042 .
300.0 0.0 595.85516 .
319.0 0.0 592.86401 .
300.0 0.0 589.89606 .
318.0 0.0 586.95154 .
327.0 0.0 584.03046 .
313.0 0.0 581.13239 .
308.0 0.0 578.25732 .
328.0 0.0 575.40515 .
338.0 0.0 572.57556 .
309.0 0.0 569.76910 .
318.0 0.0 566.98505 .
299.0 0.0 564.22339 .
297.0 0.0 561.48395 .
327.0 0.0 558.76660 .
322.0 0.0 556.07159 .
317.0 0.0 553.39856 .
332.0 0.0 550.74725 .
327.0 0.0 548.11774 .
317.0 0.0 545.50970 .
326.0 0.0 542.92322 .
315.0 0.0 540.35846 .
327.0 0.0 537.81445 .
336.0 0.0 535.29181 .
314.0 0.0 532.79022 .
303.0 0.0 530.30975 .
306.0 0.0 527.85010 .
322.0 0.0 525.41101 .
323.0 0.0 522.99255 .
301.0 0.0 520.59442 .
307.0 0.0 518.21680 .
284.0 0.0 515.85974 .
301.0 0.0 513.52258 .
312.0 0.0 511.20551 .
290.0 0.0 508.90814 .
309.0 0.0 506.63098 .
326.0 0.0 504.37366 .
295.0 0.0 502.13565 .
327.0 0.0 499.91724 .
327.0 0.0 497.71811 .
310.0 0.0 495.53854 .
328.0 0.0 493.37808 .
300.0 0.0 491.23682 .
276.0 0.0 489.11438 .
329.0 0.0 487.01074 .
330.0 0.0 484.92603 .
311.0 0.0 482.86011 .
320.0 0.0 480.81268 .
296.0 0.0 478.78369 .
327.0 0.0 476.77298 .
320.0 0.0 474.78076 .
318.0 0.0 472.80667 .
327.0 0.0 470.85059 .
312.0 0.0 468.91241 .
298.0 0.0 466.99207 .
317.0 0.0 465.08954 .
297.0 0.0 463.20486 .
303.0 0.0 461.33780 .
317.0 0.0 459.48788 .
299.0 0.0 457.65540 .
291.0 0.0 455.84030 .
313.0 0.0 454.04245 .
333.0 0.0 452.26169 .
317.0 0.0 450.49777 .
349.0 0.0 448.75073 .
332.0 0.0 447.02045 .
349.0 0.0 445.30710 .
351.0 0.0 443.61026 .
326.0 0.0 441.92972 .
362.0 0.0 440.26581 .
367.0 0.0 438.61807 .
351.0 0.0 436.98669 .
347.0 0.0 435.37149 .
355.0 0.0 433.77216 .
321.0 0.0 432.18872 .
314.0 0.0 430.62122 .
320.0 0.0 429.06961 .
320.0 0.0 427.53357 .
331.0 0.0 426.01315 .
343.0 0.0 424.50812 .
336.0 0.0 423.01852 .
309.0 0.0 421.54440 .
311.0 0.0 420.08527 .
325.0 0.0 418.64136 .
338.0 0.0 417.21237 .
338.0 0.0 415.79843 .
337.0 0.0 414.39944 .
318.0 0.0 413.01523 .
309.0 0.0 411.64551 .
316.0 0.0 410.29050 .
301.0 0.0 408.94995 .
312.0 0.0 407.62393 .
335.0 0.0 406.31226 .
313.0 0.0 405.01474 .
321.0 0.0 403.73141 .
333.0 0.0 402.46228 .
329.0 0.0 401.20700 .
341.0 0.0 399.96582 .
359.0 0.0 398.73825 .
356.0 0.0 397.52454 .
332.0 0.0 396.32449 .
355.0 0.0 395.13794 .
336.0 0.0 393.96503 .
356.0 0.0 392.80542 .
321.0 0.0 391.65915 .
333.0 0.0 390.52625 .
362.0 0.0 389.40640 .
353.0 0.0 388.29971 .
353.0 0.0 387.20602 .
336.0 0.002976 386.12515 386.14163
343.0 0.002915 385.05737 385.07373
330.0 0.003030 384.00217 384.01855
349.0 0.002865 382.95972 382.97595
346.0 0.002890 381.92987 381.94604
327.0 0.003058 380.91245 380.92862
319.0 0.003135 379.90765 379.92368
340.0 0.002941 378.91522 378.93112
329.0 0.003040 377.93503 377.95090
374.0 0.002674 376.96707 376.98279
346.0 0.002890 376.01117 376.02682
330.0 0.003030 375.06744 375.08304
328.0 0.003049 374.13568 374.15118
337.0 0.002967 373.21579 373.23132
321.0 0.003115 372.30780 372.32321
332.0 0.003012 371.41159 371.42688
347.0 0.002882 370.52707 370.54224
350.0 0.002857 369.65408 369.66919
354.0 0.002825 368.79279 368.80777
352.0 0.002841 367.94284 367.95776
355.0 0.002817 367.10422 367.11899
349.0 0.002865 366.27704 366.29184
348.0 0.002874 365.46109 365.47577
336.0 0.002976 364.65634 364.67090
341.0 0.002933 363.86258 363.87711
348.0 0.002874 363.07986 363.09430
341.0 0.002933 362.30814 362.32251
352.0 0.002841 361.54736 361.56165
351.0 0.002849 360.79736 360.81155
325.0 0.003077 360.05807 360.07220
322.0 0.003106 359.32947 359.34338
333.0 0.003003 358.61148 358.62534
357.0 0.002801 357.90408 357.91782
377.0 0.002653 357.20706 357.22073
381.0 0.002625 356.52048 356.53409
358.0 0.002793 355.84406 355.85757
341.0 0.002933 355.17810 355.19150
359.0 0.002786 354.52225 354.53558
370.0 0.002703 353.87653 353.88983
344.0 0.002907 353.24084 353.25400
365.0 0.002740 352.61505 352.62817
358.0 0.002793 351.99930 352.01236
352.0 0.002841 351.39337 351.40631
392.0 0.002551 350.79718 355.41525
385.0 0.002597 350.21072 355.25757
362.0 0.002762 349.63394 357.48590
375.0 0.002667 349.06671 357.73267
375.0 0.002667 348.50903 358.15714
402.0 0.002488 347.96078 358.82828
409.0 0.002445 347.42191 359.89536
385.0 0.002597 346.89230 361.91003
372.0 0.002688 346.37204 366.72992
435.0 0.002299 345.86093 377.23709
422.0 0.002370 345.35889 394.45187
475.0 0.002105 344.86600 417.55887
493.0 0.002028 344.38208 445.39499
453.0 0.002208 343.90714 476.72742
477.0 0.002096 343.44107 511.10104
513.0 0.001949 342.98370 548.67438
513.0 0.001949 342.53522 589.83038
568.0 0.001761 342.09531 635.06207
653.0 0.001531 341.66409 684.99817
685.0 0.001460 341.24146 740.47845
686.0 0.001458 340.82733 802.61664
829.0 0.001206 340.42154 872.83496
827.0 0.001209 340.02417 952.92737
958.0 0.001044 339.63516 1045.41333
1090.0 0.000917 339.25446 1153.89758
1277.0 0.000783 338.88190 1283.48560
1515.0 0.000660 338.51749 1442.23828
1817.0 0.000550 338.16110 1643.18298
2204.0 0.000454 337.81281 1910.61841
2737.0 0.000365 337.47247 2299.46753
3418.0 0.0002926 337.14005 2930.00024
4121.0 0.0002427 336.81543 3767.16504
4155.0 0.0002407 336.49863 3919.46704
3238.0 0.0003088 336.18954 2945.45996
2090.0 0.000478 335.88818 1975.68286
1198.0 0.000835 335.59436 1074.08850
676.0 0.001479 335.30811 609.57996
483.0 0.002070 335.02945 472.36877
423.0 0.002364 334.75815 427.15286
416.0 0.002404 334.49426 402.87708
411.0 0.002433 334.23773 387.21152
393.0 0.002545 333.98853 376.37976
396.0 0.002525 333.74643 368.52332
390.0 0.002564 333.51154 362.60919
375.0 0.002667 333.28384 358.02185
360.0 0.002778 333.06314 354.37549
346.0 0.002890 332.84943 351.41653
361.0 0.002770 332.64270 348.97391
389.0 0.002571 332.44290 346.92688
383.0 0.002611 332.24988 345.18918
371.0 0.002695 332.06366 343.69711
350.0 0.002857 331.88419 342.40317
350.0 0.002857 331.71140 341.27127
364.0 0.002747 331.54526 340.27353
390.0 0.002564 331.38571 334.35498
383.0 0.002611 331.23267 333.95343
360.0 0.002778 331.08615 331.09390
332.0 0.003012 330.94595 330.95361
352.0 0.002841 330.81216 330.81979
377.0 0.002653 330.68484 330.69223
394.0 0.002538 330.56357 330.57101
368.0 0.002717 330.44864 330.45593
377.0 0.002653 330.33981 330.34702
347.0 0.002882 330.23721 330.24426
354.0 0.002825 330.14059 330.14764
371.0 0.002695 330.04999 330.05695
349.0 0.002865 329.96539 329.97232
378.0 0.002646 329.88675 329.89352
348.0 0.002874 329.81384 329.82059
357.0 0.002801 329.74692 329.75351
354.0 0.002825 329.68570 329.69226
382.0 0.002618 329.63025 329.63663
359.0 0.002786 329.58035 329.58673
355.0 0.002817 329.53613 329.54248
370.0 0.002703 329.49762 329.50385
381.0 0.002625 329.46457 329.47064
381.0 0.002625 329.43701 329.44296
364.0 0.002747 329.41486 329.42075
347.0 0.002882 329.39813 329.40390
392.0 0.002551 329.38675 336.74771
382.0 0.002618 329.38068 337.37704
391.0 0.002558 329.37982 341.72708
395.0 0.002532 329.38425 342.89059
417.0 0.002398 329.39374 344.25500
430.0 0.002326 329.40839 345.87701
437.0 0.002288 329.42819 347.84058
429.0 0.002331 329.45291 350.28076
431.0 0.002320 329.48273 353.46982
457.0 0.002188 329.51740 358.33762
471.0 0.002123 329.55701 368.10358
503.0 0.001988 329.60144 388.32590
520.0 0.001923 329.65067 421.47650
515.0 0.001942 329.70474 466.34833
537.0 0.001862 329.76343 521.48517
615.0 0.001626 329.82684 584.84088
677.0 0.001477 329.89487 655.22650
698.0 0.001433 329.96753 732.94153
740.0 0.001351 330.04468 818.99689
796.0 0.001256 330.12643 914.81348
888.0 0.001126 330.21262 1022.24878
1001.0 0.000999 330.30319 1143.69299
1079.0 0.000927 330.39813 1282.36597
1272.0 0.000786 330.49747 1442.80420
1532.0 0.000653 330.60110 1631.42517
1734.0 0.000577 330.70892 1857.36353
2111.0 0.000474 330.82104 2135.10205
2599.0 0.000385 330.93729 2488.97559
3218.0 0.0003108 331.05768 2964.88281
3985.0 0.0002509 331.18219 3670.42139
5116.0 0.0001955 331.31070 4807.84180
6012.0 0.0001663 331.44330 6120.82129
5499.0 0.0001819 331.57983 5921.10498
4073.0 0.0002455 331.72034 4285.64697
2717.0 0.000368 331.86469 2945.42554
1491.0 0.000671 332.01294 1556.16980
792.0 0.001263 332.16501 796.71759
584.0 0.001712 332.32083 565.65216
477.0 0.002096 332.48044 489.32968
457.0 0.002188 332.64374 448.77582
432.0 0.002315 332.81058 422.81512
424.0 0.002358 332.98123 405.03210
391.0 0.002558 333.15540 392.27905
450.0 0.002222 333.33313 382.80865
412.0 0.002427 333.51437 375.58072
421.0 0.002375 333.69907 369.94083
405.0 0.002469 333.88721 365.46045
395.0 0.002532 334.07880 361.84784
383.0 0.002611 334.27371 358.89948
352.0 0.002841 334.47205 356.46869
400.0 0.002500 334.67358 354.44754
370.0 0.002703 334.87839 352.75540
388.0 0.002577 335.08649 351.33078
410.0 0.002439 335.29776 350.12616
360.0 0.002778 335.51208 340.60291
363.0 0.002755 335.72961 340.39090
399.0 0.002506 335.95026 335.95139
371.0 0.002695 336.17386 336.17490
361.0 0.002770 336.40057 336.40155
394.0 0.002538 336.63022 336.63107
377.0 0.002653 336.86282 336.86359
383.0 0.002611 337.09830 337.09906
383.0 0.002611 337.33667 337.33740
362.0 0.002762 337.57785 337.57849
361.0 0.002770 337.82190 337.82248
367.0 0.002725 338.06879 338.06924
346.0 0.002890 338.31827 338.31866
363.0 0.002755 338.57062 338.57092
372.0 0.002688 338.82559 338.82584
350.0 0.002857 339.08322 339.08328
356.0 0.002809 339.34335 339.34348
348.0 0.002874 339.60623 339.60620
346.0 0.002890 339.87158 339.87149
344.0 0.002907 340.13943 340.13928
342.0 0.002924 340.40979 340.40952
356.0 0.002809 340.68256 340.68231
374.0 0.002674 340.95776 340.95743
354.0 0.002825 341.23541 341.23502
360.0 0.002778 341.51544 341.51495
358.0 0.002793 341.79770 341.79721
341.0 0.002933 342.08228 342.08170
338.0 0.002959 342.36920 342.36853
355.0 0.002817 342.65839 342.65762
353.0 0.002833 342.94968 342.94882
337.0 0.002967 343.24319 343.24228
350.0 0.002857 343.53882 343.53781
374.0 0.002674 343.83655 343.83554
355.0 0.002817 344.13644 344.13538
353.0 0.002833 344.43839 344.43723
353.0 0.002833 344.74240 344.74115
337.0 0.002967 345.04831 345.04703
356.0 0.002809 345.35620 345.35483
348.0 0.002874 345.66617 345.66470
333.0 0.003003 345.97794 345.97638
343.0 0.002915 346.29163 346.29010
353.0 0.002833 346.60712 346.60550
364.0 0.002747 346.92450 346.92282
362.0 0.002762 347.24368 347.24191
350.0 0.002857 347.56464 347.56284
349.0 0.002865 347.88739 347.88553
361.0 0.002770 348.21179 348.20978
345.0 0.002899 348.53784 348.53586
365.0 0.002740 348.86566 348.86362
360.0 0.002778 349.19510 349.19290
382.0 0.002618 349.52609 349.52396
328.0 0.003049 349.85870 349.85641
367.0 0.002725 350.19290 350.19058
357.0 0.002801 350.52863 350.52628
368.0 0.002717 350.86584 350.86343
371.0 0.002695 351.20459 351.20206
358.0 0.002793 351.54474 351.54211
353.0 0.002833 351.88632 351.88367
350.0 0.002857 352.22928 352.22665
349.0 0.002865 352.57364 352.57092
364.0 0.002747 352.91943 352.91653
362.0 0.002762 353.26645 353.26355
344.0 0.002907 353.61487 353.61194
361.0 0.002770 353.96448 353.96146
347.0 0.002882 354.31531 354.31232
371.0 0.002695 354.66748 354.66434
339.0 0.002950 355.02072 355.01764
355.0 0.002817 355.37531 355.37210
340.0 0.002941 355.73093 355.72769
355.0 0.002817 356.08780 356.08444
350.0 0.002857 356.44571 356.44226
350.0 0.002857 356.80466 356.80124
332.0 0.003012 357.16473 357.16125
328.0 0.003049 357.52582 357.52228
339.0 0.002950 357.88800 357.88440
357.0 0.002801 358.25113 358.24738
350.0 0.002857 358.61517 358.61145
342.0 0.002924 358.98019 358.97638
353.0 0.002833 359.34613 359.34222
356.0 0.002809 359.71304 359.70911
340.0 0.002941 360.08075 360.07675
331.0 0.003021 360.44928 360.44531
335.0 0.002985 360.81870 360.81467
330.0 0.003030 361.18896 361.18491
312.0 0.003205 361.56003 361.55585
331.0 0.003021 361.93182 361.92761
339.0 0.002950 362.30438 362.30011
326.0 0.003067 362.67764 362.67334
338.0 0.002959 363.05161 363.04727
353.0 0.002833 363.42633 363.42194
354.0 0.002825 363.80164 363.79724
354.0 0.002825 364.17764 364.17316
345.0 0.002899 364.55423 364.54965
366.0 0.002732 364.93149 364.92688
373.0 0.002681 365.30927 365.30460
362.0 0.002762 365.68768 365.68292
364.0 0.002747 366.06647 366.06174
336.0 0.002976 366.44598 366.44110
362.0 0.002762 366.82584 366.82095
363.0 0.002755 367.20624 367.20135
340.0 0.002941 367.58716 367.58215
358.0 0.002793 367.96844 367.96347
343.0 0.002915 368.35013 368.34509
347.0 0.002882 368.73230 368.72726
342.0 0.002924 369.11484 369.10959
324.0 0.003086 369.49774 369.49255
368.0 0.002717 369.88086 369.87564
344.0 0.002907 370.26443 370.25922
321.0 0.003115 370.64835 370.64301
356.0 0.002809 371.03247 371.02716
345.0 0.002899 371.41696 371.41156
340.0 0.002941 371.80167 371.79620
323.0 0.003096 372.18655 372.18106
335.0 0.002985 372.57175 372.56616
308.0 0.003247 372.95706 372.95154
328.0 0.003049 373.34262 373.33704
340.0 0.002941 373.72827 373.72256
351.0 0.002849 374.11411 374.10840
346.0 0.002890 374.50009 374.49432
346.0 0.002890 374.88623 374.88040
358.0 0.002793 375.27243 375.26654
338.0 0.002959 375.65863 375.65280
363.0 0.002755 376.04492 376.03903
353.0 0.002833 376.43137 376.42535
360.0 0.002778 376.81775 376.81177
349.0 0.002865 377.20416 377.19803
359.0 0.002786 377.59055 377.58444
333.0 0.003003 377.97693 377.97079
348.0 0.002874 378.36328 378.35709
339.0 0.002950 378.74957 378.74344
336.0 0.002976 379.13580 379.12952
356.0 0.002809 379.52191 379.51572
371.0 0.002695 379.90793 379.90164
375.0 0.002667 380.29388 380.28760
343.0 0.002915 380.67969 380.67328
334.0 0.002994 381.06528 381.05893
343.0 0.002915 381.45081 381.44434
343.0 0.002915 381.83618 381.82962
351.0 0.002849 382.22125 382.21472
343.0 0.002915 382.60611 382.59958
330.0 0.003030 382.99078 382.98422
351.0 0.002849 383.37527 383.36871
340.0 0.002941 383.75937 383.75275
350.0 0.002857 384.14340 384.13663
357.0 0.002801 384.52701 384.52029
349.0 0.002865 384.91034 384.90366
346.0 0.002890 385.29340 385.28656
342.0 0.002924 385.67609 385.66925
338.0 0.002959 386.05850 386.05167
364.0 0.002747 386.44049 386.43365
357.0 0.002801 386.82217 386.81525
371.0 0.002695 387.20349 387.19653
341.0 0.002933 387.58435 387.57736
354.0 0.002825 387.96481 387.95779
373.0 0.002681 388.34494 388.33792
342.0 0.002924 388.72452 388.71747
325.0 0.003077 389.10370 389.09662
358.0 0.002793 389.48242 389.47534
385.0 0.002597 389.86069 389.85358
362.0 0.002762 390.23846 390.23135
354.0 0.002825 390.61575 390.60855
351.0 0.002849 390.99246 390.98529
349.0 0.002865 391.36874 391.36145
362.0 0.002762 391.74445 391.73712
351.0 0.002849 392.11963 392.11237
346.0 0.002890 392.49426 392.48679
337.0 0.002967 392.86826 392.90549
347.0 0.002882 393.24164 393.28232
365.0 0.002740 393.61450 393.68021
355.0 0.002817 393.98676 394.05841
351.0 0.002849 394.35840 394.43683
348.0 0.002874 394.72931 394.81558
394.0 0.002538 395.09961 395.19482
386.0 0.002591 395.46939 395.57492
330.0 0.003030 395.83844 395.95624
359.0 0.002786 396.20682 396.33908
365.0 0.002740 396.57437 398.72476
408.0 0.002451 396.94138 399.26822
359.0 0.002786 397.30762 400.78265
357.0 0.002801 397.67319 401.45465
347.0 0.002882 398.03793 402.18781
347.0 0.002882 398.40195 403.03070
371.0 0.002695 398.76532 404.52234
365.0 0.002740 399.12781 405.74869
352.0 0.002841 399.48962 407.16830
360.0 0.002778 399.85052 409.05386
357.0 0.002801 400.21075 410.96136
373.0 0.002681 400.57010 413.16650
380.0 0.002632 400.92874 415.76471
410.0 0.002439 401.28638 418.96075
426.0 0.002347 401.64337 423.39215
414.0 0.002415 401.99939 430.82803
384.0 0.002604 402.35455 443.58139
422.0 0.002370 402.70892 462.32669
484.0 0.002066 403.06238 486.88550
487.0 0.002053 403.41495 518.17493
500.0 0.002000 403.76657 557.39301
554.0 0.001805 404.11740 602.71246
605.0 0.001653 404.46729 644.70703
645.0 0.001550 404.81628 686.56085
673.0 0.001486 405.16428 742.95264
730.0 0.001370 405.51132 810.44861
828.0 0.001208 405.85748 894.41162
1009.0 0.000991 406.20264 1006.15973
1226.0 0.000816 406.54694 1157.66809
1465.0 0.000683 406.89017 1379.43005
1781.0 0.000561 407.23239 1722.79370
2084.0 0.000480 407.57364 2090.58032
1959.0 0.000510 407.91400 2007.72009
1573.0 0.000636 408.25320 1587.04883
1371.0 0.000729 408.59149 1399.43152
1185.0 0.000844 408.92871 1160.82617
939.0 0.001065 409.26483 934.05719
856.0 0.001168 409.60001 891.21643
817.0 0.001224 409.93411 836.43091
749.0 0.001335 410.26727 710.55310
659.0 0.001517 410.59927 645.08588
569.0 0.001757 410.93002 572.36243
464.0 0.002155 411.25992 491.23270
435.0 0.002299 411.58875 453.42676
351.0 0.002849 411.91638 440.53781
351.0 0.002849 412.24286 434.57227
370.0 0.002703 412.56839 430.78888
381.0 0.002625 412.89273 428.12683
367.0 0.002725 413.21591 426.22131
392.0 0.002551 413.53799 424.80573
421.0 0.002375 413.85898 423.73712
427.0 0.002342 414.17874 422.92334
414.0 0.002415 414.49744 422.30212
378.0 0.002646 414.81497 421.82990
394.0 0.002538 415.13132 418.79874
388.0 0.002577 415.44647 418.74664
395.0 0.002532 415.76041 418.74719
419.0 0.002387 416.07327 417.48746
414.0 0.002415 416.38486 417.66525
413.0 0.002421 416.69531 433.09882
397.0 0.002519 417.00455 433.79617
406.0 0.002463 417.31256 435.35065
419.0 0.002387 417.61938 444.73209
437.0 0.002288 417.92499 446.90515
419.0 0.002387 418.22934 449.72351
398.0 0.002513 418.53241 452.89883
418.0 0.002392 418.83426 456.50757
447.0 0.002237 419.13492 460.64914
477.0 0.002096 419.43436 465.45618
504.0 0.001984 419.73251 471.11038
511.0 0.001957 420.02939 477.87054
532.0 0.001880 420.32498 486.12207
592.0 0.001689 420.61938 496.48236
645.0 0.001550 420.91245 510.16434
688.0 0.001453 421.20416 530.88354
730.0 0.001370 421.49472 570.34442
787.0 0.001271 421.78394 648.50623
893.0 0.001120 422.07184 774.20978
998.0 0.001002 422.35846 942.81543
1119.0 0.000894 422.64377 1156.00330
1367.0 0.000732 422.92776 1416.71814
1612.0 0.000620 423.21042 1723.91370
1821.0 0.000549 423.49185 2081.55615
2190.0 0.000457 423.77185 2501.08740
2734.0 0.000366 424.05054 3001.18018
3433.0 0.0002913 424.32791 3610.57764
4247.0 0.0002355 424.60388 4375.94043
5415.0 0.0001847 424.87857 5383.12012
7068.0 0.0001415 425.15195 6819.40723
9497.0 0.0001053 425.42389 9068.03223
12434.0 0.0000804 425.69458 12015.77930
12595.0 0.0000794 425.96378 12782.67285
9633.0 0.0001038 426.23166 9437.45703
7439.0 0.0001344 426.49826 7238.34033
5585.0 0.0001791 426.76340 5814.81006
3091.0 0.0003235 427.02716 3210.03027
1505.0 0.000664 427.28955 1554.46924
957.0 0.001045 427.55060 997.84204
724.0 0.001381 427.81021 808.84656
614.0 0.001629 428.06848 710.26794
532.0 0.001880 428.32529 647.30841
539.0 0.001855 428.58078 604.09027
542.0 0.001845 428.83478 573.00104
499.0 0.002004 429.08743 549.82855
475.0 0.002105 429.33859 532.06604
457.0 0.002188 429.58841 518.13721
444.0 0.002252 429.83685 507.00861
447.0 0.002237 430.08380 497.97620
481.0 0.002079 430.32938 490.54791
406.0 0.002463 430.57355 484.36923
518.0 0.001931 430.81616 479.17853
519.0 0.001927 431.05746 474.78040
500.0 0.002000 431.29733 471.02545
452.0 0.002212 431.53568 467.79855
423.0 0.002364 431.77261 465.00958
431.0 0.002320 432.00818 462.58624
417.0 0.002398 432.24225 460.47122
451.0 0.002217 432.47488 458.61752
502.0 0.001992 432.70599 456.98721
462.0 0.002165 432.93576 455.54907
465.0 0.002151 433.16394 454.27667
458.0 0.002183 433.39078 453.14844
432.0 0.002315 433.61615 440.54611
434.0 0.002304 433.84003 440.32886
472.0 0.002119 434.06244 440.15112
473.0 0.002114 434.28333 434.27502
481.0 0.002079 434.50284 434.49445
483.0 0.002070 434.72086 454.07843
438.0 0.002283 434.93732 455.71103
444.0 0.002252 435.15244 457.50674
443.0 0.002257 435.36597 469.11197
443.0 0.002257 435.57806 472.02441
478.0 0.002092 435.78864 475.28415
480.0 0.002083 435.99786 478.95639
489.0 0.002045 436.20551 483.12326
489.0 0.002045 436.41162 487.89035
501.0 0.001996 436.61630 493.39465
535.0 0.001869 436.81943 499.81888
563.0 0.001776 437.02115 507.41089
612.0 0.001634 437.22131 516.51996
649.0 0.001541 437.41998 527.66040
655.0 0.001527 437.61719 541.63446
694.0 0.001441 437.81287 559.88770
805.0 0.001242 438.00714 586.29510
882.0 0.001134 438.19977 633.61346
973.0 0.001028 438.39099 728.70007
1167.0 0.000857 438.58066 890.45471
1292.0 0.000774 438.76886 1117.47632
1436.0 0.000696 438.95563 1408.71057
1658.0 0.000603 439.14078 1771.82666
1913.0 0.000523 439.32446 2211.13501
2371.0 0.000422 439.50659 2731.02246
2889.0 0.0003461 439.68726 3348.70386
3453.0 0.0002896 439.86639 4095.58667
4587.0 0.0002180 440.04398 5022.26953
5813.0 0.0001720 440.22009 6218.83643
7862.0 0.0001272 440.39471 7867.92480
10483.0 0.0000954 440.56778 10377.66504
14236.0 0.0000702 440.73941 14045.12695
17054.0 0.0000586 440.90948 16607.63672
13835.0 0.0000723 441.07800 13553.42676
9490.0 0.0001054 441.24496 9682.16797
8154.0 0.0001226 441.41049 8374.87402
5722.0 0.0001748 441.57455 5786.43115
2678.0 0.000373 441.73697 2797.36206
1321.0 0.000757 441.89801 1466.55457
957.0 0.001045 442.05743 1048.99573
763.0 0.001311 442.21536 874.02032
717.0 0.001395 442.37177 770.43530
616.0 0.001623 442.52664 701.52563
603.0 0.001658 442.68008 652.97620
576.0 0.001736 442.83185 617.35852
573.0 0.001745 442.98221 590.36835
552.0 0.001812 443.13107 569.38483
518.0 0.001931 443.27826 552.73810
538.0 0.001859 443.42410 539.28925
561.0 0.001783 443.56836 528.26855
579.0 0.001727 443.71106 519.11810
572.0 0.001748 443.85229 511.43558
551.0 0.001815 443.99194 504.92749
580.0 0.001724 444.13016 499.36316
560.0 0.001786 444.26675 494.57220
579.0 0.001727 444.40192 490.41733
560.0 0.001786 444.53558 504.47772
534.0 0.001873 444.66766 502.59128
540.0 0.001852 444.79828 501.23068
544.0 0.001838 444.92725 509.06534
550.0 0.001818 445.05484 509.31134
579.0 0.001727 445.18097 510.10944
554.0 0.001805 445.30542 511.48575
614.0 0.001629 445.42847 516.56873
610.0 0.001639 445.54996 521.60754
611.0 0.001637 445.66992 527.53247
652.0 0.001534 445.78839 535.90668
705.0 0.001418 445.90536 545.35773
783.0 0.001277 446.02078 556.49792
808.0 0.001238 446.13467 569.81848
847.0 0.001181 446.24716 586.06183
895.0 0.001117 446.35806 606.42035
963.0 0.001038 446.46747 633.35339
1065.0 0.000939 446.57538 674.48541
1177.0 0.000850 446.68179 750.25208
1352.0 0.000740 446.78665 887.34186
1521.0 0.000657 446.89005 1093.51379
1739.0 0.000575 446.99191 1363.21765
1961.0 0.000510 447.09235 1705.35742
2334.0 0.000428 447.19116 2177.41235
2812.0 0.000356 447.28851 2715.10449
3425.0 0.0002920 447.38443 3400.31592
4280.0 0.0002336 447.47891 4302.04443
5439.0 0.0001839 447.57172 5428.61035
6991.0 0.0001430 447.66312 6893.77539
9159.0 0.0001092 447.75296 8913.00586
12354.0 0.0000809 447.84143 11906.69141
16623.0 0.0000602 447.92838 15831.35840
18423.0 0.0000543 448.01373 17767.44727
15209.0 0.0000658 448.09766 14942.27246
13566.0 0.0000737 448.18018 13255.62988
14303.0 0.0000699 448.26108 13866.04492
13904.0 0.0000719 448.34061 13631.24609
14466.0 0.0000691 448.41867 14382.52344
15968.0 0.0000626 448.49512 16106.70215
13785.0 0.0000725 448.57019 13776.45996
9964.0 0.0001004 448.64380 9803.20117
8676.0 0.0001153 448.71582 8634.36133
7688.0 0.0001301 448.78647 7251.03809
5186.0 0.0001928 448.85559 4711.21680
3688.0 0.0002711 448.92322 3610.47485
3753.0 0.0002665 448.98947 3788.65088
4319.0 0.0002315 449.05417 4516.58936
5154.0 0.0001940 449.11749 5555.41260
6247.0 0.0001601 449.17926 6876.41260
7503.0 0.0001333 449.23956 8527.84961
9621.0 0.0001039 449.29855 10621.43262
12662.0 0.0000790 449.35599 13367.59863
17382.0 0.0000575 449.41196 17225.18359
23734.0 0.0000421 449.46640 23156.79688
30671.0 0.00003260 449.51959 31355.40430
34107.0 0.00002932 449.57117 35505.34375
27893.0 0.0000359 449.62128 27268.15430
19754.0 0.0000506 449.67004 19697.79297
16792.0 0.0000596 449.71729 17752.68555
12455.0 0.0000803 449.76312 12656.88379
6283.0 0.0001592 449.80756 6041.31738
2764.0 0.000362 449.85056 2918.50830
1759.0 0.000569 449.89206 1910.11719
1406.0 0.000711 449.93219 1487.95728
1179.0 0.000848 449.97086 1246.37646
1031.0 0.000970 450.00809 1085.60120
924.0 0.001082 450.04388 965.07129
840.0 0.001190 450.07825 885.31854
787.0 0.001271 450.11127 822.66632
753.0 0.001328 450.14282 759.11438
707.0 0.001414 450.17291 721.54956
692.0 0.001445 450.20166 695.18933
724.0 0.001381 450.22894 671.21588
690.0 0.001449 450.25482 644.76251
662.0 0.001511 450.27936 629.54364
692.0 0.001445 450.30249 619.33911
663.0 0.001508 450.32416 610.10846
670.0 0.001493 450.34445 603.41217
702.0 0.001425 450.36334 599.22870
698.0 0.001433 450.38086 597.77930
706.0 0.001416 450.39700 599.89380
692.0 0.001445 450.41168 608.57953
769.0 0.001300 450.42499 631.89954
805.0 0.001242 450.43695 679.73480
872.0 0.001147 450.44757 754.19604
944.0 0.001059 450.45673 853.10071
1009.0 0.000991 450.46460 944.56927
1131.0 0.000884 450.47104 1107.30371
1311.0 0.000763 450.47607 1307.55566
1519.0 0.000658 450.47980 1536.34448
1792.0 0.000558 450.48212 1850.62256
2239.0 0.000447 450.48315 2266.70483
2997.0 0.0003337 450.48276 2848.40283
3910.0 0.0002558 450.48108 3724.24854
5142.0 0.0001945 450.47797 4953.12842
5671.0 0.0001763 450.47357 5758.98242
4766.0 0.0002098 450.46777 4830.23828
3740.0 0.0002674 450.46063 3793.42188
3535.0 0.0002829 450.45218 3697.47119
3234.0 0.0003092 450.44238 3371.13989
2646.0 0.000378 450.43124 2693.53784
2570.0 0.000389 450.41885 2612.04932
2977.0 0.0003359 450.40500 3102.87524
3466.0 0.0002885 450.38992 3558.93652
2933.0 0.0003409 450.37347 3039.83447
2139.0 0.000468 450.35571 2236.10327
1920.0 0.000521 450.33661 2011.74744
1712.0 0.000584 450.31622 1748.98962
1183.0 0.000845 450.29459 1148.38745
743.0 0.001346 450.27161 766.46100
645.0 0.001550 450.24725 629.16125
611.0 0.001637 450.22159 577.85907
578.0 0.001730 450.19476 549.51746
558.0 0.001792 450.16653 530.61505
582.0 0.001718 450.13708 517.08612
534.0 0.001873 450.10626 506.95935
584.0 0.001712 450.07419 499.12555
560.0 0.001786 450.04083 492.89951
546.0 0.001832 450.00620 487.84845
560.0 0.001786 449.97034 483.67694
521.0 0.001919 449.93320 480.18079
501.0 0.001996 449.89478 477.21609
512.0 0.001953 449.85504 474.67279
502.0 0.001992 449.81409 472.47156
492.0 0.002033 449.77188 470.54959
508.0 0.001969 449.72842 468.85834
505.0 0.001980 449.68369 462.18591
504.0 0.001984 449.63776 461.15729
527.0 0.001898 449.59048 460.24103
533.0 0.001876 449.54202 459.41971
502.0 0.001992 449.49234 456.20193
508.0 0.001969 449.44141 455.67505
534.0 0.001873 449.38928 455.19629
533.0 0.001876 449.33591 467.21844
495.0 0.002020 449.28128 464.58215
520.0 0.001923 449.22549 465.39792
530.0 0.001887 449.16843 466.34293
508.0 0.001969 449.11023 473.85345
511.0 0.001957 449.05072 474.08679
458.0 0.002183 448.99005 476.16321
490.0 0.002041 448.92819 478.53262
505.0 0.001980 448.86511 481.25177
527.0 0.001898 448.80087 484.39658
508.0 0.001969 448.73541 488.06143
536.0 0.001866 448.66879 492.37405
561.0 0.001783 448.60095 497.50571
619.0 0.001616 448.53198 503.68774
656.0 0.001524 448.46173 511.26041
666.0 0.001502 448.39038 520.72095
655.0 0.001527 448.31790 532.87360
708.0 0.001412 448.24417 549.25464
752.0 0.001330 448.16934 574.17932
805.0 0.001242 448.09338 620.41467
926.0 0.001080 448.01620 710.11017
1057.0 0.000946 447.93787 854.52930
1214.0 0.000824 447.85843 1053.84460
1418.0 0.000705 447.77780 1310.45435
1728.0 0.000579 447.69604 1635.38684
2021.0 0.000495 447.61322 2042.37317
2458.0 0.000407 447.52924 2548.13794
3059.0 0.0003269 447.44409 3190.17358
4036.0 0.0002478 447.35782 4036.81372
5428.0 0.0001842 447.27048 5239.34131
7220.0 0.0001385 447.18195 7071.04248
9318.0 0.0001073 447.09241 9323.42871
9640.0 0.0001037 447.00165 9777.12988
7452.0 0.0001342 446.90982 7113.06396
5489.0 0.0001822 446.81696 5405.83252
5057.0 0.0001977 446.72293 5150.16162
4069.0 0.0002458 446.62778 3942.28442
2259.0 0.000443 446.53162 2110.71021
1162.0 0.000861 446.43436 1174.45984
834.0 0.001199 446.33597 885.71942
745.0 0.001342 446.23657 763.00934
675.0 0.001481 446.13608 694.17285
644.0 0.001553 446.03442 649.72906
626.0 0.001597 445.93182 632.62164
592.0 0.001689 445.82809 612.45105
581.0 0.001721 445.72333 598.64362
612.0 0.001634 445.61749 589.41547
615.0 0.001626 445.51062 583.78119
586.0 0.001706 445.40268 581.15045
614.0 0.001629 445.29373 581.14490
640.0 0.001563 445.18375 583.65674
685.0 0.001460 445.07269 588.74194
716.0 0.001397 444.96060 596.64667
738.0 0.001355 444.84756 607.83698
762.0 0.001312 444.73343 623.11591
834.0 0.001199 444.61838 643.78644
941.0 0.001063 444.50220 672.18256
1016.0 0.000984 444.38504 713.83624
1116.0 0.000896 444.26697 785.96411
1269.0 0.000788 444.14774 929.20612
1499.0 0.000667 444.02768 1184.42981
1820.0 0.000549 443.90652 1565.55249
2221.0 0.000450 443.78439 2059.01270
2720.0 0.000368 443.66129 2681.76025
3221.0 0.0003105 443.53708 3493.91235
4061.0 0.0002462 443.41208 4519.54883
5242.0 0.0001908 443.28604 5814.57129
7276.0 0.0001374 443.15897 7505.56738
10032.0 0.0000997 443.03104 9897.02832
14214.0 0.0000704 442.90207 13528.74121
19206.0 0.0000521 442.77216 18170.00391
20714.0 0.0000483 442.64130 19757.77930
15261.0 0.0000655 442.50946 14628.67871
10938.0 0.0000914 442.37674 10648.14941
10317.0 0.0000969 442.24301 10146.53711
8651.0 0.0001156 442.10843 8418.45703
4653.0 0.0002149 441.97293 4573.24121
2118.0 0.000472 441.83640 2242.74512
1280.0 0.000781 441.69904 1407.68250
960.0 0.001042 441.56070 1099.37146
832.0 0.001202 441.42151 936.26654
772.0 0.001295 441.28128 826.78577
740.0 0.001351 441.14023 748.02344
633.0 0.001580 440.99823 692.25439
599.0 0.001669 440.85538 651.46991
551.0 0.001815 440.71167 620.27411
531.0 0.001883 440.56702 595.66418
548.0 0.001825 440.42148 575.84222
534.0 0.001873 440.27509 559.62061
479.0 0.002088 440.12778 546.14703
467.0 0.002141 439.97964 534.82477
526.0 0.001901 439.83057 525.20404
493.0 0.002028 439.68063 516.95013
513.0 0.001949 439.52988 509.81378
475.0 0.002105 439.37827 503.59180
486.0 0.002058 439.22586 498.13239
463.0 0.002160 439.07248 493.30951
474.0 0.002110 438.91827 489.02371
481.0 0.002079 438.76337 485.19727
479.0 0.002088 438.60742 481.76151
469.0 0.002132 438.45078 478.66385
436.0 0.002294 438.29333 475.85788
451.0 0.002217 438.13498 451.80289
448.0 0.002232 437.97580 450.74054
448.0 0.002232 437.81583 449.76401
462.0 0.002165 437.65509 448.86313
440.0 0.002273 437.49356 437.55753
446.0 0.002242 437.33112 437.39099
455.0 0.002198 437.16800 437.18985
447.0 0.002237 437.00403 437.02454
434.0 0.002304 436.83920 436.85852
439.0 0.002278 436.67368 436.67413
436.0 0.002294 436.50729 436.50778
442.0 0.002262 436.34024 436.34070
457.0 0.002188 436.17239 436.17288
453.0 0.002208 436.00369 436.00430
447.0 0.002237 435.83435 435.83490
428.0 0.002336 435.66409 435.66470
399.0 0.002506 435.49319 435.49384
437.0 0.002288 435.32150 435.32224
455.0 0.002198 435.14911 435.14990
459.0 0.002179 434.97595 434.97678
455.0 0.002198 434.80197 434.80273
435.0 0.002299 434.62738 434.62817
445.0 0.002247 434.45190 434.45291
437.0 0.002288 434.27591 434.27682
447.0 0.002237 434.09906 434.09998
443.0 0.002257 433.92151 433.92249
425.0 0.002353 433.74326 433.74423
440.0 0.002273 433.56421 433.56531
433.0 0.002309 433.38458 433.38565
464.0 0.002155 433.20428 433.20535
420.0 0.002381 433.02310 433.02429
403.0 0.002481 432.84131 432.84259
432.0 0.002315 432.65894 432.66013
431.0 0.002320 432.47580 441.94751
415.0 0.002410 432.29196 442.44791
421.0 0.002375 432.10739 443.02527
428.0 0.002336 431.92227 448.14072
417.0 0.002398 431.73636 449.22318
453.0 0.002208 431.54999 450.46222
458.0 0.002183 431.36279 451.88605
438.0 0.002283 431.17490 453.52954
429.0 0.002331 430.98642 455.43445
447.0 0.002237 430.79733 457.65662
482.0 0.002075 430.60760 460.26459
466.0 0.002146 430.41730 463.35095
471.0 0.002123 430.22617 467.03796
476.0 0.002101 430.03452 471.48849
543.0 0.001842 429.84219 476.93689
564.0 0.001773 429.64938 483.71606
534.0 0.001873 429.45578 492.33804
615.0 0.001626 429.26160 503.64349
637.0 0.001570 429.06689 519.35974
674.0 0.001484 428.87149 544.59454
758.0 0.001319 428.67563 592.64459
845.0 0.001183 428.47910 682.17047
976.0 0.001025 428.28186 819.70593
1072.0 0.000933 428.08417 1007.63885
1285.0 0.000778 427.88580 1251.62866
1538.0 0.000650 427.68698 1562.13367
1935.0 0.000517 427.48755 1965.32349
2496.0 0.000401 427.28745 2496.26050
3260.0 0.0003067 427.08688 3220.31177
4596.0 0.0002176 426.88565 4283.71240
6577.0 0.0001520 426.68393 5808.87061
7837.0 0.0001276 426.48166 7102.18359
6585.0 0.0001519 426.27878 6257.78662
4492.0 0.0002226 426.07538 4328.06299
3915.0 0.0002554 425.87146 3703.32104
3915.0 0.0002554 425.66705 3709.23364
2923.0 0.0003421 425.46207 2811.64063
1534.0 0.000652 425.25644 1571.93188
867.0 0.001153 425.05038 950.07538
695.0 0.001439 424.84387 735.12390
615.0 0.001626 424.63672 647.82410
573.0 0.001745 424.42905 598.30292
545.0 0.001835 424.22098 566.12714
518.0 0.001931 424.01239 544.17499
475.0 0.002105 423.80322 528.83881
470.0 0.002128 423.59357 518.13483
483.0 0.002070 423.38342 510.92191
483.0 0.002070 423.17288 506.58853
526.0 0.001901 422.96170 504.90662
542.0 0.001845 422.75015 506.03442
586.0 0.001706 422.53812 512.96082
591.0 0.001692 422.32562 525.19434
626.0 0.001597 422.11255 552.96082
650.0 0.001538 421.89911 605.33771
743.0 0.001346 421.68515 686.81781
825.0 0.001212 421.47079 793.47754
932.0 0.001073 421.25595 933.81647
1134.0 0.000882 421.04059 1117.18738
1332.0 0.000751 420.82495 1356.25879
1695.0 0.000590 420.60876 1675.70239
2241.0 0.000446 420.39221 2131.25757
3087.0 0.0003239 420.17514 2814.14844
4077.0 0.0002453 419.95761 3644.87109
4308.0 0.0002321 419.73975 3851.12524
3233.0 0.0003093 419.52142 2903.31519
2312.0 0.000433 419.30276 2194.65405
2297.0 0.000435 419.08359 2141.77563
2183.0 0.000458 418.86401 2021.23132
1499.0 0.000667 418.64407 1383.50159
866.0 0.001155 418.42358 867.79791
582.0 0.001718 418.20294 662.98920
575.0 0.001739 417.98184 603.15906
579.0 0.001727 417.76025 592.90100
606.0 0.001650 417.53830 608.42285
660.0 0.001515 417.31601 642.17627
662.0 0.001511 417.09341 694.88129
737.0 0.001357 416.87033 770.28107
823.0 0.001215 416.64682 873.78748
985.0 0.001015 416.42310 1016.82056
1246.0 0.000803 416.19888 1228.43896
1545.0 0.000647 415.97443 1541.11243
1893.0 0.000528 415.74957 1860.72620
1858.0 0.000538 415.52429 1805.40967
1425.0 0.000702 415.29880 1393.18237
1227.0 0.000815 415.07281 1217.99377
1277.0 0.000783 414.84665 1274.30066
1247.0 0.000802 414.62009 1229.88928
1017.0 0.000983 414.39316 1032.76392
921.0 0.001086 414.16599 956.94104
995.0 0.001005 413.93839 1027.15991
1143.0 0.000875 413.71054 1192.39648
1419.0 0.000705 413.48233 1459.09790
1864.0 0.000536 413.25385 1855.57263
2249.0 0.000445 413.02502 2231.01294
2084.0 0.000480 412.79590 2082.36938
1536.0 0.000651 412.56650 1537.09351
1280.0 0.000781 412.33685 1305.48218
1304.0 0.000767 412.10681 1324.80383
1134.0 0.000882 411.87650 1174.09119
833.0 0.001200 411.64597 820.50134
586.0 0.001706 411.41516 597.88361
490.0 0.002041 411.18405 513.82312
446.0 0.002242 410.95258 481.86697
387.0 0.002584 410.72095 464.71164
415.0 0.002410 410.48898 453.46085
395.0 0.002532 410.25690 445.49841
375.0 0.002667 410.02438 439.58316
364.0 0.002747 409.79166 435.02341
380.0 0.002632 409.55875 431.40601
389.0 0.002571 409.32547 428.46375
388.0 0.002577 409.09204 426.02280
426.0 0.002347 408.85837 423.96146
424.0 0.002358 408.62439 422.19412
390.0 0.002564 408.39029 418.97269
401.0 0.002494 408.15594 417.72284
389.0 0.002571 407.92133 416.61581
393.0 0.002545 407.68649 415.62521
388.0 0.002577 407.45139 413.89014
388.0 0.002577 407.21622 413.12521
357.0 0.002801 406.98071 412.42343
409.0 0.002445 406.74506 411.77524
374.0 0.002674 406.50919 411.17236
382.0 0.002618 406.27307 410.60834
394.0 0.002538 406.03687 410.07797
395.0 0.002532 405.80035 409.57642
379.0 0.002639 405.56372 406.95825
365.0 0.002740 405.32693 406.62930
363.0 0.002755 405.08987 406.30902
381.0 0.002625 404.85266 405.99649
392.0 0.002551 404.61533 404.62094
375.0 0.002667 404.37784 404.38345
409.0 0.002445 404.14008 404.14575
378.0 0.002646 403.90216 403.90787
367.0 0.002725 403.66422 403.66995
379.0 0.002639 403.42603 403.43173
399.0 0.002506 403.18768 403.19345
361.0 0.002770 402.94925 402.95505
380.0 0.002632 402.71048 402.71637
387.0 0.002584 402.47183 402.47772
373.0 0.002681 402.23282 402.23877
385.0 0.002597 401.99393 401.99982
423.0 0.002364 401.75473 401.76065
370.0 0.002703 401.51535 401.52130
363.0 0.002755 401.27597 401.28198
379.0 0.002639 401.03641 401.04242
405.0 0.002469 400.79672 400.80289
421.0 0.002375 400.55695 400.56305
433.0 0.002309 400.31705 400.32312
403.0 0.002481 400.07709 400.08328
378.0 0.002646 399.83694 399.84314
384.0 0.002604 399.59683 407.15961
379.0 0.002639 399.35651 407.45419
389.0 0.002571 399.11612 407.80823
399.0 0.002506 398.87564 408.23047
388.0 0.002577 398.63507 417.56671
387.0 0.002584 398.39444 418.77444
397.0 0.002519 398.15375 420.15829
381.0 0.002625 397.91284 421.74878
373.0 0.002681 397.67200 423.58215
400.0 0.002500 397.43109 431.18930
417.0 0.002398 397.19006 434.04434
451.0 0.002217 396.94897 437.36441
415.0 0.002410 396.70776 441.25339
433.0 0.002309 396.46661 445.84302
446.0 0.002242 396.22537 452.77817
449.0 0.002227 395.98410 459.48212
480.0 0.002083 395.74280 467.67554
475.0 0.002105 395.50134 477.87436
526.0 0.001901 395.25998 490.87119
523.0 0.001912 395.01846 508.12558
571.0 0.001751 394.77701 533.26508
656.0 0.001524 394.53540 576.14386
729.0 0.001372 394.29382 654.53986
899.0 0.001112 394.05228 779.48541
1050.0 0.000952 393.81067 961.79828
1229.0 0.000814 393.56906 1197.74084
1533.0 0.000652 393.32745 1521.97571
1928.0 0.000519 393.08575 1973.85938
2445.0 0.000409 392.84418 2603.00684
3314.0 0.0003018 392.60245 3521.11255
4921.0 0.0002032 392.36090 4833.14648
6229.0 0.0001605 392.11917 6191.28906
6088.0 0.0001643 391.87750 6293.46680
4759.0 0.0002101 391.63586 5234.87207
5021.0 0.0001992 391.39423 5143.83252
6080.0 0.0001645 391.15259 6158.92920
7105.0 0.0001407 390.91104 6817.82666
5602.0 0.0001785 390.66940 5557.16748
3949.0 0.0002532 390.42783 3956.54028
3659.0 0.0002733 390.18625 3605.95874
4100.0 0.0002439 389.94492 4049.82324
4276.0 0.0002339 389.70337 4077.01636
3269.0 0.0003059 389.46185 3005.66284
2034.0 0.000492 389.22052 1959.91296
1592.0 0.000628 388.97913 1598.48901
1528.0 0.000654 388.73785 1571.22534
1389.0 0.000720 388.49661 1370.42957
978.0 0.001022 388.25528 967.31812
658.0 0.001520 388.01419 705.92029
557.0 0.001795 387.77304 597.50513
505.0 0.001980 387.53204 550.75293
474.0 0.002110 387.29105 523.57318
466.0 0.002146 387.05008 505.07471
467.0 0.002141 386.80930 491.85977
437.0 0.002288 386.56848 482.26535
437.0 0.002288 386.32785 475.36594
431.0 0.002320 386.08716 470.61993
454.0 0.002203 385.84656 467.73724
450.0 0.002222 385.60617 466.61041
451.0 0.002217 385.36572 467.29388
519.0 0.001927 385.12552 470.03473
519.0 0.001927 384.88525 475.36890
488.0 0.002049 384.64511 484.49014
524.0 0.001908 384.40518 494.41055
631.0 0.001585 384.16525 529.38135
719.0 0.001391 383.92551 593.35376
788.0 0.001269 383.68579 696.08453
886.0 0.001129 383.44617 837.11963
1020.0 0.000980 383.20667 1031.67383
1251.0 0.000799 382.96732 1288.08545
1603.0 0.000624 382.72809 1641.76135
2110.0 0.000474 382.48898 2144.34546
2923.0 0.0003421 382.24988 2884.81738
3957.0 0.0002527 382.01108 3860.94775
4390.0 0.0002278 381.77234 4430.97363
3401.0 0.0002940 381.53372 3607.88574
2365.0 0.000423 381.29523 2530.87964
2116.0 0.000473 381.05685 2262.94556
2314.0 0.000432 380.81860 2394.47266
2024.0 0.000494 380.58057 2084.42017
1233.0 0.000811 380.34268 1319.02332
789.0 0.001267 380.10489 826.53882
585.0 0.001709 379.86719 636.32141
555.0 0.001802 379.62976 567.63184
538.0 0.001859 379.39240 536.26660
526.0 0.001901 379.15527 523.00763
524.0 0.001908 378.91827 526.37463
546.0 0.001832 378.68140 548.01465
614.0 0.001629 378.44476 588.03986
643.0 0.001555 378.20822 646.79242
701.0 0.001427 377.97198 729.01227
820.0 0.001220 377.73581 840.20044
947.0 0.001056 377.49969 1000.59454
1263.0 0.000792 377.26392 1240.63684
1510.0 0.000662 377.02832 1574.30835
1886.0 0.000530 376.79288 1860.99548
1811.0 0.000552 376.55765 1737.80664
1405.0 0.000712 376.32245 1386.00366
1310.0 0.000763 376.08771 1315.40991
1422.0 0.000703 375.85300 1499.12903
1638.0 0.000611 375.61847 1657.85535
1645.0 0.000608 375.38422 1673.23914
1791.0 0.000558 375.15005 1813.12720
2320.0 0.000431 374.91623 2223.60791
3108.0 0.0003218 374.68250 2946.76807
4044.0 0.0002473 374.44907 3876.53955
4352.0 0.0002298 374.21579 4315.87061
3441.0 0.0002906 373.98270 3415.58008
2367.0 0.000422 373.74994 2414.64771
2243.0 0.000446 373.51727 2200.17993
2340.0 0.000427 373.28491 2336.27026
2065.0 0.000484 373.05276 2033.53857
1355.0 0.000738 372.82071 1294.31287
795.0 0.001258 372.58905 817.21576
590.0 0.001695 372.35760 634.07147
529.0 0.001890 372.12634 573.16095
538.0 0.001859 371.89536 553.50201
542.0 0.001845 371.66449 555.92889
545.0 0.001835 371.43396 565.98291
530.0 0.001887 371.20364 549.49310
499.0 0.002004 370.97366 503.01056
458.0 0.002183 370.74384 474.28912
442.0 0.002262 370.51419 468.98224
426.0 0.002347 370.28494 465.69150
397.0 0.002519 370.05582 443.80521
378.0 0.002646 369.82706 418.65170
346.0 0.002890 369.59851 404.66647
359.0 0.002786 369.37018 396.22766
349.0 0.002865 369.14218 392.34204
354.0 0.002825 368.91443 389.44675
378.0 0.002646 368.68695 387.09961
348.0 0.002874 368.45975 384.21439
338.0 0.002959 368.23276 382.56689
344.0 0.002907 368.00604 381.12567
380.0 0.002632 367.77966 379.84674
378.0 0.002646 367.55350 378.69983
340.0 0.002941 367.32764 377.66119
333.0 0.003003 367.10205 371.47159
345.0 0.002899 366.87680 370.91354
372.0 0.002688 366.65179 370.39401
365.0 0.002740 366.42709 369.90723
362.0 0.002762 366.20273 369.44839
359.0 0.002786 365.97855 366.48703
358.0 0.002793 365.75467 366.22122
353.0 0.002833 365.53110 365.96078
314.0 0.003185 365.30795 365.70514
344.0 0.002907 365.08499 365.45325
317.0 0.003155 364.86230 365.20490
357.0 0.002801 364.64001 364.95959
325.0 0.003077 364.41797 364.71680
335.0 0.002985 364.19623 364.31454
348.0 0.002874 363.97488 364.08582
348.0 0.002874 363.75369 363.85806
339.0 0.002950 363.53293 363.63123
356.0 0.002809 363.31247 363.32214
338.0 0.002959 363.09232 363.10205
310.0 0.003226 362.87256 362.88226
328.0 0.003049 362.65298 362.66269
346.0 0.002890 362.43378 362.44357
336.0 0.002976 362.21503 362.22470
350.0 0.002857 361.99643 362.00620
353.0 0.002833 361.77826 361.78806
353.0 0.002833 361.56036 361.57016
305.0 0.003279 361.34280 361.35266
297.0 0.003367 361.12564 361.13544
306.0 0.003268 360.90881 360.91861
332.0 0.003012 360.69226 360.70209
327.0 0.003058 360.47601 360.48590
342.0 0.002924 360.26025 360.27011
357.0 0.002801 360.04468 360.05463
319.0 0.003135 359.82962 359.83951
315.0 0.003175 359.61481 359.62473
330.0 0.003030 359.40024 359.41028
323.0 0.003096 359.18619 359.19617
316.0 0.003165 358.97244 358.98242
306.0 0.003268 358.75909 358.76910
301.0 0.003322 358.54602 358.55606
312.0 0.003205 358.33334 358.34344
335.0 0.002985 358.12106 358.13107
339.0 0.002950 357.90912 357.91919
325.0 0.003077 357.69751 357.70764
317.0 0.003155 357.48630 357.49640
330.0 0.003030 357.27536 357.28552
361.0 0.002770 357.06494 357.07510
339.0 0.002950 356.85480 356.86493
333.0 0.003003 356.64511 356.65524
364.0 0.002747 356.43576 356.44583
346.0 0.002890 356.22672 356.23685
353.0 0.002833 356.01816 356.02826
363.0 0.002755 355.80984 355.82001
327.0 0.003058 355.60208 355.61221
346.0 0.002890 355.39459 355.40475
355.0 0.002817 355.18738 355.19763
333.0 0.003003 354.98074 354.99103
351.0 0.002849 354.77438 354.78467
351.0 0.002849 354.56842 354.57880
378.0 0.002646 354.36292 354.37320
359.0 0.002786 354.15775 354.16806
351.0 0.002849 353.95303 353.96329
348.0 0.002874 353.74866 353.75894
350.0 0.002857 353.54471 353.55508
380.0 0.002632 353.34113 353.35150
381.0 0.002625 353.13791 353.14828
313.0 0.003195 352.93521 352.94559
344.0 0.002907 352.73282 352.74319
364.0 0.002747 352.53088 355.73898
348.0 0.002874 352.32932 355.76050
335.0 0.002985 352.12814 355.80679
346.0 0.002890 351.92737 355.88147
369.0 0.002710 351.72705 355.98898
342.0 0.002924 351.52713 357.74872
366.0 0.002732 351.32764 358.05237
326.0 0.003067 351.12842 358.42111
336.0 0.002976 350.92978 358.86652
345.0 0.002899 350.73151 359.40338
337.0 0.002967 350.53363 360.04968
362.0 0.002762 350.33630 360.82901
375.0 0.002667 350.13919 373.40872
359.0 0.002786 349.94260 375.37018
367.0 0.002725 349.74646 377.67636
350.0 0.002857 349.55081 380.41071
353.0 0.002833 349.35541 389.17767
350.0 0.002857 349.16049 393.53940
383.0 0.002611 348.96603 398.88284
384.0 0.002604 348.77200 405.58173
416.0 0.002404 348.57843 414.27042
442.0 0.002262 348.38519 426.40366
458.0 0.002183 348.19244 450.49161
500.0 0.002000 348.00021 485.51410
558.0 0.001792 347.80832 544.10028
623.0 0.001605 347.61688 630.04504
698.0 0.001433 347.42593 749.09973
879.0 0.001138 347.23529 910.54810
1111.0 0.000900 347.04520 1131.26270
1452.0 0.000689 346.85550 1459.26392
1956.0 0.000511 346.66632 1925.19238
2390.0 0.000418 346.47748 2385.38379
2389.0 0.000419 346.28915 2356.04272
1889.0 0.000529 346.10129 1807.57886
1648.0 0.000607 345.91379 1511.96057
1756.0 0.000569 345.72681 1634.57141
2005.0 0.000499 345.54028 1934.07068
1937.0 0.000516 345.35413 2074.61743
1962.0 0.000510 345.16855 2132.18555
2201.0 0.000454 344.98331 2482.28174
2918.0 0.0003427 344.79858 3203.70947
4068.0 0.0002458 344.61432 4397.91553
5558.0 0.0001799 344.43045 6077.62256
6861.0 0.0001458 344.24716 7457.97510
6199.0 0.0001613 344.06424 6734.29395
4365.0 0.0002291 343.88177 4643.48633
3303.0 0.0003028 343.69980 3689.10181
3508.0 0.0002851 343.51819 3931.35791
3898.0 0.0002565 343.33713 4312.06348
3315.0 0.0003017 343.15656 3672.66553
2468.0 0.000405 342.97647 2648.42114
2249.0 0.000445 342.79681 2287.15820
2572.0 0.000389 342.61752 2568.36670
3235.0 0.0003091 342.43881 3200.77051
3526.0 0.0002836 342.26053 3619.65869
2914.0 0.0003432 342.08276 3097.17114
2112.0 0.000473 341.90543 2313.65259
1979.0 0.000505 341.72855 2113.14941
2201.0 0.000454 341.55222 2380.52124
2500.0 0.000400 341.37628 2615.99316
2224.0 0.000450 341.20081 2266.12549
1419.0 0.000705 341.02585 1560.88440
945.0 0.001058 340.85138 1071.99500
830.0 0.001205 340.67743 903.41510
765.0 0.001307 340.50378 895.48761
820.0 0.001220 340.33078 863.20544
664.0 0.001506 340.15823 706.86804
495.0 0.002020 339.98611 556.54852
466.0 0.002146 339.81445 477.89548
418.0 0.002392 339.64334 443.96942
392.0 0.002551 339.47278 425.75705
399.0 0.002506 339.30255 413.48611
391.0 0.002558 339.13281 404.44125
403.0 0.002481 338.96368 397.56738
403.0 0.002481 338.79498 392.31729
364.0 0.002747 338.62671 381.97852
365.0 0.002740 338.45905 380.49350
362.0 0.002762 338.29178 381.28543
357.0 0.002801 338.12506 385.51431
379.0 0.002639 337.95868 388.50375
391.0 0.002558 337.79303 403.62689
409.0 0.002445 337.62772 422.34155
437.0 0.002288 337.46286 449.30557
475.0 0.002105 337.29858 490.37122
519.0 0.001927 337.13477 548.93152
572.0 0.001748 336.97150 601.19562
577.0 0.001733 336.80862 593.06464
537.0 0.001862 336.64624 517.67249
486.0 0.002058 336.48447 471.03995
468.0 0.002137 336.32309 470.86975
470.0 0.002128 336.16229 483.80499
447.0 0.002237 336.00198 468.57736
423.0 0.002364 335.84216 423.87448
444.0 0.002252 335.68283 393.35110
422.0 0.002370 335.52399 383.10660
398.0 0.002513 335.36563 383.26794
436.0 0.002294 335.20782 387.98590
455.0 0.002198 335.05045 398.85281
474.0 0.002110 334.89365 420.28336
550.0 0.001818 334.73727 462.19626
563.0 0.001776 334.58148 532.28088
658.0 0.001520 334.42618 636.21942
746.0 0.001340 334.27124 784.58636
941.0 0.001063 334.11700 984.98712
1362.0 0.000734 333.96317 1274.78748
1885.0 0.000531 333.80984 1709.16650
2381.0 0.000420 333.65717 2223.68604
2594.0 0.000386 333.50479 2425.91504
1980.0 0.000505 333.35300 1928.67419
1352.0 0.000740 333.20166 1389.24280
1308.0 0.000765 333.05103 1249.32556
1442.0 0.000693 332.90073 1356.56042
1484.0 0.000674 332.75098 1374.44519
1123.0 0.000890 332.60181 1056.34924
684.0 0.001462 332.45306 705.03906
505.0 0.001980 332.30484 525.22845
465.0 0.002151 332.15714 458.86951
421.0 0.002375 332.00992 429.99271
406.0 0.002463 331.86322 414.95688
423.0 0.002364 331.71707 406.35361
427.0 0.002342 331.57141 401.90588
401.0 0.002494 331.42621 401.87079
423.0 0.002364 331.28156 403.41544
467.0 0.002141 331.13751 410.93079
483.0 0.002070 330.99393 421.09720
473.0 0.002114 330.85083 440.80212
505.0 0.001980 330.70828 477.75754
548.0 0.001825 330.56619 537.10156
655.0 0.001527 330.42465 627.81036
770.0 0.001299 330.28366 753.30737
950.0 0.001053 330.14319 940.56042
1257.0 0.000796 330.00314 1219.21387
1600.0 0.000625 329.86365 1623.43555
1951.0 0.000513 329.72470 2058.38037
2107.0 0.000475 329.58624 2194.80103
2010.0 0.000498 329.44836 1997.60242
2061.0 0.000485 329.31097 2029.29126
2289.0 0.000437 329.17404 2368.58960
2461.0 0.000406 329.03775 2565.75220
2182.0 0.000458 328.90186 2168.85889
1624.0 0.000616 328.76654 1595.83191
1331.0 0.000751 328.63174 1360.83325
1353.0 0.000739 328.49744 1434.19348
1465.0 0.000683 328.36374 1530.46655
1465.0 0.000683 328.23044 1469.41260
1583.0 0.000632 328.09772 1477.83594
1864.0 0.000536 327.96552 1706.86780
2025.0 0.000494 327.83383 1954.99866
1749.0 0.000572 327.70264 1817.11938
1384.0 0.000723 327.57205 1467.83862
1368.0 0.000731 327.44193 1370.41248
1608.0 0.000622 327.31229 1564.53467
1959.0 0.000510 327.18314 1894.41797
2190.0 0.000457 327.05463 2130.49780
2206.0 0.000453 326.92654 2130.49902
1804.0 0.000554 326.79910 1774.83838
1239.0 0.000807 326.67212 1267.74915
1016.0 0.000984 326.54559 1027.32300
1059.0 0.000944 326.41968 1035.03467
1111.0 0.000900 326.29425 1103.73181
1031.0 0.000970 326.16937 995.83630
696.0 0.001437 326.04501 725.95355
510.0 0.001961 325.92111 536.67719
392.0 0.002551 325.79782 452.14468
372.0 0.002688 325.67496 417.49805
404.0 0.002475 325.55267 397.36459
359.0 0.002786 325.43088 386.00253
376.0 0.002660 325.30969 378.21356
388.0 0.002577 325.18900 372.78036
366.0 0.002732 325.06879 366.60678
349.0 0.002865 324.94907 362.50229
346.0 0.002890 324.82993 360.06140
374.0 0.002674 324.71127 358.58075
336.0 0.002976 324.59317 358.11139
375.0 0.002667 324.47565 357.34900
346.0 0.002890 324.35855 358.45566
405.0 0.002469 324.24200 360.29926
395.0 0.002532 324.12598 363.46609
429.0 0.002331 324.01053 368.66245
413.0 0.002421 323.89557 375.27927
457.0 0.002188 323.78107 391.67792
501.0 0.001996 323.66721 423.18454
498.0 0.002008 323.55380 476.92484
565.0 0.001770 323.44089 557.90503
671.0 0.001490 323.32852 671.46222
867.0 0.001153 323.21671 833.35498
1110.0 0.000901 323.10541 1068.06860
1428.0 0.000700 322.99460 1406.57361
1761.0 0.000568 322.88437 1734.58655
1711.0 0.000584 322.77463 1710.17505
1308.0 0.000765 322.66541 1283.27356
972.0 0.001029 322.55664 983.50885
957.0 0.001045 322.44852 950.85480
1029.0 0.000972 322.34088 1043.17737
1026.0 0.000975 322.23370 1034.16345
833.0 0.001200 322.12717 796.28729
570.0 0.001754 322.02097 561.45673
439.0 0.002278 321.91547 442.85513
372.0 0.002688 321.81042 395.97211
355.0 0.002817 321.70581 374.98523
390.0 0.002564 321.60184 362.71429
416.0 0.002404 321.49838 356.24451
410.0 0.002439 321.39536 356.32745
393.0 0.002545 321.29297 352.36792
369.0 0.002710 321.19098 349.46695
351.0 0.002849 321.08957 347.32886
361.0 0.002770 320.98877 345.76175
354.0 0.002825 320.88834 347.51318
344.0 0.002907 320.78851 346.90387
361.0 0.002770 320.68918 346.61420
350.0 0.002857 320.59033 346.60950
344.0 0.002907 320.49207 346.86987
324.0 0.003086 320.39426 347.38766
322.0 0.003106 320.29700 348.16537
330.0 0.003030 320.20026 349.21634
364.0 0.002747 320.10406 350.56427
326.0 0.003067 320.00833 352.24689
360.0 0.002778 319.91309 354.31805
351.0 0.002849 319.81845 356.85196
360.0 0.002778 319.72430 359.95743
368.0 0.002717 319.63058 361.77844
377.0 0.002653 319.53760 366.71448
387.0 0.002584 319.44485 373.43881
399.0 0.002506 319.35278 381.77673
393.0 0.002545 319.26120 393.98639
452.0 0.002212 319.17010 413.01862
479.0 0.002088 319.07953 447.83994
536.0 0.001866 318.98944 501.29779
561.0 0.001783 318.89993 580.18274
708.0 0.001412 318.81091 688.00385
870.0 0.001149 318.72241 843.70386
1083.0 0.000923 318.63443 1069.30493
1349.0 0.000741 318.54694 1341.85730
1571.0 0.000637 318.45990 1486.52734
1441.0 0.000694 318.37344 1301.72900
1139.0 0.000878 318.28748 1074.78857
1187.0 0.000842 318.20206 1078.35303
1380.0 0.000725 318.11713 1311.66260
1686.0 0.000593 318.03271 1659.08228
1913.0 0.000523 317.94879 2015.31702
2277.0 0.000439 317.86536 2428.91064
3066.0 0.0003262 317.78244 3205.58496
4510.0 0.0002217 317.70004 4422.36768
5884.0 0.0001700 317.61813 5796.39648
6033.0 0.0001658 317.53674 6084.42871
4496.0 0.0002224 317.45584 4557.67480
2887.0 0.0003464 317.37546 3128.85229
2585.0 0.000387 317.29559 2766.89771
2911.0 0.0003435 317.21631 3091.52002
3127.0 0.0003198 317.13742 3318.97534
2596.0 0.000385 317.05902 2655.67334
1572.0 0.000636 316.98117 1606.96313
919.0 0.001088 316.90381 968.57098
652.0 0.001534 316.82693 701.40607
574.0 0.001742 316.75061 595.06409
518.0 0.001931 316.67480 545.58551
476.0 0.002101 316.59946 524.41559
469.0 0.002132 316.52460 525.35675
495.0 0.002020 316.45023 549.82672
575.0 0.001739 316.37640 597.72351
693.0 0.001443 316.30307 680.83667
755.0 0.001325 316.23013 798.07233
869.0 0.001151 316.15778 931.64166
1025.0 0.000976 316.08594 1019.48718
1063.0 0.000941 316.01462 1048.87891
986.0 0.001014 315.94366 998.69269
882.0 0.001134 315.87332 913.06635
859.0 0.001164 315.80341 931.17059
1031.0 0.000970 315.73407 1040.37061
1246.0 0.000803 315.66513 1199.47888
1438.0 0.000695 315.59668 1363.26648
1485.0 0.000673 315.52887 1372.06311
1178.0 0.000849 315.46136 1116.56616
825.0 0.001212 315.39450 831.22760
710.0 0.001408 315.32803 718.20508
721.0 0.001387 315.26208 727.40717
780.0 0.001282 315.19669 776.33337
764.0 0.001309 315.13168 724.45789
591.0 0.001692 315.06711 567.56250
464.0 0.002155 315.00314 447.43781
385.0 0.002597 314.93970 385.95184
333.0 0.003003 314.87662 362.68539
351.0 0.002849 314.81409 351.30237
321.0 0.003115 314.75211 343.95554
333.0 0.003003 314.69046 338.79028
335.0 0.002985 314.62936 334.96982
324.0 0.003086 314.56882 332.04089
319.0 0.003135 314.50864 329.86270
329.0 0.003040 314.44897 328.01028
355.0 0.002817 314.38980 326.49191
304.0 0.003289 314.33118 325.22983
314.0 0.003185 314.27298 324.16754
332.0 0.003012 314.21518 323.26450
345.0 0.002899 314.15799 322.49088
354.0 0.002825 314.10120 321.39395
315.0 0.003175 314.04489 320.84164
318.0 0.003145 313.98911 319.60492
313.0 0.003195 313.93365 319.23468
302.0 0.003311 313.87891 318.91678
304.0 0.003289 313.82446 318.42563
284.0 0.00352 313.77057 318.21069
299.0 0.003344 313.71710 317.64670
321.0 0.003115 313.66406 316.61945
333.0 0.003003 313.61160 316.65417
337.0 0.002967 313.55951 316.72116
298.0 0.003356 313.50797 316.82446
313.0 0.003195 313.45688 316.97006
312.0 0.003205 313.40619 317.16638
300.0 0.003333 313.35608 316.99826
293.0 0.003413 313.30634 317.39008
302.0 0.003311 313.25711 317.88190
320.0 0.003125 313.20834 318.50983
298.0 0.003356 313.15997 319.32971
315.0 0.003175 313.11212 320.43460
336.0 0.002976 313.06476 322.02054
340.0 0.002941 313.01782 325.71289
347.0 0.002882 312.97137 330.43646
358.0 0.002793 312.92532 339.03214
371.0 0.002695 312.87979 352.65674
387.0 0.002584 312.83469 373.57489
415.0 0.002410 312.79001 402.87207
476.0 0.002101 312.74582 447.00476
599.0 0.001669 312.70212 506.39594
670.0 0.001493 312.65887 563.75671
610.0 0.001639 312.61600 561.49152
512.0 0.001953 312.57364 489.43704
420.0 0.002381 312.53177 434.02170
427.0 0.002342 312.49033 423.96780
464.0 0.002155 312.44931 440.83536
476.0 0.002101 312.40872 453.27133
436.0 0.002294 312.36865 427.59357
391.0 0.002558 312.32895 383.04449
353.0 0.002833 312.28976 355.29800
320.0 0.003125 312.25098 344.49576
337.0 0.002967 312.21262 341.89517
373.0 0.002681 312.17471 342.99588
360.0 0.002778 312.13727 347.40115
367.0 0.002725 312.10028 357.17770
365.0 0.002740 312.06375 375.83386
413.0 0.002421 312.02765 405.56567
446.0 0.002242 311.99200 451.22339
524.0 0.001908 311.95670 515.78540
627.0 0.001595 311.92191 612.28094
747.0 0.001339 311.88748 738.03912
877.0 0.001140 311.85358 840.27283
849.0 0.001178 311.82013 799.04523
623.0 0.001605 311.78699 650.65790
555.0 0.001802 311.75443 562.68542
525.0 0.001905 311.72226 564.34814
648.0 0.001543 311.69046 616.04578
678.0 0.001475 311.65912 658.17133
660.0 0.001515 311.62823 640.10254
656.0 0.001524 311.59775 623.95691
727.0 0.001376 311.56772 682.68640
849.0 0.001178 311.53806 820.73425
998.0 0.001002 311.50885 1046.61816
1349.0 0.000741 311.48013 1323.86646
1501.0 0.000666 311.45175 1474.08459
1361.0 0.000735 311.42386 1293.55505
1033.0 0.000968 311.39630 1040.28760
906.0 0.001104 311.36926 961.28778
963.0 0.001038 311.34262 982.88617
1021.0 0.000979 311.31641 1001.14838
938.0 0.001066 311.29053 937.64087
756.0 0.001323 311.26514 752.53064
587.0 0.001704 311.24017 598.68518
530.0 0.001887 311.21558 523.94055
444.0 0.002252 311.19141 467.39828
417.0 0.002398 311.16760 412.79089
414.0 0.002415 311.14432 377.92432
378.0 0.002646 311.12134 360.30307
351.0 0.002849 311.09885 351.26205
361.0 0.002770 311.07672 346.39340
356.0 0.002809 311.05508 342.70047
346.0 0.002890 311.03375 340.10696
341.0 0.002933 311.01288 338.29108
336.0 0.002976 310.99246 336.19418
336.0 0.002976 310.97235 335.48291
331.0 0.003021 310.95258 335.46909
332.0 0.003012 310.93338 335.51086
321.0 0.003115 310.91449 335.88007
336.0 0.002976 310.89603 336.12384
355.0 0.002817 310.87796 337.18280
371.0 0.002695 310.86026 338.60608
342.0 0.002924 310.84293 340.44345
344.0 0.002907 310.82611 342.76541
356.0 0.002809 310.80963 345.67505
394.0 0.002538 310.79355 349.31793
396.0 0.002525 310.77783 351.99579
401.0 0.002494 310.76251 364.06744
407.0 0.002457 310.74762 371.98926
450.0 0.002222 310.73315 382.31866
486.0 0.002058 310.71890 395.90448
513.0 0.001949 310.70514 416.05722
571.0 0.001751 310.69183 447.87326
628.0 0.001592 310.67883 510.46066
708.0 0.001412 310.66623 619.01111
903.0 0.001107 310.65399 793.18585
1195.0 0.000837 310.64218 1061.02148
1683.0 0.000594 310.63068 1446.91724
2188.0 0.000457 310.61966 2015.96167
2985.0 0.0003350 310.60901 2725.31372
3420.0 0.0002924 310.59863 3212.17480
3087.0 0.0003239 310.58868 2834.46631
2087.0 0.000479 310.57913 1990.98840
1532.0 0.000653 310.56992 1534.26660
1551.0 0.000645 310.56113 1540.23230
1740.0 0.000575 310.55261 1771.79297
1934.0 0.000517 310.54459 1885.09631
1693.0 0.000591 310.53690 1566.04565
1211.0 0.000826 310.52951 1136.42749
942.0 0.001062 310.52249 929.65948
918.0 0.001089 310.51596 932.70795
1062.0 0.000942 310.50970 1008.84039
1113.0 0.000898 310.50381 1001.84741
898.0 0.001114 310.49832 841.57520
714.0 0.001401 310.49319 701.33167
638.0 0.001567 310.48834 659.85583
754.0 0.001326 310.48392 694.39850
838.0 0.001193 310.47986 745.65710
870.0 0.001149 310.47614 742.36084
815.0 0.001227 310.47281 674.75287
763.0 0.001311 310.46982 638.13849
777.0 0.001287 310.46713 677.72052
884.0 0.001131 310.46484 813.73212
1097.0 0.000912 310.46289 1075.36389
1475.0 0.000678 310.46133 1478.98950
2092.0 0.000478 310.46008 2118.71948
3013.0 0.0003319 310.45917 3026.83325
4490.0 0.0002227 310.45862 4312.37939
5969.0 0.0001675 310.45847 5576.09375
6018.0 0.0001662 310.45856 5737.87207
4438.0 0.0002253 310.45905 4265.88379
2874.0 0.0003479 310.45987 2921.07422
2464.0 0.000406 310.46106 2498.65479
2808.0 0.000356 310.46259 2777.97314
3271.0 0.0003057 310.46442 3192.04712
3054.0 0.0003274 310.46658 3026.34253
2170.0 0.000461 310.46909 2102.54590
1334.0 0.000750 310.47202 1286.58020
914.0 0.001094 310.47516 877.47040
779.0 0.001284 310.47876 729.08075
748.0 0.001337 310.48257 701.31488
721.0 0.001387 310.48679 740.33118
840.0 0.001190 310.49124 838.81323
1015.0 0.000985 310.49609 1016.63098
1286.0 0.000778 310.50131 1286.12317
1756.0 0.000569 310.50677 1618.45081
2062.0 0.000485 310.51266 1830.16113
1762.0 0.000568 310.51880 1671.71777
1376.0 0.000727 310.52524 1383.08240
1400.0 0.000714 310.53198 1302.28784
1464.0 0.000683 310.53915 1469.49243
1939.0 0.000516 310.54651 1789.38672
2205.0 0.000454 310.55432 1991.29224
1968.0 0.000508 310.56238 1735.22559
1244.0 0.000804 310.57077 1244.25269
936.0 0.001068 310.57950 939.46613
871.0 0.001148 310.58844 858.73383
926.0 0.001080 310.59781 905.02655
1018.0 0.000982 310.60742 953.22375
934.0 0.001071 310.61737 885.95422
836.0 0.001196 310.62759 763.43524
746.0 0.001340 310.63821 723.91016
791.0 0.001264 310.64902 789.48584
1006.0 0.000994 310.66022 961.51813
1333.0 0.000750 310.67172 1241.33655
1644.0 0.000608 310.68344 1633.66956
2018.0 0.000496 310.69550 2049.57031
2349.0 0.000426 310.70786 2286.00781
2421.0 0.000413 310.72061 2438.37036
2553.0 0.000392 310.73352 2676.27295
2741.0 0.000365 310.74680 2761.83521
2759.0 0.000362 310.76035 2756.87622
2786.0 0.000359 310.77420 2958.31616
2919.0 0.0003426 310.78830 3050.11450
2665.0 0.000375 310.80270 2660.88428
2135.0 0.000468 310.81754 2139.79321
1639.0 0.000610 310.83252 1745.28870
1384.0 0.000723 310.84787 1486.39270
1341.0 0.000746 310.86334 1430.91431
1324.0 0.000755 310.87927 1414.38062
1213.0 0.000824 310.89545 1218.96033
1005.0 0.000995 310.91180 977.53168
888.0 0.001126 310.92862 890.06213
956.0 0.001046 310.94565 967.06580
1180.0 0.000847 310.96289 1165.88098
1458.0 0.000686 310.98047 1427.10242
1642.0 0.000609 310.99829 1579.86096
1505.0 0.000664 311.01639 1416.55493
1150.0 0.000870 311.03476 1119.83667
927.0 0.001079 311.05347 932.65125
913.0 0.001095 311.07233 906.03735
1027.0 0.000974 311.09158 993.05414
1103.0 0.000907 311.11099 1075.95959
1030.0 0.000971 311.13083 1028.66626
922.0 0.001085 311.15076 933.36060
883.0 0.001133 311.17105 914.90912
985.0 0.001015 311.19159 1001.42706
1127.0 0.000887 311.21237 1108.48254
1085.0 0.000922 311.23340 1078.54736
929.0 0.001076 311.25470 913.56665
841.0 0.001189 311.27628 833.59814
909.0 0.001100 311.29813 904.67780
1080.0 0.000926 311.32022 1112.18738
1332.0 0.000751 311.34256 1409.55737
1707.0 0.000586 311.36517 1727.13501
2023.0 0.000494 311.38803 1946.59778
1875.0 0.000533 311.41116 1884.50562
1409.0 0.000710 311.43448 1451.07202
1013.0 0.000987 311.45813 1072.69556
855.0 0.001170 311.48190 949.53571
1020.0 0.000980 311.50604 1016.62799
1181.0 0.000847 311.53036 1147.09509
1259.0 0.000794 311.55502 1174.96655
1159.0 0.000863 311.57977 1008.20844
948.0 0.001055 311.60486 862.57111
977.0 0.001024 311.63016 873.36414
1256.0 0.000796 311.65570 1047.03198
1657.0 0.000604 311.68149 1363.53284
2206.0 0.000453 311.70752 1817.21289
2676.0 0.000374 311.73380 2256.48828
2784.0 0.000359 311.76031 2288.80420
2011.0 0.000497 311.78699 1753.32483
1414.0 0.000707 311.81396 1257.32373
1225.0 0.000816 311.84113 1091.04700
1345.0 0.000743 311.86853 1174.47461
1488.0 0.000672 311.89612 1342.12073
1539.0 0.000650 311.92404 1358.96875
1191.0 0.000840 311.95218 1078.38184
845.0 0.001183 311.98050 765.00220
603.0 0.001658 312.00900 599.36481
575.0 0.001739 312.03778 554.04297
558.0 0.001792 312.06671 576.38989
639.0 0.001565 312.09592 638.45544
751.0 0.001332 312.12534 713.52118
725.0 0.001379 312.15497 732.63892
653.0 0.001531 312.18488 641.41071
550.0 0.001818 312.21490 534.44080
477.0 0.002096 312.24521 487.17123
467.0 0.002141 312.27563 491.60828
505.0 0.001980 312.30634 519.79755
517.0 0.001934 312.33728 532.17102
502.0 0.001992 312.36838 489.18277
443.0 0.002257 312.39966 424.61563
394.0 0.002538 312.43121 383.19305
367.0 0.002725 312.46298 365.48141
363.0 0.002755 312.49487 361.02380
379.0 0.002639 312.52698 365.78757
396.0 0.002525 312.55933 377.67365
426.0 0.002347 312.59183 401.74222
439.0 0.002278 312.62460 440.77237
459.0 0.002179 312.65750 495.75824
552.0 0.001812 312.69055 556.13739
597.0 0.001675 312.72391 578.11926
523.0 0.001912 312.75742 521.44952
440.0 0.002273 312.79108 449.60428
408.0 0.002451 312.82498 416.95596
412.0 0.002427 312.85904 419.94604
434.0 0.002304 312.89334 440.88971
460.0 0.002174 312.92780 452.75934
451.0 0.002217 312.96234 427.34082
388.0 0.002577 312.99722 382.62622
378.0 0.002646 313.03223 349.55133
339.0 0.002950 313.06738 334.78766
327.0 0.003058 313.10269 328.34790
300.0 0.003333 313.13824 325.04059
325.0 0.003077 313.17404 322.94678
322.0 0.003106 313.20990 321.61127
333.0 0.003003 313.24594 319.42041
336.0 0.002976 313.28217 318.76471
328.0 0.003049 313.31857 318.16821
334.0 0.002994 313.35513 317.69940
343.0 0.002915 313.39188 317.32623
338.0 0.002959 313.42877 317.09433
358.0 0.002793 313.46585 316.85559
310.0 0.003226 313.50308 316.72324
334.0 0.002994 313.54053 316.15546
295.0 0.003390 313.57813 316.05627
329.0 0.003040 313.61591 315.98370
329.0 0.003040 313.65372 315.93439
341.0 0.002933 313.69180 315.90594
329.0 0.003040 313.73004 315.89691
341.0 0.002933 313.76837 315.90625
326.0 0.003067 313.80688 315.73398
323.0 0.003096 313.84567 315.78934
312.0 0.003205 313.88446 315.86395
309.0 0.003236 313.92343 315.96033
354.0 0.002825 313.96255 316.08258
322.0 0.003106 314.00189 316.45938
288.0 0.003472 314.04129 316.67810
334.0 0.002994 314.08084 316.98740
319.0 0.003135 314.12061 317.45471
290.0 0.003448 314.16049 318.15714
302.0 0.003311 314.20047 319.17999
327.0 0.003058 314.24063 320.37363
308.0 0.003247 314.28088 322.46854
295.0 0.003390 314.32144 324.59607
317.0 0.003155 314.36197 325.59683
318.0 0.003145 314.40262 324.66840
341.0 0.002933 314.44351 323.71924
347.0 0.002882 314.48447 324.17328
323.0 0.003096 314.52560 325.98395
331.0 0.003021 314.56689 333.17294
340.0 0.002941 314.60825 338.87576
342.0 0.002924 314.64972 347.58301
365.0 0.002740 314.69138 361.78998
409.0 0.002445 314.73312 385.77863
466.0 0.002146 314.77502 421.02710
494.0 0.002024 314.81705 467.35419
511.0 0.001957 314.85919 509.45120
540.0 0.001852 314.90143 516.62933
516.0 0.001938 314.94382 491.97995
446.0 0.002242 314.98636 451.07132
403.0 0.002481 315.02899 421.42245
417.0 0.002398 315.07166 416.62460
435.0 0.002299 315.11450 427.55557
429.0 0.002331 315.15750 431.85870
445.0 0.002247 315.20059 420.42096
412.0 0.002427 315.24374 397.83725
377.0 0.002653 315.28702 372.94122
350.0 0.002857 315.33047 357.34357
358.0 0.002793 315.37396 351.02365
352.0 0.002841 315.41760 350.17120
360.0 0.002778 315.46133 352.68344
355.0 0.002817 315.50522 358.81430
388.0 0.002577 315.54913 370.26001
394.0 0.002538 315.59308 389.56216
368.0 0.002717 315.63727 417.53040
442.0 0.002262 315.68158 459.61649
546.0 0.001832 315.72583 508.94937
583.0 0.001715 315.77032 546.90869
578.0 0.001730 315.81488 534.50348
527.0 0.001898 315.85953 488.36951
448.0 0.002232 315.90421 462.77676
539.0 0.001855 315.94907 470.32352
548.0 0.001825 315.99396 502.63580
582.0 0.001718 316.03894 550.39154
666.0 0.001502 316.08405 602.39587
732.0 0.001366 316.12921 668.95081
809.0 0.001236 316.17447 805.33508
1021.0 0.000979 316.21979 1055.90967
1457.0 0.000686 316.26529 1466.00391
2035.0 0.000491 316.31079 2104.14624
3024.0 0.0003307 316.35645 2849.64014
3675.0 0.0002721 316.40204 3387.34595
3373.0 0.0002965 316.44778 3067.81055
2194.0 0.000456 316.49365 2166.43018
1446.0 0.000692 316.53955 1550.23914
1339.0 0.000747 316.58557 1421.09473
1557.0 0.000642 316.63162 1606.53247
1921.0 0.000521 316.67770 1878.90735
1941.0 0.000515 316.72391 1893.98303
1559.0 0.000641 316.77017 1463.32117
991.0 0.001009 316.81662 970.76215
642.0 0.001558 316.86295 675.46454
514.0 0.001946 316.90948 541.09271
452.0 0.002212 316.95602 482.86227
443.0 0.002257 317.00266 453.26630
435.0 0.002299 317.04935 436.11823
420.0 0.002381 317.09604 426.57028
411.0 0.002433 317.14282 424.12527
432.0 0.002315 317.18973 429.70410
473.0 0.002114 317.23663 448.63498
509.0 0.001965 317.28360 489.71967
565.0 0.001770 317.33072 561.28937
712.0 0.001404 317.37778 674.96143
903.0 0.001107 317.42484 850.10107
1136.0 0.000880 317.47211 1053.78650
1285.0 0.000778 317.51932 1196.19104
1229.0 0.000814 317.56665 1106.16858
942.0 0.001062 317.61404 863.80719
713.0 0.001403 317.66141 700.80237
670.0 0.001493 317.70889 668.92725
740.0 0.001351 317.75638 725.18988
805.0 0.001242 317.80392 807.91913
855.0 0.001170 317.85150 829.41748
808.0 0.001238 317.89902 733.41052
678.0 0.001475 317.94681 621.30353
639.0 0.001565 317.99454 575.67163
686.0 0.001458 318.04227 606.70233
753.0 0.001328 318.09006 719.86731
999.0 0.001001 318.13785 933.50208
1312.0 0.000762 318.18576 1273.27942
1755.0 0.000570 318.23364 1809.00220
2406.0 0.000416 318.28156 2460.93555
2953.0 0.0003386 318.32950 2990.68311
2925.0 0.0003419 318.37753 2841.03833
2101.0 0.000476 318.42554 2095.30884
1488.0 0.000672 318.47357 1520.97278
1225.0 0.000816 318.52170 1376.52783
1355.0 0.000738 318.56976 1550.88977
1683.0 0.000594 318.61789 1821.89856
1841.0 0.000543 318.66605 1899.61731
1562.0 0.000640 318.71423 1558.49390
1094.0 0.000914 318.76242 1074.62158
764.0 0.001309 318.81064 763.29065
598.0 0.001672 318.85892 631.63678
562.0 0.001779 318.90717 594.98706
542.0 0.001845 318.95541 584.07776
557.0 0.001795 319.00375 570.00867
569.0 0.001757 319.05203 575.30017
604.0 0.001656 319.10034 602.92664
640.0 0.001563 319.14874 621.73254
583.0 0.001715 319.19705 580.98718
528.0 0.001894 319.24545 506.60608
439.0 0.002278 319.29376 458.21036
417.0 0.002398 319.34222 446.25751
447.0 0.002237 319.39059 459.05624
473.0 0.002114 319.43893 478.70599
484.0 0.002066 319.48734 481.69516
451.0 0.002217 319.53577 450.80756
429.0 0.002331 319.58417 414.53857
410.0 0.002439 319.63260 393.63049
384.0 0.002604 319.68100 387.68466
393.0 0.002545 319.72940 392.21024
413.0 0.002421 319.77780 405.38803
436.0 0.002294 319.82623 427.49612
449.0 0.002227 319.87457 462.80557
500.0 0.002000 319.92307 505.13879
549.0 0.001821 319.97141 538.60071
561.0 0.001783 320.01981 534.44043
541.0 0.001848 320.06821 509.15585
535.0 0.001869 320.11655 511.06186
606.0 0.001650 320.16495 563.63281
726.0 0.001377 320.21329 680.56299
883.0 0.001133 320.26160 868.47284
1155.0 0.000866 320.30997 1147.48438
1617.0 0.000618 320.35825 1496.43066
2044.0 0.000489 320.40656 1830.34863
2054.0 0.000487 320.45483 1891.57434
1629.0 0.000614 320.50314 1538.92371
1175.0 0.000851 320.55133 1169.84473
991.0 0.001009 320.59964 1047.58630
1105.0 0.000905 320.64780 1173.04041
1463.0 0.000684 320.69598 1457.18103
1744.0 0.000573 320.74417 1752.05835
1736.0 0.000576 320.79230 1794.03491
1476.0 0.000678 320.84042 1461.76611
1075.0 0.000930 320.88849 1093.15466
953.0 0.001049 320.93661 931.46436
956.0 0.001046 320.98459 978.73926
1058.0 0.000945 321.03259 1141.63037
1242.0 0.000805 321.08054 1290.69739
1138.0 0.000879 321.12857 1235.61804
910.0 0.001099 321.17642 970.39020
724.0 0.001381 321.22433 733.85925
581.0 0.001721 321.27219 625.63196
599.0 0.001669 321.32004 619.03754
629.0 0.001590 321.36780 655.28918
656.0 0.001524 321.41553 672.69092
621.0 0.001610 321.46326 611.07300
497.0 0.002012 321.51093 510.97855
428.0 0.002336 321.55853 439.25912
374.0 0.002674 321.60611 402.41150
367.0 0.002725 321.65366 385.52911
378.0 0.002646 321.70120 377.83276
396.0 0.002525 321.74863 373.05069
331.0 0.003021 321.79608 370.30508
343.0 0.002915 321.84344 369.02377
355.0 0.002817 321.89069 368.96457
349.0 0.002865 321.93799 370.05539
334.0 0.002994 321.98523 372.17621
374.0 0.002674 322.03241 376.26187
364.0 0.002747 322.07947 381.79080
385.0 0.002597 322.12659 389.84665
459.0 0.002179 322.17352 402.01736
461.0 0.002169 322.22055 421.99115
501.0 0.001996 322.26752 457.44092
560.0 0.001786 322.31436 521.10150
653.0 0.001531 322.36118 628.30737
830.0 0.001205 322.40784 795.56549
1105.0 0.000905 322.45453 1042.87427
1411.0 0.000709 322.50113 1326.00098
1575.0 0.000635 322.54770 1522.61816
1593.0 0.000628 322.59418 1495.64612
1538.0 0.000650 322.64066 1405.35388
1558.0 0.000642 322.68701 1485.48364
1710.0 0.000585 322.73331 1699.10132
1844.0 0.000542 322.77963 1812.88525
1726.0 0.000579 322.82578 1645.59827
1412.0 0.000708 322.87180 1374.02771
1166.0 0.000858 322.91788 1118.93005
992.0 0.001008 322.96384 959.94904
922.0 0.001085 323.00974 937.21844
959.0 0.001043 323.05560 977.22070
971.0 0.001030 323.10132 942.92987
809.0 0.001236 323.14700 775.66589
595.0 0.001681 323.19263 606.35406
515.0 0.001942 323.23819 505.50644
500.0 0.002000 323.28360 456.91376
472.0 0.002119 323.32901 437.60065
459.0 0.002179 323.37430 439.26773
457.0 0.002188 323.41956 464.55582
509.0 0.001965 323.46472 521.57861
631.0 0.001585 323.50974 612.41785
717.0 0.001395 323.55472 742.15356
814.0 0.001229 323.59964 874.94250
829.0 0.001206 323.64447 917.06506
794.0 0.001259 323.68921 796.30463
625.0 0.001600 323.73386 634.10040
545.0 0.001835 323.77841 546.52020
525.0 0.001905 323.82294 536.26288
499.0 0.002004 323.86728 577.07312
576.0 0.001736 323.91159 630.52155
577.0 0.001733 323.95578 638.81097
560.0 0.001786 323.99994 566.82562
443.0 0.002257 324.04398 476.50412
395.0 0.002532 324.08792 418.19879
370.0 0.002703 324.13181 390.01297
347.0 0.002882 324.17551 377.65878
364.0 0.002747 324.21915 371.73492
334.0 0.002994 324.26276 368.54980
331.0 0.003021 324.30621 366.89474
362.0 0.002762 324.34958 366.30194
358.0 0.002793 324.39285 366.14178
328.0 0.003049 324.43600 366.26230
358.0 0.002793 324.47913 367.97021
366.0 0.002732 324.52209 370.37231
357.0 0.002801 324.56500 373.52966
367.0 0.002725 324.60767 376.15570
380.0 0.002632 324.65036 381.27640
389.0 0.002571 324.69296 392.32260
404.0 0.002475 324.73538 400.18405
419.0 0.002387 324.77777 410.67786
476.0 0.002101 324.81998 424.14832
498.0 0.002008 324.86212 441.86743
504.0 0.001984 324.90414 465.44202
569.0 0.001757 324.94611 501.20142
653.0 0.001531 324.98788 561.91125
759.0 0.001318 325.02957 665.00647
974.0 0.001027 325.07120 848.91901
1344.0 0.000744 325.11267 1155.64099
1813.0 0.000552 325.15405 1643.35706
2383.0 0.000420 325.19528 2315.88501
2959.0 0.0003380 325.23642 3011.47681
3298.0 0.0003032 325.27737 3362.63062
3280.0 0.0003049 325.31833 3295.25269
3157.0 0.0003168 325.35913 3242.99390
3027.0 0.0003304 325.39978 3164.29663
2716.0 0.000368 325.44031 2754.91772
2226.0 0.000449 325.48077 2343.71558
2048.0 0.000488 325.52103 2202.63599
2006.0 0.000499 325.56125 2134.46558
1846.0 0.000542 325.60129 1973.29578
1671.0 0.000598 325.64127 1847.93799
1528.0 0.000654 325.68103 1712.00623
1300.0 0.000769 325.72070 1381.47900
936.0 0.001068 325.76038 998.14917
715.0 0.001399 325.79980 743.45435
612.0 0.001634 325.83905 615.03815
514.0 0.001946 325.87830 557.83734
515.0 0.001942 325.91742 532.59192
502.0 0.001992 325.95627 523.21667
495.0 0.002020 325.99509 524.76355
506.0 0.001976 326.03375 537.12408
574.0 0.001742 326.07227 563.55206
640.0 0.001563 326.11069 613.97461
850.0 0.001176 326.14896 711.75861
944.0 0.001059 326.18710 902.54498
1263.0 0.000792 326.22513 1245.47070
1721.0 0.000581 326.26300 1800.95496
2485.0 0.000402 326.30066 2622.00195
3484.0 0.0002870 326.33841 3527.50610
3929.0 0.0002545 326.37579 4026.75586
3555.0 0.0002813 326.41309 3495.42676
2232.0 0.000448 326.45029 2433.74292
1568.0 0.000638 326.48737 1723.91321
1374.0 0.000728 326.52420 1530.82727
1575.0 0.000635 326.56097 1722.37415
1926.0 0.000519 326.59763 2082.09229
2162.0 0.000463 326.63406 2319.81885
1989.0 0.000503 326.67047 2078.15381
1446.0 0.000692 326.70657 1506.27344
1035.0 0.000966 326.74271 1056.15002
861.0 0.001161 326.77863 841.26495
809.0 0.001236 326.81436 808.30475
881.0 0.001135 326.85004 909.88422
1071.0 0.000934 326.88550 1142.54407
1400.0 0.000714 326.92075 1509.29712
1764.0 0.000567 326.95593 2010.21558
2133.0 0.000469 326.99100 2381.73535
2168.0 0.000461 327.02582 2285.21484
1685.0 0.000593 327.06058 1739.29810
1237.0 0.000808 327.09512 1277.31775
1049.0 0.000953 327.12952 1112.04382
1062.0 0.000942 327.16379 1188.97888
1239.0 0.000807 327.19794 1405.77441
1399.0 0.000715 327.23190 1576.50403
1396.0 0.000716 327.26569 1501.13123
1127.0 0.000887 327.29929 1172.94153
824.0 0.001214 327.33282 855.59729
622.0 0.001608 327.36612 677.96637
606.0 0.001650 327.39932 614.89856
613.0 0.001631 327.43237 611.33478
630.0 0.001587 327.46524 630.32629
653.0 0.001531 327.49792 669.17682
753.0 0.001328 327.53052 760.44604
898.0 0.001114 327.56284 926.11548
1149.0 0.000870 327.59506 1168.93945
1342.0 0.000745 327.62714 1359.68140
1347.0 0.000742 327.65900 1322.10120
1090.0 0.000917 327.69080 1045.78076
793.0 0.001261 327.72229 792.68243
667.0 0.001499 327.75375 680.51801
703.0 0.001422 327.78497 687.31482
751.0 0.001332 327.81604 766.92053
811.0 0.001233 327.84692 859.55743
876.0 0.001142 327.87762 860.22601
771.0 0.001297 327.90826 727.17719
582.0 0.001718 327.93875 571.00580
462.0 0.002165 327.96887 470.37607
373.0 0.002681 327.99896 421.00885
383.0 0.002611 328.02893 396.72430
389.0 0.002571 328.05865 386.92920
375.0 0.002667 328.08823 384.45181
386.0 0.002591 328.11755 382.37225
371.0 0.002695 328.14679 379.31631
394.0 0.002538 328.17578 375.18686
353.0 0.002833 328.20465 374.24634
373.0 0.002681 328.23343 379.38376
373.0 0.002681 328.26193 390.97031
419.0 0.002387 328.29022 410.04565
465.0 0.002151 328.31842 426.08292
454.0 0.002203 328.34644 430.41132
410.0 0.002439 328.37424 412.61847
377.0 0.002653 328.40186 389.84421
384.0 0.002604 328.42932 378.50302
373.0 0.002681 328.45663 376.89450
326.0 0.003067 328.48373 382.60480
397.0 0.002519 328.51065 391.10184
407.0 0.002457 328.53741 397.73761
400.0 0.002500 328.56396 396.64606
357.0 0.002801 328.59036 391.84467
383.0 0.002611 328.61655 396.03879
419.0 0.002387 328.64252 414.31760
417.0 0.002398 328.66837 451.15939
470.0 0.002128 328.69403 508.21588
551.0 0.001815 328.71954 586.50153
635.0 0.001575 328.74481 656.48480
662.0 0.001511 328.76990 666.86652
584.0 0.001712 328.79480 606.89935
559.0 0.001789 328.81961 552.49902
543.0 0.001842 328.84412 558.15912
569.0 0.001757 328.86850 625.85889
691.0 0.001447 328.89264 747.26819
825.0 0.001212 328.91660 889.50977
937.0 0.001067 328.94040 952.27747
883.0 0.001133 328.96405 863.47095
703.0 0.001422 328.98749 709.26709
606.0 0.001650 329.01068 620.79669
626.0 0.001597 329.03375 626.50287
730.0 0.001370 329.05649 722.66467
898.0 0.001114 329.07919 908.97595
1119.0 0.000894 329.10168 1157.93787
1343.0 0.000745 329.12387 1434.13074
1553.0 0.000644 329.14603 1620.45313
1547.0 0.000646 329.16794 1560.38171
1230.0 0.000813 329.18961 1233.45337
900.0 0.001111 329.21109 917.73578
746.0 0.001340 329.23236 766.41766
727.0 0.001376 329.25354 763.65363
833.0 0.001200 329.27441 862.29449
965.0 0.001036 329.29514 1007.83752
1043.0 0.000959 329.31570 1097.89050
1077.0 0.000929 329.33597 1071.69299
1046.0 0.000956 329.35608 1029.86035
1057.0 0.000946 329.37604 1097.85522
1174.0 0.000852 329.39578 1252.94629
1313.0 0.000762 329.41531 1329.92725
1277.0 0.000783 329.43463 1212.89404
1120.0 0.000893 329.45380 1038.75842
994.0 0.001006 329.47269 990.80011
1099.0 0.000910 329.49149 1085.55737
1235.0 0.000810 329.51001 1209.69202
1219.0 0.000820 329.52826 1240.43738
1181.0 0.000847 329.54642 1146.33655
909.0 0.001100 329.56436 986.87683
796.0 0.001256 329.58212 809.66272
660.0 0.001515 329.59964 702.87421
663.0 0.001508 329.61694 682.56909
682.0 0.001466 329.63400 702.48492
693.0 0.001443 329.65094 691.30786
645.0 0.001550 329.66776 618.16852
549.0 0.001821 329.68420 540.83087
527.0 0.001898 329.70050 506.03723
513.0 0.001949 329.71661 520.42181
538.0 0.001859 329.73248 578.05566
632.0 0.001582 329.74814 672.44727
768.0 0.001302 329.76367 778.44421
859.0 0.001164 329.77890 821.06610
708.0 0.001412 329.79395 745.05933
585.0 0.001709 329.80884 620.07379
541.0 0.001848 329.82346 541.74561
536.0 0.001866 329.83786 528.18036
596.0 0.001678 329.85208 569.50592
700.0 0.001429 329.86612 654.61694
776.0 0.001289 329.87991 760.72687
922.0 0.001085 329.89349 847.60406
969.0 0.001032 329.90692 908.23535
996.0 0.001004 329.92007 924.42505
939.0 0.001065 329.93304 842.70685
811.0 0.001233 329.94583 690.27759
634.0 0.001577 329.95837 576.37933
559.0 0.001789 329.97076 532.49323
574.0 0.001742 329.98279 545.25018
634.0 0.001577 329.99472 595.54785
702.0 0.001425 330.00647 661.14825
794.0 0.001259 330.01791 702.95245
802.0 0.001247 330.02911 714.01337
787.0 0.001271 330.04025 760.72992
860.0 0.001163 330.05106 892.77332
1061.0 0.000943 330.06165 1108.51208
1270.0 0.000787 330.07211 1304.27747
1245.0 0.000803 330.08228 1303.39270
1006.0 0.000994 330.09225 1069.16101
745.0 0.001342 330.10202 809.14905
616.0 0.001623 330.11157 668.36816
602.0 0.001661 330.12094 647.69965
647.0 0.001546 330.13004 709.86633
759.0 0.001318 330.13889 810.25262
814.0 0.001229 330.14758 865.16998
781.0 0.001280 330.15607 799.63141
651.0 0.001536 330.16434 653.84235
509.0 0.001965 330.17230 533.94452
429.0 0.002331 330.18018 471.14111
422.0 0.002370 330.18771 452.66779
463.0 0.002160 330.19513 461.30170
466.0 0.002146 330.20224 486.75525
472.0 0.002119 330.20920 516.34955
491.0 0.002037 330.21588 528.21051
476.0 0.002101 330.22232 516.86957
493.0 0.002028 330.22870 516.57458
522.0 0.001916 330.23471 563.81580
647.0 0.001546 330.24051 671.70380
851.0 0.001175 330.24619 837.22052
1091.0 0.000917 330.25156 1029.02002
1253.0 0.000798 330.25668 1117.96008
1013.0 0.000987 330.26166 1002.67273
773.0 0.001294 330.26639 782.08105
576.0 0.001736 330.27084 624.31464
555.0 0.001802 330.27518 566.32361
556.0 0.001799 330.27921 583.82263
625.0 0.001600 330.28305 648.28253
718.0 0.001393 330.28665 715.36328
682.0 0.001466 330.29004 714.78900
662.0 0.001511 330.29324 625.95477
521.0 0.001919 330.29617 523.47937
434.0 0.002304 330.29892 457.96445
421.0 0.002375 330.30136 428.15643
412.0 0.002427 330.30362 422.01392
448.0 0.002232 330.30569 433.05029
464.0 0.002155 330.30746 465.53415
521.0 0.001919 330.30911 531.46149
608.0 0.001645 330.31052 640.54358
717.0 0.001395 330.31158 790.64276
877.0 0.001140 330.31256 950.02960
940.0 0.001064 330.31323 998.85333
906.0 0.001104 330.31369 874.44855
686.0 0.001458 330.31393 692.61694
558.0 0.001792 330.31393 577.36169
511.0 0.001957 330.31372 544.72980
558.0 0.001792 330.31332 573.25653
618.0 0.001618 330.31265 640.03168
633.0 0.001580 330.31174 700.24121
650.0 0.001538 330.31064 694.10284
611.0 0.001637 330.30927 611.14587
495.0 0.002020 330.30771 523.17749
442.0 0.002262 330.30588 472.66898
422.0 0.002370 330.30386 453.07898
426.0 0.002347 330.30164 455.09076
477.0 0.002096 330.29907 474.34512
542.0 0.001845 330.29642 518.62988
619.0 0.001616 330.29349 608.02466
797.0 0.001255 330.29028 773.31482
1013.0 0.000987 330.28693 1034.05725
1354.0 0.000739 330.28329 1383.39172
1738.0 0.000575 330.27942 1708.50903
1761.0 0.000568 330.27530 1758.54919
1468.0 0.000681 330.27100 1440.88745
1084.0 0.000923 330.26648 1056.58936
833.0 0.001200 330.26172 829.94824
781.0 0.001280 330.25668 780.24963
853.0 0.001172 330.25150 857.12878
996.0 0.001004 330.24603 1006.55402
1146.0 0.000873 330.24030 1130.40515
1084.0 0.000923 330.23441 1098.14014
895.0 0.001117 330.22830 908.61633
713.0 0.001403 330.22189 722.96393
659.0 0.001517 330.21524 619.09106
625.0 0.001600 330.20847 584.37476
594.0 0.001684 330.20132 601.59924
704.0 0.001420 330.19400 671.67786
892.0 0.001121 330.18655 823.38263
1110.0 0.000901 330.17877 1105.02246
1488.0 0.000672 330.17075 1542.99365
2151.0 0.000465 330.16254 2116.31958
2808.0 0.000356 330.15408 2613.72461
2865.0 0.0003490 330.14539 2650.88403
2278.0 0.000439 330.13647 2182.42212
1783.0 0.000561 330.12732 1714.90259
1569.0 0.000637 330.11795 1537.26331
1539.0 0.000650 330.10831 1587.49304
1690.0 0.000592 330.09845 1697.48462
1791.0 0.000558 330.08841 1813.15479
1879.0 0.000532 330.07806 1915.71631
1934.0 0.000517 330.06757 1879.93542
1796.0 0.000557 330.05679 1741.66785
1704.0 0.000587 330.04584 1726.41394
1802.0 0.000555 330.03461 1847.68079
1841.0 0.000543 330.02310 1857.65686
1570.0 0.000637 330.01144 1571.08435
1169.0 0.000855 329.99954 1173.79504
878.0 0.001139 329.98737 903.65692
788.0 0.001269 329.97495 801.16742
795.0 0.001258 329.96228 826.46216
946.0 0.001057 329.94949 933.07172
1089.0 0.000918 329.93637 1064.76477
1189.0 0.000841 329.92303 1138.65076
1240.0 0.000806 329.90948 1134.36523
1234.0 0.000810 329.89569 1168.49451
1325.0 0.000755 329.88168 1294.70264
1424.0 0.000702 329.86752 1402.98596
1396.0 0.000716 329.85303 1330.40015
1201.0 0.000833 329.83826 1110.14185
1054.0 0.000949 329.82327 955.33630
1083.0 0.000923 329.80820 974.84399
1304.0 0.000767 329.79276 1195.42493
1721.0 0.000581 329.77716 1605.23340
2178.0 0.000459 329.76123 2138.11182
2485.0 0.000402 329.74515 2538.04053
2444.0 0.000409 329.72885 2436.56299
1921.0 0.000521 329.71219 1870.96802
1315.0 0.000760 329.69550 1325.60486
995.0 0.001005 329.67841 1023.15784
902.0 0.001109 329.66116 940.67255
981.0 0.001019 329.64368 1013.95801
1116.0 0.000896 329.62595 1175.38708
1236.0 0.000809 329.60797 1299.42529
1214.0 0.000824 329.58978 1227.31738
944.0 0.001059 329.57141 981.83081
694.0 0.001441 329.55280 746.49182
573.0 0.001745 329.53381 596.51587
485.0 0.002062 329.51474 512.57587
442.0 0.002262 329.49542 466.80478
412.0 0.002427 329.47580 442.02219
381.0 0.002625 329.45596 427.68460
405.0 0.002469 329.43591 417.84192
404.0 0.002475 329.41568 414.17426
409.0 0.002445 329.39517 413.07443
401.0 0.002494 329.37439 415.85446
403.0 0.002481 329.35345 419.62967
425.0 0.002353 329.33224 429.60184
416.0 0.002404 329.31082 448.72827
522.0 0.001916 329.28915 485.37860
540.0 0.001852 329.26724 556.59723
688.0 0.001453 329.24512 687.71429
896.0 0.001116 329.22275 893.96875
1194.0 0.000838 329.20023 1162.10754
1506.0 0.000664 329.17740 1397.29358
1546.0 0.000647 329.15436 1415.24988
1307.0 0.000765 329.13107 1171.25476
985.0 0.001015 329.10754 891.58307
777.0 0.001287 329.08380 731.75830
717.0 0.001395 329.05984 702.33746
814.0 0.001229 329.03564 773.96021
931.0 0.001074 329.01117 902.56195
1071.0 0.000934 328.98657 1018.19281
1075.0 0.000930 328.96167 1020.86536
981.0 0.001019 328.93658 901.85626
873.0 0.001145 328.91122 791.62329
822.0 0.001217 328.88562 788.58716
946.0 0.001057 328.85983 924.38470
1255.0 0.000797 328.83383 1208.06580
1616.0 0.000619 328.80753 1596.14771
1969.0 0.000508 328.78098 1940.82483
2054.0 0.000487 328.75430 1966.16077
1638.0 0.000611 328.72736 1611.93054
1232.0 0.000812 328.70016 1213.31396
1023.0 0.000978 328.67273 996.53363
1002.0 0.000998 328.64511 969.61163
1060.0 0.000943 328.61725 1058.29016
1176.0 0.000850 328.58917 1191.97888
1334.0 0.000750 328.56082 1311.66992
1367.0 0.000732 328.53232 1302.40320
1196.0 0.000836 328.50351 1133.67957
1004.0 0.000996 328.47449 971.51654
984.0 0.001016 328.44531 936.91754
1087.0 0.000920 328.41574 1031.75830
1176.0 0.000850 328.38608 1180.05872
1311.0 0.000763 328.35614 1276.48987
1348.0 0.000742 328.32605 1273.58704
1196.0 0.000836 328.29565 1163.47107
971.0 0.001030 328.26505 961.21118
749.0 0.001335 328.23422 781.63495
650.0 0.001538 328.20316 697.85883
688.0 0.001453 328.17188 704.29834
740.0 0.001351 328.14041 762.48865
799.0 0.001252 328.10873 818.70245
837.0 0.001195 328.07669 841.89270
845.0 0.001183 328.04446 826.99908
811.0 0.001233 328.01215 781.83002
782.0 0.001279 327.97955 765.00610
782.0 0.001279 327.94653 804.22491
830.0 0.001205 327.91354 851.81134
770.0 0.001299 327.88025 819.83478
668.0 0.001497 327.84671 698.53302
580.0 0.001724 327.81296 578.84515
489.0 0.002045 327.77893 510.35736
495.0 0.002020 327.74478 493.08240
508.0 0.001969 327.71036 515.66974
542.0 0.001845 327.67569 561.19348
591.0 0.001692 327.64081 604.94342
596.0 0.001678 327.60568 607.40845
566.0 0.001767 327.57043 560.03174
516.0 0.001938 327.53485 508.89481
500.0 0.002000 327.49911 487.99014
517.0 0.001934 327.46313 506.28488
640.0 0.001563 327.42688 580.19397
752.0 0.001330 327.39044 721.86090
930.0 0.001075 327.35382 929.00317
1107.0 0.000903 327.31693 1159.22900
1240.0 0.000806 327.27988 1277.71838
1236.0 0.000809 327.24255 1157.82776
929.0 0.001076 327.20502 903.77448
714.0 0.001401 327.16727 697.08972
603.0 0.001658 327.12930 600.77582
573.0 0.001745 327.09109 600.65302
585.0 0.001709 327.05261 667.49792
683.0 0.001464 327.01395 766.48090
790.0 0.001266 326.97513 831.87775
755.0 0.001325 326.93616 787.03705
637.0 0.001570 326.89679 657.21362
493.0 0.002028 326.85727 534.09698
412.0 0.002427 326.81754 457.84329
410.0 0.002439 326.77762 419.30319
403.0 0.002481 326.73737 401.87097
388.0 0.002577 326.69699 394.52722
375.0 0.002667 326.65646 392.90176
362.0 0.002762 326.61557 396.50946
391.0 0.002558 326.57455 408.88947
441.0 0.002268 326.53336 435.21082
470.0 0.002128 326.49188 483.24704
519.0 0.001927 326.45020 551.14526
627.0 0.001595 326.40826 623.85852
683.0 0.001464 326.36618 674.62897
657.0 0.001522 326.32385 655.62274
601.0 0.001664 326.28131 590.05365
539.0 0.001855 326.23846 545.96637
537.0 0.001862 326.19556 548.74280
561.0 0.001783 326.15234 588.26587
612.0 0.001634 326.10895 642.82318
654.0 0.001529 326.06534 668.77960
651.0 0.001536 326.02145 654.08612
598.0 0.001672 325.97742 614.00592
544.0 0.001838 325.93314 561.94354
499.0 0.002004 325.88873 529.14478
510.0 0.001961 325.84399 529.04773
542.0 0.001845 325.79910 557.24933
584.0 0.001712 325.75400 609.19354
675.0 0.001481 325.70871 686.31873
808.0 0.001238 325.66321 816.87714
1030.0 0.000971 325.61743 1074.95361
1394.0 0.000717 325.57150 1516.50342
2001.0 0.000500 325.52533 2061.92163
2644.0 0.000378 325.47891 2562.60718
2822.0 0.000354 325.43234 2690.22607
2228.0 0.000449 325.38553 2186.72729
1506.0 0.000664 325.33859 1538.13037
1100.0 0.000909 325.29135 1112.55969
901.0 0.001110 325.24396 960.42224
927.0 0.001079 325.19629 1030.20581
1123.0 0.000890 325.14847 1232.14355
1486.0 0.000673 325.10046 1462.35071
1577.0 0.000634 325.05219 1588.00073
1462.0 0.000684 325.00375 1407.04102
1095.0 0.000913 324.95505 1055.30591
763.0 0.001311 324.90625 767.95282
591.0 0.001692 324.85715 597.22485
476.0 0.002101 324.80789 511.89777
440.0 0.002273 324.75839 471.29810
402.0 0.002488 324.70871 451.23709
426.0 0.002347 324.65884 442.74435
453.0 0.002208 324.60867 444.94962
448.0 0.002232 324.55841 460.99734
468.0 0.002137 324.50787 494.59225
525.0 0.001905 324.45718 542.27789
564.0 0.001773 324.40628 592.02924
598.0 0.001672 324.35522 624.51807
578.0 0.001730 324.30386 614.65521
585.0 0.001709 324.25232 599.12347
613.0 0.001631 324.20065 611.02057
640.0 0.001563 324.14877 643.85840
668.0 0.001497 324.09662 668.38953
668.0 0.001497 324.04425 653.54797
603.0 0.001658 323.99176 629.38269
580.0 0.001724 323.93903 622.90997
594.0 0.001684 323.88614 625.95831
636.0 0.001572 323.83304 644.74872
738.0 0.001355 323.77969 713.53986
868.0 0.001152 323.72620 868.26538
1059.0 0.000944 323.67252 1155.57532
1512.0 0.000661 323.61859 1604.20654
2265.0 0.000442 323.56448 2161.50464
2951.0 0.0003389 323.51019 2681.58789
3040.0 0.0003289 323.45566 2859.31592
2359.0 0.000424 323.40106 2378.83179
1566.0 0.000639 323.34613 1679.85278
1051.0 0.000951 323.29099 1192.01709
882.0 0.001134 323.23575 988.55267
948.0 0.001055 323.18030 1023.15387
1140.0 0.000877 323.12463 1219.42712
1496.0 0.000668 323.06876 1467.32458
1726.0 0.000579 323.01266 1641.19873
1577.0 0.000634 322.95648 1526.54883
1119.0 0.000894 322.90002 1170.34241
789.0 0.001267 322.84341 838.73987
606.0 0.001650 322.78656 628.33533
468.0 0.002137 322.72955 517.22662
422.0 0.002370 322.67236 461.99429
393.0 0.002545 322.61496 431.98526
413.0 0.002421 322.55740 413.23950
393.0 0.002545 322.49960 403.23282
389.0 0.002571 322.44162 394.56406
426.0 0.002347 322.38348 388.94962
377.0 0.002653 322.32516 386.16168
371.0 0.002695 322.26663 386.83356
338.0 0.002959 322.20789 393.17664
422.0 0.002370 322.14902 409.85056
460.0 0.002174 322.08990 443.69171
458.0 0.002183 322.03064 498.45413
572.0 0.001748 321.97122 566.00598
714.0 0.001401 321.91153 623.92255
715.0 0.001399 321.85175 627.58093
590.0 0.001695 321.79166 561.20581
506.0 0.001976 321.73151 485.49408
435.0 0.002299 321.67111 437.01636
423.0 0.002364 321.61057 421.45178
421.0 0.002375 321.54974 429.41959
420.0 0.002381 321.48880 454.38058
486.0 0.002058 321.42773 483.17941
526.0 0.001901 321.36639 501.49231
480.0 0.002083 321.30493 484.78827
470.0 0.002128 321.24323 445.01614
418.0 0.002392 321.18140 411.49454
403.0 0.002481 321.11945 392.88727
367.0 0.002725 321.05719 385.03305
398.0 0.002513 320.99478 380.77487
392.0 0.002551 320.93225 386.71811
390.0 0.002564 320.86945 399.55759
415.0 0.002410 320.80655 420.81946
435.0 0.002299 320.74350 446.59512
458.0 0.002183 320.68024 470.60416
477.0 0.002096 320.61673 480.34854
462.0 0.002165 320.55313 470.06274
446.0 0.002242 320.48932 456.98453
485.0 0.002062 320.42532 459.15265
517.0 0.001934 320.36127 479.65472
553.0 0.001808 320.29691 525.46057
687.0 0.001456 320.23239 613.33752
860.0 0.001163 320.16776 772.44910
1083.0 0.000923 320.10297 1038.57190
1400.0 0.000714 320.03790 1406.00830
1741.0 0.000574 319.97266 1786.20740
1977.0 0.000506 319.90735 2033.03113
1918.0 0.000521 319.84183 1894.55151
1580.0 0.000633 319.77612 1474.62524
1164.0 0.000859 319.71027 1116.47705
1015.0 0.000985 319.64417 950.28693
1071.0 0.000934 319.57797 987.74500
1311.0 0.000763 319.51157 1221.66516
1724.0 0.000580 319.44507 1625.29187
2128.0 0.000470 319.37833 2100.04150
2458.0 0.000407 319.31149 2456.96826
2576.0 0.000388 319.24438 2455.54419
2288.0 0.000437 319.17719 2114.50757
1853.0 0.000540 319.10980 1794.69031
1691.0 0.000591 319.04221 1684.26050
1691.0 0.000591 318.97452 1721.46863
1701.0 0.000588 318.90665 1725.80859
1634.0 0.000612 318.83856 1613.00598
1524.0 0.000656 318.77036 1535.70593
1555.0 0.000643 318.70206 1545.14319
1609.0 0.000622 318.63354 1533.10510
1412.0 0.000708 318.56479 1427.00427
1299.0 0.000770 318.49600 1282.18286
1163.0 0.000860 318.42694 1166.23560
1068.0 0.000936 318.35776 1090.13892
917.0 0.001091 318.28845 971.35980
786.0 0.001272 318.21890 813.67072
671.0 0.001490 318.14926 698.30829
636.0 0.001572 318.07944 643.99969
614.0 0.001629 318.00946 626.36566
605.0 0.001653 317.93945 603.79529
552.0 0.001812 317.86908 550.77911
513.0 0.001949 317.79861 494.20151
418.0 0.002392 317.72800 455.59464
391.0 0.002558 317.65732 436.04602
430.0 0.002326 317.58636 433.14981
460.0 0.002174 317.51526 447.28821
486.0 0.002058 317.44412 485.18973
516.0 0.001938 317.37268 556.51263
603.0 0.001658 317.30118 658.52625
727.0 0.001376 317.22946 762.49304
795.0 0.001258 317.15765 819.80035
766.0 0.001305 317.08566 764.78571
664.0 0.001506 317.01352 639.92657
536.0 0.001866 316.94122 539.09503
468.0 0.002137 316.86877 487.28403
488.0 0.002049 316.79617 482.36572
495.0 0.002020 316.72348 517.16919
542.0 0.001845 316.65063 582.45001
649.0 0.001541 316.57761 662.62653
729.0 0.001372 316.50427 728.82721
756.0 0.001323 316.43103 744.82751
735.0 0.001361 316.35757 718.47906
702.0 0.001425 316.28394 663.49109
597.0 0.001675 316.21021 586.14301
534.0 0.001873 316.13623 513.26050
485.0 0.002062 316.06223 467.39804
440.0 0.002273 315.98801 449.80258
449.0 0.002227 315.91367 459.11371
464.0 0.002155 315.83914 486.87579
553.0 0.001808 315.76453 524.79681
619.0 0.001616 315.68973 562.59918
653.0 0.001531 315.61487 598.44293
726.0 0.001377 315.53989 655.88678
821.0 0.001218 315.46463 776.18152
1049.0 0.000953 315.38928 974.43036
1367.0 0.000732 315.31381 1198.16492
1618.0 0.000618 315.23822 1347.28040
1464.0 0.000683 315.16248 1275.84204
1135.0 0.000881 315.08658 1030.05383
861.0 0.001161 315.01050 808.49365
773.0 0.001294 314.93433 689.70172
751.0 0.001332 314.85809 684.53424
785.0 0.001274 314.78168 787.79254
1063.0 0.000941 314.70505 998.90479
1336.0 0.000749 314.62839 1296.05127
1645.0 0.000608 314.55148 1599.36047
1812.0 0.000552 314.47458 1761.96594
1607.0 0.000622 314.39746 1699.57703
1448.0 0.000691 314.32019 1418.47339
1120.0 0.000893 314.24283 1122.12964
943.0 0.001060 314.16528 944.06213
929.0 0.001076 314.08771 876.01215
975.0 0.001026 314.00995 856.43317
905.0 0.001105 313.93204 858.41852
884.0 0.001131 313.85403 895.66406
902.0 0.001109 313.77585 942.41260
862.0 0.001160 313.69751 928.32440
820.0 0.001220 313.61923 817.46741
676.0 0.001479 313.54065 697.95667
670.0 0.001493 313.46201 625.89343
582.0 0.001718 313.38321 594.64447
567.0 0.001764 313.30432 567.54553
525.0 0.001905 313.22522 527.54034
483.0 0.002070 313.14609 482.59030
412.0 0.002427 313.06683 439.16272
361.0 0.002770 312.98743 407.64709
388.0 0.002577 312.90793 389.03857
360.0 0.002778 312.82828 380.17014
386.0 0.002591 312.74850 378.17203
379.0 0.002639 312.66855 381.24814
369.0 0.002710 312.58850 386.20193
349.0 0.002865 312.50839 389.91595
389.0 0.002571 312.42816 387.76578
375.0 0.002667 312.34775 381.83929
358.0 0.002793 312.26724 376.77454
364.0 0.002747 312.18668 375.77939
393.0 0.002545 312.10593 378.84698
417.0 0.002398 312.02518 387.42966
429.0 0.002331 311.94418 401.55957
471.0 0.002123 311.86310 427.45062
529.0 0.001890 311.78189 475.00287
603.0 0.001658 311.70062 556.08276
708.0 0.001412 311.61920 672.37769
823.0 0.001215 311.53766 798.19287
936.0 0.001068 311.45599 887.31763
952.0 0.001050 311.37421 881.51605
864.0 0.001157 311.29239 828.61938
900.0 0.001111 311.21039 841.72986
1001.0 0.000999 311.12830 969.12793
1135.0 0.000881 311.04614 1177.27380
1294.0 0.000773 310.96375 1373.05139
1380.0 0.000725 310.88138 1418.90161
1240.0 0.000806 310.79889 1267.95068
1099.0 0.000910 310.71628 1072.44775
936.0 0.001068 310.63351 910.58545
857.0 0.001167 310.55069 816.76929
855.0 0.001170 310.46771 821.13037
908.0 0.001101 310.38464 909.66241
972.0 0.001029 310.30142 1027.89185
1034.0 0.000967 310.21817 1095.72070
1111.0 0.000900 310.13483 1061.40308
996.0 0.001004 310.05142 944.89575
891.0 0.001122 309.96786 839.26978
813.0 0.001230 309.88412 777.64771
749.0 0.001335 309.80035 729.04602
685.0 0.001460 309.71646 673.83594
620.0 0.001613 309.63248 635.41516
576.0 0.001736 309.54846 619.05353
639.0 0.001565 309.46423 614.16858
693.0 0.001443 309.37994 631.17316
726.0 0.001377 309.29553 698.17395
782.0 0.001279 309.21112 827.43158
925.0 0.001081 309.12659 997.25043
1091.0 0.000917 309.04184 1155.49304
1195.0 0.000837 308.95712 1239.29834
1169.0 0.000855 308.87225 1253.24219
1252.0 0.000799 308.78735 1259.13892
1261.0 0.000793 308.70239 1232.82080
1118.0 0.000894 308.61719 1094.93457
887.0 0.001127 308.53192 914.40344
780.0 0.001282 308.44659 800.83759
708.0 0.001412 308.36118 774.36566
768.0 0.001302 308.27570 804.52521
791.0 0.001264 308.19009 844.13171
803.0 0.001245 308.10440 870.91833
926.0 0.001080 308.01865 912.98785
982.0 0.001018 307.93277 974.54205
1037.0 0.000964 307.84680 1033.51550
1059.0 0.000944 307.76074 1114.53638
1174.0 0.000852 307.67468 1224.29150
1280.0 0.000781 307.58844 1287.51392
1165.0 0.000858 307.50217 1186.37915
945.0 0.001058 307.41577 966.70618
790.0 0.001266 307.32935 771.87158
676.0 0.001479 307.24274 663.59222
628.0 0.001592 307.15610 644.99432
659.0 0.001517 307.06937 694.44952
750.0 0.001333 306.98264 779.55005
832.0 0.001202 306.89572 850.22302
840.0 0.001190 306.80875 871.48572
783.0 0.001277 306.72171 809.13934
652.0 0.001534 306.63455 682.66541
523.0 0.001912 306.54739 565.67596
485.0 0.002062 306.46014 490.89777
467.0 0.002141 306.37271 455.19016
462.0 0.002165 306.28534 445.32199
419.0 0.002387 306.19778 441.92004
435.0 0.002299 306.11020 428.75702
401.0 0.002494 306.02255 406.07907
371.0 0.002695 305.93475 386.33792
362.0 0.002762 305.84695 376.12125
366.0 0.002732 305.75909 377.30014
369.0 0.002710 305.67111 390.56747
405.0 0.002469 305.58307 415.40128
469.0 0.002132 305.49500 446.20209
493.0 0.002028 305.40680 470.95679
497.0 0.002012 305.31851 472.64392
471.0 0.002123 305.23026 453.05545
441.0 0.002268 305.14185 426.94351
407.0 0.002457 305.05338 399.97342
373.0 0.002681 304.96478 381.15320
378.0 0.002646 304.87625 374.28848
379.0 0.002639 304.78757 379.12924
376.0 0.002660 304.69882 391.38199
433.0 0.002309 304.61008 404.14688
413.0 0.002421 304.52121 409.01550
394.0 0.002538 304.43219 402.07623
347.0 0.002882 304.34320 390.79630
382.0 0.002618 304.25421 379.52414
413.0 0.002421 304.16510 371.70004
376.0 0.002660 304.07587 370.02826
363.0 0.002755 303.98663 375.04837
402.0 0.002488 303.89728 390.65900
430.0 0.002326 303.80792 423.10056
523.0 0.001912 303.71851 485.61414
590.0 0.001695 303.62897 592.80743
759.0 0.001318 303.53943 745.01459
876.0 0.001142 303.44980 904.59241
993.0 0.001007 303.36020 998.83759
922.0 0.001085 303.27045 947.02515
772.0 0.001295 303.18063 797.85315
687.0 0.001456 303.09076 664.11688
576.0 0.001736 303.00095 580.19342
545.0 0.001835 302.91101 545.98590
568.0 0.001761 302.82089 563.33490
608.0 0.001645 302.73083 631.75543
687.0 0.001456 302.64072 731.20721
760.0 0.001316 302.55057 818.41193
786.0 0.001272 302.46030 831.08636
734.0 0.001362 302.37009 748.84387
643.0 0.001555 302.27979 635.53485
534.0 0.001873 302.18936 547.61676
478.0 0.002092 302.09897 498.94022
496.0 0.002016 302.00845 491.58514
520.0 0.001923 301.91794 529.16382
567.0 0.001764 301.82733 609.82837
675.0 0.001481 301.73672 713.19348
761.0 0.001314 301.64612 794.56189
722.0 0.001385 301.55536 791.50769
632.0 0.001582 301.46463 692.00854
541.0 0.001848 301.37378 574.67950
453.0 0.002208 301.28293 492.09430
439.0 0.002278 301.19205 452.60614
449.0 0.002227 301.10107 450.25497
475.0 0.002105 301.01010 479.23843
507.0 0.001972 300.91901 532.92822
559.0 0.001789 300.82797 599.85114
619.0 0.001616 300.73697 656.57257
653.0 0.001531 300.64578 680.85730
680.0 0.001471 300.55453 682.44019
656.0 0.001524 300.46323 672.01361
651.0 0.001536 300.37201 659.46320
651.0 0.001536 300.28073 672.31787
741.0 0.001350 300.18939 706.83051
721.0 0.001387 300.09799 733.08276
736.0 0.001359 300.00650 731.18170
730.0 0.001370 299.91513 745.16089
816.0 0.001225 299.82364 811.42950
906.0 0.001104 299.73215 905.73834
945.0 0.001058 299.64056 961.72260
931.0 0.001074 299.54895 911.62109
819.0 0.001221 299.45731 801.82214
734.0 0.001362 299.36572 716.52643
670.0 0.001493 299.27396 673.43475
673.0 0.001486 299.18225 650.54846
654.0 0.001529 299.09048 637.50647
651.0 0.001536 298.99869 641.76025
678.0 0.001475 298.90692 659.76642
710.0 0.001408 298.81503 679.33582
750.0 0.001333 298.72321 676.02808
707.0 0.001414 298.63129 648.12286
765.0 0.001307 298.53931 644.90552
819.0 0.001221 298.44739 706.87543
947.0 0.001056 298.35535 850.76605
1137.0 0.000880 298.26337 1052.89929
1377.0 0.000726 298.17133 1246.11560
1411.0 0.000709 298.07928 1334.21741
1360.0 0.000735 297.98718 1279.78894
1174.0 0.000852 297.89505 1165.66260
1033.0 0.000968 297.80295 1024.89795
938.0 0.001066 297.71078 885.61047
813.0 0.001230 297.61865 807.47589
802.0 0.001247 297.52646 806.87781
871.0 0.001148 297.43420 863.19769
951.0 0.001052 297.34201 946.15747
1023.0 0.000978 297.24973 1034.69287
1066.0 0.000938 297.15741 1103.41040
1158.0 0.000864 297.06516 1166.49524
1199.0 0.000834 296.97290 1222.76123
1174.0 0.000852 296.88049 1218.57910
1067.0 0.000937 296.78821 1127.41968
969.0 0.001032 296.69583 1015.95190
875.0 0.001143 296.60342 943.58368
846.0 0.001182 296.51102 897.40662
821.0 0.001218 296.41864 846.75647
751.0 0.001332 296.32626 817.84064
783.0 0.001277 296.23376 866.08710
925.0 0.001081 296.14136 1015.22565
1188.0 0.000842 296.04892 1245.35449
1485.0 0.000673 295.95645 1482.23047
1658.0 0.000603 295.86392 1635.42322
1594.0 0.000627 295.77148 1648.94666
1474.0 0.000678 295.67899 1571.08276
1422.0 0.000703 295.58649 1479.22217
1374.0 0.000728 295.49393 1347.92261
1177.0 0.000850 295.40137 1150.51453
972.0 0.001029 295.30887 962.30634
829.0 0.001206 295.21637 862.75104
823.0 0.001215 295.12378 859.46851
872.0 0.001147 295.03131 907.11517
871.0 0.001148 294.93869 938.86255
905.0 0.001105 294.84613 913.66595
837.0 0.001195 294.75354 866.51288
778.0 0.001285 294.66104 819.92310
762.0 0.001312 294.56845 748.00256
692.0 0.001445 294.47583 645.00818
568.0 0.001761 294.38327 549.83948
488.0 0.002049 294.29074 487.05392
410.0 0.002439 294.19812 459.39832
456.0 0.002193 294.10550 465.11942
528.0 0.001894 294.01291 504.13217
572.0 0.001748 293.92035 573.99799
667.0 0.001499 293.82785 657.52924
660.0 0.001515 293.73520 715.23962
730.0 0.001370 293.64264 701.45618
624.0 0.001603 293.55002 623.56885
577.0 0.001733 293.45749 545.77997
533.0 0.001876 293.36499 506.55646
534.0 0.001873 293.27237 517.94165
588.0 0.001701 293.17984 586.09192
701.0 0.001427 293.08728 703.49896
885.0 0.001130 292.99478 835.94678
968.0 0.001033 292.90231 919.29407
936.0 0.001068 292.80966 885.26428
759.0 0.001318 292.71719 754.77173
585.0 0.001709 292.62466 612.55499
494.0 0.002024 292.53220 511.29544
461.0 0.002169 292.43973 459.94128
424.0 0.002358 292.34723 450.45273
488.0 0.002049 292.25473 474.01053
525.0 0.001905 292.16220 517.72754
568.0 0.001761 292.06982 560.61395
589.0 0.001698 291.97742 576.64801
595.0 0.001681 291.88501 559.86005
554.0 0.001805 291.79257 546.57062
569.0 0.001757 291.70016 565.45319
602.0 0.001661 291.60779 608.46680
637.0 0.001570 291.51541 640.27484
557.0 0.001795 291.42316 617.29138
495.0 0.002020 291.33078 542.79785
442.0 0.002262 291.23846 466.15857
387.0 0.002584 291.14612 412.85632
385.0 0.002597 291.05386 386.51230
374.0 0.002674 290.96164 381.78976
371.0 0.002695 290.86935 396.67191
407.0 0.002457 290.77710 425.29929
432.0 0.002315 290.68500 455.63461
446.0 0.002242 290.59277 469.36447
441.0 0.002268 290.50058 450.82074
413.0 0.002421 290.40839 411.87369
378.0 0.002646 290.31631 376.18640
360.0 0.002778 290.22421 352.22556
324.0 0.003086 290.13217 338.99594
344.0 0.002907 290.04013 332.33902
347.0 0.002882 289.94809 330.11633
335.0 0.002985 289.85608 330.16922
345.0 0.002899 289.76413 331.45602
342.0 0.002924 289.67221 334.72412
328.0 0.003049 289.58029 339.88345
352.0 0.002841 289.48831 347.72620
348.0 0.002874 289.39648 360.02466
391.0 0.002558 289.30460 380.60376
454.0 0.002203 289.21286 417.95728
538.0 0.001859 289.12103 482.27359
593.0 0.001686 289.02933 588.66760
738.0 0.001355 288.93756 743.85944
913.0 0.001095 288.84592 926.66376
1025.0 0.000976 288.75427 1084.07837
1157.0 0.000864 288.66257 1150.17737
1062.0 0.000942 288.57095 1084.09094
839.0 0.001192 288.47940 921.78412
678.0 0.001475 288.38791 741.08459
564.0 0.001773 288.29642 609.64728
515.0 0.001942 288.20490 547.45691
533.0 0.001876 288.11343 549.08575
545.0 0.001835 288.02209 598.88367
646.0 0.001548 287.93076 672.19568
677.0 0.001477 287.83945 733.17999
726.0 0.001377 287.74811 746.87531
662.0 0.001511 287.65692 696.93488
582.0 0.001718 287.56564 605.50293
496.0 0.002016 287.47443 510.43365
462.0 0.002165 287.38339 439.06482
394.0 0.002538 287.29230 395.36264
375.0 0.002667 287.20114 372.51794
379.0 0.002639 287.11017 362.99707
377.0 0.002653 287.01920 364.02945
382.0 0.002618 286.92825 377.15457
397.0 0.002519 286.83740 404.55136
454.0 0.002203 286.74649 451.97092
504.0 0.001984 286.65573 515.36780
559.0 0.001789 286.56491 574.70117
544.0 0.001838 286.47418 594.86432
529.0 0.001890 286.38354 554.60260
492.0 0.002033 286.29291 486.78049
443.0 0.002257 286.20221 430.21713
409.0 0.002445 286.11182 397.61465
369.0 0.002710 286.02130 388.40738
366.0 0.002732 285.93085 398.08804
406.0 0.002463 285.84039 424.10321
442.0 0.002262 285.75006 458.53601
472.0 0.002119 285.65976 480.31366
496.0 0.002016 285.56949 467.50824
489.0 0.002045 285.47931 434.33435
425.0 0.002353 285.38916 404.82449
380.0 0.002632 285.29904 388.03964
389.0 0.002571 285.20892 383.53223
389.0 0.002571 285.11896 387.77286
399.0 0.002506 285.02899 399.99982
445.0 0.002247 284.93906 423.04752
497.0 0.002012 284.84921 465.76462
576.0 0.001736 284.75943 545.27405
672.0 0.001488 284.66971 684.68237
834.0 0.001199 284.57999 903.97882
1020.0 0.000980 284.49033 1178.46118
1211.0 0.000826 284.40070 1414.68921
1382.0 0.000724 284.31125 1512.57324
1424.0 0.000702 284.22177 1535.68152
1430.0 0.000699 284.13235 1513.16138
1403.0 0.000713 284.04297 1361.30139
1177.0 0.000850 283.95367 1134.52527
1004.0 0.000996 283.86444 959.21606
903.0 0.001107 283.77524 875.08997
851.0 0.001175 283.68616 872.04712
883.0 0.001133 283.59705 928.66461
882.0 0.001134 283.50806 994.56573
937.0 0.001067 283.41913 1014.80316
983.0 0.001017 283.33023 1015.88989
954.0 0.001048 283.24136 1006.96204
915.0 0.001093 283.15259 939.18024
834.0 0.001199 283.06390 824.66205
735.0 0.001361 282.97528 712.98853
619.0 0.001616 282.88669 627.82703
621.0 0.001610 282.79819 572.06665
574.0 0.001742 282.70972 550.21747
564.0 0.001773 282.62128 572.53284
594.0 0.001684 282.53299 656.68597
722.0 0.001385 282.44476 826.06683
937.0 0.001067 282.35657 1088.89612
1213.0 0.000824 282.26840 1394.81396
1416.0 0.000706 282.18039 1595.46973
1407.0 0.000711 282.09235 1522.17371
1287.0 0.000777 282.00446 1237.16235
1006.0 0.000994 281.91660 943.83368
824.0 0.001214 281.82880 741.14935
682.0 0.001466 281.74106 641.98029
634.0 0.001577 281.65338 634.58319
646.0 0.001548 281.56586 706.68903
739.0 0.001353 281.47827 845.51886
914.0 0.001094 281.39087 1010.59625
1015.0 0.000985 281.30344 1111.52515
1031.0 0.000970 281.21619 1064.24890
913.0 0.001095 281.12894 908.81018
808.0 0.001238 281.04181 756.49402
734.0 0.001362 280.95465 667.86792
669.0 0.001495 280.86765 657.38635
684.0 0.001462 280.78079 720.50256
773.0 0.001294 280.69391 838.03314
886.0 0.001129 280.60709 961.02667
946.0 0.001057 280.52036 1015.88818
1001.0 0.000999 280.43375 981.79669
1041.0 0.000961 280.34720 935.19098
1118.0 0.000894 280.26071 978.67169
1221.0 0.000819 280.17426 1193.30212
1516.0 0.000660 280.08792 1638.32935
2010.0 0.000498 280.00165 2304.06421
2495.0 0.000401 279.91553 3000.36206
2983.0 0.0003352 279.82944 3269.49829
3015.0 0.0003317 279.74338 2880.53442
2573.0 0.000389 279.65744 2202.75464
1903.0 0.000525 279.57156 1589.33521
1359.0 0.000736 279.48578 1170.91321
1031.0 0.000970 279.40012 960.84027
982.0 0.001018 279.31442 933.40265
1009.0 0.000991 279.22891 1064.41821
1131.0 0.000884 279.14340 1327.06970
1349.0 0.000741 279.05814 1633.18005
1604.0 0.000623 278.97275 1768.27759
1689.0 0.000592 278.88757 1575.92261
1409.0 0.000710 278.80234 1220.05469
1106.0 0.000904 278.71732 898.54559
817.0 0.001224 278.63242 676.74634
624.0 0.001603 278.54755 545.20496
507.0 0.001972 278.46274 473.18008
449.0 0.002227 278.37805 432.37762
406.0 0.002463 278.29337 407.02960
384.0 0.002604 278.20883 389.87289
378.0 0.002646 278.12445 377.68094
334.0 0.002994 278.04007 368.97202
359.0 0.002786 277.95575 362.95743
379.0 0.002639 277.87155 359.22830
369.0 0.002710 277.78748 357.79193
363.0 0.002755 277.70346 359.48364
350.0 0.002857 277.61954 366.02026
385.0 0.002597 277.53568 379.93015
393.0 0.002545 277.45190 407.45694
439.0 0.002278 277.36832 447.74631
541.0 0.001848 277.28473 491.94958
607.0 0.001647 277.20126 515.58142
626.0 0.001597 277.11786 503.31354
613.0 0.001631 277.03448 480.30402
573.0 0.001745 276.95135 477.51328
582.0 0.001718 276.86826 512.79077
600.0 0.001667 276.78522 592.53345
643.0 0.001555 276.70230 705.87439
738.0 0.001355 276.61942 808.42657
846.0 0.001182 276.53668 832.91809
852.0 0.001174 276.45410 786.86066
802.0 0.001247 276.37155 724.09814
746.0 0.001340 276.28903 657.55176
647.0 0.001546 276.20667 594.16052
621.0 0.001610 276.12445 559.56323
606.0 0.001650 276.04230 574.02496
653.0 0.001531 275.96024 647.15796
787.0 0.001271 275.87823 774.28906
888.0 0.001126 275.79633 917.40430
999.0 0.001001 275.71460 994.55133
1050.0 0.000952 275.63284 974.86127
1020.0 0.000980 275.55130 951.45410
1033.0 0.000968 275.46976 1011.99609
1066.0 0.000938 275.38840 1166.98865
1173.0 0.000853 275.30716 1359.15063
1322.0 0.000756 275.22589 1424.24304
1307.0 0.000765 275.14484 1274.75854
1102.0 0.000907 275.06384 1047.96887
919.0 0.001088 274.98294 866.77399
733.0 0.001364 274.90216 751.27142
658.0 0.001520 274.82150 671.95288
649.0 0.001541 274.74088 625.49487
626.0 0.001597 274.66046 630.17712
652.0 0.001534 274.58005 690.08038
743.0 0.001346 274.49979 786.34784
760.0 0.001316 274.41956 848.14801
751.0 0.001332 274.33948 800.05859
718.0 0.001393 274.25952 676.53674
620.0 0.001613 274.17963 553.75348
522.0 0.001916 274.09988 463.90155
455.0 0.002198 274.02029 406.31607
405.0 0.002469 273.94070 371.66388
361.0 0.002770 273.86127 351.03519
349.0 0.002865 273.78189 338.75797
377.0 0.002653 273.70273 332.41223
355.0 0.002817 273.62360 330.09915
320.0 0.003125 273.54459 332.31860
343.0 0.002915 273.46567 338.83008
385.0 0.002597 273.38687 347.44983
381.0 0.002625 273.30820 352.17056
370.0 0.002703 273.22952 347.57962
373.0 0.002681 273.15106 337.69580
358.0 0.002793 273.07266 329.81381
347.0 0.002882 272.99442 327.31470
375.0 0.002667 272.91623 330.85031
351.0 0.002849 272.83826 338.81085
367.0 0.002725 272.76031 344.73621
395.0 0.002532 272.68243 345.32251
394.0 0.002538 272.60474 342.18918
350.0 0.002857 272.52710 338.97903
364.0 0.002747 272.44965 334.72217
362.0 0.002762 272.37231 329.77484
356.0 0.002809 272.29495 326.40527
354.0 0.002825 272.21780 327.25906
364.0 0.002747 272.14078 332.36115
356.0 0.002809 272.06390 341.21680
384.0 0.002604 271.98703 353.27182
417.0 0.002398 271.91028 365.44888
421.0 0.002375 271.83374 378.79193
430.0 0.002326 271.75726 400.68631
469.0 0.002132 271.68088 442.06848
522.0 0.001916 271.60464 511.87692
560.0 0.001786 271.52844 607.74170
629.0 0.001590 271.45245 705.21899
711.0 0.001406 271.37662 749.97546
723.0 0.001383 271.30075 725.87408
721.0 0.001387 271.22510 702.30383
763.0 0.001311 271.14954 743.82483
842.0 0.001188 271.07410 875.02020
977.0 0.001024 270.99878 1079.83484
1137.0 0.000880 270.92355 1269.11926
1257.0 0.000796 270.84848 1292.80457
1196.0 0.000836 270.77350 1148.38477
1001.0 0.000999 270.69864 971.09326
848.0 0.001179 270.62393 828.55511
747.0 0.001339 270.54929 715.12738
633.0 0.001580 270.47485 632.17114
610.0 0.001639 270.40039 598.38293
609.0 0.001642 270.32614 622.23212
630.0 0.001587 270.25198 699.41589
729.0 0.001372 270.17792 806.27991
836.0 0.001196 270.10403 881.72699
878.0 0.001139 270.03021 873.40851
856.0 0.001168 269.95657 829.02698
802.0 0.001247 269.88312 808.82556
780.0 0.001282 269.80966 817.29248
847.0 0.001181 269.73630 837.25391
873.0 0.001145 269.66312 841.22601
824.0 0.001214 269.59015 787.78882
746.0 0.001340 269.51715 687.43762
621.0 0.001610 269.44437 593.23639
564.0 0.001773 269.37170 533.83740
499.0 0.002004 269.29916 515.81799
498.0 0.002008 269.22672 539.75531
654.0 0.001529 269.15445 608.38977
717.0 0.001395 269.08218 726.73120
872.0 0.001147 269.01010 898.24988
1023.0 0.000978 268.93811 1120.50720
1367.0 0.000732 268.86633 1342.65417
1539.0 0.000650 268.79465 1449.86426
1457.0 0.000686 268.72305 1369.64832
1232.0 0.000812 268.65155 1155.93103
1033.0 0.000968 268.58026 921.68530
736.0 0.001359 268.50909 747.27014
675.0 0.001481 268.43802 651.52240
646.0 0.001548 268.36710 620.26660
640.0 0.001563 268.29630 633.12482
650.0 0.001538 268.22559 683.31989
690.0 0.001449 268.15506 769.09308
850.0 0.001176 268.08463 862.66351
980.0 0.001020 268.01425 907.41547
914.0 0.001094 267.94406 878.93567
872.0 0.001147 267.87405 816.50909
806.0 0.001241 267.80408 785.75360
804.0 0.001244 267.73431 835.33118
905.0 0.001105 267.66464 984.62811
1077.0 0.000929 267.59506 1217.66772
1303.0 0.000767 267.52573 1460.61084
1458.0 0.000686 267.45636 1581.29224
1491.0 0.000671 267.38718 1550.18298
1491.0 0.000671 267.31821 1535.55359
1558.0 0.000642 267.24936 1677.89404
1799.0 0.000556 267.18051 1979.21252
2183.0 0.000458 267.11188 2272.99219
2342.0 0.000427 267.04340 2276.58691
2038.0 0.000491 266.97510 1974.48853
1666.0 0.000600 266.90674 1627.75891
1367.0 0.000732 266.83868 1395.32080
1151.0 0.000869 266.77069 1271.79041
1104.0 0.000906 266.70285 1172.66455
1059.0 0.000944 266.63513 1078.31653
1014.0 0.000986 266.56754 1049.99500
1048.0 0.000954 266.50012 1122.95374
1228.0 0.000814 266.43274 1270.40381
1440.0 0.000694 266.36554 1385.83179
1440.0 0.000694 266.29855 1346.76990
1289.0 0.000776 266.23157 1207.75830
1171.0 0.000854 266.16473 1103.18591
1079.0 0.000927 266.09814 1088.98389
1121.0 0.000892 266.03159 1125.57312
1167.0 0.000857 265.96527 1101.75818
1115.0 0.000897 265.89890 965.09888
925.0 0.001081 265.83286 792.43756
768.0 0.001302 265.76685 653.70856
643.0 0.001555 265.70099 571.06622
609.0 0.001642 265.63531 541.45081
589.0 0.001698 265.56961 552.11603
693.0 0.001443 265.50421 590.29401
698.0 0.001433 265.43887 651.84216
730.0 0.001370 265.37372 737.10480
815.0 0.001227 265.30875 814.87988
843.0 0.001186 265.24374 817.80859
814.0 0.001229 265.17892 727.17102
750.0 0.001333 265.11432 607.45331
596.0 0.001678 265.04977 508.02209
470.0 0.002128 264.98547 444.67804
451.0 0.002217 264.92117 412.42145
410.0 0.002439 264.85712 399.33081
419.0 0.002387 264.79315 393.24878
440.0 0.002273 264.72931 390.44498
396.0 0.002525 264.66562 393.32852
402.0 0.002488 264.60208 398.85168
421.0 0.002375 264.53867 396.19244
378.0 0.002646 264.47537 379.31171
392.0 0.002551 264.41226 357.56747
378.0 0.002646 264.34930 339.57492
352.0 0.002841 264.28644 327.75723
359.0 0.002786 264.22363 321.93304
354.0 0.002825 264.16113 321.37582
359.0 0.002786 264.09863 326.33514
386.0 0.002591 264.03635 338.52725
379.0 0.002639 263.97418 358.99420
404.0 0.002475 263.91211 392.07877
446.0 0.002242 263.85022 428.44717
470.0 0.002128 263.78851 451.74469
439.0 0.002278 263.72687 444.02087
410.0 0.002439 263.66537 414.67642
403.0 0.002481 263.60403 382.36322
387.0 0.002584 263.54288 362.40363
392.0 0.002551 263.48178 354.60004
417.0 0.002398 263.42087 358.59067
400.0 0.002500 263.36017 375.00793
422.0 0.002370 263.29944 406.79193
502.0 0.001992 263.23895 462.70776
596.0 0.001678 263.17862 548.45709
737.0 0.001357 263.11841 666.91968
865.0 0.001156 263.05832 812.99841
989.0 0.001011 262.99838 968.38708
1085.0 0.000922 262.93854 1090.01917
1162.0 0.000861 262.87891 1152.16260
1195.0 0.000837 262.81943 1121.39404
1141.0 0.000876 262.76004 979.07831
998.0 0.001002 262.70078 796.77271
802.0 0.001247 262.64169 649.83331
671.0 0.001490 262.58279 567.91223
633.0 0.001580 262.52396 550.45990
614.0 0.001629 262.46530 586.44824
674.0 0.001484 262.40680 655.04175
763.0 0.001311 262.34839 723.20117
750.0 0.001333 262.29016 763.09192
765.0 0.001307 262.23215 769.79230
752.0 0.001330 262.17413 733.26007
697.0 0.001435 262.11630 646.97742
643.0 0.001555 262.05859 546.15710
528.0 0.001894 262.00110 464.81662
455.0 0.002198 261.94376 413.50259
438.0 0.002283 261.88644 388.39694
452.0 0.002212 261.82932 380.49182
402.0 0.002488 261.77240 375.73172
387.0 0.002584 261.71558 365.38602
386.0 0.002591 261.65894 349.89386
392.0 0.002551 261.60242 335.20837
365.0 0.002740 261.54599 324.75195
346.0 0.002890 261.48975 318.97583
310.0 0.003226 261.43369 317.25912
353.0 0.002833 261.37775 318.76474
340.0 0.002941 261.32187 323.33429
345.0 0.002899 261.26627 331.05774
385.0 0.002597 261.21072 343.41840
358.0 0.002793 261.15540 362.71588
407.0 0.002457 261.10013 397.32184
444.0 0.002252 261.04501 460.19748
566.0 0.001767 260.99005 564.82581
642.0 0.001558 260.93524 715.24683
732.0 0.001366 260.88062 888.08716
855.0 0.001170 260.82614 1007.78589
886.0 0.001129 260.77176 985.15155
815.0 0.001227 260.71750 851.08167
670.0 0.001493 260.66342 706.21802
615.0 0.001626 260.60950 602.94086
592.0 0.001689 260.55569 543.83112
556.0 0.001799 260.50201 510.17856
514.0 0.001946 260.44858 494.35815
504.0 0.001984 260.39517 505.89813
556.0 0.001799 260.34198 549.56342
582.0 0.001718 260.28894 615.03174
590.0 0.001695 260.23596 665.32666
621.0 0.001610 260.18320 652.05762
615.0 0.001626 260.13058 582.23047
572.0 0.001748 260.07806 504.19141
472.0 0.002119 260.02570 445.51370
409.0 0.002445 259.97351 407.70688
402.0 0.002488 259.92145 381.21225
393.0 0.002545 259.86954 357.27457
349.0 0.002865 259.81781 336.35617
350.0 0.002857 259.76614 321.64905
345.0 0.002899 259.71466 311.90179
333.0 0.003003 259.66339 306.26996
323.0 0.003096 259.61221 303.62891
323.0 0.003096 259.56110 303.13181
309.0 0.003236 259.51031 304.37589
307.0 0.003257 259.45950 307.27310
334.0 0.002994 259.40891 312.38245
343.0 0.002915 259.35846 321.35602
342.0 0.002924 259.30817 336.95367
355.0 0.002817 259.25803 364.18427
398.0 0.002513 259.20798 411.75958
452.0 0.002212 259.15811 489.29367
595.0 0.001681 259.10837 601.19812
701.0 0.001427 259.05878 737.85986
790.0 0.001266 259.00940 858.06989
861.0 0.001161 258.96008 883.18726
766.0 0.001305 258.91092 789.10803
701.0 0.001427 258.86194 649.24249
569.0 0.001757 258.81305 527.48297
505.0 0.001980 258.76440 445.66592
420.0 0.002381 258.71579 402.96732
400.0 0.002500 258.66736 393.17413
414.0 0.002415 258.61914 410.86176
440.0 0.002273 258.57104 452.35205
482.0 0.002075 258.52304 511.35858
506.0 0.001976 258.47519 570.30737
595.0 0.001681 258.42752 591.78131
612.0 0.001634 258.37997 552.72174
516.0 0.001938 258.33261 482.18326
447.0 0.002237 258.28531 415.77106
387.0 0.002584 258.23822 367.25177
387.0 0.002584 258.19125 337.20099
357.0 0.002801 258.14438 321.21048
349.0 0.002865 258.09775 313.43378
353.0 0.002833 258.05127 313.00488
369.0 0.002710 258.00488 317.86618
365.0 0.002740 257.95871 328.42056
380.0 0.002632 257.91260 345.58206
385.0 0.002597 257.86670 371.22543
427.0 0.002342 257.82089 405.21231
477.0 0.002096 257.77530 440.35315
506.0 0.001976 257.72977 456.73495
497.0 0.002012 257.68439 440.49640
457.0 0.002188 257.63916 407.46710
433.0 0.002309 257.59415 378.10233
411.0 0.002433 257.54922 364.66852
412.0 0.002427 257.50443 370.36551
431.0 0.002320 257.45978 395.07239
475.0 0.002105 257.41537 433.85336
485.0 0.002062 257.37100 475.54044
523.0 0.001912 257.32681 502.13870
543.0 0.001842 257.28278 501.79944
513.0 0.001949 257.23889 480.11227
478.0 0.002092 257.19513 445.53177
455.0 0.002198 257.15152 409.63385
441.0 0.002268 257.10812 385.29935
420.0 0.002381 257.06479 382.91443
407.0 0.002457 257.02158 402.67123
418.0 0.002392 256.97864 451.57761
494.0 0.002024 256.93570 530.30566
576.0 0.001736 256.89297 627.79974
657.0 0.001522 256.85037 708.66010
680.0 0.001471 256.80792 718.01245
629.0 0.001590 256.76566 646.41803
566.0 0.001767 256.72351 546.33185
494.0 0.002024 256.68149 460.06296
411.0 0.002433 256.63965 401.63275
376.0 0.002660 256.59790 371.56995
362.0 0.002762 256.55634 363.71225
374.0 0.002674 256.51495 375.18243
389.0 0.002571 256.47366 404.84656
400.0 0.002500 256.43246 449.60657
486.0 0.002058 256.39145 497.89377
533.0 0.001876 256.35068 523.80780
495.0 0.002020 256.30997 507.09598
476.0 0.002101 256.26938 462.63071
403.0 0.002481 256.22900 416.43442
422.0 0.002370 256.18869 383.15424
379.0 0.002639 256.14859 367.83289
368.0 0.002717 256.10864 371.05453
377.0 0.002653 256.06879 391.38223
434.0 0.002304 256.02911 425.75638
425.0 0.002353 255.98950 465.52444
450.0 0.002222 255.95013 492.96509
492.0 0.002033 255.91086 492.44794
471.0 0.002123 255.87173 471.77075
485.0 0.002062 255.83276 452.14877
455.0 0.002198 255.79391 450.33957
487.0 0.002053 255.75522 475.36652
556.0 0.001799 255.71667 528.53772
580.0 0.001724 255.67830 599.70911
700.0 0.001429 255.64001 661.09094
698.0 0.001433 255.60194 683.40515
684.0 0.001462 255.56398 679.52399
687.0 0.001456 255.52615 679.75433
700.0 0.001429 255.48846 688.00336
678.0 0.001475 255.45093 688.32477
676.0 0.001479 255.41344 664.23462
655.0 0.001527 255.37631 628.73364
624.0 0.001603 255.33916 607.47809
616.0 0.001623 255.30217 607.80786
666.0 0.001502 255.26530 622.51782
678.0 0.001475 255.22867 646.05530
729.0 0.001372 255.19214 672.84558
793.0 0.001261 255.15573 714.23340
860.0 0.001163 255.11949 808.68402
1007.0 0.000993 255.08336 993.51007
1207.0 0.000829 255.04738 1280.07410
1450.0 0.000690 255.01157 1628.05090
1828.0 0.000547 254.97585 1918.28601
2022.0 0.000495 254.94034 1969.20166
1796.0 0.000557 254.90491 1734.47925
1450.0 0.000690 254.86967 1381.95740
1157.0 0.000864 254.83450 1066.80017
894.0 0.001119 254.79955 851.54211
795.0 0.001258 254.76468 747.52649
773.0 0.001294 254.73009 751.57056
854.0 0.001171 254.69550 859.78125
1029.0 0.000972 254.66100 1067.25928
1286.0 0.000778 254.62677 1346.82898
1500.0 0.000667 254.59265 1609.61719
1596.0 0.000627 254.55861 1702.04590
1547.0 0.000646 254.52475 1548.63867
1275.0 0.000784 254.49106 1255.36243
960.0 0.001042 254.45755 964.86053
798.0 0.001253 254.42403 746.67432
677.0 0.001477 254.39078 610.94214
537.0 0.001862 254.35759 545.57361
554.0 0.001805 254.32458 535.74939
600.0 0.001667 254.29172 570.71149
635.0 0.001575 254.25899 640.89337
665.0 0.001504 254.22638 730.07520
780.0 0.001282 254.19389 802.08173
794.0 0.001259 254.16159 825.24469
760.0 0.001316 254.12943 814.47675
751.0 0.001332 254.09737 792.23352
785.0 0.001274 254.06543 747.50677
679.0 0.001473 254.03371 667.34149
600.0 0.001667 254.00208 572.50354
498.0 0.002008 253.97060 491.28644
425.0 0.002353 253.93919 435.22525
431.0 0.002320 253.90797 403.83109
410.0 0.002439 253.87695 393.59418
427.0 0.002342 253.84604 400.15799
418.0 0.002392 253.81517 418.90540
440.0 0.002273 253.78453 444.19223
431.0 0.002320 253.75400 472.28391
463.0 0.002160 253.72365 494.02951
501.0 0.001996 253.69342 496.73578
507.0 0.001972 253.66331 481.76917
455.0 0.002198 253.63330 468.46912
490.0 0.002041 253.60345 474.75775
505.0 0.001980 253.57370 505.83450
517.0 0.001934 253.54419 557.72235
559.0 0.001789 253.51480 616.47882
598.0 0.001672 253.48543 648.37079
559.0 0.001789 253.45638 620.19885
520.0 0.001923 253.42729 549.23340
457.0 0.002188 253.39841 474.58722
410.0 0.002439 253.36963 417.19958
372.0 0.002688 253.34108 381.96774
368.0 0.002717 253.31252 367.19946
392.0 0.002551 253.28419 368.99631
404.0 0.002475 253.25598 383.45007
404.0 0.002475 253.22789 410.29761
434.0 0.002304 253.19997 446.97266
470.0 0.002128 253.17218 485.08057
503.0 0.001988 253.14450 507.16675
511.0 0.001957 253.11691 502.80475
485.0 0.002062 253.08952 484.06888
496.0 0.002016 253.06227 464.51932
496.0 0.002016 253.03514 451.69519
463.0 0.002160 253.00813 453.17154
463.0 0.002160 252.98122 476.51294
517.0 0.001934 252.95448 526.44281
614.0 0.001629 252.92790 602.62457
756.0 0.001323 252.90140 687.92163
804.0 0.001244 252.87503 743.10126
754.0 0.001326 252.84888 742.62897
736.0 0.001359 252.82275 699.41382
695.0 0.001439 252.79678 649.59406
671.0 0.001490 252.77100 624.18561
634.0 0.001577 252.74532 630.21899
687.0 0.001456 252.71974 653.11725
687.0 0.001456 252.69435 663.04120
661.0 0.001513 252.66904 645.76038
635.0 0.001575 252.64388 624.22986
648.0 0.001543 252.61890 624.45142
648.0 0.001543 252.59395 648.58588
707.0 0.001414 252.56915 682.93213
737.0 0.001357 252.54451 720.76477
739.0 0.001353 252.52002 770.36023
823.0 0.001215 252.49564 839.65790
841.0 0.001189 252.47139 927.65424
967.0 0.001034 252.44730 1023.58392
1061.0 0.000943 252.42329 1079.95703
1021.0 0.000979 252.39944 1028.99292
882.0 0.001134 252.37570 883.57446
741.0 0.001350 252.35208 720.10400
605.0 0.001653 252.32864 589.12305
513.0 0.001949 252.30527 505.22946
435.0 0.002299 252.28203 465.49338
479.0 0.002088 252.25894 461.79361
488.0 0.002049 252.23596 484.38828
486.0 0.002058 252.21312 522.57275
552.0 0.001812 252.19040 566.10620
583.0 0.001715 252.16789 606.76660
577.0 0.001733 252.14537 623.02618
594.0 0.001684 252.12302 591.60333
544.0 0.001838 252.10081 525.98938
469.0 0.002132 252.07874 458.85831
413.0 0.002421 252.05678 407.51721
363.0 0.002755 252.03493 375.57809
345.0 0.002899 252.01323 362.18985
346.0 0.002890 251.99168 365.11578
385.0 0.002597 251.97026 382.95224
408.0 0.002451 251.94887 413.96735
438.0 0.002283 251.92772 452.18747
522.0 0.001916 251.90665 484.85776
536.0 0.001866 251.88562 496.65942
490.0 0.002041 251.86487 482.11792
450.0 0.002222 251.84410 456.01901
440.0 0.002273 251.82352 437.92300
463.0 0.002160 251.80304 440.14313
458.0 0.002183 251.78276 469.46829
519.0 0.001927 251.76254 528.54767
601.0 0.001664 251.74240 611.70044
644.0 0.001553 251.72246 694.42145
678.0 0.001475 251.70262 733.35468
665.0 0.001504 251.68286 710.03119
633.0 0.001580 251.66325 654.14618
593.0 0.001686 251.64380 594.17584
542.0 0.001845 251.62445 538.74261
470.0 0.002128 251.60522 489.41220
435.0 0.002299 251.58609 449.07489
420.0 0.002381 251.56709 423.87418
417.0 0.002398 251.54817 418.68674
411.0 0.002433 251.52943 434.07520
445.0 0.002247 251.51085 465.26910
478.0 0.002092 251.49231 497.40469
488.0 0.002049 251.47391 506.04794
499.0 0.002004 251.45557 480.86295
465.0 0.002151 251.43744 439.90717
387.0 0.002584 251.41937 402.74292
390.0 0.002564 251.40149 375.48688
374.0 0.002674 251.38367 355.72015
324.0 0.003086 251.36600 340.09946
315.0 0.003175 251.34843 328.95810
334.0 0.002994 251.33096 323.26901
314.0 0.003185 251.31364 324.41336
325.0 0.003077 251.29642 333.91406
346.0 0.002890 251.27931 353.43494
383.0 0.002611 251.26234 384.67499
400.0 0.002500 251.24548 425.94958
439.0 0.002278 251.22873 470.56015
492.0 0.002033 251.21208 501.68442
463.0 0.002160 251.19554 502.45325
438.0 0.002283 251.17914 475.23315
398.0 0.002513 251.16287 439.34299
386.0 0.002591 251.14667 413.22772
384.0 0.002604 251.13065 406.36066
380.0 0.002632 251.11467 420.07227
418.0 0.002392 251.09886 449.43210
459.0 0.002179 251.08310 485.14038
485.0 0.002062 251.06755 509.51532
476.0 0.002101 251.05202 516.27985
475.0 0.002105 251.03662 516.79626
478.0 0.002092 251.02141 519.03357
487.0 0.002053 251.00627 521.81274
511.0 0.001957 250.99121 525.27118
500.0 0.002000 250.97627 529.57275
509.0 0.001965 250.96150 528.96106
529.0 0.001890 250.94672 522.32959
484.0 0.002066 250.93214 522.69214
487.0 0.002053 250.91774 541.73108
522.0 0.001916 250.90334 582.63715
588.0 0.001701 250.88905 635.70032
653.0 0.001531 250.87491 679.78864
658.0 0.001520 250.86087 686.45758
603.0 0.001658 250.84697 642.64856
521.0 0.001919 250.83311 574.99683
472.0 0.002119 250.81943 515.58826
450.0 0.002222 250.80579 475.94376
407.0 0.002457 250.79233 452.15231
400.0 0.002500 250.77893 437.89743
418.0 0.002392 250.76564 436.22018
420.0 0.002381 250.75250 454.41019
451.0 0.002217 250.73943 498.47894
503.0 0.001988 250.72649 568.90686
637.0 0.001570 250.71365 652.87994
676.0 0.001479 250.70090 714.85498
644.0 0.001553 250.68826 710.61230
619.0 0.001616 250.67569 639.55975
491.0 0.002037 250.66333 544.84753
411.0 0.002433 250.65102 460.82916
385.0 0.002597 250.63881 399.55438
323.0 0.003096 250.62669 362.18625
320.0 0.003125 250.61472 343.92746
328.0 0.003049 250.60278 340.46805
303.0 0.003300 250.59099 349.44290
330.0 0.003030 250.57936 369.17752
369.0 0.002710 250.56778 396.88016
406.0 0.002463 250.55623 424.53839
419.0 0.002387 250.54489 438.04208
411.0 0.002433 250.53365 430.47824
403.0 0.002481 250.52248 414.21133
389.0 0.002571 250.51140 405.20807
417.0 0.002398 250.50043 410.52313
437.0 0.002288 250.48959 429.37570
467.0 0.002141 250.47878 451.62283
508.0 0.001969 250.46819 463.21585
459.0 0.002179 250.45763 461.23083
460.0 0.002174 250.44713 454.27057
417.0 0.002398 250.43678 445.55090
408.0 0.002451 250.42651 429.03012
401.0 0.002494 250.41635 404.38104
380.0 0.002632 250.40627 381.65128
352.0 0.002841 250.39635 369.97308
380.0 0.002632 250.38651 374.69373
412.0 0.002427 250.37672 399.24597
464.0 0.002155 250.36707 444.83606
493.0 0.002028 250.35747 507.55295
563.0 0.001776 250.34802 574.39569
624.0 0.001603 250.33870 623.69006
590.0 0.001695 250.32942 631.44299
562.0 0.001779 250.32024 595.16931
486.0 0.002058 250.31117 537.07507
469.0 0.002132 250.30223 475.49756
420.0 0.002381 250.29330 420.45755
413.0 0.002421 250.28456 378.26028
363.0 0.002755 250.27589 351.24420
327.0 0.003058 250.26724 339.32156
328.0 0.003049 250.25873 341.07178
342.0 0.002924 250.25034 354.90326
358.0 0.002793 250.24203 377.41302
386.0 0.002591 250.23383 401.03006
394.0 0.002538 250.22571 412.03775
367.0 0.002725 250.21768 401.39832
330.0 0.003030 250.20975 376.92703
316.0 0.003165 250.20187 351.09445
319.0 0.003135 250.19412 329.00354
307.0 0.003257 250.18651 312.12183
290.0 0.003448 250.17889 300.81650
292.0 0.003425 250.17140 295.08475
290.0 0.003448 250.16411 295.14780
286.0 0.003497 250.15675 300.87241
287.0 0.003484 250.14954 314.06439
306.0 0.003268 250.14246 334.76166
343.0 0.002915 250.13547 361.09656
375.0 0.002667 250.12851 386.23053
359.0 0.002786 250.12173 397.77777
369.0 0.002710 250.11493 389.61374
359.0 0.002786 250.10831 369.58673
313.0 0.003195 250.10167 346.79605
301.0 0.003322 250.09518 325.25504
281.0 0.00356 250.08885 307.78076
265.0 0.00377 250.08255 296.16428
288.0 0.003472 250.07626 290.21283
277.0 0.00361 250.07016 290.57227
317.0 0.003155 250.06410 296.39044
293.0 0.003413 250.05817 306.69852
284.0 0.00352 250.05231 318.98859
305.0 0.003279 250.04649 327.91928
332.0 0.003012 250.04073 328.01630
314.0 0.003185 250.03517 319.97247
310.0 0.003226 250.02965 309.05328
311.0 0.003215 250.02417 298.36276
283.0 0.00353 250.01881 289.62701
298.0 0.003356 250.01355 284.35718
303.0 0.003300 250.00836 283.05640
280.0 0.00357 250.00327 285.27151
309.0 0.003236 249.99825 290.09473
263.0 0.00380 249.99327 294.73291
305.0 0.003279 249.98843 295.44876
300.0 0.003333 249.98364 290.83667
284.0 0.00352 249.97893 283.72440
296.0 0.003378 249.97437 276.81009
286.0 0.003497 249.96980 271.77811
298.0 0.003356 249.96530 268.69376
280.0 0.00357 249.96100 267.38049
272.0 0.00368 249.95670 267.55460
265.0 0.00377 249.95248 269.15192
269.0 0.00372 249.94835 272.03629
271.0 0.00369 249.94431 276.05695
277.0 0.00361 249.94031 280.62332
277.0 0.00361 249.93643 284.40683
278.0 0.00360 249.93262 285.94888
299.0 0.003344 249.92891 286.02454
295.0 0.003390 249.92522 286.90714
299.0 0.003344 249.92163 290.67374
318.0 0.003145 249.91814 299.26544
326.0 0.003067 249.91470 315.76941
346.0 0.002890 249.91135 342.54395
397.0 0.002519 249.90808 381.46295
422.0 0.002370 249.90488 430.25894
464.0 0.002155 249.90178 480.23682
499.0 0.002004 249.89871 518.15637
491.0 0.002037 249.89581 534.64404
483.0 0.002070 249.89288 520.76819
456.0 0.002193 249.89003 477.80045
420.0 0.002381 249.88724 424.85953
361.0 0.002770 249.88458 379.30130
326.0 0.003067 249.88205 348.17157
321.0 0.003115 249.87949 332.36426
336.0 0.002976 249.87701 330.96503
339.0 0.002950 249.87468 341.88956
362.0 0.002762 249.87236 362.47372
369.0 0.002710 249.87010 387.33890
374.0 0.002674 249.86795 407.78955
388.0 0.002577 249.86583 417.70157
399.0 0.002506 249.86380 414.78806
405.0 0.002469 249.86185 396.87708
380.0 0.002632 249.86000 368.70850
338.0 0.002959 249.85823 340.53452
319.0 0.003135 249.85641 318.64056
318.0 0.003145 249.85477 304.48541
300.0 0.003333 249.85318 296.96030
290.0 0.003448 249.85164 293.56299
273.0 0.00366 249.85014 292.15475
287.0 0.003484 249.84871 291.09521
293.0 0.003413 249.84743 289.68280
290.0 0.003448 249.84612 287.64520
284.0 0.00352 249.84491 286.20898
281.0 0.00356 249.84384 286.73413
245.0 0.00408 249.84273 291.05460
314.0 0.003185 249.84174 300.60550
325.0 0.003077 249.84082 316.26993
349.0 0.002865 249.83992 337.47672
365.0 0.002740 249.83913 360.59036
385.0 0.002597 249.83842 377.08075
400.0 0.002500 249.83772 378.19574
372.0 0.002688 249.83708 366.02029
389.0 0.002571 249.83656 350.99377
374.0 0.002674 249.83612 340.67859
313.0 0.003195 249.83569 335.29898
334.0 0.002994 249.83530 332.53699
319.0 0.003135 249.83504 329.72247
321.0 0.003115 249.83481 328.71115
320.0 0.003125 249.83466 332.58163
338.0 0.002959 249.83450 342.37759
332.0 0.003012 249.83449 356.63062
362.0 0.002762 249.83450 372.80942
366.0 0.002732 249.83456 387.98889
397.0 0.002519 249.83472 399.86874
409.0 0.002445 249.83492 409.11871
371.0 0.002695 249.83516 417.47568
403.0 0.002481 249.83545 425.86230
438.0 0.002283 249.83582 431.65637
445.0 0.002247 249.83630 430.87027
429.0 0.002331 249.83676 427.23987
434.0 0.002304 249.83731 425.70822
420.0 0.002381 249.83794 424.26892
417.0 0.002398 249.83856 418.50058
373.0 0.002681 249.83929 410.34488
380.0 0.002632 249.84010 406.48370
423.0 0.002364 249.84093 411.45883
408.0 0.002451 249.84177 426.42557
414.0 0.002415 249.84271 449.57410
454.0 0.002203 249.84369 476.52145
463.0 0.002160 249.84483 497.76700
483.0 0.002070 249.84589 498.29379
479.0 0.002088 249.84708 474.51898
439.0 0.002278 249.84825 440.85779
407.0 0.002457 249.84955 410.64145
379.0 0.002639 249.85083 386.92395
357.0 0.002801 249.85223 367.57449
327.0 0.003058 249.85370 353.91162
333.0 0.003003 249.85513 347.43491
351.0 0.002849 249.85667 348.82825
336.0 0.002976 249.85829 358.81500
380.0 0.002632 249.85995 376.78247
382.0 0.002618 249.86162 401.77057
391.0 0.002558 249.86331 427.91342
435.0 0.002299 249.86513 444.34555
437.0 0.002288 249.86696 442.07346
425.0 0.002353 249.86885 420.99173
404.0 0.002475 249.87076 391.04611
381.0 0.002625 249.87277 363.52783
314.0 0.003185 249.87480 344.40082
343.0 0.002915 249.87691 335.54504
343.0 0.002915 249.87903 337.35986
353.0 0.002833 249.88124 350.51166
388.0 0.002577 249.88348 376.82141
419.0 0.002387 249.88571 415.63815
447.0 0.002237 249.88808 464.50922
508.0 0.001969 249.89041 513.90179
546.0 0.001832 249.89281 550.45856
508.0 0.001969 249.89528 565.86688
547.0 0.001828 249.89781 556.02509
478.0 0.002092 249.90030 520.92938
469.0 0.002132 249.90291 473.00323
420.0 0.002381 249.90558 429.39816
410.0 0.002439 249.90826 400.18103
372.0 0.002688 249.91096 389.31705
379.0 0.002639 249.91376 398.86472
405.0 0.002469 249.91656 430.98706
479.0 0.002088 249.91940 487.28372
566.0 0.001767 249.92233 565.39801
617.0 0.001621 249.92528 655.50592
720.0 0.001389 249.92827 737.59662
704.0 0.001420 249.93127 780.20251
744.0 0.001344 249.93433 756.12567
659.0 0.001517 249.93745 676.16394
495.0 0.002020 249.94060 578.74377
444.0 0.002252 249.94379 492.46384
408.0 0.002451 249.94705 429.46344
380.0 0.002632 249.95029 390.99438
373.0 0.002681 249.95357 374.00620
404.0 0.002475 249.95695 375.15704
403.0 0.002481 249.96037 392.19345
411.0 0.002433 249.96376 423.64697
430.0 0.002326 249.96719 466.48401
463.0 0.002160 249.97069 512.35767
501.0 0.001996 249.97423 544.74023
520.0 0.001923 249.97780 547.11462
496.0 0.002016 249.98141 523.85236
493.0 0.002028 249.98503 490.77374
471.0 0.002123 249.98872 455.34753
422.0 0.002370 249.99246 421.54868
409.0 0.002445 249.99619 394.59406
406.0 0.002463 249.99998 376.25894
396.0 0.002525 250.00383 364.24619
377.0 0.002653 250.00768 356.47372
362.0 0.002762 250.01155 353.98630
381.0 0.002625 250.01552 359.38092
403.0 0.002481 250.01942 375.33490
416.0 0.002404 250.02344 402.40350
443.0 0.002257 250.02744 441.78000
477.0 0.002096 250.03148 492.77054
499.0 0.002004 250.03555 550.10986
558.0 0.001792 250.03972 599.15082
586.0 0.001706 250.04388 624.02063
615.0 0.001626 250.04807 629.51837
638.0 0.001567 250.05226 635.40997
727.0 0.001376 250.05653 649.73462
708.0 0.001412 250.06078 658.19855
663.0 0.001508 250.06508 637.50879
624.0 0.001603 250.06941 585.26538
559.0 0.001789 250.07379 524.30286
485.0 0.002062 250.07814 475.29501
465.0 0.002151 250.08257 447.33582
420.0 0.002381 250.08702 441.82416
417.0 0.002398 250.09154 455.84845
459.0 0.002179 250.09601 482.36334
493.0 0.002028 250.10054 513.47662
548.0 0.001825 250.10513 549.38232
574.0 0.001742 250.10970 598.39636
624.0 0.001603 250.11430 661.67529
757.0 0.001321 250.11888 721.29175
819.0 0.001221 250.12361 741.02240
714.0 0.001401 250.12830 699.56030
636.0 0.001572 250.13301 618.63892
560.0 0.001786 250.13773 531.81592
461.0 0.002169 250.14252 458.06454
352.0 0.002841 250.14726 404.05814
373.0 0.002681 250.15205 369.59311
341.0 0.002933 250.15692 352.14172
334.0 0.002994 250.16174 348.03519
338.0 0.002959 250.16666 355.40985
355.0 0.002817 250.17159 372.94653
402.0 0.002488 250.17648 398.40201
437.0 0.002288 250.18141 426.38898
453.0 0.002208 250.18640 447.04956
443.0 0.002257 250.19141 449.91693
408.0 0.002451 250.19641 440.13562
418.0 0.002392 250.20139 432.46286
401.0 0.002494 250.20645 435.51447
415.0 0.002410 250.21155 453.43439
494.0 0.002024 250.21661 483.68423
515.0 0.001942 250.22169 513.17505
511.0 0.001957 250.22687 521.86011
483.0 0.002070 250.23204 501.87210
441.0 0.002268 250.23720 468.03995
415.0 0.002410 250.24237 439.88071
399.0 0.002506 250.24759 427.30753
419.0 0.002387 250.25282 433.88443
450.0 0.002222 250.25801 456.96524
477.0 0.002096 250.26328 486.13568
487.0 0.002053 250.26859 505.43677
487.0 0.002053 250.27385 504.32236
512.0 0.001953 250.27913 489.05505
459.0 0.002179 250.28447 474.12717
419.0 0.002387 250.28978 463.76505
424.0 0.002358 250.29517 452.71857
410.0 0.002439 250.30051 435.13159
371.0 0.002695 250.30591 414.63892
397.0 0.002519 250.31129 400.90695
398.0 0.002513 250.31668 400.61411
410.0 0.002439 250.32211 417.35483
406.0 0.002463 250.32756 450.88443
464.0 0.002155 250.33301 495.40506
521.0 0.001919 250.33842 536.66833
563.0 0.001776 250.34393 553.74390
536.0 0.001866 250.34938 535.79199
511.0 0.001957 250.35487 496.09744
449.0 0.002227 250.36041 454.91891
421.0 0.002375 250.36592 427.15271
397.0 0.002519 250.37143 419.32819
434.0 0.002304 250.37697 430.36411
477.0 0.002096 250.38257 456.78046
491.0 0.002037 250.38808 488.45050
528.0 0.001894 250.39363 509.06747
517.0 0.001934 250.39917 506.77658
487.0 0.002053 250.40482 489.10962
491.0 0.002037 250.41039 468.68402
428.0 0.002336 250.41599 450.07318
434.0 0.002304 250.42162 429.85037
381.0 0.002625 250.42728 406.87296
372.0 0.002688 250.43289 386.54019
370.0 0.002703 250.43845 373.74905
380.0 0.002632 250.44414 371.24875
408.0 0.002451 250.44981 381.03696
412.0 0.002427 250.45547 400.97406
437.0 0.002288 250.46114 428.18970
495.0 0.002020 250.46678 455.30084
526.0 0.001901 250.47244 471.30859
501.0 0.001996 250.47812 470.96619
487.0 0.002053 250.48378 461.40985
488.0 0.002049 250.48950 452.87985
504.0 0.001984 250.49515 454.04111
524.0 0.001908 250.50085 467.96204
526.0 0.001901 250.50661 492.74673
577.0 0.001733 250.51227 522.29608
624.0 0.001603 250.51794 551.83209
645.0 0.001550 250.52367 588.27759
695.0 0.001439 250.52940 646.85522
785.0 0.001274 250.53514 739.04236
882.0 0.001134 250.54082 867.28723
999.0 0.001001 250.54652 1017.31342
1180.0 0.000847 250.55228 1153.29370
1307.0 0.000765 250.55798 1240.97485
1316.0 0.000760 250.56371 1270.41602
1254.0 0.000797 250.56940 1231.98145
1118.0 0.000894 250.57512 1126.30396
952.0 0.001050 250.58084 996.03088
860.0 0.001163 250.58659 889.13135
827.0 0.001209 250.59232 826.91913
805.0 0.001242 250.59801 810.43829
818.0 0.001222 250.60374 832.75916
854.0 0.001171 250.60947 870.13074
889.0 0.001125 250.61514 897.42102
901.0 0.001110 250.62088 907.87836
898.0 0.001114 250.62657 909.95123
903.0 0.001107 250.63231 903.03961
867.0 0.001153 250.63802 883.76318
898.0 0.001114 250.64371 848.99664
823.0 0.001215 250.64941 790.24756
693.0 0.001443 250.65511 712.07983
602.0 0.001661 250.66080 637.05951
575.0 0.001739 250.66650 583.02753
546.0 0.001832 250.67215 555.66077
533.0 0.001876 250.67783 552.28351
555.0 0.001802 250.68353 563.77283
556.0 0.001799 250.68921 574.86365
560.0 0.001786 250.69485 577.43475
552.0 0.001812 250.70050 579.74579
562.0 0.001779 250.70615 599.90515
618.0 0.001618 250.71179 654.46478
731.0 0.001368 250.71744 755.21765
937.0 0.001067 250.72307 906.77856
1143.0 0.000875 250.72865 1099.13330
1409.0 0.000710 250.73431 1298.40076
1554.0 0.000644 250.73993 1459.33008
1570.0 0.000637 250.74548 1547.44653
1564.0 0.000639 250.75113 1530.38501
1384.0 0.000723 250.75670 1394.63293
1076.0 0.000929 250.76227 1189.89417
888.0 0.001126 250.76784 988.82312
759.0 0.001318 250.77342 832.37347
668.0 0.001497 250.77893 730.98352
668.0 0.001497 250.78445 678.16376
626.0 0.001597 250.78999 664.50043
651.0 0.001536 250.79553 687.13458
702.0 0.001425 250.80104 745.23785
804.0 0.001244 250.80650 830.72235
926.0 0.001080 250.81201 925.72833
975.0 0.001026 250.81747 1009.79639
1097.0 0.000912 250.82292 1068.14172
1151.0 0.000869 250.82837 1083.02844
1081.0 0.000925 250.83383 1048.01965
974.0 0.001027 250.83926 978.22601
866.0 0.001155 250.84467 888.66882
758.0 0.001319 250.85011 792.09399
653.0 0.001531 250.85542 698.84985
612.0 0.001634 250.86081 614.12573
524.0 0.001908 250.86620 540.09344
456.0 0.002193 250.87155 481.10440
423.0 0.002364 250.87688 439.05591
410.0 0.002439 250.88216 413.18576
414.0 0.002415 250.88747 401.60333
414.0 0.002415 250.89281 403.18497
427.0 0.002342 250.89804 415.76697
451.0 0.002217 250.90329 437.00351
483.0 0.002070 250.90854 461.89890
509.0 0.001965 250.91377 482.09680
534.0 0.001873 250.91898 491.01465
520.0 0.001923 250.92412 491.18399
529.0 0.001890 250.92935 492.06711
546.0 0.001832 250.93448 503.53827
588.0 0.001701 250.93964 536.61279
650.0 0.001538 250.94479 603.59509
754.0 0.001326 250.94991 708.51892
906.0 0.001104 250.95497 845.13043
968.0 0.001033 250.96002 988.40845
1029.0 0.000972 250.96510 1089.34229
1053.0 0.000950 250.97009 1094.18420
997.0 0.001003 250.97514 997.05524
762.0 0.001312 250.98015 849.39966
641.0 0.001560 250.98512 703.14587
517.0 0.001934 250.99005 584.80396
480.0 0.002083 250.99501 502.82123
440.0 0.002273 250.99992 454.54459
424.0 0.002358 251.00484 435.18329
433.0 0.002309 251.00969 441.67969
471.0 0.002123 251.01456 471.39377
544.0 0.001838 251.01939 522.20624
595.0 0.001681 251.02422 588.41791
633.0 0.001580 251.02898 655.83813
692.0 0.001445 251.03378 699.11139
679.0 0.001473 251.03850 693.27264
660.0 0.001515 251.04324 639.26160
550.0 0.001818 251.04794 563.77179
471.0 0.002123 251.05267 491.05438
430.0 0.002326 251.05730 432.93323
361.0 0.002770 251.06194 392.30176
342.0 0.002924 251.06657 367.55209
350.0 0.002857 251.07118 355.62494
337.0 0.002967 251.07573 353.70102
355.0 0.002817 251.08026 359.20486
368.0 0.002717 251.08481 371.58902
383.0 0.002611 251.08929 388.87640
419.0 0.002387 251.09375 406.40887
438.0 0.002283 251.09821 422.37350
430.0 0.002326 251.10263 435.52478
481.0 0.002079 251.10703 450.64352
489.0 0.002045 251.11139 470.83759
489.0 0.002045 251.11575 493.28357
527.0 0.001898 251.12009 511.30499
527.0 0.001898 251.12434 524.43604
555.0 0.001802 251.12863 541.06226
592.0 0.001689 251.13289 568.34625
624.0 0.001603 251.13710 604.17010
665.0 0.001504 251.14128 636.62750
702.0 0.001425 251.14542 656.23566
693.0 0.001443 251.14958 670.81995
727.0 0.001376 251.15367 697.23865
799.0 0.001252 251.15773 745.28186
846.0 0.001182 251.16179 809.31982
895.0 0.001117 251.16583 870.58325
920.0 0.001087 251.16982 898.63074
900.0 0.001111 251.17377 873.57782
810.0 0.001235 251.17772 807.91388
724.0 0.001381 251.18166 731.56366
644.0 0.001553 251.18547 666.71436
586.0 0.001706 251.18939 623.75763
598.0 0.001672 251.19319 604.14050
659.0 0.001517 251.19696 603.49646
617.0 0.001621 251.20073 617.23444
641.0 0.001560 251.20448 648.95599
746.0 0.001340 251.20815 707.22119
847.0 0.001181 251.21179 795.07581
850.0 0.001176 251.21548 902.74725
918.0 0.001089 251.21910 1000.01190
1023.0 0.000978 251.22264 1037.51379
994.0 0.001006 251.22623 985.07330
837.0 0.001195 251.22974 868.20422
703.0 0.001422 251.23323 735.99414
547.0 0.001828 251.23666 620.30060
479.0 0.002088 251.24008 532.34827
458.0 0.002183 251.24350 474.03397
460.0 0.002174 251.24684 442.63577
420.0 0.002381 251.25014 433.39343
461.0 0.002169 251.25345 443.04895
482.0 0.002075 251.25670 468.46036
511.0 0.001957 251.25993 506.32739
520.0 0.001923 251.26311 550.19238
532.0 0.001880 251.26627 587.01294
555.0 0.001802 251.26941 598.30884
588.0 0.001701 251.27251 573.95374
468.0 0.002137 251.27556 525.77063
456.0 0.002193 251.27859 473.80081
427.0 0.002342 251.28156 430.85797
393.0 0.002545 251.28450 401.38528
381.0 0.002625 251.28741 383.90509
403.0 0.002481 251.29033 373.58072
367.0 0.002725 251.29317 364.99908
373.0 0.002681 251.29599 356.83185
367.0 0.002725 251.29877 350.41763
355.0 0.002817 251.30150 347.04324
373.0 0.002681 251.30421 346.89584
357.0 0.002801 251.30692 348.20087
352.0 0.002841 251.30951 348.59155
338.0 0.002959 251.31210 348.01181
342.0 0.002924 251.31465 348.02429
369.0 0.002710 251.31721 351.55130
377.0 0.002653 251.31969 360.26917
400.0 0.002500 251.32213 373.25308
424.0 0.002358 251.32454 385.84937
413.0 0.002421 251.32693 390.27985
390.0 0.002564 251.32927 382.33203
372.0 0.002688 251.33154 364.98090
343.0 0.002915 251.33383 345.55942
339.0 0.002950 251.33606 328.93939
312.0 0.003205 251.33826 316.98132
313.0 0.003195 251.34042 310.36292
314.0 0.003185 251.34251 308.26166
310.0 0.003226 251.34459 309.46027
319.0 0.003135 251.34665 313.30896
338.0 0.002959 251.34862 320.07602
341.0 0.002933 251.35060 330.94269
341.0 0.002933 251.35248 345.41293
348.0 0.002874 251.35435 362.88400
414.0 0.002415 251.35622 380.50543
429.0 0.002331 251.35803 397.07111
409.0 0.002445 251.35977 415.17197
442.0 0.002262 251.36150 437.23560
476.0 0.002101 251.36319 462.42319
509.0 0.001965 251.36485 488.05380
535.0 0.001869 251.36641 507.38483
546.0 0.001832 251.36800 510.92126
529.0 0.001890 251.36952 493.39969
475.0 0.002105 251.37099 463.44727
431.0 0.002320 251.37242 434.16550
434.0 0.002304 251.37384 410.59949
419.0 0.002387 251.37520 394.82333
393.0 0.002545 251.37651 384.86902
385.0 0.002597 251.37781 381.07669
422.0 0.002370 251.37903 383.50647
410.0 0.002439 251.38022 391.82379
426.0 0.002347 251.38139 405.79358
430.0 0.002326 251.38245 424.65692
474.0 0.002110 251.38354 448.98816
506.0 0.001976 251.38457 474.37756
489.0 0.002045 251.38553 493.43399
506.0 0.001976 251.38649 497.36517
504.0 0.001984 251.38736 486.69775
505.0 0.001980 251.38824 472.67307
525.0 0.001905 251.38904 467.04849
486.0 0.002058 251.38983 474.67706
486.0 0.002058 251.39058 495.87811
478.0 0.002092 251.39122 526.12714
568.0 0.001761 251.39186 556.56049
547.0 0.001828 251.39246 579.58667
567.0 0.001764 251.39299 591.96570
574.0 0.001742 251.39349 589.66412
542.0 0.001845 251.39398 569.51599
506.0 0.001976 251.39441 536.39282
483.0 0.002070 251.39479 499.38440
441.0 0.002268 251.39510 464.95050
424.0 0.002358 251.39540 435.07532
411.0 0.002433 251.39561 413.33740
397.0 0.002519 251.39584 403.11380
411.0 0.002433 251.39601 406.26999
439.0 0.002278 251.39612 422.88641
505.0 0.001980 251.39619 450.44531
523.0 0.001912 251.39618 483.49640
573.0 0.001745 251.39615 513.68243
575.0 0.001739 251.39610 533.00562
529.0 0.001890 251.39598 535.75537
503.0 0.001988 251.39583 521.83990
487.0 0.002053 251.39563 498.61093
489.0 0.002045 251.39536 476.67581
505.0 0.001980 251.39507 463.79639
499.0 0.002004 251.39476 463.83322
490.0 0.002041 251.39433 475.27917
540.0 0.001852 251.39388 492.03781
574.0 0.001742 251.39343 503.79974
560.0 0.001786 251.39290 503.28543
519.0 0.001927 251.39232 495.94012
537.0 0.001862 251.39174 493.79102
590.0 0.001695 251.39105 506.64114
610.0 0.001639 251.39035 539.60901
608.0 0.001645 251.38957 593.82086
700.0 0.001429 251.38878 667.85272
780.0 0.001282 251.38791 756.18243
869.0 0.001151 251.38704 842.05255
932.0 0.001073 251.38608 895.51355
897.0 0.001115 251.38509 896.38409
853.0 0.001172 251.38409 854.84058
817.0 0.001224 251.38300 794.94971
778.0 0.001285 251.38185 733.37170
687.0 0.001456 251.38068 677.32367
664.0 0.001506 251.37943 633.56750
636.0 0.001572 251.37819 612.70441
658.0 0.001520 251.37683 622.76160
713.0 0.001403 251.37546 665.47284
743.0 0.001346 251.37408 736.44543
820.0 0.001220 251.37257 825.42877
874.0 0.001144 251.37108 910.33649
981.0 0.001019 251.36952 959.62134
930.0 0.001075 251.36790 953.58575
844.0 0.001185 251.36627 897.45740
801.0 0.001248 251.36455 811.55548
639.0 0.001565 251.36281 719.20526
588.0 0.001701 251.36096 636.59924
481.0 0.002079 251.35916 570.33148
489.0 0.002045 251.35725 521.65875
459.0 0.002179 251.35529 489.10202
442.0 0.002262 251.35330 471.65384
500.0 0.002000 251.35126 468.27667
522.0 0.001916 251.34918 477.55807
498.0 0.002008 251.34703 496.05203
516.0 0.001938 251.34482 516.75391
502.0 0.001992 251.34264 527.82245
510.0 0.001961 251.34030 517.79791
458.0 0.002183 251.33795 487.58572
438.0 0.002283 251.33559 449.29788
405.0 0.002469 251.33318 413.47311
365.0 0.002740 251.33066 384.83038
352.0 0.002841 251.32814 364.49771
356.0 0.002809 251.32555 351.02783
311.0 0.003215 251.32289 342.09195
316.0 0.003165 251.32022 335.94809
327.0 0.003058 251.31750 331.07642
323.0 0.003096 251.31471 327.60123
332.0 0.003012 251.31190 326.42136
343.0 0.002915 251.30904 328.32343
342.0 0.002924 251.30608 334.20755
353.0 0.002833 251.30312 344.90726
355.0 0.002817 251.30008 361.15433
354.0 0.002825 251.29703 383.58517
388.0 0.002577 251.29387 412.65573
422.0 0.002370 251.29068 448.46820
452.0 0.002212 251.28745 490.11646
534.0 0.001873 251.28418 536.93219
584.0 0.001712 251.28088 593.47614
655.0 0.001527 251.27750 665.57361
786.0 0.001272 251.27402 750.89368
883.0 0.001133 251.27060 834.66235
934.0 0.001071 251.26706 889.09369
889.0 0.001125 251.26346 890.22632
783.0 0.001277 251.25986 841.14081
752.0 0.001330 251.25620 767.36230
686.0 0.001458 251.25247 690.84308
608.0 0.001645 251.24869 623.36163
563.0 0.001776 251.24484 568.16406
537.0 0.001862 251.24098 526.95135
496.0 0.002016 251.23705 501.14005
468.0 0.002137 251.23305 490.25916
523.0 0.001912 251.22905 492.69901
533.0 0.001876 251.22495 508.80389
553.0 0.001808 251.22083 538.63458
627.0 0.001595 251.21663 578.67487
616.0 0.001623 251.21243 618.78076
650.0 0.001538 251.20815 646.49500
679.0 0.001473 251.20380 650.05927
657.0 0.001522 251.19942 632.63660
601.0 0.001664 251.19501 602.97693
607.0 0.001647 251.19048 566.71985
556.0 0.001799 251.18597 525.58209
473.0 0.002114 251.18137 483.16830
412.0 0.002427 251.17673 444.04391
422.0 0.002370 251.17207 410.43451
432.0 0.002315 251.16733 382.92554
364.0 0.002747 251.16254 361.65091
348.0 0.002874 251.15771 345.89932
357.0 0.002801 251.15282 336.46014
339.0 0.002950 251.14789 331.36127
353.0 0.002833 251.14288 330.93268
334.0 0.002994 251.13788 334.95343
344.0 0.002907 251.13278 343.95917
366.0 0.002732 251.12766 358.33209
409.0 0.002445 251.12245 377.90201
419.0 0.002387 251.11720 401.03375
460.0 0.002174 251.11191 426.58212
476.0 0.002101 251.10655 453.77509
493.0 0.002028 251.10120 478.46835
504.0 0.001984 251.09573 491.12323
494.0 0.002024 251.09029 482.96976
450.0 0.002222 251.08470 456.71078
428.0 0.002336 251.07912 423.80707
402.0 0.002488 251.07343 393.89630
348.0 0.002874 251.06778 372.66199
359.0 0.002786 251.06200 362.73068
369.0 0.002710 251.05621 364.97900
373.0 0.002681 251.05040 379.21445
416.0 0.002404 251.04449 404.05756
491.0 0.002037 251.03854 436.26047
518.0 0.001931 251.03250 468.88651
527.0 0.001898 251.02647 491.86465
531.0 0.001883 251.02037 498.16476
491.0 0.002037 251.01427 489.47781
467.0 0.002141 251.00804 470.44739
460.0 0.002174 251.00180 443.58438
398.0 0.002513 250.99550 412.90933
376.0 0.002660 250.98917 384.28629
379.0 0.002639 250.98274 362.21704
351.0 0.002849 250.97624 348.35260
364.0 0.002747 250.96974 343.39935
373.0 0.002681 250.96323 347.45615
359.0 0.002786 250.95663 360.41705
359.0 0.002786 250.94997 381.57156
443.0 0.002257 250.94328 408.98666
478.0 0.002092 250.93651 438.43466
501.0 0.001996 250.92973 463.12561
552.0 0.001812 250.92285 475.60208
486.0 0.002058 250.91594 472.19604
461.0 0.002169 250.90901 453.73306
444.0 0.002252 250.90201 427.50830
423.0 0.002364 250.89499 402.38483
410.0 0.002439 250.88786 384.55688
381.0 0.002625 250.88071 377.68610
374.0 0.002674 250.87350 384.12082
444.0 0.002252 250.86626 405.85086
500.0 0.002000 250.85893 444.29453
526.0 0.001901 250.85162 499.49182
594.0 0.001684 250.84422 568.02325
660.0 0.001515 250.83679 640.02045
719.0 0.001391 250.82927 698.36249
773.0 0.001294 250.82172 725.11035
741.0 0.001350 250.81413 711.18494
667.0 0.001499 250.80647 661.49219
594.0 0.001684 250.79877 594.16699
509.0 0.001965 250.79105 526.00830
476.0 0.002101 250.78326 468.41278
428.0 0.002336 250.77542 426.61179
404.0 0.002475 250.76749 401.64545
394.0 0.002538 250.75955 393.28979
410.0 0.002439 250.75157 401.11646
445.0 0.002247 250.74353 425.07681
470.0 0.002128 250.73546 466.66098
542.0 0.001845 250.72733 526.26868
638.0 0.001567 250.71912 601.31549
734.0 0.001362 250.71091 683.55383
790.0 0.001266 250.70261 759.32257
818.0 0.001222 250.69429 812.12518
821.0 0.001218 250.68590 827.38000
808.0 0.001238 250.67747 802.28705
734.0 0.001362 250.66898 742.90228
610.0 0.001639 250.66046 662.00977
562.0 0.001779 250.65190 576.66571
516.0 0.001938 250.64331 501.37878
460.0 0.002174 250.63460 442.79141
393.0 0.002545 250.62593 402.11340
361.0 0.002770 250.61714 377.60223
356.0 0.002809 250.60834 366.89651
349.0 0.002865 250.59946 368.30460
368.0 0.002717 250.59055 380.50552
370.0 0.002703 250.58157 402.13876
428.0 0.002336 250.57260 430.90451
474.0 0.002110 250.56352 461.20056
472.0 0.002119 250.55444 485.18704
479.0 0.002088 250.54529 495.75073
488.0 0.002049 250.53609 490.38010
474.0 0.002110 250.52687 471.35675
450.0 0.002222 250.51755 446.45822
419.0 0.002387 250.50824 425.01205
387.0 0.002584 250.49890 413.28650
418.0 0.002392 250.48946 413.45435
415.0 0.002410 250.47997 423.76523
436.0 0.002294 250.47049 439.29111
444.0 0.002252 250.46089 450.42581
458.0 0.002183 250.45128 447.61337
434.0 0.002304 250.44164 429.34534
374.0 0.002674 250.43193 403.15738
347.0 0.002882 250.42215 376.91818
329.0 0.003040 250.41235 355.86963
297.0 0.003367 250.40251 341.08691
306.0 0.003268 250.39261 332.93457
330.0 0.003030 250.38264 330.08594
296.0 0.003378 250.37274 330.55511
323.0 0.003096 250.36269 332.86172
302.0 0.003311 250.35262 335.92957
309.0 0.003236 250.34250 340.45288
340.0 0.002941 250.33234 347.29495
339.0 0.002950 250.32213 356.20703
361.0 0.002770 250.31187 364.02963
371.0 0.002695 250.30156 366.56894
335.0 0.002985 250.29120 361.65738
359.0 0.002786 250.28084 351.98553
347.0 0.002882 250.27039 342.37704
335.0 0.002985 250.25993 336.60898
341.0 0.002933 250.24945 337.07245
353.0 0.002833 250.23886 344.60938
381.0 0.002625 250.22824 358.76331
438.0 0.002283 250.21759 377.89154
442.0 0.002262 250.20689 397.62729
434.0 0.002304 250.19617 411.38007
456.0 0.002193 250.18535 412.13971
396.0 0.002525 250.17456 399.59189
395.0 0.002532 250.16367 379.72177
343.0 0.002915 250.15277 359.44696
319.0 0.003135 250.14177 342.70361
328.0 0.003049 250.13080 331.31119
330.0 0.003030 250.11975 325.70615
314.0 0.003185 250.10866 325.76205
334.0 0.002994 250.09755 331.28995
350.0 0.002857 250.08635 342.41473
417.0 0.002398 250.07513 359.67569
452.0 0.002212 250.06387 384.05756
456.0 0.002193 250.05258 417.09375
512.0 0.001953 250.04123 458.40372
574.0 0.001742 250.02985 506.22842
623.0 0.001605 250.01839 554.31689
646.0 0.001548 250.00694 596.79541
685.0 0.001460 249.99542 633.48071
706.0 0.001416 249.98390 669.68506
721.0 0.001387 249.97229 708.50787
765.0 0.001307 249.96065 742.19025
778.0 0.001285 249.94901 752.60724
713.0 0.001403 249.93727 725.48285
632.0 0.001582 249.92552 666.47418
558.0 0.001792 249.91370 595.33075
500.0 0.002000 249.90186 529.63898
443.0 0.002257 249.89000 478.58472
420.0 0.002381 249.87807 445.06650
431.0 0.002320 249.86609 428.83182
437.0 0.002288 249.85408 426.97104
445.0 0.002247 249.84206 435.47745
444.0 0.002252 249.82999 449.21945
521.0 0.001919 249.81787 465.54462
494.0 0.002024 249.80569 484.23788
531.0 0.001883 249.79352 507.26990
559.0 0.001789 249.78127 534.43524
538.0 0.001859 249.76898 560.46564
578.0 0.001730 249.75668 577.28040
578.0 0.001730 249.74432 581.85278
602.0 0.001661 249.73193 580.25879
616.0 0.001623 249.71947 580.12909
606.0 0.001650 249.70702 582.26831
604.0 0.001656 249.69450 579.87555
575.0 0.001739 249.68199 566.17560
550.0 0.001818 249.66937 542.40802
506.0 0.001976 249.65677 514.24744
452.0 0.002212 249.64413 484.09506
416.0 0.002404 249.63139 452.40118
408.0 0.002451 249.61867 422.50772
389.0 0.002571 249.60591 398.32382
340.0 0.002941 249.59309 382.67676
366.0 0.002732 249.58026 377.14587
395.0 0.002532 249.56737 382.92023
414.0 0.002415 249.55446 401.38306
462.0 0.002165 249.54149 433.76862
487.0 0.002053 249.52849 480.00638
571.0 0.001751 249.51549 538.10504
633.0 0.001580 249.50240 601.21143
731.0 0.001368 249.48933 656.63885
744.0 0.001344 249.47618 689.49585
725.0 0.001379 249.46301 691.11786
675.0 0.001481 249.44983 667.61023
614.0 0.001629 249.43658 634.49603
635.0 0.001575 249.42332 605.61792
622.0 0.001608 249.41003 588.17981
607.0 0.001647 249.39667 583.25000
607.0 0.001647 249.38330 588.37158
616.0 0.001623 249.36987 596.75781
637.0 0.001570 249.35640 600.60968
609.0 0.001642 249.34297 594.21722
570.0 0.001754 249.32945 579.59204
515.0 0.001942 249.31590 565.59583
510.0 0.001961 249.30229 560.68787
521.0 0.001919 249.28873 568.05078
576.0 0.001736 249.27507 584.40601
658.0 0.001520 249.26141 600.51788
668.0 0.001497 249.24768 605.43665
595.0 0.001681 249.23393 593.55133
538.0 0.001859 249.22015 568.09888
528.0 0.001894 249.20634 538.02930
528.0 0.001894 249.19250 511.00143
501.0 0.001996 249.17865 490.00122
492.0 0.002033 249.16475 475.61371
485.0 0.002062 249.15085 464.39673
473.0 0.002114 249.13686 452.74792
425.0 0.002353 249.12286 437.61548
403.0 0.002481 249.10886 419.47339
387.0 0.002584 249.09482 401.98511
369.0 0.002710 249.08072 388.35434
417.0 0.002398 249.06659 380.17874
404.0 0.002475 249.05246 377.41312
401.0 0.002494 249.03828 378.62964
404.0 0.002475 249.02406 380.74286
402.0 0.002488 249.00986 379.75107
404.0 0.002475 248.99551 373.69083
383.0 0.002611 248.98123 363.53293
388.0 0.002577 248.96700 350.84622
340.0 0.002941 248.95258 336.82889
323.0 0.003096 248.93826 323.83054
315.0 0.003175 248.92381 312.98383
323.0 0.003096 248.90939 305.33493
288.0 0.003472 248.89494 301.00012
309.0 0.003236 248.88042 299.41037
322.0 0.003106 248.86595 299.97961
277.0 0.00361 248.85139 302.48984
307.0 0.003257 248.83678 305.92035
339.0 0.002950 248.82217 310.19946
303.0 0.003300 248.80756 315.43100
338.0 0.002959 248.79294 320.77600
335.0 0.002985 248.77826 324.57498
338.0 0.002959 248.76357 324.46689
310.0 0.003226 248.74886 320.11069
318.0 0.003145 248.73404 312.77197
336.0 0.002976 248.71931 304.40656
300.0 0.003333 248.70447 296.46674
292.0 0.003425 248.68962 290.12671
311.0 0.003215 248.67480 286.00980
292.0 0.003425 248.65991 283.51764
289.0 0.003460 248.64502 282.58337
286.0 0.003497 248.63007 283.06058
296.0 0.003378 248.61514 284.66031
324.0 0.003086 248.60017 287.05289
306.0 0.003268 248.58517 290.25714
289.0 0.003460 248.57019 294.33231
284.0 0.00352 248.55511 298.69345
314.0 0.003185 248.54005 303.12256
319.0 0.003135 248.52498 306.41052
330.0 0.003030 248.50983 308.46307
337.0 0.002967 248.49467 309.83157
338.0 0.002959 248.47954 311.34302
313.0 0.003195 248.46436 313.20724
304.0 0.003289 248.44917 315.46307
320.0 0.003125 248.43391 317.08752
348.0 0.002874 248.41872 317.77307
346.0 0.002890 248.40343 317.72415
343.0 0.002915 248.38815 318.53226
352.0 0.002841 248.37286 321.61072
331.0 0.003021 248.35753 328.09067
329.0 0.003040 248.34219 338.98422
376.0 0.002660 248.32683 355.32581
423.0 0.002364 248.31145 378.64908
455.0 0.002198 248.29604 410.21063
514.0 0.001946 248.28061 453.40036
567.0 0.001764 248.26515 510.39096
613.0 0.001631 248.24969 581.81653
712.0 0.001404 248.23421 662.92242
802.0 0.001247 248.21872 741.25336
794.0 0.001259 248.20320 797.36188
805.0 0.001242 248.18773 812.71729
733.0 0.001364 248.17213 786.84540
639.0 0.001565 248.15656 732.68024
604.0 0.001656 248.14101 664.46173
504.0 0.001984 248.12537 594.44287
452.0 0.002212 248.10979 533.88165
433.0 0.002309 248.09410 489.72144
425.0 0.002353 248.07846 465.08301
432.0 0.002315 248.06284 460.88226
473.0 0.002114 248.04712 477.36588
502.0 0.001992 248.03145 515.35840
545.0 0.001835 248.01572 575.39392
680.0 0.001471 247.99998 655.31256
804.0 0.001244 247.98425 747.75732
880.0 0.001136 247.96851 836.70453
933.0 0.001072 247.95274 896.89740
923.0 0.001083 247.93695 907.56512
808.0 0.001238 247.92116 869.68219
732.0 0.001366 247.90535 802.24121
630.0 0.001587 247.88953 722.88843
564.0 0.001773 247.87367 643.24664
528.0 0.001894 247.85782 570.27148
444.0 0.002252 247.84193 508.56680
393.0 0.002545 247.82610 461.09195
415.0 0.002410 247.81021 428.95044
401.0 0.002494 247.79434 412.06277
425.0 0.002353 247.77843 409.46548
392.0 0.002551 247.76247 420.09808
409.0 0.002445 247.74655 442.00467
470.0 0.002128 247.73064 471.90784
518.0 0.001931 247.71465 503.70035
549.0 0.001821 247.69868 528.20166
579.0 0.001727 247.68268 535.69519
552.0 0.001812 247.66672 525.44946
497.0 0.002012 247.65077 504.90851
465.0 0.002151 247.63478 483.49222
456.0 0.002193 247.61868 466.93253
447.0 0.002237 247.60269 457.66534
450.0 0.002222 247.58667 455.72504
479.0 0.002088 247.57062 459.67819
494.0 0.002024 247.55460 466.45538
478.0 0.002092 247.53851 472.26227
471.0 0.002123 247.52245 474.39352
485.0 0.002062 247.50641 473.09573
486.0 0.002058 247.49030 472.37943
481.0 0.002079 247.47423 477.87280
515.0 0.001942 247.45816 493.09171
548.0 0.001825 247.44203 516.13135
540.0 0.001852 247.42595 541.18433
550.0 0.001818 247.40985 557.56470
526.0 0.001901 247.39375 554.96490
493.0 0.002028 247.37756 532.70685
472.0 0.002119 247.36148 500.12567
430.0 0.002326 247.34540 468.12949
402.0 0.002488 247.32921 443.39200
411.0 0.002433 247.31310 428.47473
399.0 0.002506 247.29695 422.74777
457.0 0.002188 247.28078 423.81134
406.0 0.002463 247.26468 428.78015
461.0 0.002169 247.24849 435.54626
455.0 0.002198 247.23233 444.23853
480.0 0.002083 247.21619 456.77948
509.0 0.001965 247.20004 474.43262
510.0 0.001961 247.18385 495.03882
498.0 0.002008 247.16771 511.81586
527.0 0.001898 247.15154 517.00769
492.0 0.002033 247.13538 506.17978
439.0 0.002278 247.11919 480.83868
438.0 0.002283 247.10303 447.61383
416.0 0.002404 247.08688 414.13840
375.0 0.002667 247.07068 385.89304
378.0 0.002646 247.05452 365.55542
400.0 0.002500 247.03835 353.85532
357.0 0.002801 247.02217 350.89764
415.0 0.002410 247.00603 356.25452
380.0 0.002632 246.98988 369.33319
416.0 0.002404 246.97366 389.16580
469.0 0.002132 246.95752 414.74149
523.0 0.001912 246.94136 444.54944
542.0 0.001845 246.92517 474.25693
516.0 0.001938 246.90904 495.97385
503.0 0.001988 246.89287 499.85135
503.0 0.001988 246.87671 483.75336
429.0 0.002331 246.86058 453.94113
423.0 0.002364 246.84441 420.18130
414.0 0.002415 246.82828 390.12122
380.0 0.002632 246.81213 367.11151
354.0 0.002825 246.79597 352.43671
336.0 0.002976 246.77989 345.46338
343.0 0.002915 246.76373 345.06378
333.0 0.003003 246.74763 348.76776
356.0 0.002809 246.73151 354.55130
351.0 0.002849 246.71538 361.04761
358.0 0.002793 246.69931 368.63925
365.0 0.002740 246.68318 378.64734
396.0 0.002525 246.66707 391.50601
421.0 0.002375 246.65102 405.19910
429.0 0.002331 246.63490 415.50391
422.0 0.002370 246.61887 419.49277
401.0 0.002494 246.60281 415.22040
386.0 0.002591 246.58675 404.33673
378.0 0.002646 246.57068 390.35175
360.0 0.002778 246.55464 376.59515
351.0 0.002849 246.53860 366.11078
361.0 0.002770 246.52257 361.05371
374.0 0.002674 246.50662 362.98947
368.0 0.002717 246.49055 373.21237
398.0 0.002513 246.47456 391.91071
423.0 0.002364 246.45862 419.00259
447.0 0.002237 246.44263 453.73801
532.0 0.001880 246.42662 494.17075
554.0 0.001805 246.41071 535.43976
590.0 0.001695 246.39473 568.40546
574.0 0.001742 246.37883 582.92010
583.0 0.001715 246.36290 575.49493
527.0 0.001898 246.34705 550.20386
492.0 0.002033 246.33110 516.17017
438.0 0.002283 246.31523 482.69284
427.0 0.002342 246.29933 456.57581
430.0 0.002326 246.28351 442.13959
443.0 0.002257 246.26765 442.06525
479.0 0.002088 246.25183 457.50958
524.0 0.001908 246.23596 488.18427
539.0 0.001855 246.22021 531.92395
626.0 0.001597 246.20441 583.85089
693.0 0.001443 246.18861 637.66736
709.0 0.001410 246.17288 686.67114
822.0 0.001217 246.15715 722.78894
763.0 0.001311 246.14142 736.80420
687.0 0.001456 246.12567 723.62952
685.0 0.001460 246.11003 685.61566
620.0 0.001613 246.09435 629.49561
511.0 0.001957 246.07866 566.34186
453.0 0.002208 246.06303 506.03964
458.0 0.002183 246.04739 455.48474
409.0 0.002445 246.03177 418.07330
376.0 0.002660 246.01616 394.16205
375.0 0.002667 246.00058 382.95081
348.0 0.002874 245.98505 382.83377
386.0 0.002591 245.96948 391.89401
417.0 0.002398 245.95401 407.37387
440.0 0.002273 245.93846 425.97928
452.0 0.002212 245.92300 444.08588
474.0 0.002110 245.90753 458.59613
478.0 0.002092 245.89209 466.47794
466.0 0.002146 245.87669 465.34085
451.0 0.002217 245.86127 455.89676
446.0 0.002242 245.84587 442.52460
447.0 0.002237 245.83054 428.86819
416.0 0.002404 245.81519 418.56039
402.0 0.002488 245.79990 413.06213
386.0 0.002591 245.78456 411.72501
398.0 0.002513 245.76932 412.26611
394.0 0.002538 245.75406 413.00595
397.0 0.002519 245.73885 414.85855
414.0 0.002415 245.72362 419.81152
421.0 0.002375 245.70847 428.50595
421.0 0.002375 245.69331 439.51050
435.0 0.002299 245.67818 449.73193
458.0 0.002183 245.66306 454.88086
466.0 0.002146 245.64796 451.89276
437.0 0.002288 245.63290 442.87650
434.0 0.002304 245.61787 433.65765
443.0 0.002257 245.60291 431.12430
456.0 0.002193 245.58788 438.82718
474.0 0.002110 245.57291 458.03070
511.0 0.001957 245.55798 486.98016
539.0 0.001855 245.54314 520.82147
553.0 0.001808 245.52823 551.85193
569.0 0.001757 245.51337 572.64227
594.0 0.001684 245.49857 578.56171
580.0 0.001724 245.48375 568.35052
557.0 0.001795 245.46898 544.96875
501.0 0.001996 245.45427 515.34668
458.0 0.002183 245.43958 486.21036
450.0 0.002222 245.42487 460.89877
411.0 0.002433 245.41020 439.24850
405.0 0.002469 245.39558 419.82272
377.0 0.002653 245.38100 402.34482
396.0 0.002525 245.36644 387.95657
388.0 0.002577 245.35193 378.27234
370.0 0.002703 245.33740 374.28378
372.0 0.002688 245.32294 376.75897
396.0 0.002525 245.30849 385.24332
402.0 0.002488 245.29407 397.68253
437.0 0.002288 245.27972 410.87973
423.0 0.002364 245.26538 421.49741
459.0 0.002179 245.25105 427.13043
409.0 0.002445 245.23677 425.30447
427.0 0.002342 245.22253 415.24783
420.0 0.002381 245.20831 398.71960
372.0 0.002688 245.19414 379.24628
339.0 0.002950 245.18001 360.42953
332.0 0.003012 245.16588 344.18802
295.0 0.003390 245.15181 330.59427
309.0 0.003236 245.13779 319.57712
292.0 0.003425 245.12376 310.10779
269.0 0.00372 245.10979 302.24518
304.0 0.003289 245.09587 295.85895
294.0 0.003401 245.08199 291.35507
262.0 0.00382 245.06808 288.59470
282.0 0.00355 245.05426 287.91559
314.0 0.003185 245.04045 289.49124
314.0 0.003185 245.02672 293.55280
308.0 0.003247 245.01299 300.41486
321.0 0.003115 244.99930 309.85507
331.0 0.003021 244.98567 321.73349
332.0 0.003012 244.97206 335.87164
337.0 0.002967 244.95851 351.77786
343.0 0.002915 244.94499 368.50003
376.0 0.002660 244.93149 384.49295
392.0 0.002551 244.91800 395.23203
384.0 0.002604 244.90463 396.66269
371.0 0.002695 244.89124 388.65448
350.0 0.002857 244.87791 374.76990
362.0 0.002762 244.86456 359.25592
350.0 0.002857 244.85135 344.30713
330.0 0.003030 244.83812 330.61612
319.0 0.003135 244.82500 318.36331
303.0 0.003300 244.81184 308.33307
312.0 0.003205 244.79878 301.40979
284.0 0.00352 244.78574 298.01459
309.0 0.003236 244.77272 298.45380
329.0 0.003040 244.75978 302.71790
306.0 0.003268 244.74687 310.85016
315.0 0.003175 244.73398 322.16315
326.0 0.003067 244.72116 335.50171
346.0 0.002890 244.70836 348.55435
344.0 0.002907 244.69560 357.60178
359.0 0.002786 244.68292 359.67197
360.0 0.002778 244.67027 354.13651
348.0 0.002874 244.65762 343.93002
319.0 0.003135 244.64510 332.44464
325.0 0.003077 244.63263 321.93320
314.0 0.003185 244.62009 313.33524
313.0 0.003195 244.60768 307.24039
319.0 0.003135 244.59526 303.93030
319.0 0.003135 244.58296 304.20389
282.0 0.00355 244.57071 308.30811
333.0 0.003003 244.55847 316.58685
329.0 0.003040 244.54623 328.38919
329.0 0.003040 244.53410 342.61768
345.0 0.002899 244.52200 357.72070
355.0 0.002817 244.50996 370.82904
387.0 0.002584 244.49791 380.42676
420.0 0.002381 244.48599 385.33475
413.0 0.002421 244.47408 384.17795
371.0 0.002695 244.46225 376.00204
386.0 0.002591 244.45047 362.03134
338.0 0.002959 244.43869 345.72330
313.0 0.003195 244.42700 330.29813
310.0 0.003226 244.41533 317.89133
296.0 0.003378 244.40372 308.86121
261.0 0.00383 244.39220 303.45352
272.0 0.00368 244.38068 301.02527
286.0 0.003497 244.36926 301.07922
301.0 0.003322 244.35782 303.39621
322.0 0.003106 244.34651 307.64285
331.0 0.003021 244.33521 313.57932
328.0 0.003049 244.32394 321.26077
334.0 0.002994 244.31277 330.08511
335.0 0.002985 244.30164 339.75812
368.0 0.002717 244.29057 350.52805
382.0 0.002618 244.27954 362.67017
389.0 0.002571 244.26857 375.73322
391.0 0.002558 244.25764 388.92780
417.0 0.002398 244.24680 401.62500
423.0 0.002364 244.23598 412.05161
416.0 0.002404 244.22522 417.20663
420.0 0.002381 244.21451 414.33704
421.0 0.002375 244.20390 404.84348
409.0 0.002445 244.19330 392.25583
386.0 0.002591 244.18277 380.00006
383.0 0.002611 244.17232 369.64008
371.0 0.002695 244.16187 362.03360
344.0 0.002907 244.15150 358.43100
322.0 0.003106 244.14124 360.14841
331.0 0.003021 244.13092 367.89853
373.0 0.002681 244.12079 381.15839
398.0 0.002513 244.11063 398.08713
430.0 0.002326 244.10056 415.12982
432.0 0.002315 244.09055 428.35403
415.0 0.002410 244.08055 435.95016
421.0 0.002375 244.07069 438.95920
421.0 0.002375 244.06087 438.53339
396.0 0.002525 244.05109 433.75613
408.0 0.002451 244.04137 423.09998
378.0 0.002646 244.03171 406.67221
366.0 0.002732 244.02213 387.72528
357.0 0.002801 244.01262 369.72000
329.0 0.003040 244.00314 354.75333
306.0 0.003268 243.99371 343.57443
310.0 0.003226 243.98438 336.53439
308.0 0.003247 243.97508 333.80383
322.0 0.003106 243.96582 336.06296
325.0 0.003077 243.95670 342.86804
317.0 0.003155 243.94760 353.28717
334.0 0.002994 243.93852 365.81085
387.0 0.002584 243.92955 378.00989
374.0 0.002674 243.92064 387.82449
440.0 0.002273 243.91182 394.67691
406.0 0.002463 243.90303 399.62000
411.0 0.002433 243.89429 403.87808
373.0 0.002681 243.88567 408.63879
416.0 0.002404 243.87706 415.73282
428.0 0.002336 243.86853 427.26813
459.0 0.002179 243.86005 444.34625
439.0 0.002278 243.85161 466.25323
518.0 0.001931 243.84335 490.53409
544.0 0.001838 243.83508 514.55389
601.0 0.001664 243.82687 535.92548
571.0 0.001751 243.81879 553.11273
575.0 0.001739 243.81071 565.62097
566.0 0.001767 243.80269 575.44403
603.0 0.001658 243.79478 584.45880
625.0 0.001600 243.78690 591.82098
606.0 0.001650 243.77913 594.84363
596.0 0.001678 243.77136 592.54425
600.0 0.001667 243.76372 586.42462
588.0 0.001701 243.75610 577.98114
554.0 0.001805 243.74863 567.38141
564.0 0.001773 243.74118 554.48694
542.0 0.001845 243.73376 540.46826
517.0 0.001934 243.72649 526.91815
482.0 0.002075 243.71924 514.12170
470.0 0.002128 243.71207 501.99704
472.0 0.002119 243.70497 490.91339
460.0 0.002174 243.69792 481.91843
472.0 0.002119 243.69098 475.56885
486.0 0.002058 243.68404 471.98862
492.0 0.002033 243.67726 471.40298
484.0 0.002066 243.67050 474.90356
501.0 0.001996 243.66383 482.99112
539.0 0.001855 243.65723 494.55682
529.0 0.001890 243.65068 507.21329
512.0 0.001953 243.64423 518.91254
534.0 0.001873 243.63788 527.36023
527.0 0.001898 243.63156 529.09064
527.0 0.001898 243.62531 521.55078
538.0 0.001859 243.61911 505.53946
498.0 0.002008 243.61304 484.70795
448.0 0.002232 243.60703 462.17444
435.0 0.002299 243.60109 438.98187
414.0 0.002415 243.59520 415.50919
413.0 0.002421 243.58940 392.96121
369.0 0.002710 243.58371 373.50769
353.0 0.002833 243.57800 358.71725
348.0 0.002874 243.57246 348.95972
352.0 0.002841 243.56696 343.75098
366.0 0.002732 243.56157 341.83374
350.0 0.002857 243.55621 341.52426
336.0 0.002976 243.55099 342.28555
360.0 0.002778 243.54578 343.74493
345.0 0.002899 243.54063 345.98495
332.0 0.003012 243.53564 348.27881
354.0 0.002825 243.53065 349.18427
357.0 0.002801 243.52579 347.81537
336.0 0.002976 243.52095 344.68106
359.0 0.002786 243.51622 341.31418
357.0 0.002801 243.51161 338.50977
345.0 0.002899 243.50705 335.95609
355.0 0.002817 243.50255 332.44611
332.0 0.003012 243.49811 327.10449
323.0 0.003096 243.49382 320.59628
329.0 0.003040 243.48953 313.91187
286.0 0.003497 243.48537 307.96268
291.0 0.003436 243.48126 303.15646
306.0 0.003268 243.47728 299.18298
294.0 0.003401 243.47336 295.79770
284.0 0.00352 243.46950 292.53058
282.0 0.00355 243.46568 289.57339
278.0 0.00360 243.46202 287.36859
255.0 0.00392 243.45840 286.33151
305.0 0.003279 243.45490 286.86398
287.0 0.003484 243.45145 289.36703
286.0 0.003497 243.44809 294.21481
323.0 0.003096 243.44482 301.87225
312.0 0.003205 243.44160 312.90063
341.0 0.002933 243.43852 327.54846
352.0 0.002841 243.43546 345.90643
393.0 0.002545 243.43250 367.43106
421.0 0.002375 243.42964 391.29688
456.0 0.002193 243.42685 415.72198
476.0 0.002101 243.42413 437.31927
457.0 0.002188 243.42152 451.98267
429.0 0.002331 243.41899 457.48840
448.0 0.002232 243.41653 456.22348
477.0 0.002096 243.41422 453.16238
467.0 0.002141 243.41188 452.63324
467.0 0.002141 243.40970 456.48111
498.0 0.002008 243.40761 463.63443
498.0 0.002008 243.40558 470.00592
498.0 0.002008 243.40364 469.49066
506.0 0.001976 243.40178 459.07556
444.0 0.002252 243.40002 440.32288
412.0 0.002427 243.39832 418.58087
387.0 0.002584 243.39671 398.66522
380.0 0.002632 243.39520 383.35031
399.0 0.002506 243.39380 374.01126
387.0 0.002584 243.39246 370.66425
380.0 0.002632 243.39125 372.06616
364.0 0.002747 243.39006 376.26425
367.0 0.002725 243.38902 380.31479
381.0 0.002625 243.38803 382.57654
380.0 0.002632 243.38713 383.33115
389.0 0.002571 243.38629 384.71957
387.0 0.002584 243.38560 389.33331
395.0 0.002532 243.38495 398.26895
415.0 0.002410 243.38441 411.26401
443.0 0.002257 243.38397 426.03329
461.0 0.002169 243.38364 438.69897
452.0 0.002212 243.38333 445.78653
459.0 0.002179 243.38313 445.26074
446.0 0.002242 243.38306 436.75388
406.0 0.002463 243.38301 421.09015
365.0 0.002740 243.38310 401.03430
358.0 0.002793 243.38327 379.63617
322.0 0.003106 243.38354 359.97702
338.0 0.002959 243.38393 343.63696
317.0 0.003155 243.38437 330.92578
331.0 0.003021 243.38486 322.36801
314.0 0.003185 243.38551 316.83847
293.0 0.003413 243.38623 314.86389
309.0 0.003236 243.38704 316.87875
331.0 0.003021 243.38795 323.29065
348.0 0.002874 243.38896 334.45627
374.0 0.002674 243.39001 350.42892
400.0 0.002500 243.39124 370.59717
403.0 0.002481 243.39249 393.41367
412.0 0.002427 243.39386 416.06104
441.0 0.002268 243.39531 434.13913
452.0 0.002212 243.39685 443.17853
421.0 0.002375 243.39850 441.16248
394.0 0.002538 243.40022 429.87091
398.0 0.002513 243.40207 413.14035
392.0 0.002551 243.40399 395.11053
375.0 0.002667 243.40601 379.47745
334.0 0.002994 243.40811 368.70551
347.0 0.002882 243.41031 363.92520
355.0 0.002817 243.41263 365.45291
399.0 0.002506 243.41501 372.32611
414.0 0.002415 243.41751 383.29901
397.0 0.002519 243.42009 396.07950
387.0 0.002584 243.42281 407.51672
406.0 0.002463 243.42558 415.37912
417.0 0.002398 243.42848 420.17596
434.0 0.002304 243.43137 424.86545
438.0 0.002283 243.43445 432.33350
450.0 0.002222 243.43761 443.66208
460.0 0.002174 243.44086 458.11746
472.0 0.002119 243.44423 473.93616
504.0 0.001984 243.44768 488.94101
518.0 0.001931 243.45123 499.90616
543.0 0.001842 243.45485 502.91608
513.0 0.001949 243.45859 496.40167
450.0 0.002222 243.46248 481.97336
426.0 0.002347 243.46638 463.52692
432.0 0.002315 243.47044 444.36960
391.0 0.002558 243.47453 426.21228
355.0 0.002817 243.47879 409.81668
361.0 0.002770 243.48309 395.85913
375.0 0.002667 243.48747 384.07520
346.0 0.002890 243.49203 373.51755
343.0 0.002915 243.49661 363.62622
338.0 0.002959 243.50137 355.09314
361.0 0.002770 243.50616 349.42609
365.0 0.002740 243.51108 347.86148
372.0 0.002688 243.51608 351.13660
359.0 0.002786 243.52124 359.28137
410.0 0.002439 243.52640 371.57635
406.0 0.002463 243.53175 386.38916
423.0 0.002364 243.53716 401.31213
426.0 0.002347 243.54266 413.84482
424.0 0.002358 243.54828 422.53958
452.0 0.002212 243.55403 427.14529
479.0 0.002088 243.55978 427.66742
445.0 0.002247 243.56570 423.84000
430.0 0.002326 243.57176 414.49988
376.0 0.002660 243.57779 399.84445
374.0 0.002674 243.58405 381.57870
333.0 0.003003 243.59038 362.65640
342.0 0.002924 243.59680 345.57721
326.0 0.003067 243.60330 331.87296
281.0 0.00356 243.60988 322.37863
305.0 0.003279 243.61662 317.38281
330.0 0.003030 243.62340 315.94873
329.0 0.003040 243.63033 317.93356
321.0 0.003115 243.63737 322.65182
336.0 0.002976 243.64452 329.21518
349.0 0.002865 243.65173 336.77563
348.0 0.002874 243.65907 345.10834
331.0 0.003021 243.66647 354.70889
344.0 0.002907 243.67406 365.73566
389.0 0.002571 243.68164 377.77463
405.0 0.002469 243.68944 389.48602
418.0 0.002392 243.69724 398.65109
429.0 0.002331 243.70518 402.23016
409.0 0.002445 243.71321 398.48962
407.0 0.002457 243.72142 388.24973
391.0 0.002558 243.72961 374.50165
348.0 0.002874 243.73798 360.55246
330.0 0.003030 243.74644 348.98999
339.0 0.002950 243.75505 341.24490
350.0 0.002857 243.76369 338.30820
334.0 0.002994 243.77246 340.38293
335.0 0.002985 243.78134 348.03168
358.0 0.002793 243.79030 361.69958
379.0 0.002639 243.79939 381.83487
416.0 0.002404 243.80861 408.81659
468.0 0.002137 243.81789 443.73080
516.0 0.001938 243.82726 486.84503
548.0 0.001825 243.83673 537.49158
610.0 0.001639 243.84637 592.79956
691.0 0.001447 243.85609 647.76575
765.0 0.001307 243.86589 697.62183
795.0 0.001258 243.87582 738.90778
823.0 0.001215 243.88583 768.00226
779.0 0.001284 243.89598 778.25726
766.0 0.001305 243.90620 763.08685
705.0 0.001418 243.91655 722.70520
605.0 0.001653 243.92699 666.00812
572.0 0.001748 243.93756 604.18439
491.0 0.002037 243.94820 545.88550
453.0 0.002208 243.95894 496.28174
427.0 0.002342 243.96986 457.97925
433.0 0.002309 243.98082 432.16122
419.0 0.002387 243.99188 418.68576
447.0 0.002237 244.00308 416.62064
427.0 0.002342 244.01436 424.39569
470.0 0.002128 244.02579 440.23593
501.0 0.001996 244.03728 461.36115
490.0 0.002041 244.04890 484.62369
559.0 0.001789 244.06064 507.26846
517.0 0.001934 244.07245 527.85101
495.0 0.002020 244.08438 546.09619
571.0 0.001751 244.09637 560.60693
583.0 0.001715 244.10857 567.48169
556.0 0.001799 244.12080 561.88519
529.0 0.001890 244.13318 542.12268
510.0 0.001961 244.14563 511.20374
469.0 0.002132 244.15822 474.83258
404.0 0.002475 244.17087 438.08734
391.0 0.002558 244.18370 404.93500
349.0 0.002865 244.19656 377.30054
338.0 0.002959 244.20956 355.94809
320.0 0.003125 244.22270 340.76944
325.0 0.003077 244.23596 331.21008
341.0 0.002933 244.24925 326.24240
329.0 0.003040 244.26270 324.93881
318.0 0.003145 244.27626 326.12311
321.0 0.003115 244.28986 328.72049
329.0 0.003040 244.30365 332.44275
318.0 0.003145 244.31750 336.79602
325.0 0.003077 244.33147 341.56335
344.0 0.002907 244.34560 345.82678
345.0 0.002899 244.35979 348.58597
340.0 0.002941 244.37404 349.06201
323.0 0.003096 244.38846 346.75165
318.0 0.003145 244.40298 342.09061
295.0 0.003390 244.41759 336.32477
300.0 0.003333 244.43234 330.86340
314.0 0.003185 244.44717 326.89877
323.0 0.003096 244.46214 324.94064
327.0 0.003058 244.47717 325.20770
308.0 0.003247 244.49240 327.88409
318.0 0.003145 244.50764 332.95706
325.0 0.003077 244.52303 340.84421
349.0 0.002865 244.53857 352.13156
373.0 0.002681 244.55411 367.61301
401.0 0.002494 244.56982 387.72812
450.0 0.002222 244.58566 412.10352
520.0 0.001923 244.60165 439.23660
545.0 0.001835 244.61763 465.82324
578.0 0.001730 244.63382 487.65530
570.0 0.001754 244.65009 501.60349
555.0 0.001802 244.66640 508.62781
521.0 0.001919 244.68291 512.93829
503.0 0.001988 244.69951 519.47571
496.0 0.002016 244.71620 530.81470
579.0 0.001727 244.73297 546.20789
580.0 0.001724 244.74992 561.14105
571.0 0.001751 244.76694 568.42725
570.0 0.001754 244.78409 561.76294
502.0 0.001992 244.80130 540.55865
454.0 0.002203 244.81865 510.09995
451.0 0.002217 244.83612 477.51825
395.0 0.002532 244.85370 448.15152
446.0 0.002242 244.87140 425.36725
372.0 0.002688 244.88918 410.52722
350.0 0.002857 244.90712 403.40073
378.0 0.002646 244.92508 402.66565
410.0 0.002439 244.94324 405.63321
420.0 0.002381 244.96140 409.17310
420.0 0.002381 244.97978 410.74033
406.0 0.002463 244.99826 409.91321
420.0 0.002381 245.01680 408.99353
443.0 0.002257 245.03548 410.24081
403.0 0.002481 245.05428 415.48593
424.0 0.002358 245.07317 424.80307
449.0 0.002227 245.09218 436.47690
448.0 0.002232 245.11125 447.02322
461.0 0.002169 245.13048 452.52814
463.0 0.002160 245.14980 450.79944
457.0 0.002188 245.16924 442.31656
428.0 0.002336 245.18880 428.59070
390.0 0.002564 245.20842 411.10254
353.0 0.002833 245.22823 391.33759
347.0 0.002882 245.24812 371.21588
356.0 0.002809 245.26813 352.32730
327.0 0.003058 245.28819 335.74484
302.0 0.003311 245.30844 322.16473
282.0 0.00355 245.32875 310.72897
285.0 0.00351 245.34920 301.67548
285.0 0.00351 245.36971 294.51947
276.0 0.00362 245.39038 289.10623
288.0 0.003472 245.41112 284.88000
281.0 0.00356 245.43201 282.64203
278.0 0.00360 245.45300 281.88232
290.0 0.003448 245.47406 282.50958
270.0 0.00370 245.49527 284.36328
288.0 0.003472 245.51660 287.28128
313.0 0.003195 245.53807 290.85800
326.0 0.003067 245.55960 294.49835
314.0 0.003185 245.58118 297.36377
294.0 0.003401 245.60298 298.56558
302.0 0.003311 245.62482 297.68225
313.0 0.003195 245.64679 294.93604
287.0 0.003484 245.66887 290.95804
288.0 0.003472 245.69102 286.45828
289.0 0.003460 245.71336 282.20334
301.0 0.003322 245.73575 278.65930
289.0 0.003460 245.75829 276.10883
263.0 0.00380 245.78093 274.75266
260.0 0.00385 245.80363 274.71683
308.0 0.003247 245.82652 275.88351
285.0 0.00351 245.84946 278.82950
304.0 0.003289 245.87256 283.34964
294.0 0.003401 245.89574 289.59192
304.0 0.003289 245.91901 297.33804
300.0 0.003333 245.94244 306.25150
325.0 0.003077 245.96593 315.58051
333.0 0.003003 245.98955 324.01141
357.0 0.002801 246.01326 330.27640
318.0 0.003145 246.03708 332.88196
337.0 0.002967 246.06107 332.00140
316.0 0.003165 246.08514 328.37289
293.0 0.003413 246.10930 323.28345
299.0 0.003344 246.13358 318.04654
329.0 0.003040 246.15793 313.65677
298.0 0.003356 246.18245 310.41104
319.0 0.003135 246.20705 308.12518
316.0 0.003165 246.23177 306.36203
343.0 0.002915 246.25659 304.99771
322.0 0.003106 246.28152 304.57767
314.0 0.003185 246.30659 305.08350
298.0 0.003356 246.33168 307.22394
298.0 0.003356 246.35696 311.18573
341.0 0.002933 246.38234 316.84573
324.0 0.003086 246.40784 323.95239
326.0 0.003067 246.43341 332.10114
343.0 0.002915 246.45912 340.32672
380.0 0.002632 246.48491 347.36514
371.0 0.002695 246.51082 352.17639
343.0 0.002915 246.53685 354.40866
344.0 0.002907 246.56300 355.39496
362.0 0.002762 246.58919 356.90024
367.0 0.002725 246.61555 360.72549
382.0 0.002618 246.64204 368.14178
415.0 0.002410 246.66856 379.55771
427.0 0.002342 246.69528 394.38022
434.0 0.002304 246.72205 410.70041
460.0 0.002174 246.74893 425.24667
466.0 0.002146 246.77591 434.51208
439.0 0.002278 246.80299 435.68921
430.0 0.002326 246.83025 428.81738
438.0 0.002283 246.85759 417.27115
400.0 0.002500 246.88501 405.12070
368.0 0.002717 246.91257 395.60474
407.0 0.002457 246.94017 390.67133
425.0 0.002353 246.96797 390.83588
449.0 0.002227 246.99580 396.59515
448.0 0.002232 247.02377 406.62430
436.0 0.002294 247.05185 419.25763
447.0 0.002237 247.07997 432.64386
451.0 0.002217 247.10832 445.14389
425.0 0.002353 247.13672 455.49100
454.0 0.002203 247.16524 463.15103
475.0 0.002105 247.19386 467.80847
470.0 0.002128 247.22253 470.23346
456.0 0.002193 247.25142 471.65060
502.0 0.001992 247.28030 472.63821
493.0 0.002028 247.30939 472.92548
515.0 0.001942 247.33850 470.32297
470.0 0.002128 247.36774 462.63190
429.0 0.002331 247.39711 449.72623
434.0 0.002304 247.42661 434.19775
400.0 0.002500 247.45616 419.63464
405.0 0.002469 247.48587 409.22311
397.0 0.002519 247.51563 404.40543
413.0 0.002421 247.54550 406.37451
383.0 0.002611 247.57553 415.18652
412.0 0.002427 247.60564 430.18039
462.0 0.002165 247.63586 450.06680
461.0 0.002169 247.66615 473.02722
485.0 0.002062 247.69656 496.45502
538.0 0.001859 247.72710 517.49689
594.0 0.001684 247.75775 533.47742
516.0 0.001938 247.78850 541.19147
536.0 0.001866 247.81932 538.02136
514.0 0.001946 247.85028 523.86151
479.0 0.002088 247.88129 501.89102
425.0 0.002353 247.91249 476.28604
463.0 0.002160 247.94377 450.39471
417.0 0.002398 247.97508 426.01288
363.0 0.002755 248.00662 404.22003
364.0 0.002747 248.03815 386.19305
348.0 0.002874 248.06990 372.83347
334.0 0.002994 248.10165 364.63806
344.0 0.002907 248.13351 361.61954
354.0 0.002825 248.16554 363.15405
356.0 0.002809 248.19759 368.53125
361.0 0.002770 248.22984 376.76056
366.0 0.002732 248.26212 386.45901
400.0 0.002500 248.29454 396.31598
411.0 0.002433 248.32706 405.29340
383.0 0.002611 248.35968 412.68958
409.0 0.002445 248.39240 418.67975
436.0 0.002294 248.42525 423.02792
452.0 0.002212 248.45815 425.53891
440.0 0.002273 248.49120 426.84818
451.0 0.002217 248.52431 429.09280
444.0 0.002252 248.55756 435.21524
439.0 0.002278 248.59090 447.75330
479.0 0.002088 248.62433 468.20380
521.0 0.001919 248.65790 496.95316
541.0 0.001848 248.69154 532.40222
581.0 0.001721 248.72531 571.21912
625.0 0.001600 248.75917 607.53180
660.0 0.001515 248.79308 634.05206
696.0 0.001437 248.82715 644.40082
683.0 0.001464 248.86131 636.22601
609.0 0.001642 248.89555 612.70569
545.0 0.001835 248.92992 580.95831
493.0 0.002028 248.96439 548.57275
473.0 0.002114 248.99898 520.96637
469.0 0.002132 249.03358 501.69110
468.0 0.002137 249.06834 492.20081
500.0 0.002000 249.10318 492.52802
532.0 0.001880 249.13818 501.00876
576.0 0.001736 249.17325 514.01874
614.0 0.001629 249.20839 526.81665
582.0 0.001718 249.24368 534.80865
565.0 0.001770 249.27908 536.28644
541.0 0.001848 249.31451 533.32721
578.0 0.001730 249.35005 529.49677
490.0 0.002041 249.38574 527.24091
508.0 0.001969 249.42155 526.59772
500.0 0.002000 249.45740 525.86572
480.0 0.002083 249.49330 522.30963
522.0 0.001916 249.52940 513.21600
534.0 0.001873 249.56554 497.42966
498.0 0.002008 249.60184 475.83142
431.0 0.002320 249.63818 451.56113
400.0 0.002500 249.67462 428.22406
380.0 0.002632 249.71120 408.54321
375.0 0.002667 249.74782 394.22360
340.0 0.002941 249.78465 385.68198
371.0 0.002695 249.82146 382.68893
381.0 0.002625 249.85838 384.20914
377.0 0.002653 249.89549 388.38248
443.0 0.002257 249.93254 392.54391
427.0 0.002342 249.96982 394.32059
432.0 0.002315 250.00714 392.07828
369.0 0.002710 250.04456 386.26245
376.0 0.002660 250.08209 378.76285
380.0 0.002632 250.11967 371.56778
364.0 0.002747 250.15747 366.08411
363.0 0.002755 250.19530 363.21524
350.0 0.002857 250.23320 363.65506
342.0 0.002924 250.27121 367.90710
374.0 0.002674 250.30930 376.17621
373.0 0.002681 250.34755 387.94577
425.0 0.002353 250.38585 401.95560
432.0 0.002315 250.42418 416.13123
441.0 0.002268 250.46268 427.87036
463.0 0.002160 250.50130 435.19955
469.0 0.002132 250.53990 437.65012
436.0 0.002294 250.57870 435.74606
425.0 0.002353 250.61754 430.91760
444.0 0.002252 250.65657 425.22885
428.0 0.002336 250.69560 420.80957
425.0 0.002353 250.73474 419.14346
432.0 0.002315 250.77400 420.53226
449.0 0.002227 250.81332 423.62903
447.0 0.002237 250.85280 426.21814
417.0 0.002398 250.89229 426.26456
400.0 0.002500 250.93193 423.21365
405.0 0.002469 250.97157 418.44397
411.0 0.002433 251.01138 413.93692
414.0 0.002415 251.05130 411.30499
412.0 0.002427 251.09132 411.41354
400.0 0.002500 251.13136 414.24063
410.0 0.002439 251.17155 418.66003
414.0 0.002415 251.21175 422.71982
419.0 0.002387 251.25215 424.01401
412.0 0.002427 251.29256 421.22839
375.0 0.002667 251.33316 414.44693
384.0 0.002604 251.37376 405.40305
368.0 0.002717 251.41441 395.40384
337.0 0.002967 251.45528 386.05716
351.0 0.002849 251.49614 378.60242
373.0 0.002681 251.53716 374.29391
378.0 0.002646 251.57828 373.77148
364.0 0.002747 251.61935 376.77737
407.0 0.002457 251.66064 382.38684
412.0 0.002427 251.70201 389.24191
419.0 0.002387 251.74350 396.19452
433.0 0.002309 251.78496 402.64648
392.0 0.002551 251.82655 408.45309
399.0 0.002506 251.86829 413.34622
414.0 0.002415 251.91008 416.71738
417.0 0.002398 251.95198 417.60828
400.0 0.002500 251.99396 415.11465
416.0 0.002404 252.03593 408.74423
385.0 0.002597 252.07816 399.27005
348.0 0.002874 252.12035 388.22018
348.0 0.002874 252.16269 377.23602
339.0 0.002950 252.20512 367.82083
335.0 0.002985 252.24756 360.69131
344.0 0.002907 252.29016 355.80356
309.0 0.003236 252.33287 352.47778
341.0 0.002933 252.37563 349.40768
338.0 0.002959 252.41846 345.66666
362.0 0.002762 252.46136 341.14621
328.0 0.003049 252.50439 336.64572
322.0 0.003106 252.54749 333.27777
319.0 0.003135 252.59067 331.64294
302.0 0.003311 252.63394 332.13300
308.0 0.003247 252.67725 335.28192
338.0 0.002959 252.72078 340.52158
346.0 0.002890 252.76427 347.08960
336.0 0.002976 252.80786 354.15546
361.0 0.002770 252.85161 360.62646
382.0 0.002618 252.89534 365.28870
389.0 0.002571 252.93919 366.97528
379.0 0.002639 252.98315 365.25977
368.0 0.002717 253.02718 360.35577
363.0 0.002755 253.07129 353.34982
360.0 0.002778 253.11542 345.81195
333.0 0.003003 253.15973 338.38989
314.0 0.003185 253.20409 332.40207
303.0 0.003300 253.24855 327.54486
309.0 0.003236 253.29308 323.39340
317.0 0.003155 253.33759 319.55679
311.0 0.003215 253.38239 315.75189
292.0 0.003425 253.42712 312.35107
302.0 0.003311 253.47198 309.76050
292.0 0.003425 253.51689 308.35165
300.0 0.003333 253.56186 308.58478
326.0 0.003067 253.60698 310.43735
315.0 0.003175 253.65211 313.66528
316.0 0.003165 253.69742 317.71716
309.0 0.003236 253.74277 321.72601
333.0 0.003003 253.78812 324.75241
330.0 0.003030 253.83365 326.16345
320.0 0.003125 253.87921 325.74664
358.0 0.002793 253.92485 323.54846
328.0 0.003049 253.97063 319.88651
323.0 0.003096 254.01637 315.31528
315.0 0.003175 254.06226 310.32095
318.0 0.003145 254.10823 305.71545
306.0 0.003268 254.15430 301.28815
291.0 0.003436 254.20041 297.28036
309.0 0.003236 254.24660 293.49301
276.0 0.00362 254.29283 290.16058
263.0 0.00380 254.33917 287.48929
258.0 0.00388 254.38562 285.45105
283.0 0.00353 254.43213 284.11865
288.0 0.003472 254.47870 283.49194
294.0 0.003401 254.52536 283.58572
289.0 0.003460 254.57211 284.34634
268.0 0.00373 254.61894 285.62845
307.0 0.003257 254.66579 287.05502
283.0 0.00353 254.71271 288.54532
302.0 0.003311 254.75975 289.67908
281.0 0.00356 254.80688 290.28516
286.0 0.003497 254.85408 290.77731
262.0 0.00382 254.90132 291.40140
311.0 0.003215 254.94862 292.43018
323.0 0.003096 254.99609 293.93478
314.0 0.003185 255.04353 295.77374
322.0 0.003106 255.09109 297.58521
313.0 0.003195 255.13873 298.71957
306.0 0.003268 255.18637 299.07285
270.0 0.00370 255.23419 298.58670
303.0 0.003300 255.28201 297.60867
298.0 0.003356 255.32994 296.86398
301.0 0.003322 255.37791 297.04480
302.0 0.003311 255.42592 298.63708
308.0 0.003247 255.47415 301.99307
318.0 0.003145 255.52229 307.31781
342.0 0.002924 255.57060 314.56470
359.0 0.002786 255.61896 323.60825
357.0 0.002801 255.66731 333.94437
342.0 0.002924 255.71579 344.55423
367.0 0.002725 255.76437 353.89023
383.0 0.002611 255.81303 360.46777
358.0 0.002793 255.86171 363.02731
362.0 0.002762 255.91048 361.95831
364.0 0.002747 255.95932 358.70853
345.0 0.002899 256.00815 355.00674
347.0 0.002882 256.05716 352.20282
348.0 0.002874 256.10623 351.17670
349.0 0.002865 256.15530 352.26785
355.0 0.002817 256.20447 355.66092
371.0 0.002695 256.25369 360.99695
387.0 0.002584 256.30307 367.78354
374.0 0.002674 256.35248 375.45941
371.0 0.002695 256.40186 383.19644
407.0 0.002457 256.45142 390.01334
408.0 0.002451 256.50095 395.49240
412.0 0.002427 256.55063 399.55432
411.0 0.002433 256.60034 402.68262
400.0 0.002500 256.65005 405.28345
412.0 0.002427 256.69995 407.76199
419.0 0.002387 256.74982 410.56268
430.0 0.002326 256.79984 414.23599
441.0 0.002268 256.84988 419.03384
460.0 0.002174 256.89993 424.82782
453.0 0.002208 256.95010 431.07767
480.0 0.002083 257.00037 437.35712
444.0 0.002252 257.05066 442.34293
474.0 0.002110 257.10104 444.09473
454.0 0.002203 257.15137 440.95392
394.0 0.002538 257.20190 432.81967
426.0 0.002347 257.25244 421.42023
421.0 0.002375 257.30307 409.11212
352.0 0.002841 257.35376 397.78299
364.0 0.002747 257.40442 388.54190
343.0 0.002915 257.45529 381.46463
369.0 0.002710 257.50610 376.31625
349.0 0.002865 257.55710 372.71344
372.0 0.002688 257.60806 370.27515
370.0 0.002703 257.65906 368.85226
344.0 0.002907 257.71017 368.72546
372.0 0.002688 257.76138 369.75165
385.0 0.002597 257.81259 372.01605
376.0 0.002660 257.86389 375.60721
383.0 0.002611 257.91519 380.54892
392.0 0.002551 257.96664 386.68179
385.0 0.002597 258.01810 393.68707
416.0 0.002404 258.06964 401.29404
402.0 0.002488 258.12122 409.07675
427.0 0.002342 258.17282 416.61292
420.0 0.002381 258.22455 423.45560
409.0 0.002445 258.27634 429.49695
446.0 0.002242 258.32816 435.24942
430.0 0.002326 258.38004 441.44479
457.0 0.002188 258.43185 448.57281
489.0 0.002045 258.48395 456.80597
515.0 0.001942 258.53598 466.01068
509.0 0.001965 258.58810 475.57587
497.0 0.002012 258.64029 483.80002
513.0 0.001949 258.69244 488.30112
503.0 0.001988 258.74478 487.08911
486.0 0.002058 258.79706 480.13446
484.0 0.002066 258.84946 469.21561
425.0 0.002353 258.90195 456.16608
423.0 0.002364 258.95438 442.31631
428.0 0.002336 259.00696 427.96375
394.0 0.002538 259.05957 413.44373
364.0 0.002747 259.11224 399.23709
339.0 0.002950 259.16498 386.36282
347.0 0.002882 259.21768 375.64990
360.0 0.002778 259.27048 367.64264
329.0 0.003040 259.32339 362.98434
339.0 0.002950 259.37628 362.05154
396.0 0.002525 259.42929 365.06281
401.0 0.002494 259.48230 372.04971
382.0 0.002618 259.53543 382.77350
384.0 0.002604 259.58853 396.86554
436.0 0.002294 259.64175 413.92728
464.0 0.002155 259.69507 433.28763
478.0 0.002092 259.74829 453.69745
519.0 0.001927 259.80170 473.09128
527.0 0.001898 259.85501 488.32864
512.0 0.001953 259.90848 496.43176
497.0 0.002012 259.96204 495.55103
486.0 0.002058 260.01547 485.91403
489.0 0.002045 260.06915 469.52243
409.0 0.002445 260.12271 448.91550
395.0 0.002532 260.17651 426.54135
407.0 0.002457 260.23029 404.06934
357.0 0.002801 260.28400 382.90460
347.0 0.002882 260.33789 364.06882
279.0 0.00358 260.39185 348.31366
313.0 0.003195 260.44574 335.82620
309.0 0.003236 260.49976 326.54041
289.0 0.003460 260.55371 320.26028
290.0 0.003448 260.60782 316.68042
288.0 0.003472 260.66199 315.52139
289.0 0.003460 260.71616 316.51855
297.0 0.003367 260.77039 319.36014
332.0 0.003012 260.82462 323.75525
336.0 0.002976 260.87897 329.30951
342.0 0.002924 260.93332 335.86566
343.0 0.002915 260.98776 342.71600
362.0 0.002762 261.04227 348.98944
371.0 0.002695 261.09671 353.61728
364.0 0.002747 261.15131 355.77713
366.0 0.002732 261.20593 355.36334
354.0 0.002825 261.26056 353.15945
337.0 0.002967 261.31522 350.37851
318.0 0.003145 261.37000 348.13638
339.0 0.002950 261.42474 347.09232
350.0 0.002857 261.47961 347.53809
344.0 0.002907 261.53442 349.51846
352.0 0.002841 261.58932 352.69714
385.0 0.002597 261.64429 356.72247
375.0 0.002667 261.69931 360.62173
369.0 0.002710 261.75436 363.12485
366.0 0.002732 261.80942 362.96292
376.0 0.002660 261.86453 359.75388
345.0 0.002899 261.91974 354.04071
329.0 0.003040 261.97495 347.14453
349.0 0.002865 262.03015 340.23697
349.0 0.002865 262.08551 334.54904
323.0 0.003096 262.14081 330.81100
313.0 0.003195 262.19614 329.65878
321.0 0.003115 262.25159 331.24579
326.0 0.003067 262.30698 335.85147
381.0 0.002625 262.36255 343.48309
390.0 0.002564 262.41812 353.90814
390.0 0.002564 262.47366 366.59354
428.0 0.002336 262.52930 380.62762
470.0 0.002128 262.58490 394.48984
431.0 0.002320 262.64069 406.29630
399.0 0.002506 262.69647 414.25769
399.0 0.002506 262.75217 417.40054
424.0 0.002358 262.80798 416.25266
450.0 0.002222 262.86386 412.13736
426.0 0.002347 262.91974 406.43262
430.0 0.002326 262.97571 399.55008
375.0 0.002667 263.03165 391.81769
372.0 0.002688 263.08765 383.49374
354.0 0.002825 263.14365 375.37503
311.0 0.003215 263.19977 368.33545
332.0 0.003012 263.25589 363.42493
351.0 0.002849 263.31201 361.17358
372.0 0.002688 263.36826 361.77863
364.0 0.002747 263.42453 365.05835
355.0 0.002817 263.48080 370.49066
405.0 0.002469 263.53711 377.00143
408.0 0.002451 263.59338 383.49405
440.0 0.002273 263.64981 389.07959
364.0 0.002747 263.70621 393.42880
415.0 0.002410 263.76263 396.70822
371.0 0.002695 263.81909 399.06717
390.0 0.002564 263.87561 400.38937
372.0 0.002688 263.93222 400.46277
394.0 0.002538 263.98874 399.31439
383.0 0.002611 264.04547 397.34259
411.0 0.002433 264.10208 395.24371
417.0 0.002398 264.15872 393.42813
394.0 0.002538 264.21555 391.81412
365.0 0.002740 264.27219 389.68771
381.0 0.002625 264.32904 386.84979
352.0 0.002841 264.38589 383.34372
363.0 0.002755 264.44269 380.13730
368.0 0.002717 264.49966 378.25467
367.0 0.002725 264.55655 378.92905
344.0 0.002907 264.61349 382.74741
386.0 0.002591 264.67050 389.93802
402.0 0.002488 264.72745 400.26654
409.0 0.002445 264.78452 413.00208
449.0 0.002227 264.84161 427.06573
472.0 0.002119 264.89877 441.08139
470.0 0.002128 264.95593 454.02521
492.0 0.002033 265.01309 465.72305
511.0 0.001957 265.07025 476.29102
508.0 0.001969 265.12750 486.04041
529.0 0.001890 265.18478 494.31232
526.0 0.001901 265.24216 500.61508
516.0 0.001938 265.29941 505.07394
525.0 0.001905 265.35684 508.27121
508.0 0.001969 265.41418 510.68097
529.0 0.001890 265.47168 511.93011
533.0 0.001876 265.52911 510.69165
509.0 0.001965 265.58658 505.94836
496.0 0.002016 265.64410 497.43521
517.0 0.001934 265.70157 486.17221
469.0 0.002132 265.75925 473.91754
435.0 0.002299 265.81680 462.29395
461.0 0.002169 265.87442 452.17896
471.0 0.002123 265.93210 443.79166
408.0 0.002451 265.98969 437.18176
412.0 0.002427 266.04755 432.32297
372.0 0.002688 266.10526 429.08298
387.0 0.002584 266.16293 427.15268
424.0 0.002358 266.22076 426.29718
396.0 0.002525 266.27856 426.46368
434.0 0.002304 266.33643 427.83926
442.0 0.002262 266.39435 430.25052
434.0 0.002304 266.45215 433.34152
500.0 0.002000 266.51013 436.07480
443.0 0.002257 266.56805 437.55737
437.0 0.002288 266.62613 437.15482
429.0 0.002331 266.68411 434.74344
438.0 0.002283 266.74213 430.43140
460.0 0.002174 266.80017 424.47256
433.0 0.002309 266.85828 417.03284
427.0 0.002342 266.91644 408.43695
390.0 0.002564 266.97458 399.20013
381.0 0.002625 267.03268 390.12814
381.0 0.002625 267.09085 381.72385
355.0 0.002817 267.14902 374.42886
374.0 0.002674 267.20737 368.21176
358.0 0.002793 267.26569 362.84128
356.0 0.002809 267.32391 358.02896
349.0 0.002865 267.38223 353.57730
330.0 0.003030 267.44058 349.21292
313.0 0.003195 267.49890 344.98474
335.0 0.002985 267.55731 341.41766
353.0 0.002833 267.61569 338.25027
303.0 0.003300 267.67413 335.97885
361.0 0.002770 267.73257 335.01544
340.0 0.002941 267.79114 334.86093
321.0 0.003115 267.84967 335.52124
353.0 0.002833 267.90811 336.74557
359.0 0.002786 267.96671 338.31171
331.0 0.003021 268.02524 340.29675
335.0 0.002985 268.08395 342.94553
358.0 0.002793 268.14249 346.78271
382.0 0.002618 268.20114 352.24496
386.0 0.002591 268.25986 359.57867
411.0 0.002433 268.31851 368.71634
448.0 0.002232 268.37726 379.26651
464.0 0.002155 268.43604 390.87183
456.0 0.002193 268.49466 402.62064
440.0 0.002273 268.55353 413.64160
424.0 0.002358 268.61227 422.97461
441.0 0.002268 268.67120 429.42810
450.0 0.002222 268.73001 432.35461
403.0 0.002481 268.78879 431.43619
379.0 0.002639 268.84778 427.02426
393.0 0.002545 268.90662 420.52341
372.0 0.002688 268.96558 413.99939
380.0 0.002632 269.02457 408.98099
409.0 0.002445 269.08347 406.88950
407.0 0.002457 269.14255 408.53012
395.0 0.002532 269.20151 413.60989
428.0 0.002336 269.26062 421.78564
458.0 0.002183 269.31967 432.14349
485.0 0.002062 269.37869 443.91086
464.0 0.002155 269.43781 456.15228
496.0 0.002016 269.49692 467.77710
488.0 0.002049 269.55606 477.51575
509.0 0.001965 269.61533 484.26746
512.0 0.001953 269.67441 486.99591
493.0 0.002028 269.73361 486.08081
486.0 0.002058 269.79279 481.92950
475.0 0.002105 269.85208 474.89850
467.0 0.002141 269.91138 465.44040
469.0 0.002132 269.97064 454.24759
451.0 0.002217 270.02994 442.02173
439.0 0.002278 270.08926 429.33423
414.0 0.002415 270.14862 416.69882
391.0 0.002558 270.20801 404.65295
385.0 0.002597 270.26733 393.87024
368.0 0.002717 270.32675 385.08340
360.0 0.002778 270.38614 378.91287
374.0 0.002674 270.44559 375.52884
379.0 0.002639 270.50510 374.81644
364.0 0.002747 270.56454 376.17044
368.0 0.002717 270.62415 378.92657
363.0 0.002755 270.68353 382.17947
366.0 0.002732 270.74316 385.43463
382.0 0.002618 270.80273 388.19992
420.0 0.002381 270.86224 390.22226
419.0 0.002387 270.92184 391.11362
355.0 0.002817 270.98141 390.57416
371.0 0.002695 271.04108 388.24881
395.0 0.002532 271.10074 384.62634
391.0 0.002558 271.16034 380.05154
369.0 0.002710 271.22006 375.00732
355.0 0.002817 271.27982 369.70959
362.0 0.002762 271.33951 364.74380
370.0 0.002703 271.39926 360.60126
357.0 0.002801 271.45892 357.55887
370.0 0.002703 271.51877 355.72672
394.0 0.002538 271.57855 355.04593
381.0 0.002625 271.63846 355.41837
365.0 0.002740 271.69827 356.83325
372.0 0.002688 271.75803 359.46640
376.0 0.002660 271.81796 363.43793
384.0 0.002604 271.87778 368.79095
390.0 0.002564 271.93777 375.36423
397.0 0.002519 271.99771 382.53152
414.0 0.002415 272.05762 389.69778
420.0 0.002381 272.11761 395.59436
408.0 0.002451 272.17755 398.84869
417.0 0.002398 272.23758 398.26550
415.0 0.002410 272.29758 393.65738
382.0 0.002618 272.35760 385.73364
341.0 0.002933 272.41766 376.02554
346.0 0.002890 272.47775 366.08633
349.0 0.002865 272.53784 356.92606
336.0 0.002976 272.59796 349.27167
321.0 0.003115 272.65802 343.52283
324.0 0.003086 272.71823 340.02295
337.0 0.002967 272.77838 338.46793
362.0 0.002762 272.83853 338.91138
364.0 0.002747 272.89877 341.19876
353.0 0.002833 272.95892 345.16910
368.0 0.002717 273.01920 350.51477
352.0 0.002841 273.07950 357.20218
384.0 0.002604 273.13974 365.15384
384.0 0.002604 273.20004 374.25034
425.0 0.002353 273.26031 384.30734
436.0 0.002294 273.32065 394.98395
434.0 0.002304 273.38104 405.99863
473.0 0.002114 273.44144 417.04404
438.0 0.002283 273.50174 427.87851
451.0 0.002217 273.56210 438.39755
483.0 0.002070 273.62262 448.44168
499.0 0.002004 273.68298 457.97070
519.0 0.001927 273.74350 467.45590
497.0 0.002012 273.80396 477.37988
510.0 0.001961 273.86435 488.31006
545.0 0.001835 273.92493 500.81168
521.0 0.001919 273.98544 515.67676
603.0 0.001658 274.04599 533.90997
552.0 0.001812 274.10660 556.16760
614.0 0.001629 274.16711 582.21826
726.0 0.001377 274.22781 610.53802
723.0 0.001383 274.28833 638.39093
715.0 0.001399 274.34903 662.35309
712.0 0.001404 274.40973 678.92657
779.0 0.001284 274.47031 685.68164
752.0 0.001330 274.53107 682.24139
732.0 0.001366 274.59177 669.39819
674.0 0.001484 274.65256 648.87134
629.0 0.001590 274.71329 622.97681
597.0 0.001675 274.77405 594.49304
540.0 0.001852 274.83487 566.05499
554.0 0.001805 274.89569 540.02985
510.0 0.001961 274.95651 517.93042
468.0 0.002137 275.01740 500.90588
475.0 0.002105 275.07828 489.65033
458.0 0.002183 275.13910 484.36682
471.0 0.002123 275.20004 484.96164
475.0 0.002105 275.26099 490.44470
516.0 0.001938 275.32196 499.84235
538.0 0.001859 275.38290 511.89948
543.0 0.001842 275.44394 525.32214
576.0 0.001736 275.50491 538.80121
577.0 0.001733 275.56601 551.64465
571.0 0.001751 275.62704 563.49609
554.0 0.001805 275.68805 574.27533
575.0 0.001739 275.74924 584.19257
629.0 0.001590 275.81030 592.10077
643.0 0.001555 275.87155 597.18146
619.0 0.001616 275.93262 598.71655
613.0 0.001631 275.99377 596.54102
613.0 0.001631 276.05499 590.82550
612.0 0.001634 276.11621 582.42468
587.0 0.001704 276.17749 572.76947
564.0 0.001773 276.23880 563.55884
540.0 0.001852 276.30002 555.91687
526.0 0.001901 276.36136 550.10144
538.0 0.001859 276.42267 545.27887
563.0 0.001776 276.48407 539.71100
564.0 0.001773 276.54547 531.84070
523.0 0.001912 276.60678 521.38348
504.0 0.001984 276.66824 508.94122
487.0 0.002053 276.72968 495.84366
491.0 0.002037 276.79117 483.27841
431.0 0.002320 276.85266 471.83557
475.0 0.002105 276.91412 461.30679
436.0 0.002294 276.97568 451.09366
445.0 0.002247 277.03726 441.10538
433.0 0.002309 277.09891 431.57153
417.0 0.002398 277.16058 423.27737
432.0 0.002315 277.22211 416.81464
394.0 0.002538 277.28381 412.39377
363.0 0.002755 277.34540 409.97781
405.0 0.002469 277.40723 409.49521
430.0 0.002326 277.46893 410.72473
385.0 0.002597 277.53064 413.41150
386.0 0.002591 277.59241 417.35980
410.0 0.002439 277.65421 422.39880
419.0 0.002387 277.71616 428.39737
431.0 0.002320 277.77798 435.29837
475.0 0.002105 277.83978 442.61340
471.0 0.002123 277.90173 449.89310
475.0 0.002105 277.96365 456.25031
502.0 0.001992 278.02563 460.84021
494.0 0.002024 278.08768 462.99435
472.0 0.002119 278.14966 462.38394
489.0 0.002045 278.21173 458.84189
469.0 0.002132 278.27374 452.41925
474.0 0.002110 278.33585 443.41101
411.0 0.002433 278.39795 432.62909
396.0 0.002525 278.46008 421.22028
387.0 0.002584 278.52228 410.04938
385.0 0.002597 278.58450 399.83679
385.0 0.002597 278.64679 390.83255
386.0 0.002591 278.70895 383.15851
367.0 0.002725 278.77130 376.54980
352.0 0.002841 278.83365 371.19321
381.0 0.002625 278.89594 367.11569
385.0 0.002597 278.95840 364.51685
361.0 0.002770 279.02084 363.79572
372.0 0.002688 279.08316 365.13113
386.0 0.002591 279.14572 368.67126
374.0 0.002674 279.20816 374.53809
382.0 0.002618 279.27069 382.81137
397.0 0.002519 279.33331 393.84912
412.0 0.002427 279.39575 407.61340
422.0 0.002370 279.45847 424.08258
484.0 0.002066 279.52115 442.73831
524.0 0.001908 279.58383 462.60886
518.0 0.001931 279.64664 481.96701
542.0 0.001845 279.70929 498.44351
510.0 0.001961 279.77213 509.59317
510.0 0.001961 279.83487 513.67023
529.0 0.001890 279.89780 510.37137
473.0 0.002114 279.96069 500.72885
472.0 0.002119 280.02350 486.30188
438.0 0.002283 280.08649 468.62341
433.0 0.002309 280.14944 449.23752
380.0 0.002632 280.21255 429.55319
366.0 0.002732 280.27563 410.85852
356.0 0.002809 280.33862 393.94342
349.0 0.002865 280.40176 379.45786
315.0 0.003175 280.46490 367.64566
340.0 0.002941 280.52817 358.57736
317.0 0.003155 280.59143 352.25378
331.0 0.003021 280.65463 348.54803
323.0 0.003096 280.71799 347.27350
331.0 0.003021 280.78128 348.36633
383.0 0.002611 280.84467 351.71927
370.0 0.002703 280.90811 357.26248
344.0 0.002907 280.97150 364.60843
362.0 0.002762 281.03513 373.65640
357.0 0.002801 281.09860 384.26352
391.0 0.002558 281.16220 395.84512
399.0 0.002506 281.22580 407.62097
451.0 0.002217 281.28943 418.64786
380.0 0.002632 281.35312 427.92224
430.0 0.002326 281.41681 434.83575
426.0 0.002347 281.48065 439.35080
399.0 0.002506 281.54446 441.07538
441.0 0.002268 281.60825 440.61911
463.0 0.002160 281.67221 437.72122
431.0 0.002320 281.73605 432.92404
389.0 0.002571 281.80005 427.04230
403.0 0.002481 281.86411 421.73035
403.0 0.002481 281.92810 417.94025
408.0 0.002451 281.99222 416.42850
414.0 0.002415 282.05637 417.54922
429.0 0.002331 282.12061 421.04691
424.0 0.002358 282.18488 426.38303
444.0 0.002252 282.24908 432.50052
449.0 0.002227 282.31348 438.15735
425.0 0.002353 282.37781 442.30081
461.0 0.002169 282.44232 444.58286
453.0 0.002208 282.50674 445.48917
424.0 0.002358 282.57120 446.15475
451.0 0.002217 282.63577 447.56195
453.0 0.002208 282.70041 450.31604
442.0 0.002262 282.76505 454.35541
460.0 0.002174 282.82980 459.25604
462.0 0.002165 282.89438 463.77243
469.0 0.002132 282.95926 466.59796
491.0 0.002037 283.02408 466.82950
477.0 0.002096 283.08902 464.23825
462.0 0.002165 283.15399 459.85764
438.0 0.002283 283.21893 454.60223
444.0 0.002252 283.28403 449.40646
454.0 0.002203 283.34906 445.17288
440.0 0.002273 283.41428 442.67111
453.0 0.002208 283.47946 442.23694
431.0 0.002320 283.54462 443.88733
423.0 0.002364 283.61002 447.23721
411.0 0.002433 283.67529 451.75101
478.0 0.002092 283.74075 456.94354
469.0 0.002132 283.80621 462.33163
509.0 0.001965 283.87167 468.16006
519.0 0.001927 283.93732 474.04947
459.0 0.002179 284.00290 479.57999
467.0 0.002141 284.06863 484.47269
494.0 0.002024 284.13434 488.45718
500.0 0.002000 284.20007 491.33713
474.0 0.002110 284.26602 492.90308
464.0 0.002155 284.33188 493.38806
491.0 0.002037 284.39786 492.75632
538.0 0.001859 284.46390 490.85800
469.0 0.002132 284.52994 487.30301
476.0 0.002101 284.59610 481.73618
464.0 0.002155 284.66223 474.40344
477.0 0.002096 284.72855 466.11212
473.0 0.002114 284.79489 458.09521
386.0 0.002591 284.86127 451.37378
403.0 0.002481 284.92776 446.60452
424.0 0.002358 284.99414 443.82956
447.0 0.002237 285.06082 442.59695
448.0 0.002232 285.12741 442.25211
412.0 0.002427 285.19409 442.05441
425.0 0.002353 285.26086 441.64606
455.0 0.002198 285.32767 441.11368
412.0 0.002427 285.39462 440.91406
439.0 0.002278 285.46155 442.09079
443.0 0.002257 285.52850 445.45404
462.0 0.002165 285.59564 451.86993
472.0 0.002119 285.66272 461.77341
514.0 0.001946 285.73001 475.63763
511.0 0.001957 285.79727 493.19766
575.0 0.001739 285.86459 513.89886
596.0 0.001678 285.93210 536.97076
636.0 0.001572 285.99948 561.04578
688.0 0.001453 286.06711 584.32239
748.0 0.001337 286.13486 604.23260
763.0 0.001311 286.20236 617.88617
710.0 0.001408 286.27017 623.00879
651.0 0.001536 286.33798 618.68567
615.0 0.001626 286.40601 605.97229
578.0 0.001730 286.47397 587.36725
572.0 0.001748 286.54193 565.79059
581.0 0.001721 286.61014 543.50085
540.0 0.001852 286.67825 521.77655
478.0 0.002092 286.74661 501.11020
458.0 0.002183 286.81497 481.59695
451.0 0.002217 286.88333 463.36710
421.0 0.002375 286.95187 446.72339
414.0 0.002415 287.02045 432.22269
412.0 0.002427 287.08917 420.25351
394.0 0.002538 287.15790 411.09399
388.0 0.002577 287.22665 404.91403
375.0 0.002667 287.29562 401.45587
419.0 0.002387 287.36456 400.68811
414.0 0.002415 287.43362 402.74356
405.0 0.002469 287.50278 407.38037
425.0 0.002353 287.57190 414.48917
449.0 0.002227 287.64130 423.82468
490.0 0.002041 287.71069 435.07248
492.0 0.002033 287.78015 447.39740
510.0 0.001961 287.84970 459.62650
517.0 0.001934 287.91928 470.44778
526.0 0.001901 287.98904 478.68918
539.0 0.001855 288.05878 483.76532
529.0 0.001890 288.12875 485.70462
498.0 0.002008 288.19876 485.31668
502.0 0.001992 288.26874 483.46518
480.0 0.002083 288.33890 480.63763
479.0 0.002088 288.40909 476.76154
477.0 0.002096 288.47949 471.18103
463.0 0.002160 288.54990 463.24985
463.0 0.002160 288.62033 452.44879
411.0 0.002433 288.69095 439.22009
389.0 0.002571 288.76166 424.59979
393.0 0.002545 288.83252 409.73795
402.0 0.002488 288.90335 395.63385
364.0 0.002747 288.97424 382.91318
355.0 0.002817 289.04535 371.79156
357.0 0.002801 289.11646 362.48798
349.0 0.002865 289.18781 354.87491
319.0 0.003135 289.25909 348.88947
347.0 0.002882 289.33047 344.37933
333.0 0.003003 289.40201 341.28879
335.0 0.002985 289.47360 339.67932
328.0 0.003049 289.54544 339.42532
321.0 0.003115 289.61722 340.52664
337.0 0.002967 289.68906 342.82205
328.0 0.003049 289.76117 346.30939
352.0 0.002841 289.83322 350.86566
376.0 0.002660 289.90549 356.33157
375.0 0.002667 289.97784 362.30664
410.0 0.002439 290.05014 368.37579
375.0 0.002667 290.12280 374.04910
397.0 0.002519 290.19531 378.71353
391.0 0.002558 290.26816 382.29056
377.0 0.002653 290.34091 384.30133
402.0 0.002488 290.41388 384.66556
395.0 0.002532 290.48697 383.51291
376.0 0.002660 290.56006 381.06909
385.0 0.002597 290.63336 377.74161
372.0 0.002688 290.70679 373.84995
370.0 0.002703 290.78021 369.67737
359.0 0.002786 290.85376 365.39026
347.0 0.002882 290.92746 361.15161
348.0 0.002874 291.00137 357.46045
338.0 0.002959 291.07529 354.26144
333.0 0.003003 291.14929 351.46060
341.0 0.002933 291.22345 348.83368
335.0 0.002985 291.29764 346.30859
311.0 0.003215 291.37198 343.80862
329.0 0.003040 291.44653 341.40942
323.0 0.003096 291.52109 339.23325
330.0 0.003030 291.59579 337.38651
311.0 0.003215 291.67072 335.81113
314.0 0.003185 291.74561 334.75134
311.0 0.003215 291.82074 334.05530
346.0 0.002890 291.89590 333.71362
339.0 0.002950 291.97116 333.65756
322.0 0.003106 292.04657 333.75085
310.0 0.003226 292.12219 334.10953
344.0 0.002907 292.19788 334.69357
343.0 0.002915 292.27356 335.64944
285.0 0.00351 292.34952 336.91296
316.0 0.003165 292.42554 338.63248
300.0 0.003333 292.50177 340.66705
320.0 0.003125 292.57800 342.83527
328.0 0.003049 292.65436 344.96664
348.0 0.002874 292.73102 346.72598
290.0 0.003448 292.80759 348.45444
325.0 0.003077 292.88446 350.11005
357.0 0.002801 292.96133 351.91122
341.0 0.002933 293.03839 354.05905
386.0 0.002591 293.11557 356.41299
400.0 0.002500 293.19281 358.92667
379.0 0.002639 293.27036 361.42621
375.0 0.002667 293.34790 363.64902
389.0 0.002571 293.42551 365.19772
364.0 0.002747 293.50342 366.08939
398.0 0.002513 293.58139 366.16147
369.0 0.002710 293.65952 365.61212
393.0 0.002545 293.73776 364.60336
340.0 0.002941 293.81607 363.43140
337.0 0.002967 293.89465 362.28317
333.0 0.003003 293.97327 361.35925
334.0 0.002994 294.05206 360.66440
340.0 0.002941 294.13107 360.16391
354.0 0.002825 294.21005 359.56696
330.0 0.003030 294.28928 358.74890
334.0 0.002994 294.36853 357.76855
338.0 0.002959 294.44812 356.76883
343.0 0.002915 294.52780 356.05823
334.0 0.002994 294.60742 355.65378
317.0 0.003155 294.68744 355.92908
325.0 0.003077 294.76752 356.58908
346.0 0.002890 294.84775 358.05878
358.0 0.002793 294.92816 359.91171
375.0 0.002667 295.00861 361.94946
388.0 0.002577 295.08923 363.94266
372.0 0.002688 295.17007 365.74033
349.0 0.002865 295.25101 367.10355
355.0 0.002817 295.33212 367.87949
373.0 0.002681 295.41333 367.99515
375.0 0.002667 295.49484 367.38882
359.0 0.002786 295.57639 366.07065
331.0 0.003021 295.65805 364.30994
344.0 0.002907 295.73996 362.44205
342.0 0.002924 295.82190 360.82144
349.0 0.002865 295.90411 359.72833
359.0 0.002786 295.98642 359.38257
347.0 0.002882 296.06900 359.89664
352.0 0.002841 296.15161 361.36163
346.0 0.002890 296.23438 363.65625
338.0 0.002959 296.31735 366.71274
387.0 0.002584 296.40048 370.19803
390.0 0.002564 296.48383 374.00055
374.0 0.002674 296.56726 377.95898
373.0 0.002681 296.65079 381.94162
384.0 0.002604 296.73465 386.12219
389.0 0.002571 296.81848 390.49451
386.0 0.002591 296.90268 395.54233
426.0 0.002347 296.98694 401.28586
413.0 0.002421 297.07132 407.64551
405.0 0.002469 297.15598 414.27728
466.0 0.002146 297.24069 420.53134
438.0 0.002283 297.32568 425.60873
443.0 0.002257 297.41086 428.74438
447.0 0.002237 297.49594 429.49554
430.0 0.002326 297.58154 427.90558
426.0 0.002347 297.66708 424.49335
423.0 0.002364 297.75299 420.07959
405.0 0.002469 297.83896 415.60086
405.0 0.002469 297.92499 411.89670
397.0 0.002519 298.01135 409.56979
438.0 0.002283 298.09787 409.29001
460.0 0.002174 298.18454 410.40210
478.0 0.002092 298.27142 412.95935
471.0 0.002123 298.35837 416.44180
441.0 0.002268 298.44562 420.26190
436.0 0.002294 298.53290 423.93362
446.0 0.002242 298.62054 427.29169
467.0 0.002141 298.70831 430.32239
447.0 0.002237 298.79620 433.06506
479.0 0.002088 298.88437 435.36240
490.0 0.002041 298.97266 436.82956
481.0 0.002079 299.06110 437.02936
470.0 0.002128 299.14984 435.71094
485.0 0.002062 299.23853 433.01175
460.0 0.002174 299.32764 429.42514
425.0 0.002353 299.41681 425.59314
441.0 0.002268 299.50629 422.00613
425.0 0.002353 299.59592 418.90308
429.0 0.002331 299.68564 416.29398
445.0 0.002247 299.77567 414.10565
460.0 0.002174 299.86578 412.34549
435.0 0.002299 299.95621 411.13110
421.0 0.002375 300.04678 410.56415
426.0 0.002347 300.13739 410.73425
403.0 0.002481 300.22842 411.58759
418.0 0.002392 300.31949 412.84912
444.0 0.002252 300.41095 414.13293
437.0 0.002288 300.50244 415.17297
432.0 0.002315 300.59409 415.90036
433.0 0.002309 300.68610 416.21127
443.0 0.002257 300.77811 416.27008
424.0 0.002358 300.87057 416.23453
404.0 0.002475 300.96313 416.02261
408.0 0.002451 301.05573 415.75317
406.0 0.002463 301.14874 415.39771
404.0 0.002475 301.24182 414.88788
390.0 0.002564 301.33517 413.99680
415.0 0.002410 301.42877 412.45416
415.0 0.002410 301.52240 410.24146
387.0 0.002584 301.61642 407.27924
379.0 0.002639 301.71063 403.56079
385.0 0.002597 301.80499 399.29681
394.0 0.002538 301.89957 394.65341
363.0 0.002755 301.99432 389.91162
357.0 0.002801 302.08939 385.32788
381.0 0.002625 302.18451 381.27859
349.0 0.002865 302.27994 378.10364
362.0 0.002762 302.37567 376.06360
362.0 0.002762 302.47141 375.27579
381.0 0.002625 302.56754 375.73865
370.0 0.002703 302.66379 377.23709
357.0 0.002801 302.76031 379.49994
380.0 0.002632 302.85699 382.14728
326.0 0.003067 302.95386 384.75146
345.0 0.002899 303.05106 386.89590
359.0 0.002786 303.14835 388.27432
364.0 0.002747 303.24603 388.92892
374.0 0.002674 303.34381 389.06281
370.0 0.002703 303.44174 389.05173
340.0 0.002941 303.54010 389.34866
333.0 0.003003 303.63849 390.27597
348.0 0.002874 303.73724 392.12170
354.0 0.002825 303.83621 395.03979
356.0 0.002809 303.93521 399.10812
388.0 0.002577 304.03470 404.35538
404.0 0.002475 304.13419 410.65195
408.0 0.002451 304.23410 417.80734
408.0 0.002451 304.33411 425.48175
424.0 0.002358 304.43436 433.20526
440.0 0.002273 304.53491 440.64474
441.0 0.002268 304.63553 447.34772
471.0 0.002123 304.73660 452.91827
446.0 0.002242 304.83780 457.01617
447.0 0.002237 304.93912 459.50760
483.0 0.002070 305.04086 460.51208
444.0 0.002252 305.14270 460.23572
431.0 0.002320 305.24493 458.99557
451.0 0.002217 305.34735 457.16547
451.0 0.002217 305.44980 455.12595
450.0 0.002222 305.55273 453.54794
472.0 0.002119 305.65573 452.71445
466.0 0.002146 305.75912 452.97980
437.0 0.002288 305.86270 454.26208
453.0 0.002208 305.96643 456.24753
463.0 0.002160 306.07053 458.51297
479.0 0.002088 306.17474 460.46436
480.0 0.002083 306.27930 461.63580
454.0 0.002203 306.38412 461.73431
482.0 0.002075 306.48904 460.74585
456.0 0.002193 306.59433 458.81796
436.0 0.002294 306.69977 456.20627
452.0 0.002212 306.80554 453.05972
444.0 0.002252 306.91156 449.48593
420.0 0.002381 307.01773 445.56232
422.0 0.002370 307.12427 441.48840
425.0 0.002353 307.23093 437.53925
412.0 0.002427 307.33801 433.87997
419.0 0.002387 307.44522 430.56458
412.0 0.002427 307.55261 427.47903
439.0 0.002278 307.66043 424.50406
428.0 0.002336 307.76834 421.54404
407.0 0.002457 307.87665 418.64261
427.0 0.002342 307.98514 415.92670
371.0 0.002695 308.09378 413.46893
390.0 0.002564 308.20291 411.44846
400.0 0.002500 308.31201 410.05801
388.0 0.002577 308.42163 409.48224
377.0 0.002653 308.53140 409.90189
414.0 0.002415 308.64130 411.40747
426.0 0.002347 308.75165 413.89697
434.0 0.002304 308.86209 416.93045
388.0 0.002577 308.97305 420.09824
438.0 0.002283 309.08405 422.82516
440.0 0.002273 309.19522 424.54648
469.0 0.002132 309.30688 424.92062
435.0 0.002299 309.41870 423.93906
436.0 0.002294 309.53094 421.88879
423.0 0.002364 309.64331 419.14307
429.0 0.002331 309.75577 416.15042
409.0 0.002445 309.86877 413.40427
403.0 0.002481 309.98181 411.34006
424.0 0.002358 310.09537 410.45407
412.0 0.002427 310.20905 411.30487
414.0 0.002415 310.32294 414.38162
426.0 0.002347 310.43716 420.12204
431.0 0.002320 310.55167 428.82785
459.0 0.002179 310.66647 440.68179
490.0 0.002041 310.78152 455.58426
495.0 0.002020 310.89673 473.52179
529.0 0.001890 311.01236 493.75562
606.0 0.001650 311.12820 515.55664
646.0 0.001548 311.24435 537.32611
658.0 0.001520 311.36075 557.12164
666.0 0.001502 311.47729 572.52710
670.0 0.001493 311.59430 581.24860
663.0 0.001508 311.71146 581.78876
629.0 0.001590 311.82907 574.16516
579.0 0.001727 311.94681 559.83087
550.0 0.001818 312.06470 541.06927
527.0 0.001898 312.18307 519.88763
480.0 0.002083 312.30164 498.31204
454.0 0.002203 312.42062 477.51321
428.0 0.002336 312.53970 458.41425
405.0 0.002469 312.65906 441.62558
388.0 0.002577 312.77881 427.47083
355.0 0.002817 312.89868 416.25180
347.0 0.002882 313.01904 407.91663
381.0 0.002625 313.13962 402.69354
392.0 0.002551 313.26031 400.31381
392.0 0.002551 313.38147 400.74316
404.0 0.002475 313.50281 403.89206
387.0 0.002584 313.62454 409.67154
400.0 0.002500 313.74649 417.93759
433.0 0.002309 313.86859 428.46353
465.0 0.002151 313.99118 441.09677
467.0 0.002141 314.11392 455.39114
452.0 0.002212 314.23712 470.89163
494.0 0.002024 314.36053 487.01575
507.0 0.001972 314.48398 502.96527
556.0 0.001799 314.60800 517.83746
533.0 0.001876 314.73218 530.61041
570.0 0.001754 314.85681 540.20831
578.0 0.001730 314.98163 545.85400
630.0 0.001587 315.10666 547.08136
575.0 0.001739 315.23196 544.06543
556.0 0.001799 315.35773 537.47113
529.0 0.001890 315.48367 528.35425
519.0 0.001927 315.60999 517.80707
519.0 0.001927 315.73636 506.88452
477.0 0.002096 315.86325 496.39407
487.0 0.002053 315.99042 486.82025
487.0 0.002053 316.11780 478.34924
482.0 0.002075 316.24551 470.97504
462.0 0.002165 316.37332 464.20706
433.0 0.002309 316.50174 458.23096
466.0 0.002146 316.63028 453.23749
443.0 0.002257 316.75919 449.63269
419.0 0.002387 316.88834 447.74405
426.0 0.002347 317.01767 447.95920
489.0 0.002045 317.14755 450.35059
492.0 0.002033 317.27747 454.80212
500.0 0.002000 317.40793 460.98978
519.0 0.001927 317.53854 468.36874
564.0 0.001773 317.66937 476.26486
574.0 0.001742 317.80069 483.86520
577.0 0.001733 317.93210 490.39093
562.0 0.001779 318.06409 495.22510
576.0 0.001736 318.19614 497.41760
537.0 0.001862 318.32834 496.75305
507.0 0.001972 318.46118 493.37231
485.0 0.002062 318.59409 487.77661
504.0 0.001984 318.72751 480.81461
489.0 0.002045 318.86108 473.22672
471.0 0.002123 318.99484 465.59274
436.0 0.002294 319.12909 458.40179
447.0 0.002237 319.26352 451.93091
466.0 0.002146 319.39844 446.51730
468.0 0.002137 319.53351 442.25629
460.0 0.002174 319.66873 439.26224
437.0 0.002288 319.80447 437.42334
448.0 0.002232 319.94037 436.39417
447.0 0.002237 320.07684 436.13541
424.0 0.002358 320.21335 436.48914
434.0 0.002304 320.35016 437.54700
435.0 0.002299 320.48730 439.43747
439.0 0.002278 320.62476 442.36896
461.0 0.002169 320.76260 446.32251
460.0 0.002174 320.90067 451.43173
467.0 0.002141 321.03897 457.50192
480.0 0.002083 321.17767 464.21811
486.0 0.002058 321.31662 471.23276
496.0 0.002016 321.45593 478.13016
494.0 0.002024 321.59555 484.42157
513.0 0.001949 321.73529 489.47409
498.0 0.002008 321.87561 492.67996
479.0 0.002088 322.01593 493.66293
507.0 0.001972 322.15677 492.33905
492.0 0.002033 322.29788 488.91742
513.0 0.001949 322.43909 483.89935
465.0 0.002151 322.58090 477.77521
462.0 0.002165 322.72275 471.08432
431.0 0.002320 322.86520 464.09903
441.0 0.002268 323.00772 457.26031
475.0 0.002105 323.15042 450.53677
400.0 0.002500 323.29373 444.17133
416.0 0.002404 323.43707 438.38571
400.0 0.002500 323.58096 433.31796
371.0 0.002695 323.72501 429.25653
437.0 0.002288 323.86926 426.16663
451.0 0.002217 324.01401 424.18222
406.0 0.002463 324.15887 423.29080
426.0 0.002347 324.30435 423.40652
428.0 0.002336 324.44983 424.38150
432.0 0.002315 324.59552 426.06467
438.0 0.002283 324.74185 428.43393
436.0 0.002294 324.88818 431.45850
448.0 0.002232 325.03506 435.15366
497.0 0.002012 325.18213 439.52917
439.0 0.002278 325.32932 444.53455
463.0 0.002160 325.47711 450.04733
458.0 0.002183 325.62497 455.69507
467.0 0.002141 325.77325 460.98288
466.0 0.002146 325.92191 465.27930
444.0 0.002252 326.07050 468.01508
481.0 0.002079 326.21976 468.80939
469.0 0.002132 326.36920 467.65726
476.0 0.002101 326.51901 464.91068
423.0 0.002364 326.66904 461.19409
438.0 0.002283 326.81921 456.95157
462.0 0.002165 326.96988 452.76004
452.0 0.002212 327.12079 449.01434
450.0 0.002222 327.27200 446.01547
427.0 0.002342 327.42352 444.05707
415.0 0.002410 327.57520 443.26050
399.0 0.002506 327.72733 443.87344
417.0 0.002398 327.87964 445.92850
431.0 0.002320 328.03241 449.39337
469.0 0.002132 328.18539 454.15399
482.0 0.002075 328.33853 459.90991
471.0 0.002123 328.49213 466.30127
464.0 0.002155 328.64587 472.72879
498.0 0.002008 328.80008 478.43195
500.0 0.002000 328.95450 482.55042
490.0 0.002041 329.10910 484.37109
507.0 0.001972 329.26416 483.54453
485.0 0.002062 329.41934 480.21094
451.0 0.002217 329.57504 474.94107
429.0 0.002331 329.73083 468.54343
413.0 0.002421 329.88681 461.80197
400.0 0.002500 330.04340 454.94955
436.0 0.002294 330.19998 449.02612
410.0 . . .
loop_
_refln_index_h
_refln_index_k
_refln_index_l
_pd_refln_wavelength_id
_refln_observed_status
_refln_F_squared_meas
_refln_F_squared_calc
_refln_phase_calc
_refln_d_spacing
_gsas_i100_meas
0 2 0 1 o 39232.79 36234.57 0.00 6.66748 12.35
0 2 0 2 o 39682.23 36234.57 0.00 6.66748 6.22
1 1 1 1 o 20873.547 20533.842 0.00 6.05881 18.43
1 1 1 2 o 20408.061 20533.842 0.00 6.05881 8.94
2 0 0 1 o 1336.507 2072.120 180.00 4.83138 0.00
2 0 0 2 o 1336.507 2072.120 180.00 4.83138 0.00
0 0 2 1 o 43095.39 46183.02 0.00 4.78752 4.36
0 0 2 2 o 43334.65 46183.02 0.00 4.78752 2.18
1 2 1 1 o 3973.494 4138.569 0.00 4.76126 1.06
1 2 1 2 o 3892.458 4138.569 0.00 4.76126 0.50
2 1 0 1 o 165479.84 165522.61 180.00 4.54243 36.93
2 1 0 2 o 163611.28 165522.61 180.00 4.54243 18.13
1 0 2 1 o 236887.19 237132.95 0.00 4.28985 47.15
1 0 2 2 o 234397.98 237132.95 0.00 4.28985 23.17
2 1 1 1 o 118827.08 112133.73 0.00 4.10403 44.57
2 1 1 2 o 116288.50 112133.73 0.00 4.10403 21.63
1 1 2 1 o 118418.88 116058.68 0.00 4.08374 43.60
1 1 2 2 o 119161.73 116058.68 0.00 4.08374 21.85
0 3 1 1 o 480496.2 489613.9 180.00 4.03174 100.00
0 3 1 2 o 481880.1 489613.9 180.00 4.03174 49.91
2 2 0 1 o 85264.86 82924.14 180.00 3.91225 14.95
2 2 0 2 o 83138.80 82924.14 180.00 3.91225 7.22
0 2 2 1 o 50490.06 50297.02 0.00 3.88885 8.68
0 2 2 2 o 51212.95 50297.02 0.00 3.88885 4.39
1 3 1 1 o 83870.22 80403.37 180.00 3.72084 29.40
1 3 1 2 o 82760.96 80403.37 180.00 3.72084 14.41
2 2 1 1 o 198052.78 192372.41 180.00 3.62161 59.28
2 2 1 2 o 195411.33 192372.41 180.00 3.62161 29.04
1 2 2 1 o 302.316 294.534 0.00 3.60764 0.10
1 2 2 2 o 368.079 294.534 0.00 3.60764 0.06
2 0 2 1 o 162738.19 150816.66 180.00 3.40069 21.50
2 0 2 2 o 157890.27 150816.66 180.00 3.40069 10.35
0 4 0 1 o 141595.42 130051.38 180.00 3.33374 11.27
0 4 0 2 o 139768.19 130051.38 180.00 3.33374 5.53
2 1 2 1 o 17345.049 17459.076 180.00 3.29522 4.23
2 1 2 2 o 17324.117 17459.076 180.00 3.29522 2.10
2 3 0 1 o 41678.05 43690.18 180.00 3.27117 5.10
2 3 0 2 o 38991.70 43690.18 180.00 3.27117 2.34
0 1 3 1 o 146820.39 149262.17 180.00 3.10401 14.99
0 1 3 2 o 147909.59 149262.17 180.00 3.10401 7.52
2 3 1 1 o 48726.28 49022.26 0.00 3.09550 10.82
2 3 1 2 o 49837.82 49022.26 0.00 3.09550 5.53
1 3 2 1 o 27272.221 26691.809 0.00 3.08677 6.04
1 3 2 2 o 26602.555 26691.809 0.00 3.08677 2.92
2 2 2 1 o 60674.78 60846.60 180.00 3.02940 12.06
2 2 2 2 o 58420.66 60846.60 180.00 3.02940 5.74
1 4 1 1 o 18124.348 18221.127 180.00 2.99348 4.16
1 4 1 2 o 17933.766 18221.127 180.00 2.99348 2.05
3 1 1 1 o 61666.51 61356.50 0.00 2.97584 11.87
3 1 1 2 o 60487.27 61356.50 0.00 2.97584 5.78
1 1 3 1 o 1621.226 2219.129 0.00 2.95527 0.24
1 1 3 2 o 513.948 2219.129 0.00 2.95527 0.00
3 2 1 1 o 35427.73 35697.74 180.00 2.77571 6.02
3 2 1 2 o 35692.21 35697.74 180.00 2.77571 3.02
1 2 3 1 o 121154.97 130629.19 0.00 2.75899 19.93
1 2 3 2 o 119973.49 130629.19 0.00 2.75899 9.80
2 4 0 1 o 95453.87 99419.47 180.00 2.74391 8.65
2 4 0 2 o 93144.34 99419.47 180.00 2.74391 4.18
0 4 2 1 o 25234.670 27192.109 0.00 2.73580 2.37
0 4 2 2 o 23699.215 27192.109 0.00 2.73580 1.10
2 3 2 1 o 4248.477 4558.889 180.00 2.70090 0.73
2 3 2 2 o 4661.650 4558.889 180.00 2.70090 0.40
3 0 2 1 o 96099.23 90147.02 0.00 2.67241 7.02
3 0 2 2 o 95146.61 90147.02 0.00 2.67241 3.45
2 4 1 1 o 27934.488 27897.439 0.00 2.63774 4.48
1 4 2 1 o 29386.605 29649.275 180.00 2.63233 4.58
2 4 1 2 o 27678.730 27897.439 0.00 2.63774 2.20
1 4 2 2 o 29248.596 29649.275 180.00 2.63233 2.27
3 1 2 1 o 33343.105 32856.188 180.00 2.62031 4.54
3 1 2 2 o 33348.977 32856.188 180.00 2.62031 2.26
2 1 3 1 o 33185.801 32720.523 0.00 2.61149 4.56
2 1 3 2 o 32471.959 32720.523 0.00 2.61149 2.21
0 3 3 1 o 87.381 91.813 180.00 2.59257 0.00
0 3 3 2 o 101.594 91.813 180.00 2.59257 0.00
0 5 1 1 o 62136.86 59428.70 180.00 2.56919 4.87
0 5 1 2 o 61083.69 59428.70 180.00 2.56919 2.37
3 3 1 2 o 25029.191 24455.736 180.00 2.51648 1.68
3 3 1 1 o 25710.670 24455.736 180.00 2.51648 3.49
1 3 3 1 o 137134.16 138692.69 180.00 2.50400 18.34
1 3 3 2 o 132662.55 138692.69 180.00 2.50400 8.77
1 5 1 1 o 5424.274 5717.287 180.00 2.48293 0.81
3 2 2 1 o 12665.739 12995.541 180.00 2.48058 1.46
1 5 1 2 o 5595.898 5717.287 180.00 2.48293 0.42
3 2 2 2 o 13129.202 12995.541 180.00 2.48058 0.76
2 2 3 1 o 23305.791 22832.863 0.00 2.47309 2.81
2 2 3 2 o 23074.498 22832.863 0.00 2.47309 1.38
4 0 0 1 o 35707.94 30426.402 180.00 2.41569 1.01
4 0 0 2 o 32344.563 30426.402 180.00 2.41569 0.44
0 0 4 1 o 60785.89 59066.50 180.00 2.39376 1.72
0 0 4 2 o 60468.30 59066.50 180.00 2.39376 0.85
2 4 2 1 o 31023.785 30384.215 180.00 2.38063 3.59
4 1 0 1 o 11969.948 11965.226 180.00 2.37700 0.69
2 4 2 2 o 30580.598 30384.215 180.00 2.38063 1.75
4 1 0 2 o 12188.014 11965.226 180.00 2.37700 0.35
2 5 0 1 o 168295.88 152056.92 0.00 2.33487 10.63
2 5 0 2 o 158838.75 152056.92 0.00 2.33487 4.93
1 0 4 1 o 39766.43 37424.84 0.00 2.32352 1.98
1 0 4 2 o 42750.60 37424.84 0.00 2.32352 1.08
4 1 1 1 o 180539.81 174016.53 180.00 2.30698 19.06
4 1 1 2 o 177762.14 174016.53 180.00 2.30698 9.31
3 3 2 1 o 36397.99 34395.020 180.00 2.29034 4.37
1 1 4 1 o 4666.118 4471.017 0.00 2.28904 0.42
3 3 2 2 o 36829.88 34395.020 180.00 2.29034 2.20
2 3 3 1 o 31178.406 29360.135 0.00 2.28444 3.27
1 1 4 2 o 4694.758 4471.017 0.00 2.28904 0.21
2 3 3 2 o 30854.057 29360.135 0.00 2.28444 1.60
4 2 0 1 o 70568.58 69468.16 0.00 2.27122 3.52
2 5 1 1 o 40729.94 40994.55 0.00 2.26840 4.77
4 2 0 2 o 68176.04 69468.16 0.00 2.27122 1.68
1 5 2 1 o 50068.32 51018.40 180.00 2.26496 5.40
2 5 1 2 o 39900.11 40994.55 0.00 2.26840 2.31
1 5 2 2 o 49466.18 51018.40 180.00 2.26496 2.65
0 2 4 1 o 68870.41 67338.05 0.00 2.25296 3.52
3 4 1 1 o 5540.880 5405.186 0.00 2.25145 0.61
0 2 4 2 o 68326.97 67338.05 0.00 2.25296 1.74
3 4 1 2 o 5419.231 5405.186 0.00 2.25145 0.29
1 4 3 1 o 20269.422 20228.980 180.00 2.24250 2.21
1 4 3 2 o 20051.182 20228.980 180.00 2.24250 1.08
3 1 3 1 o 53208.11 53499.30 0.00 2.23505 4.82
3 1 3 2 o 56082.98 53499.30 0.00 2.23505 2.56
0 6 0 1 o 262945.00 224755.77 0.00 2.22249 8.04
0 6 0 2 o 252582.36 224755.77 0.00 2.22249 3.81
4 2 1 1 o 12399.005 11989.575 180.00 2.20990 1.29
4 2 1 2 o 12206.100 11989.575 180.00 2.20990 0.63
1 2 4 1 o 9611.405 9153.487 0.00 2.19411 0.91
1 2 4 2 o 10267.825 9153.487 0.00 2.19411 0.49
4 0 2 1 o -288.574 75.479 180.00 2.15669 0.00
4 0 2 2 o 153.313 75.479 180.00 2.15669 0.01
3 2 3 1 o 7274.615 6720.645 180.00 2.14644 0.46
2 0 4 1 o 11045.893 10392.243 180.00 2.14493 0.38
3 2 3 2 o 6927.858 6720.645 180.00 2.14644 0.21
2 0 4 2 o 10962.489 10392.243 180.00 2.14493 0.19
4 1 2 1 o 6467.565 5961.348 180.00 2.12903 0.69
4 1 2 2 o 6891.917 5961.348 180.00 2.12903 0.36
4 3 0 1 o 1067.242 988.205 180.00 2.12250 0.04
2 1 4 1 o 120414.72 116144.45 0.00 2.11770 10.90
4 3 0 2 o 1016.948 988.205 180.00 2.12250 0.02
1 6 1 1 o 99.037 98.657 180.00 2.11257 0.01
2 1 4 2 o 116828.53 116144.45 0.00 2.11770 5.23
1 6 1 2 o 95.085 98.657 180.00 2.11257 0.00
2 5 2 1 o 29118.283 26756.574 0.00 2.09860 3.13
2 5 2 2 o 28558.492 26756.574 0.00 2.09860 1.52
3 4 2 1 o 104370.13 104041.60 180.00 2.08515 9.21
2 4 3 1 o 6938.113 7307.444 180.00 2.08069 0.63
3 4 2 2 o 99946.09 104041.60 180.00 2.08515 4.34
2 4 3 2 o 6895.950 7307.444 180.00 2.08069 0.31
4 3 1 1 o 8948.238 8989.453 0.00 2.07220 0.79
4 3 1 2 o 8873.263 8989.453 0.00 2.07220 0.39
1 3 4 1 o 6040.938 5783.449 0.00 2.05917 0.54
1 3 4 2 o 6146.379 5783.449 0.00 2.05917 0.28
4 2 2 1 o 65814.04 62197.71 0.00 2.05201 5.62
4 2 2 2 o 61333.63 62197.71 0.00 2.05201 2.57
0 5 3 1 o 47502.29 48183.73 180.00 2.04655 2.32
2 2 4 1 o 22964.959 24189.068 180.00 2.04187 1.86
0 5 3 2 o 45409.69 48183.73 180.00 2.04655 1.10
2 2 4 2 o 22861.025 24189.068 180.00 2.04187 0.92
3 3 3 1 o 16101.995 15242.480 180.00 2.01960 1.19
2 6 0 1 o 52399.41 49271.46 180.00 2.01911 2.59
0 6 2 1 o 83058.37 80079.14 0.00 2.01587 3.98
3 3 3 2 o 15693.669 15242.480 180.00 2.01960 0.57
2 6 0 2 o 50933.39 49271.46 180.00 2.01911 1.25
0 6 2 2 o 81767.52 80079.14 0.00 2.01587 1.94
3 5 1 1 o 521.059 477.668 180.00 2.00850 0.06
3 5 1 2 o 463.983 477.668 180.00 2.00850 0.03
1 5 3 1 o 21763.992 22875.275 180.00 2.00214 1.85
1 5 3 2 o 19870.430 22875.275 180.00 2.00214 0.82
2 6 1 1 o 85975.30 83587.63 0.00 1.97566 7.90
1 6 2 1 o 80137.83 81579.91 0.00 1.97338 7.27
2 6 1 2 o 79315.71 83587.63 0.00 1.97566 3.57
1 6 2 2 o 75736.26 81579.91 0.00 1.97338 3.38
4 4 0 1 o 320092.03 328021.03 0.00 1.95612 12.45
4 4 0 2 o 309415.81 328021.03 0.00 1.95612 5.94
0 4 4 1 o 176912.17 189443.09 0.00 1.94442 6.47
4 3 2 1 o 6302.730 7047.921 180.00 1.94036 0.58
0 4 4 2 o 174722.72 189443.09 0.00 1.94442 3.17
4 3 2 2 o 6774.643 7047.921 180.00 1.94036 0.31
2 3 4 1 o 44671.63 45077.52 0.00 1.93177 3.52
2 3 4 2 o 44492.35 45077.52 0.00 1.93177 1.75
3 0 4 1 o 889.281 949.773 180.00 1.92127 0.05
3 0 4 2 o 996.938 949.773 180.00 1.92127 0.02
4 4 1 1 o 3408.368 3284.739 0.00 1.91654 0.28
4 4 1 2 o 2885.947 3284.739 0.00 1.91654 0.12
4 1 3 1 o 10257.291 11155.307 180.00 1.90640 0.75
1 4 4 1 o 2652.933 2887.797 0.00 1.90621 0.22
4 1 3 2 o 10557.508 11155.307 180.00 1.90640 0.38
3 1 4 1 o 18822.961 19879.365 180.00 1.90163 1.41
1 4 4 2 o 2736.148 2887.797 0.00 1.90621 0.11
3 1 4 2 o 19210.848 19879.365 180.00 1.90163 0.72
0 1 5 1 o 120218.30 123899.53 180.00 1.89556 4.01
0 1 5 2 o 119975.39 123899.53 180.00 1.89556 1.99
3 5 2 1 o 41297.29 41493.91 0.00 1.88776 3.04
2 5 3 1 o 27249.885 27129.150 0.00 1.88445 2.00
3 5 2 2 o 40809.00 41493.91 0.00 1.88776 1.49
2 5 3 2 o 26871.102 27129.150 0.00 1.88445 0.98
5 1 1 1 o 369.422 371.523 180.00 1.87552 0.00
3 4 3 1 o 20222.043 20719.791 0.00 1.87470 1.54
5 1 1 2 o 375.987 371.523 180.00 1.87552 0.00
3 4 3 2 o 22397.787 20719.791 0.00 1.87470 0.86
0 7 1 1 o 43742.71 38892.94 0.00 1.86838 1.97
0 7 1 2 o 43509.43 38892.94 0.00 1.86838 0.97
2 6 2 1 o 20017.844 20562.840 180.00 1.86042 1.41
1 1 5 1 o 30925.096 32120.537 180.00 1.86011 1.98
2 6 2 2 o 19027.930 20562.840 180.00 1.86042 0.66
1 1 5 2 o 29680.965 32120.537 180.00 1.86011 0.94
4 2 3 1 o 5307.662 6170.317 0.00 1.85051 0.38
3 2 4 1 o 37862.82 37656.36 180.00 1.84615 2.56
4 2 3 2 o 6200.514 6170.317 0.00 1.85051 0.23
3 2 4 2 o 36452.10 37656.36 180.00 1.84615 1.22
1 7 1 1 o 26923.277 28645.004 0.00 1.83440 2.18
1 7 1 2 o 26154.918 28645.004 0.00 1.83440 1.05
5 2 1 1 o 76996.78 76739.48 180.00 1.82223 5.19
5 2 1 2 o 76935.78 76739.48 180.00 1.82223 2.58
4 4 2 1 o 122086.88 117608.95 0.00 1.81080 8.51
1 2 5 1 o 27404.959 27172.742 180.00 1.80809 2.02
4 4 2 2 o 117991.25 117608.95 0.00 1.81080 4.07
2 4 4 1 o 52034.30 52283.28 180.00 1.80382 3.82
1 2 5 2 o 27018.852 27172.742 180.00 1.80809 0.99
2 4 4 2 o 54105.34 52283.28 180.00 1.80382 1.98
3 6 1 1 o 43711.95 41334.86 0.00 1.79678 3.45
3 6 1 2 o 42254.46 41334.86 0.00 1.79678 1.66
1 6 3 1 o 82434.66 80961.85 180.00 1.79222 6.18
5 0 2 1 o 10424.821 10289.035 180.00 1.79206 0.31
4 5 0 1 o 6130.657 6224.729 0.00 1.79042 0.19
1 6 3 2 o 76818.34 80961.85 180.00 1.79222 2.84
5 0 2 2 o 9798.958 10289.035 180.00 1.79206 0.14
4 5 0 2 o 5730.914 6224.729 0.00 1.79042 0.09
5 1 2 1 o 71171.98 67125.82 180.00 1.77609 4.24
2 7 0 1 o 5452.750 5069.009 180.00 1.77221 0.23
5 1 2 2 o 71580.32 67125.82 180.00 1.77609 2.12
2 7 0 2 o 5262.810 5069.009 180.00 1.77221 0.11
4 3 3 1 o 100040.58 97208.02 180.00 1.76738 6.05
2 1 5 1 o 10343.635 10127.626 0.00 1.76461 0.61
3 3 4 1 o 1914.897 1870.030 180.00 1.76358 0.12
4 3 3 2 o 100113.81 97208.02 180.00 1.76738 3.01
2 1 5 2 o 10461.267 10127.626 0.00 1.76461 0.31
4 5 1 1 o 22662.715 21982.588 180.00 1.75992 1.47
3 3 4 2 o 1916.823 1870.030 180.00 1.76358 0.06
0 3 5 1 o 70666.77 69443.93 0.00 1.75873 2.19
4 5 1 2 o 21471.301 21982.588 180.00 1.75992 0.69
0 3 5 2 o 69252.59 69443.93 0.00 1.75873 1.06
1 5 4 1 o 24452.646 25226.324 180.00 1.75191 1.59
1 5 4 2 o 24786.797 25226.324 180.00 1.75191 0.80
5 3 1 1 o 2472.205 2457.503 0.00 1.74269 0.12
2 7 1 1 o 49877.91 49547.92 0.00 1.74261 3.37
1 7 2 1 o 45.987 46.421 0.00 1.74105 0.00
5 3 1 2 o 2261.404 2457.503 0.00 1.74269 0.05
2 7 1 2 o 44985.80 49547.92 0.00 1.74261 1.47
1 7 2 2 o 41.989 46.421 0.00 1.74105 0.00
5 2 2 1 o 12738.101 13146.224 0.00 1.73064 0.72
1 3 5 1 o 7045.332 7220.671 180.00 1.73031 0.39
3 5 3 1 o 8613.581 9135.594 0.00 1.72735 0.60
5 2 2 2 o 12483.365 13146.224 0.00 1.73064 0.35
1 3 5 2 o 6855.376 7220.671 180.00 1.73031 0.19
3 5 3 2 o 8607.113 9135.594 0.00 1.72735 0.30
2 2 5 1 o 155665.53 157585.69 0.00 1.72001 8.80
2 2 5 2 o 153898.50 157585.69 0.00 1.72001 4.32
3 6 2 1 o 12175.159 13044.435 0.00 1.70879 0.70
2 6 3 1 o 12754.692 13100.244 180.00 1.70633 0.77
3 6 2 2 o 12478.484 13044.435 0.00 1.70879 0.36
2 6 3 2 o 12817.083 13100.244 180.00 1.70633 0.38
4 0 4 1 o 338618.63 339616.13 0.00 1.70034 9.48
4 0 4 2 o 330222.69 339616.13 0.00 1.70034 4.58
4 1 4 1 o 19436.436 17966.422 0.00 1.68669 1.18
4 1 4 2 o 18288.680 17966.422 0.00 1.68669 0.55
4 5 2 1 o 4987.884 5101.964 0.00 1.67699 0.34
4 5 2 2 o 5487.213 5101.964 0.00 1.67699 0.19
2 5 4 1 o 114238.02 111238.72 180.00 1.67144 6.47
4 4 3 1 o 167.214 160.861 180.00 1.66781 0.01
2 5 4 2 o 115388.55 111238.72 180.00 1.67144 3.26
0 8 0 1 o 294037.81 283597.78 0.00 1.66687 5.01
3 4 4 1 o 69016.95 68504.16 180.00 1.66462 3.77
4 4 3 2 o 161.548 160.861 180.00 1.66781 0.00
5 3 2 2 o 23040.207 23659.322 180.00 1.66206 0.61
2 7 2 2 o 695.632 720.536 0.00 1.66199 0.03
0 8 0 2 o 285652.53 283597.78 0.00 1.66687 2.41
5 3 2 1 o 23742.100 23659.322 180.00 1.66206 1.28
2 7 2 1 o 723.216 720.536 0.00 1.66199 0.06
3 4 4 2 o 67016.32 68504.16 180.00 1.66462 1.81
2 3 5 1 o 31987.471 33256.082 0.00 1.65264 1.69
2 3 5 2 o 32849.977 33256.082 0.00 1.65264 0.87
4 2 4 1 o 10662.781 10425.402 0.00 1.64761 0.58
5 4 1 1 o 8730.338 8440.354 0.00 1.64702 0.46
4 2 4 2 o 11281.279 10425.402 0.00 1.64761 0.31
5 4 1 2 o 9285.441 8440.354 0.00 1.64702 0.25
5 1 3 1 o 80940.29 71142.21 180.00 1.64057 4.40
1 4 5 1 o 278.331 270.394 0.00 1.63655 0.01
5 1 3 2 o 73788.63 71142.21 180.00 1.64057 1.97
0 7 3 1 o 134860.48 132092.27 180.00 1.63578 4.01
4 6 0 1 o 2668.815 2618.814 180.00 1.63558 0.08
3 1 5 1 o 19203.477 18354.713 0.00 1.63365 1.02
1 4 5 2 o 274.387 270.394 0.00 1.63655 0.01
0 7 3 2 o 131080.45 132092.27 180.00 1.63578 1.93
4 6 0 2 o 2591.297 2618.814 180.00 1.63558 0.04
3 1 5 2 o 18078.908 18354.713 0.00 1.63365 0.47
0 6 4 1 o 7608.935 8024.204 180.00 1.62873 0.22
0 6 4 2 o 7077.180 8024.204 180.00 1.62873 0.10
1 8 1 1 o 32492.113 30063.996 0.00 1.61896 2.05
3 7 1 1 o 63175.60 63115.33 0.00 1.61615 3.65
1 8 1 2 o 30479.934 30063.996 0.00 1.61896 0.95
1 7 3 1 o 14511.372 14433.330 0.00 1.61283 0.79
4 6 1 1 o 2927.375 2893.763 0.00 1.61223 0.16
3 7 1 2 o 63944.01 63115.33 0.00 1.61615 1.84
6 0 0 1 o 79536.09 77364.05 180.00 1.61046 0.92
1 7 3 2 o 14547.022 14433.330 0.00 1.61283 0.39
4 6 1 2 o 2939.461 2893.763 0.00 1.61223 0.08
6 0 0 2 o 75271.85 77364.05 180.00 1.61046 0.43
1 6 4 1 o 37446.14 38731.83 0.00 1.60607 1.98
5 2 3 1 o 59907.86 61022.03 180.00 1.60454 2.70
1 6 4 2 o 36760.77 38731.83 0.00 1.60607 0.96
5 2 3 2 o 59534.76 61022.03 180.00 1.60454 1.33
6 1 0 1 o 128391.19 131333.27 0.00 1.59884 3.20
3 2 5 1 o 1914.712 1963.432 180.00 1.59807 0.15
0 0 6 1 o 42943.96 44776.06 180.00 1.59584 0.55
6 1 0 2 o 125266.50 131333.27 0.00 1.59884 1.55
3 2 5 2 o 1820.697 1963.432 180.00 1.59807 0.07
0 0 6 2 o 43310.59 44776.06 180.00 1.59584 0.27
4 3 4 1 o 8394.834 8055.080 0.00 1.58812 0.47
3 6 3 1 o 5450.974 5266.974 0.00 1.58709 0.21
4 3 4 2 o 8072.262 8055.080 0.00 1.58812 0.23
3 6 3 2 o 5230.533 5266.974 0.00 1.58709 0.10
5 4 2 1 o 53766.54 53990.52 0.00 1.57845 2.62
6 1 1 1 o 5882.949 5927.712 0.00 1.57701 0.24
2 8 0 1 o 2433.044 2469.984 180.00 1.57573 0.03
5 4 2 2 o 51414.97 53990.52 0.00 1.57845 1.23
1 0 6 1 o 4245.718 4484.685 180.00 1.57451 0.11
0 8 2 1 o 21432.658 22275.580 0.00 1.57419 0.50
6 1 1 2 o 5727.326 5927.712 0.00 1.57701 0.11
2 8 0 2 o 2407.149 2469.984 180.00 1.57573 0.02
1 0 6 2 o 4102.130 4484.685 180.00 1.57451 0.05
2 4 5 1 o 29447.877 32038.264 180.00 1.57038 1.39
0 8 2 2 o 20740.295 22275.580 0.00 1.57419 0.24
2 4 5 2 o 30164.631 32038.264 180.00 1.57038 0.71
6 2 0 1 o 30850.814 31994.289 180.00 1.56544 0.72
1 1 6 1 o 25280.426 25416.861 180.00 1.56365 1.12
6 2 0 2 o 32204.885 31994.289 180.00 1.56544 0.37
4 5 3 1 o 38847.60 38559.88 180.00 1.56151 1.88
1 1 6 2 o 26149.934 25416.861 180.00 1.56365 0.58
3 5 4 1 o 5935.103 5693.875 0.00 1.55889 0.27
4 5 3 2 o 42228.69 38559.88 180.00 1.56151 1.03
0 5 5 1 o 2307.588 2082.188 180.00 1.55554 0.05
3 5 4 2 o 6179.591 5693.875 0.00 1.55889 0.14
2 8 1 1 o 58552.99 54230.60 180.00 1.55481 3.18
1 8 2 1 o 33341.465 32045.770 0.00 1.55370 1.74
0 2 6 1 o 19448.283 19266.195 0.00 1.55201 0.42
0 5 5 2 o 2091.761 2082.188 180.00 1.55554 0.02
3 7 2 1 o 16.987 17.111 0.00 1.55122 0.00
2 8 1 2 o 53826.57 54230.60 180.00 1.55481 1.43
1 8 2 2 o 31273.691 32045.770 0.00 1.55370 0.80
5 3 3 1 o 10671.707 11088.534 0.00 1.54944 0.55
2 7 3 1 o 27547.791 28551.500 0.00 1.54938 1.44
0 2 6 2 o 18253.842 19266.195 0.00 1.55201 0.19
4 6 2 1 o 20011.238 21316.438 0.00 1.54775 1.01
3 7 2 2 o 14.980 17.111 0.00 1.55122 0.00
5 3 3 2 o 10540.833 11088.534 0.00 1.54944 0.27
2 7 3 2 o 27319.775 28551.500 0.00 1.54938 0.71
6 2 1 1 o 72675.59 74925.55 0.00 1.54493 3.21
5 5 1 1 o 2312.241 2391.609 180.00 1.54441 0.14
4 6 2 2 o 20818.240 21316.438 0.00 1.54775 0.52
3 3 5 1 o 23911.273 24329.750 0.00 1.54361 0.99
2 6 4 1 o 31445.506 31976.742 180.00 1.54339 1.54
6 2 1 2 o 72280.38 74925.55 0.00 1.54493 1.59
5 5 1 2 o 2299.148 2391.609 180.00 1.54441 0.07
3 3 5 2 o 24035.145 24329.750 0.00 1.54361 0.50
2 6 4 2 o 31748.182 31976.742 180.00 1.54339 0.78
1 5 5 1 o 30531.746 30328.752 180.00 1.53577 1.50
1 2 6 1 o 41560.46 40496.49 0.00 1.53236 1.81
1 5 5 2 o 30912.176 30328.752 180.00 1.53577 0.76
1 2 6 2 o 41206.05 40496.49 0.00 1.53236 0.89
6 0 2 1 o 53595.67 56681.93 180.00 1.52641 1.18
6 0 2 2 o 53141.45 56681.93 180.00 1.52641 0.58
6 1 2 1 o 209.027 205.803 0.00 1.51651 0.00
2 0 6 1 o 30720.301 30714.445 180.00 1.51532 0.71
4 4 4 1 o 40895.18 42027.71 180.00 1.51470 1.94
6 3 0 1 o 50065.46 52714.05 0.00 1.51414 1.18
6 1 2 2 o 201.904 205.803 0.00 1.51651 0.00
2 0 6 2 o 28468.330 30714.445 180.00 1.51532 0.32
4 4 4 2 o 39506.87 42027.71 180.00 1.51470 0.93
6 3 0 2 o 50381.42 52714.05 0.00 1.51414 0.59
2 1 6 1 o 27825.895 28777.609 0.00 1.50563 1.11
5 0 4 1 o 852.702 893.055 0.00 1.50368 0.02
2 1 6 2 o 29157.219 28777.609 0.00 1.50563 0.59
5 0 4 2 o 923.570 893.055 0.00 1.50368 0.01
2 8 2 1 o 56633.83 60880.95 180.00 1.49674 2.99
4 7 0 1 o 3415.993 3595.021 180.00 1.49584 0.10
6 3 1 1 o 75388.73 77418.26 0.00 1.49556 3.15
5 1 4 1 o 10700.788 10800.450 180.00 1.49421 0.43
2 8 2 2 o 57743.95 60880.95 180.00 1.49674 1.52
4 7 0 2 o 3420.660 3595.021 180.00 1.49584 0.05
6 3 1 2 o 75109.44 77418.26 0.00 1.49556 1.56
4 1 5 1 o 7013.160 7072.973 0.00 1.49126 0.27
5 1 4 2 o 10877.638 10800.450 180.00 1.49421 0.22
6 2 2 1 o 17463.943 18803.693 180.00 1.48792 0.67
4 1 5 2 o 6671.980 7072.973 0.00 1.49126 0.13
5 5 2 1 o 94856.08 99895.12 0.00 1.48745 4.06
6 2 2 2 o 17875.441 18803.693 180.00 1.48792 0.34
1 3 6 1 o 10742.493 11320.974 180.00 1.48415 0.46
5 5 2 2 o 96469.24 99895.12 0.00 1.48745 2.06
5 4 3 1 o 19153.615 19568.145 0.00 1.48104 0.81
2 5 5 1 o 24673.732 24886.762 0.00 1.48069 1.10
1 3 6 2 o 11334.302 11320.974 180.00 1.48415 0.24
4 7 1 1 o 238512.48 240085.28 180.00 1.47791 10.95
2 2 6 1 o 7533.919 7421.360 180.00 1.47764 0.30
5 4 3 2 o 20290.643 19568.145 0.00 1.48104 0.43
2 5 5 2 o 26510.051 24886.762 0.00 1.48069 0.60
3 4 5 1 o 463.897 441.813 180.00 1.47594 0.02
4 7 1 2 o 243399.19 240085.28 180.00 1.47791 5.58
2 2 6 2 o 7747.002 7421.360 180.00 1.47764 0.16
1 7 4 1 o 71.618 62.670 0.00 1.47316 0.00
3 4 5 2 o 498.806 441.813 180.00 1.47594 0.01
1 7 4 2 o 64.577 62.670 0.00 1.47316 0.00
5 2 4 1 o 20871.279 17385.016 0.00 1.46684 0.86
0 9 1 1 o 68548.52 64856.86 180.00 1.46424 1.68
4 2 5 1 o 5978.138 5640.560 0.00 1.46405 0.23
5 2 4 2 o 19126.803 17385.016 0.00 1.46684 0.38
3 8 1 1 o 9493.449 8608.634 180.00 1.46300 0.43
0 9 1 2 o 67116.62 64856.86 180.00 1.46424 0.81
1 8 3 1 o 33191.434 32126.613 0.00 1.46053 1.48
4 2 5 2 o 5827.454 5640.560 0.00 1.46405 0.11
3 8 1 2 o 8663.025 8608.634 180.00 1.46300 0.19
3 7 3 1 o 99398.54 100201.75 0.00 1.45847 4.20
1 8 3 2 o 32645.855 32126.613 0.00 1.46053 0.72
4 6 3 1 o 86.624 86.738 180.00 1.45559 0.00
3 7 3 2 o 102151.99 100201.75 0.00 1.45847 2.16
3 6 4 1 o 1505.062 1267.178 180.00 1.45346 0.07
4 6 3 2 o 100.487 86.738 180.00 1.45559 0.00
6 4 0 1 o 9787.051 7574.182 180.00 1.45012 0.22
3 6 4 2 o 1656.891 1267.178 180.00 1.45346 0.04
1 9 1 1 o 4402.416 3313.700 180.00 1.44771 0.21
6 4 0 2 o 10472.091 7574.182 180.00 1.45012 0.12
1 9 1 2 o 4153.288 3313.700 180.00 1.44771 0.10
6 3 2 1 o 845.817 598.855 180.00 1.44366 0.05
5 6 1 1 o 36175.60 36114.31 0.00 1.44171 1.59
6 3 2 2 o 583.378 598.855 180.00 1.44366 0.02
0 4 6 1 o 181102.45 183496.67 0.00 1.43942 3.84
5 6 1 2 o 36733.39 36114.31 0.00 1.44171 0.81
0 4 6 2 o 178373.67 183496.67 0.00 1.43942 1.88
1 6 5 1 o 13201.250 13126.898 0.00 1.43467 0.65
2 3 6 1 o 3104.178 3065.300 0.00 1.43427 0.10
6 4 1 1 o 21789.020 21102.510 180.00 1.43377 0.89
4 5 4 1 o 15574.425 15038.563 180.00 1.43374 0.69
1 6 5 2 o 13112.404 13126.898 0.00 1.43467 0.32
2 3 6 2 o 3066.540 3065.300 0.00 1.43427 0.05
6 4 1 2 o 21398.084 21102.510 180.00 1.43377 0.43
4 5 4 2 o 15278.632 15038.563 180.00 1.43374 0.34
3 0 6 1 o 144759.97 141317.39 180.00 1.42995 2.70
6 1 3 1 o 43238.48 41632.16 0.00 1.42951 1.65
4 7 2 1 o 4955.280 4884.948 0.00 1.42777 0.27
3 0 6 2 o 141858.73 141317.39 180.00 1.42995 1.31
6 1 3 2 o 42138.53 41632.16 0.00 1.42951 0.80
5 3 4 1 o 172.012 176.675 180.00 1.42438 0.00
2 7 4 1 o 49.118 54.883 180.00 1.42434 0.00
4 7 2 2 o 4556.111 4884.948 0.00 1.42777 0.12
1 4 6 1 o 103676.27 109614.69 0.00 1.42371 3.97
4 3 5 1 o 185270.70 188751.27 180.00 1.42183 6.96
3 1 6 1 o 16927.137 17235.961 0.00 1.42180 0.63
5 3 4 2 o 175.346 176.675 180.00 1.42438 0.00
2 7 4 2 o 53.191 54.883 180.00 1.42434 0.00
1 4 6 2 o 106937.93 109614.69 0.00 1.42371 2.05
4 3 5 2 o 193394.77 188751.27 180.00 1.42183 3.65
3 1 6 2 o 17687.393 17235.961 0.00 1.42180 0.33
2 9 0 1 o 138356.89 127048.73 180.00 1.41655 3.16
3 8 2 1 o 8949.811 7912.650 0.00 1.41431 0.38
2 9 0 2 o 141931.19 127048.73 180.00 1.41655 1.62
2 8 3 1 o 17860.297 15867.880 0.00 1.41292 0.78
3 8 2 2 o 9132.933 7912.650 0.00 1.41431 0.19
2 8 3 2 o 18446.895 15867.880 0.00 1.41292 0.40
6 2 3 1 o 20142.549 17873.184 180.00 1.40549 0.75
5 5 3 1 o 59.566 31.970 0.00 1.40509 0.01
6 2 3 2 o 20046.393 17873.184 180.00 1.40549 0.37
5 5 3 2 o 54.997 31.970 0.00 1.40509 0.00
2 9 1 1 o 37433.95 34068.098 0.00 1.40129 1.69
3 5 5 1 o 11881.270 10803.555 0.00 1.40074 0.41
1 9 2 1 o 64428.71 56988.80 0.00 1.40048 2.84
3 2 6 1 o 11975.087 10794.401 180.00 1.39816 0.44
2 9 1 2 o 37412.40 34068.098 0.00 1.40129 0.84
3 5 5 2 o 11791.571 10803.555 0.00 1.40074 0.20
1 9 2 2 o 63788.79 56988.80 0.00 1.40048 1.40
5 6 2 1 o 1592.822 1264.991 180.00 1.39505 0.06
3 2 6 2 o 13921.890 10794.401 180.00 1.39816 0.26
5 6 2 2 o 1428.007 1264.991 180.00 1.39505 0.03
2 6 5 1 o 78104.07 82309.77 180.00 1.38946 3.01
6 4 2 1 o 13471.528 12908.545 180.00 1.38785 0.46
2 6 5 2 o 84438.01 82309.77 180.00 1.38946 1.64
6 4 2 2 o 14758.188 12908.545 180.00 1.38785 0.26
2 4 6 1 o 1324.372 1336.416 0.00 1.37950 0.09
6 5 0 1 o 144828.45 142783.47 180.00 1.37861 2.76
2 4 6 2 o 1418.289 1336.416 0.00 1.37950 0.05
6 5 0 2 o 153001.06 142783.47 180.00 1.37861 1.46
4 8 0 1 o 2795.924 1902.785 0.00 1.37196 0.08
5 4 4 1 o 27334.113 22441.170 0.00 1.37070 0.97
4 8 0 2 o 2402.285 1902.785 0.00 1.37196 0.03
4 4 5 1 o 3293.201 2797.981 180.00 1.36842 0.13
6 3 3 1 o 18965.582 16482.895 0.00 1.36801 0.70
0 8 4 1 o 1452.297 1153.476 0.00 1.36790 0.05
5 4 4 2 o 25599.477 22441.170 0.00 1.37070 0.45
4 4 5 2 o 2744.741 2797.981 180.00 1.36842 0.05
6 3 3 2 o 16170.823 16482.895 0.00 1.36801 0.29
6 5 1 1 o 44535.91 45243.72 0.00 1.36454 1.63
0 8 4 2 o 1121.833 1153.476 0.00 1.36790 0.02
3 3 6 1 o 4404.405 4474.611 0.00 1.36125 0.15
6 5 1 2 o 44655.85 45243.72 0.00 1.36454 0.81
0 1 7 1 o 4411.228 4376.300 180.00 1.36072 0.07
7 1 1 1 o 384.326 384.848 180.00 1.35915 0.00
2 9 2 1 o 9518.716 9757.879 180.00 1.35834 0.41
4 8 1 1 o 7584.780 7710.683 180.00 1.35809 0.32
3 3 6 2 o 4449.765 4474.611 0.00 1.36125 0.08
0 1 7 2 o 4461.350 4376.300 180.00 1.36072 0.04
1 5 6 1 o 38193.54 37207.29 0.00 1.35586 1.35
7 1 1 2 o 387.093 384.848 180.00 1.35915 0.00
2 9 2 2 o 9981.880 9757.879 180.00 1.35834 0.21
4 8 1 2 o 7897.078 7710.683 180.00 1.35809 0.17
4 7 3 1 o 87.321 84.098 0.00 1.35446 0.01
1 8 4 1 o 26539.199 25904.283 0.00 1.35440 1.01
5 1 5 1 o 11299.555 10801.204 180.00 1.35325 0.37
3 7 4 1 o 305.934 284.109 0.00 1.35275 0.02
1 5 6 2 o 39361.23 37207.29 0.00 1.35586 0.70
4 7 3 2 o 84.577 84.098 0.00 1.35446 0.00
1 8 4 2 o 25964.002 25904.283 0.00 1.35440 0.49
0 7 5 1 o 230826.61 229207.30 180.00 1.35056 4.32
4 6 4 1 o 85433.02 84579.63 0.00 1.35045 2.97
5 1 5 2 o 11089.670 10801.204 180.00 1.35325 0.18
3 7 4 2 o 297.455 284.109 0.00 1.35275 0.01
1 1 7 1 o 86273.88 87358.34 180.00 1.34743 2.83
0 7 5 2 o 227094.64 229207.30 180.00 1.35056 2.11
4 6 4 2 o 84073.87 84579.63 0.00 1.35045 1.45
1 1 7 2 o 85616.67 87358.34 180.00 1.34743 1.40
0 9 3 1 o 13880.044 14186.452 180.00 1.34391 0.28
5 7 1 1 o 10142.603 10213.029 180.00 1.34326 0.34
3 8 3 1 o 29853.754 29714.477 180.00 1.34295 1.18
0 9 3 2 o 14269.809 14186.452 180.00 1.34391 0.14
5 7 1 2 o 10035.304 10213.029 180.00 1.34326 0.17
3 8 3 2 o 29179.207 29714.477 180.00 1.34295 0.57
7 2 1 1 o 4174.952 4312.837 0.00 1.33846 0.13
1 7 5 1 o 39370.23 42149.13 180.00 1.33756 1.45
6 0 4 1 o 148.882 150.074 180.00 1.33621 0.00
7 2 1 2 o 4370.785 4312.837 0.00 1.33846 0.07
1 7 5 2 o 42637.14 42149.13 180.00 1.33756 0.79
0 10 0 2 o 22172.078 21128.025 180.00 1.33350 0.11
0 10 0 1 o 21938.496 21128.025 180.00 1.33350 0.22
3 9 1 2 o 1385.913 1306.325 0.00 1.33296 0.04
6 1 4 1 o 39633.90 38223.75 180.00 1.32955 1.22
5 2 5 2 o 1642.977 1591.016 0.00 1.33282 0.02
3 9 1 1 o 1388.652 1306.325 0.00 1.33296 0.08
6 0 4 2 o 154.212 150.074 180.00 1.33621 0.00
5 2 5 1 o 1645.235 1591.016 0.00 1.33282 0.05
4 0 6 2 o 82380.20 81336.45 0.00 1.33153 0.65
4 0 6 1 o 85365.26 81336.45 0.00 1.33153 1.36
1 9 3 2 o 20975.320 20988.496 180.00 1.33110 0.40
1 9 3 1 o 22142.869 20988.496 180.00 1.33110 0.87
1 2 7 1 o 24773.852 25176.914 180.00 1.32726 0.67
5 6 3 1 o 24244.172 24631.477 0.00 1.32643 0.76
7 0 2 1 o 122042.78 123985.40 180.00 1.32636 1.92
6 1 4 2 o 37718.78 38223.75 180.00 1.32955 0.57
4 1 6 1 o 77.688 77.829 0.00 1.32494 0.00
6 5 2 1 o 686.973 691.335 180.00 1.32478 0.01
1 2 7 2 o 24599.320 25176.914 180.00 1.32726 0.33
5 6 3 2 o 24061.418 24631.477 0.00 1.32643 0.37
7 0 2 2 o 121039.02 123985.40 180.00 1.32636 0.95
3 6 5 1 o 69.709 73.727 0.00 1.32276 0.01
4 1 6 2 o 77.270 77.829 0.00 1.32494 0.00
6 5 2 2 o 677.335 691.335 180.00 1.32478 0.01
6 4 3 1 o 8234.279 8153.425 0.00 1.32024 0.29
7 1 2 1 o 19113.305 18738.471 0.00 1.31985 0.66
3 6 5 2 o 77.510 73.727 0.00 1.32276 0.00
4 8 2 1 o 2683.601 2681.888 0.00 1.31887 0.07
2 5 6 1 o 51817.48 54239.59 180.00 1.31751 1.73
6 4 3 2 o 7782.426 8153.425 0.00 1.32024 0.14
7 1 2 2 o 17986.838 18738.471 0.00 1.31985 0.30
2 8 4 1 o 9494.800 9792.552 180.00 1.31617 0.28
4 8 2 2 o 2610.547 2681.888 0.00 1.31887 0.03
2 5 6 2 o 52882.98 54239.59 180.00 1.31751 0.88
3 4 6 1 o 2573.623 2629.385 0.00 1.31416 0.09
2 8 4 2 o 9699.240 9792.552 180.00 1.31617 0.15
3 4 6 2 o 2429.933 2629.385 0.00 1.31416 0.04
6 2 4 1 o 20763.650 22939.490 180.00 1.31016 0.63
5 5 4 1 o 8827.640 9785.291 0.00 1.30984 0.26
2 1 7 1 o 1734.812 1927.702 0.00 1.30977 0.05
1 10 1 1 o 782.147 852.417 0.00 1.30858 0.02
4 5 5 1 o 20970.559 23458.301 180.00 1.30785 0.64
0 3 7 1 o 3041.408 3411.729 180.00 1.30736 0.05
6 2 4 2 o 20716.934 22939.490 180.00 1.31016 0.31
5 5 4 2 o 8968.572 9785.291 0.00 1.30984 0.13
2 1 7 2 o 1769.194 1927.702 0.00 1.30977 0.02
7 3 1 1 o 20998.955 22659.777 0.00 1.30597 0.58
4 2 6 1 o 136.424 143.574 0.00 1.30574 0.00
1 10 1 2 o 799.652 852.417 0.00 1.30858 0.01
5 7 2 1 o 2505.610 2819.409 180.00 1.30528 0.10
4 5 5 2 o 21239.533 23458.301 180.00 1.30785 0.33
0 3 7 2 o 3067.571 3411.729 180.00 1.30736 0.02
6 6 0 1 o 79270.91 88243.16 180.00 1.30408 1.35
7 3 1 2 o 20167.664 22659.777 0.00 1.30597 0.27
4 2 6 2 o 132.895 143.574 0.00 1.30574 0.00
5 7 2 2 o 2402.854 2819.409 180.00 1.30528 0.05
6 6 0 2 o 78164.70 88243.16 180.00 1.30408 0.66
7 2 2 1 o 1.750 2.047 0.00 1.30087 0.00
5 3 5 1 o 33118.230 37516.60 180.00 1.30073 1.08
2 7 5 1 o 3779.492 4240.135 0.00 1.30070 0.12
7 2 2 2 o 1.732 2.047 0.00 1.30087 0.00
5 3 5 2 o 33357.199 37516.60 180.00 1.30073 0.54
2 7 5 2 o 3817.548 4240.135 0.00 1.30070 0.06
0 6 6 1 o 526.420 531.515 180.00 1.29628 0.01
3 9 2 1 o 17367.027 17364.105 180.00 1.29583 0.57
1 3 7 1 o 3249.187 3258.485 0.00 1.29556 0.11
2 9 3 1 o 14523.842 14980.251 0.00 1.29475 0.49
0 6 6 2 o 526.587 531.515 180.00 1.29628 0.00
3 9 2 2 o 16956.641 17364.105 180.00 1.29583 0.28
1 3 7 2 o 3140.344 3258.485 0.00 1.29556 0.05
6 6 1 1 o 38148.47 39767.16 180.00 1.29215 1.25
2 9 3 2 o 14411.786 14980.251 0.00 1.29475 0.24
2 2 7 1 o 3626.436 3754.235 0.00 1.29122 0.14
6 6 1 2 o 34532.488 39767.16 180.00 1.29215 0.55
2 2 7 2 o 3065.621 3754.235 0.00 1.29122 0.06
2 10 0 1 o 28589.508 33955.586 180.00 1.28543 0.48
1 6 6 1 o 989.222 1218.720 0.00 1.28477 0.03
0 10 2 1 o 4251.677 5205.767 0.00 1.28460 0.07
2 10 0 2 o 31415.785 33955.586 180.00 1.28543 0.27
1 6 6 2 o 1229.921 1218.720 0.00 1.28477 0.02
0 10 2 2 o 5365.445 5205.767 0.00 1.28460 0.05
6 3 4 1 o 7197.192 6532.141 180.00 1.27964 0.20
6 3 4 2 o 6632.245 6532.141 180.00 1.27964 0.09
4 3 6 1 o 2.400 0.010 180.00 1.27553 0.00
2 10 1 1 o 14229.637 14518.298 180.00 1.27400 0.54
1 10 2 1 o 25468.832 26983.531 180.00 1.27339 0.94
4 3 6 2 o -1.606 0.010 180.00 1.27553 0.00
7 3 2 1 o 3417.834 3647.030 0.00 1.27098 0.11
2 10 1 2 o 13611.440 14518.298 180.00 1.27400 0.25
1 10 2 2 o 26003.900 26983.531 180.00 1.27339 0.48
4 7 4 1 o 1026.854 1096.524 180.00 1.26853 0.05
7 3 2 2 o 3395.239 3647.030 0.00 1.27098 0.05
6 5 3 1 o 18238.320 17402.641 0.00 1.26560 0.56
4 7 4 2 o 1181.668 1096.524 180.00 1.26853 0.03
7 4 1 1 o 5392.065 5465.297 180.00 1.26422 0.19
4 9 0 1 o 5847.656 6314.199 180.00 1.26302 0.10
6 5 3 2 o 16174.699 17402.641 0.00 1.26560 0.24
2 3 7 1 o 5947.687 6369.419 0.00 1.26197 0.18
7 1 3 1 o 12202.779 12723.175 180.00 1.26129 0.38
7 4 1 2 o 5271.971 5465.297 180.00 1.26422 0.09
4 8 3 1 o 2332.186 2420.639 0.00 1.26044 0.09
3 5 6 1 o 11783.638 12246.379 180.00 1.26024 0.33
4 9 0 2 o 5974.569 6314.199 180.00 1.26302 0.05
5 4 5 1 o 2197.633 2367.745 180.00 1.25947 0.07
3 8 4 1 o 2541.401 2743.813 180.00 1.25906 0.09
2 3 7 2 o 5908.915 6369.419 0.00 1.26197 0.09
6 6 2 1 o 24064.893 25514.715 180.00 1.25824 0.72
7 1 3 2 o 11941.790 12723.175 180.00 1.26129 0.19
4 8 3 2 o 2267.249 2420.639 0.00 1.26044 0.04
3 5 6 2 o 11526.219 12246.379 180.00 1.26024 0.16
5 4 5 2 o 2168.940 2367.745 180.00 1.25947 0.04
3 8 4 2 o 2534.353 2743.813 180.00 1.25906 0.04
6 6 2 2 o 24289.779 25514.715 180.00 1.25824 0.36
1 4 7 1 o 15783.624 16297.842 0.00 1.25477 0.48
3 1 7 1 o 404.025 406.278 180.00 1.25346 0.01
4 9 1 1 o 8849.446 9132.066 180.00 1.25217 0.30
2 6 6 1 o 11444.326 11885.744 180.00 1.25200 0.35
1 4 7 2 o 15527.522 16297.842 0.00 1.25477 0.24
5 8 1 1 o 22482.477 23655.131 180.00 1.25139 0.73
3 1 7 2 o 381.264 406.278 180.00 1.25346 0.01
1 9 4 1 o 3347.029 3503.376 0.00 1.24928 0.09
4 9 1 2 o 8623.911 9132.066 180.00 1.25217 0.14
2 6 6 2 o 11201.041 11885.744 180.00 1.25200 0.17
5 7 3 1 o 56752.89 60683.88 180.00 1.24856 1.81
5 8 1 2 o 22048.746 23655.131 180.00 1.25139 0.35
1 8 5 1 o 412.493 420.170 180.00 1.24678 0.01
1 9 4 2 o 3395.215 3503.376 0.00 1.24928 0.05
3 7 5 1 o 5025.727 5277.097 0.00 1.24550 0.16
5 7 3 2 o 57796.82 60683.88 180.00 1.24856 0.92
5 6 4 1 o 1048.217 1086.980 0.00 1.24541 0.03
7 2 3 1 o 12608.929 12466.837 0.00 1.24470 0.37
1 8 5 2 o 447.159 420.170 180.00 1.24678 0.01
4 6 5 1 o 4837.101 4433.032 180.00 1.24370 0.15
3 7 5 2 o 5472.326 5277.097 0.00 1.24550 0.09
5 6 4 2 o 1112.104 1086.980 0.00 1.24541 0.01
7 2 3 2 o 12273.993 12466.837 0.00 1.24470 0.18
2 10 2 1 o 32511.855 32988.910 180.00 1.24146 1.15
4 6 5 2 o 4568.827 4433.032 180.00 1.24370 0.07
6 4 4 1 o 53882.72 51744.70 180.00 1.24029 1.61
3 9 3 1 o 312.494 292.745 180.00 1.24028 0.02
2 10 2 2 o 31865.674 32988.910 180.00 1.24146 0.56
6 4 4 2 o 51990.67 51744.70 180.00 1.24029 0.77
3 9 3 2 o 295.085 292.745 180.00 1.24028 0.01
3 2 7 1 o 50205.45 49904.18 0.00 1.23717 1.52
4 4 6 1 o 3459.460 3486.134 180.00 1.23654 0.08
3 2 7 2 o 47540.97 49904.18 0.00 1.23717 0.71
4 4 6 2 o 3315.620 3486.134 180.00 1.23654 0.04
7 4 2 1 o 38613.42 40884.85 0.00 1.23240 1.09
5 0 6 1 o 66283.83 69862.65 0.00 1.23052 0.92
6 7 0 1 o 912.620 1009.455 180.00 1.22987 0.02
7 4 2 2 o 37677.51 40884.85 0.00 1.23240 0.53
5 0 6 2 o 67308.27 69862.65 0.00 1.23052 0.47
6 1 5 1 o 31362.148 32291.244 0.00 1.22732 0.87
6 7 0 2 o 985.307 1009.455 180.00 1.22987 0.01
5 1 6 1 o 36023.52 35558.84 0.00 1.22532 1.03
6 1 5 2 o 32144.426 32291.244 0.00 1.22732 0.45
2 4 7 1 o 62.793 63.290 0.00 1.22418 0.00
5 1 6 2 o 39208.61 35558.84 0.00 1.22532 0.56
3 10 1 1 o 9289.701 8222.048 180.00 1.22200 0.36
4 9 2 1 o 663.950 580.209 180.00 1.22123 0.02
2 4 7 2 o 75.243 63.290 0.00 1.22418 0.00
1 10 3 1 o 19078.117 16871.543 0.00 1.22057 0.72
5 8 2 1 o 239.935 220.652 180.00 1.22051 0.01
6 7 1 1 o 4204.716 3920.219 0.00 1.21985 0.12
2 9 4 1 o 78028.27 75412.80 0.00 1.21908 2.50
3 10 1 2 o 8527.335 8222.048 180.00 1.22200 0.17
7 3 3 1 o 116887.40 115221.73 0.00 1.21845 3.32
4 9 2 2 o 585.076 580.209 180.00 1.22123 0.01
1 10 3 2 o 16769.068 16871.543 0.00 1.22057 0.31
5 8 2 2 o 219.675 220.652 180.00 1.22051 0.00
0 5 7 1 o 2520.758 2539.069 180.00 1.21712 0.04
6 7 1 2 o 3892.817 3920.219 0.00 1.21985 0.06
2 8 5 1 o 54068.21 54442.09 0.00 1.21677 1.62
2 9 4 2 o 75174.09 75412.80 0.00 1.21908 1.19
7 5 1 1 o 27.576 27.613 0.00 1.21599 0.00
7 3 3 2 o 114734.53 115221.73 0.00 1.21845 1.62
0 5 7 2 o 2462.219 2539.069 180.00 1.21712 0.02
2 8 5 2 o 52598.79 54442.09 0.00 1.21677 0.78
1 7 6 1 o 136.852 142.418 180.00 1.21363 0.00
7 5 1 2 o 27.218 27.613 0.00 1.21599 0.00
6 2 5 1 o 78320.66 77860.16 180.00 1.21201 2.13
5 5 5 1 o 25300.311 25230.184 180.00 1.21176 0.77
3 3 7 1 o 165449.86 167827.88 0.00 1.21138 4.62
1 7 6 2 o 134.699 142.418 180.00 1.21363 0.00
5 2 6 1 o 13596.828 14347.030 0.00 1.21009 0.37
6 2 5 2 o 76178.50 77860.16 180.00 1.21201 1.03
5 5 5 2 o 24879.451 25230.184 180.00 1.21176 0.38
3 3 7 2 o 166981.95 167827.88 0.00 1.21138 2.33
8 0 0 1 o 171022.41 172982.86 0.00 1.20785 1.13
1 5 7 1 o 7485.535 7615.546 180.00 1.20757 0.20
6 6 3 1 o 11599.382 11893.344 0.00 1.20720 0.34
5 2 6 2 o 13992.295 14347.030 0.00 1.21009 0.19
8 0 0 2 o 185205.83 172982.86 0.00 1.20785 0.62
1 5 7 2 o 8177.255 7615.546 180.00 1.20757 0.11
6 6 3 2 o 12899.236 11893.344 0.00 1.20720 0.19
8 1 0 1 o 22820.801 22619.080 0.00 1.20292 0.33
0 11 1 1 o 151420.89 153274.45 180.00 1.20267 2.54
3 6 6 1 o 57616.18 58808.96 180.00 1.20255 1.59
8 1 0 2 o 22242.451 22619.080 0.00 1.20292 0.16
0 11 1 2 o 150378.20 153274.45 180.00 1.20267 1.26
3 6 6 2 o 57601.93 58808.96 180.00 1.20255 0.79
0 0 8 1 o 58714.89 57994.61 0.00 1.19688 0.41
7 0 4 1 o 56881.76 55144.01 180.00 1.19581 0.76
6 5 4 1 o 51274.19 49196.26 0.00 1.19465 1.36
0 0 8 2 o 60541.23 57994.61 0.00 1.19688 0.21
8 1 1 1 o 973.834 939.514 180.00 1.19354 0.03
1 11 1 1 o 17234.914 16727.887 180.00 1.19346 0.56
3 10 2 1 o 71263.73 69734.11 180.00 1.19320 2.21
7 0 4 2 o 55777.89 55144.01 180.00 1.19581 0.37
2 10 3 1 o 5502.981 5495.220 0.00 1.19236 0.19
6 5 4 2 o 49550.82 49196.26 0.00 1.19465 0.65
4 5 6 1 o 789.725 785.494 180.00 1.19131 0.02
6 7 2 1 o 2630.603 2613.206 0.00 1.19119 0.10
7 1 4 1 o 930.649 929.676 0.00 1.19103 0.02
8 1 1 2 o 924.661 939.514 180.00 1.19354 0.01
1 11 1 2 o 16445.213 16727.887 180.00 1.19346 0.26
4 8 4 1 o 86786.14 89002.27 0.00 1.19031 2.60
3 10 2 2 o 67961.16 69734.11 180.00 1.19320 1.04
2 10 3 2 o 5234.569 5495.220 0.00 1.19236 0.09
8 2 0 1 o 4669.014 4737.571 0.00 1.18850 0.06
4 5 6 2 o 776.146 785.494 180.00 1.19131 0.01
6 7 2 2 o 2556.987 2613.206 0.00 1.19119 0.05
7 1 4 2 o 912.880 929.676 0.00 1.19103 0.01
1 0 8 1 o 492.665 515.341 0.00 1.18780 0.01
6 3 5 1 o 216.338 226.342 180.00 1.18773 0.01
7 5 2 1 o 11586.895 12006.324 180.00 1.18760 0.31
4 8 4 2 o 85607.27 89002.27 0.00 1.19031 1.27
5 3 6 1 o 7993.460 7659.265 0.00 1.18592 0.21
2 7 6 1 o 991.496 938.503 0.00 1.18589 0.03
4 1 7 1 o 964.761 915.138 180.00 1.18558 0.02
8 2 0 2 o 5015.084 4737.571 0.00 1.18850 0.03
1 0 8 2 o 568.930 515.341 0.00 1.18780 0.01
6 3 5 2 o 247.851 226.342 180.00 1.18773 0.00
7 5 2 2 o 12784.685 12006.324 180.00 1.18760 0.18
7 4 3 1 o 4069.527 3823.256 180.00 1.18433 0.12
1 1 8 1 o 20742.846 19126.879 180.00 1.18312 0.54
5 3 6 2 o 8281.226 7659.265 0.00 1.18592 0.11
2 7 6 2 o 1031.803 938.503 0.00 1.18589 0.02
4 1 7 2 o 965.612 915.138 180.00 1.18558 0.01
7 4 3 2 o 4064.893 3823.256 180.00 1.18433 0.06
5 7 4 1 o 81.964 74.987 0.00 1.18029 0.00
2 5 7 1 o 3352.092 3155.489 0.00 1.18024 0.09
1 1 8 2 o 20303.695 19126.879 180.00 1.18312 0.26
8 2 1 1 o 11520.634 10830.341 0.00 1.17945 0.30
4 7 5 1 o 41399.14 38624.09 0.00 1.17884 1.18
0 2 8 1 o 6.286 6.181 180.00 1.17805 0.00
3 4 7 1 o 7605.164 7044.982 180.00 1.17783 0.21
5 7 4 2 o 84.533 74.987 0.00 1.18029 0.00
2 5 7 2 o 3424.518 3155.489 0.00 1.18024 0.05
7 2 4 1 o 5053.906 4659.287 180.00 1.17703 0.13
8 2 1 2 o 11630.831 10830.341 0.00 1.17945 0.15
4 7 5 2 o 41005.09 38624.09 0.00 1.17884 0.58
2 11 0 1 o 29405.273 27690.594 0.00 1.17582 0.49
0 2 8 2 o 6.238 6.181 180.00 1.17805 0.00
3 4 7 2 o 7234.949 7044.982 180.00 1.17783 0.10
4 9 3 1 o 24760.408 24982.639 180.00 1.17441 0.71
7 2 4 2 o 4563.658 4659.287 180.00 1.17703 0.06
5 8 3 1 o 35666.25 36717.54 180.00 1.17377 1.00
3 9 4 1 o 6154.707 6333.925 180.00 1.17329 0.18
2 11 0 2 o 27241.395 27690.594 0.00 1.17582 0.22
0 9 5 1 o 69.211 65.811 180.00 1.17186 0.00
4 2 7 1 o 124.738 113.979 180.00 1.17176 0.00
4 9 3 2 o 26812.607 24982.639 180.00 1.17441 0.39
3 8 5 1 o 836.958 780.639 0.00 1.17122 0.03
8 0 2 1 o 43109.96 40432.00 0.00 1.17115 0.56
5 8 3 2 o 38896.28 36717.54 180.00 1.17377 0.56
3 9 4 2 o 6776.865 6333.925 180.00 1.17329 0.10
1 2 8 1 o 38998.71 34875.980 0.00 1.16939 1.03
0 9 5 2 o 72.191 65.811 180.00 1.17186 0.00
4 2 7 2 o 132.610 113.979 180.00 1.17176 0.00
3 8 5 2 o 860.333 780.639 0.00 1.17122 0.01
8 0 2 2 o 44154.56 40432.00 0.00 1.17115 0.29
4 10 0 1 o 185783.45 177560.67 0.00 1.16744 2.82
5 9 1 1 o 1337.898 1268.966 0.00 1.16708 0.05
2 11 1 1 o 14407.862 13881.258 0.00 1.16705 0.45
8 1 2 1 o 1.670 0.734 0.00 1.16666 0.00
1 11 2 1 o 11878.989 11443.473 180.00 1.16658 0.37
1 2 8 2 o 36214.57 34875.980 0.00 1.16939 0.47
8 3 0 1 o 14644.057 14281.438 0.00 1.16558 0.22
0 10 4 1 o 154601.52 156612.00 0.00 1.16494 2.36
4 10 0 2 o 171498.81 177560.67 0.00 1.16744 1.27
5 9 1 2 o 1173.346 1268.966 0.00 1.16708 0.02
2 11 1 2 o 13130.935 13881.258 0.00 1.16705 0.20
7 6 1 1 o 3053.057 3263.161 180.00 1.16393 0.08
8 1 2 2 o -0.853 0.734 0.00 1.16666 0.00
1 11 2 2 o 10714.477 11443.473 180.00 1.16658 0.16
1 9 5 2 o 6606.090 6997.238 180.00 1.16334 0.09
1 9 5 1 o 6681.760 6997.238 180.00 1.16334 0.18
5 6 5 1 o 498.466 515.564 180.00 1.16021 0.01
8 3 0 2 o 14020.125 14281.438 0.00 1.16558 0.11
0 10 4 2 o 151654.81 156612.00 0.00 1.16494 1.15
2 0 8 1 o 285.637 309.564 0.00 1.16176 0.01
2 0 8 2 o 289.507 309.564 0.00 1.16176 0.00
4 10 1 1 o 1060.976 1108.323 180.00 1.15885 0.03
7 6 1 2 o 3053.500 3263.161 180.00 1.16393 0.04
6 8 0 1 o 38773.10 40284.19 180.00 1.15820 0.52
2 1 8 1 o 13669.376 13691.520 180.00 1.15738 0.32
5 6 5 2 o 515.051 515.564 180.00 1.16021 0.01
8 3 1 1 o 112786.44 112809.35 180.00 1.15704 2.86
1 10 4 1 o 165.062 165.935 0.00 1.15656 0.00
1 6 7 1 o 16251.209 16327.252 0.00 1.15654 0.38
6 4 5 1 o 16540.834 16568.748 0.00 1.15607 0.43
4 10 1 2 o 1107.764 1108.323 180.00 1.15885 0.02
6 8 0 2 o 41046.00 40284.19 180.00 1.15820 0.28
7 3 4 1 o 2276.212 2185.168 0.00 1.15475 0.07
2 1 8 2 o 14179.043 13691.520 180.00 1.15738 0.17
5 4 6 1 o 1582.157 1521.678 0.00 1.15440 0.04
8 3 1 2 o 117113.16 112809.35 180.00 1.15704 1.49
1 10 4 2 o 172.566 165.935 0.00 1.15656 0.00
1 6 7 2 o 16896.084 16327.252 0.00 1.15654 0.20
8 2 2 1 o 19660.191 18889.473 0.00 1.15349 0.51
6 4 5 2 o 17259.230 16568.748 0.00 1.15607 0.22
0 8 6 1 o 9530.557 8921.283 180.00 1.15272 0.16
7 3 4 2 o 2390.070 2185.168 0.00 1.15475 0.04
5 4 6 2 o 1650.656 1521.678 0.00 1.15440 0.02
8 2 2 2 o 20415.264 18889.473 0.00 1.15349 0.27
0 8 6 2 o 9455.454 8921.283 180.00 1.15272 0.08
6 8 1 1 o 35624.13 34061.039 0.00 1.14982 1.00
4 3 7 1 o 5293.101 5065.083 180.00 1.14978 0.14
3 10 3 1 o 881.312 865.862 180.00 1.14941 0.02
6 7 3 1 o 32930.086 30749.631 0.00 1.14761 0.90
1 3 8 1 o 6140.476 5743.997 180.00 1.14754 0.16
6 8 1 2 o 35706.51 34061.039 0.00 1.14982 0.50
4 3 7 2 o 5311.122 5065.083 180.00 1.14978 0.07
3 10 3 2 o 892.750 865.862 180.00 1.14941 0.01
6 6 4 1 o 1994.473 1843.040 180.00 1.14517 0.05
6 7 3 2 o 33761.719 30749.631 0.00 1.14761 0.46
1 3 8 2 o 6310.375 5743.997 180.00 1.14754 0.08
1 8 6 1 o 2647.890 2401.805 0.00 1.14461 0.08
2 2 8 1 o 418.049 387.380 180.00 1.14452 0.01
7 5 3 1 o 24370.652 22127.721 0.00 1.14440 0.68
3 7 6 1 o 4.499 3.725 180.00 1.14361 0.00
6 6 4 2 o 1949.726 1843.040 180.00 1.14517 0.02
4 6 6 1 o 40380.27 38238.91 0.00 1.14222 1.07
5 9 2 1 o 56771.90 54470.41 180.00 1.14191 1.58
2 11 2 1 o 355.871 345.366 0.00 1.14189 0.01
1 8 6 2 o 2497.616 2401.805 0.00 1.14461 0.04
2 2 8 2 o 398.372 387.380 180.00 1.14452 0.00
7 5 3 2 o 22855.615 22127.721 0.00 1.14440 0.32
3 7 6 2 o 3.949 3.725 180.00 1.14361 0.00
4 6 6 2 o 39395.85 38238.91 0.00 1.14222 0.52
5 9 2 2 o 55469.59 54470.41 180.00 1.14191 0.77
2 11 2 2 o 349.780 345.366 0.00 1.14189 0.00
7 6 2 1 o 41173.01 40688.39 180.00 1.13896 1.04
2 9 5 1 o 11685.635 11602.343 0.00 1.13884 0.33
3 5 7 1 o 46141.00 46364.70 0.00 1.13854 1.23
7 6 2 2 o 39295.91 40688.39 180.00 1.13896 0.49
2 9 5 2 o 11219.337 11602.343 0.00 1.13884 0.15
3 5 7 2 o 44944.83 46364.70 0.00 1.13854 0.59
8 4 0 1 o 4752.714 4884.533 180.00 1.13561 0.06
4 10 2 1 o 33181.813 35217.27 0.00 1.13420 0.91
6 0 6 1 o 571.467 674.414 180.00 1.13356 0.01
0 11 3 1 o 142.770 163.396 180.00 1.13328 0.00
8 4 0 2 o 4166.591 4884.533 180.00 1.13561 0.02
8 3 2 1 o 426.413 564.108 180.00 1.13250 0.02
2 10 4 1 o 4008.066 4639.523 180.00 1.13248 0.10
2 6 7 1 o 343.445 415.785 180.00 1.13246 0.01
4 10 2 2 o 33535.961 35217.27 0.00 1.13420 0.46
6 0 6 2 o 691.839 674.414 180.00 1.13356 0.01
0 11 3 2 o 170.961 163.396 180.00 1.13328 0.00
8 3 2 2 o 652.976 564.108 180.00 1.13250 0.01
2 10 4 2 o 5045.806 4639.523 180.00 1.13248 0.07
2 6 7 2 o 462.121 415.785 180.00 1.13246 0.01
6 1 6 1 o 31490.455 28966.014 180.00 1.12949 0.83
8 4 1 1 o 2289.395 2049.183 180.00 1.12770 0.06
6 1 6 2 o 32673.811 28966.014 180.00 1.12949 0.43
3 11 1 1 o 13525.653 12067.189 180.00 1.12669 0.41
0 4 8 1 o 39727.26 35803.62 180.00 1.12648 0.55
6 8 2 1 o 32103.813 31302.295 180.00 1.12572 0.90
8 1 3 1 o 28123.365 27693.295 180.00 1.12563 0.65
7 4 4 1 o 57.567 57.034 0.00 1.12559 0.00
1 11 3 1 o 39223.29 38820.26 180.00 1.12556 1.10
8 4 1 2 o 2010.508 2049.183 180.00 1.12770 0.02
2 3 8 1 o 4158.169 4072.432 180.00 1.12401 0.10
3 11 1 2 o 12391.280 12067.189 180.00 1.12669 0.19
0 4 8 2 o 37113.02 35803.62 180.00 1.12648 0.26
6 8 2 2 o 32202.863 31302.295 180.00 1.12572 0.45
8 1 3 2 o 28395.477 27693.295 180.00 1.12563 0.33
7 4 4 2 o 58.102 57.034 0.00 1.12559 0.00
1 11 3 2 o 39794.07 38820.26 180.00 1.12556 0.56
3 0 8 1 o 101473.27 100186.56 180.00 1.12192 1.20
2 8 6 1 o 15319.726 15806.686 180.00 1.12125 0.45
2 3 8 2 o 3963.460 4072.432 180.00 1.12401 0.05
4 4 7 1 o 46.699 48.932 180.00 1.12098 0.00
3 0 8 2 o 105597.03 100186.56 180.00 1.12192 0.63
1 4 8 1 o 70402.31 66982.84 0.00 1.11890 1.71
6 5 5 1 o 3412.888 3259.851 0.00 1.11884 0.08
2 8 6 2 o 16582.758 15806.686 180.00 1.12125 0.24
4 4 7 2 o 51.426 48.932 180.00 1.12098 0.00
3 1 8 1 o 13956.744 13435.401 0.00 1.11797 0.35
6 2 6 1 o 13615.638 13263.048 180.00 1.11753 0.35
5 5 6 1 o 37000.54 36435.38 180.00 1.11733 0.92
4 9 4 1 o 7099.095 7084.926 0.00 1.11706 0.21
5 8 4 1 o 1954.406 1959.538 0.00 1.11651 0.05
1 4 8 2 o 67730.82 66982.84 0.00 1.11890 0.81
6 5 5 2 o 3300.040 3259.851 0.00 1.11884 0.04
7 1 5 1 o 34518.582 33840.426 0.00 1.11587 0.89
4 8 5 1 o 3502.005 3409.250 0.00 1.11528 0.09
3 1 8 2 o 13811.762 13435.401 0.00 1.11797 0.17
6 2 6 2 o 13674.071 13263.048 180.00 1.11753 0.17
5 5 6 2 o 37464.77 36435.38 180.00 1.11733 0.47
4 9 4 2 o 7325.840 7084.926 0.00 1.11706 0.11
8 2 3 1 o 2218.203 2086.756 180.00 1.11379 0.05
5 8 4 2 o 2084.509 1959.538 0.00 1.11651 0.03
7 1 5 2 o 37865.98 33840.426 0.00 1.11587 0.49
5 1 7 1 o 6139.551 5479.652 180.00 1.11260 0.17
4 8 5 2 o 3773.289 3409.250 0.00 1.11528 0.05
0 12 0 1 o 5046.350 4773.390 0.00 1.11125 0.03
0 7 7 1 o 3255.104 3046.639 180.00 1.11110 0.04
8 2 3 2 o 2229.756 2086.756 180.00 1.11379 0.03
7 7 1 1 o 13213.472 12073.349 180.00 1.11024 0.32
5 1 7 2 o 6276.909 5479.652 180.00 1.11260 0.08
0 12 0 2 o 5567.404 4773.390 0.00 1.11125 0.02
0 7 7 2 o 3627.905 3046.639 180.00 1.11110 0.02
7 7 1 2 o 13777.414 12073.349 180.00 1.11024 0.17
5 7 5 1 o 2825.994 2506.904 180.00 1.10702 0.06
3 2 8 1 o 8106.274 7052.360 180.00 1.10637 0.19
8 4 2 1 o 6959.539 6160.240 0.00 1.10495 0.17
7 2 5 1 o 788.968 725.495 180.00 1.10433 0.02
5 7 5 2 o 2659.514 2506.904 180.00 1.10702 0.03
3 11 2 1 o 5934.078 5746.104 0.00 1.10399 0.17
1 7 7 1 o 102579.13 101773.02 180.00 1.10383 2.59
3 2 8 2 o 6927.316 7052.360 180.00 1.10637 0.08
5 9 3 1 o 7998.421 8588.359 180.00 1.10335 0.25
2 11 3 1 o 19544.084 20791.746 0.00 1.10333 0.55
8 4 2 2 o 5820.705 6160.240 0.00 1.10495 0.07
7 2 5 2 o 710.850 725.495 180.00 1.10433 0.01
3 11 2 2 o 5624.964 5746.104 0.00 1.10399 0.08
3 9 5 1 o 16459.654 16860.014 0.00 1.10124 0.45
5 2 7 1 o 67957.23 69914.38 0.00 1.10116 1.64
1 7 7 2 o 98700.73 101773.02 180.00 1.10383 1.23
7 6 3 1 o 7332.866 7862.723 180.00 1.10069 0.19
5 9 3 2 o 7890.271 8588.359 180.00 1.10335 0.13
2 11 3 2 o 19339.689 20791.746 0.00 1.10333 0.27
8 5 0 1 o 24336.420 26815.682 180.00 1.10027 0.31
3 9 5 2 o 16863.822 16860.014 0.00 1.10124 0.23
5 2 7 2 o 70102.30 69914.38 0.00 1.10116 0.85
6 3 6 1 o 11793.272 11747.018 180.00 1.09841 0.31
7 6 3 2 o 7889.986 7862.723 180.00 1.10069 0.10
8 5 0 2 o 26941.191 26815.682 180.00 1.10027 0.18
2 4 8 1 o 11502.868 11288.340 180.00 1.09706 0.33
1 12 1 1 o 20625.400 20217.750 180.00 1.09671 0.62
4 10 3 1 o 224.862 220.480 0.00 1.09639 0.01
6 3 6 2 o 11616.854 11747.018 180.00 1.09841 0.15
3 10 4 1 o 31434.863 32230.998 180.00 1.09549 0.83
3 6 7 1 o 23583.719 24274.178 180.00 1.09547 0.62
8 3 3 1 o 261.512 271.835 180.00 1.09486 0.01
2 4 8 2 o 11057.643 11288.340 180.00 1.09706 0.16
1 12 1 2 o 20402.266 20217.750 180.00 1.09671 0.31
6 7 4 1 o 3879.933 3814.244 180.00 1.09393 0.13
4 10 3 2 o 225.923 220.480 0.00 1.09639 0.00
8 5 1 1 o 32215.570 31689.459 180.00 1.09308 0.78
3 10 4 2 o 32662.939 32230.998 180.00 1.09549 0.44
3 6 7 2 o 24635.027 24274.178 180.00 1.09547 0.33
8 3 3 2 o 284.890 271.835 180.00 1.09486 0.00
4 7 6 1 o 120.942 97.752 0.00 1.09136 0.01
6 7 4 2 o 4490.824 3814.244 180.00 1.09393 0.07
7 5 4 1 o 2729.811 2396.558 180.00 1.09115 0.07
5 10 1 1 o 5672.475 5190.190 180.00 1.09042 0.17
6 9 0 1 o 74548.30 68826.29 0.00 1.09039 1.00
8 5 1 2 o 34279.555 31689.459 180.00 1.09308 0.42
6 8 3 1 o 9360.904 9522.236 180.00 1.08873 0.24
4 7 6 2 o 94.772 97.752 0.00 1.09136 0.00
7 7 2 1 o 76.472 78.506 180.00 1.08851 0.00
7 5 4 2 o 2354.676 2396.558 180.00 1.09115 0.03
3 3 8 1 o 2867.062 2901.294 0.00 1.08781 0.07
5 10 1 2 o 5117.325 5190.190 180.00 1.09042 0.07
6 9 0 2 o 67870.20 68826.29 0.00 1.09039 0.45
1 10 5 1 o 7991.292 8230.199 180.00 1.08737 0.27
4 5 7 1 o 2935.960 3011.010 180.00 1.08695 0.07
6 8 3 2 o 9589.376 9522.236 180.00 1.08873 0.12
7 3 5 1 o 440.417 438.308 0.00 1.08587 0.00
7 7 2 2 o 79.739 78.506 180.00 1.08851 0.00
3 8 6 1 o 46677.57 46620.19 180.00 1.08531 1.17
3 3 8 2 o 2881.717 2901.294 0.00 1.08781 0.03
1 5 8 1 o 29001.264 29307.709 0.00 1.08505 0.70
1 10 5 2 o 8004.490 8230.199 180.00 1.08737 0.14
4 5 7 2 o 2981.998 3011.010 180.00 1.08695 0.04
4 11 0 1 o 3955.644 3803.872 0.00 1.08349 0.06
6 9 1 1 o 24039.518 23241.221 0.00 1.08339 0.62
7 3 5 2 o 445.039 438.308 0.00 1.08587 0.00
2 12 0 1 o 41183.72 40188.97 180.00 1.08297 0.64
5 3 7 1 o 45153.05 44523.15 180.00 1.08285 0.99
2 7 7 1 o 1560.796 1541.015 0.00 1.08283 0.04
3 8 6 2 o 46569.61 46620.19 180.00 1.08531 0.58
0 12 2 1 o 25725.615 26134.805 0.00 1.08247 0.40
1 5 8 2 o 28703.563 29307.709 0.00 1.08505 0.34
4 11 0 2 o 3762.865 3803.872 0.00 1.08349 0.03
6 9 1 2 o 23142.625 23241.221 0.00 1.08339 0.29
2 12 0 2 o 40346.94 40188.97 180.00 1.08297 0.31
5 3 7 2 o 44636.75 44523.15 180.00 1.08285 0.49
2 7 7 2 o 1544.590 1541.015 0.00 1.08283 0.02
0 12 2 2 o 25941.066 26134.805 0.00 1.08247 0.20
1 9 6 1 o 18487.506 19186.887 180.00 1.07903 0.46
8 0 4 1 o 12468.872 12836.818 180.00 1.07835 0.14
6 6 5 1 o 36550.96 36853.02 0.00 1.07789 0.88
4 11 1 1 o 3063.176 3010.679 0.00 1.07662 0.09
5 6 6 1 o 29163.311 28758.920 0.00 1.07653 0.69
1 9 6 2 o 19356.092 19186.887 180.00 1.07903 0.24
2 12 1 1 o 38775.62 38831.11 0.00 1.07611 1.06
1 12 2 1 o 885.770 904.322 0.00 1.07574 0.03
8 0 4 2 o 12570.028 12836.818 180.00 1.07835 0.07
6 6 5 2 o 35773.03 36853.02 0.00 1.07789 0.42
8 1 4 1 o 1990.737 2015.753 180.00 1.07484 0.03
1 11 4 1 o 2586.087 2627.160 180.00 1.07478 0.07
4 11 1 2 o 3049.843 3010.679 0.00 1.07662 0.04
5 6 6 2 o 29114.736 28758.920 0.00 1.07653 0.34
2 12 1 2 o 38761.66 38831.11 0.00 1.07611 0.53
6 4 6 1 o 11158.231 11388.457 180.00 1.07322 0.24
1 12 2 2 o 870.229 904.322 0.00 1.07574 0.01
4 0 8 1 o 9523.825 10424.068 180.00 1.07246 0.09
8 5 2 1 o 12.793 13.134 180.00 1.07231 0.00
8 1 4 2 o 1876.349 2015.753 180.00 1.07484 0.01
1 11 4 2 o 2366.579 2627.160 180.00 1.07478 0.03
6 4 6 2 o 11484.421 11388.457 180.00 1.07322 0.13
8 4 3 1 o 47.944 48.903 0.00 1.06990 0.00
4 0 8 2 o 10093.291 10424.068 180.00 1.07246 0.05
5 10 2 1 o 28688.154 29762.752 0.00 1.06981 0.75
8 5 2 2 o 13.014 13.134 180.00 1.07231 0.00
3 11 3 1 o 7069.934 7148.175 180.00 1.06904 0.17
4 1 8 1 o 56.395 58.492 0.00 1.06901 0.00
2 10 5 1 o 9877.062 9953.694 0.00 1.06729 0.26
8 4 3 2 o 48.689 48.903 0.00 1.06990 0.00
5 10 2 2 o 29550.531 29762.752 0.00 1.06981 0.39
3 11 3 2 o 7236.528 7148.175 180.00 1.06904 0.09
4 1 8 2 o 61.219 58.492 0.00 1.06901 0.00
2 5 8 1 o 16335.453 16361.289 0.00 1.06510 0.35
2 10 5 2 o 9949.252 9953.694 0.00 1.06729 0.13
8 2 4 1 o 22533.146 22710.402 0.00 1.06451 0.51
9 1 1 1 o 561.636 658.654 0.00 1.06355 0.02
3 4 8 1 o 704.312 775.433 0.00 1.06333 0.02
6 9 2 1 o 1651.191 1755.456 0.00 1.06316 0.03
2 5 8 2 o 16679.117 16361.289 0.00 1.06510 0.18
8 2 4 2 o 23539.588 22710.402 0.00 1.06451 0.27
7 4 5 1 o 857.297 825.522 0.00 1.06151 0.02
8 6 0 1 o 70977.48 69222.40 0.00 1.06125 0.82
9 1 1 2 o 673.297 658.654 0.00 1.06355 0.01
3 4 8 2 o 777.436 775.433 0.00 1.06333 0.01
6 9 2 2 o 1740.024 1755.456 0.00 1.06316 0.02
0 1 9 1 o 18095.766 18305.451 0.00 1.06052 0.19
2 9 6 1 o 27259.932 28904.852 0.00 1.05939 0.67
7 4 5 2 o 747.172 825.522 0.00 1.06151 0.01
4 2 8 1 o 4336.922 4734.280 0.00 1.05885 0.10
5 4 7 1 o 10754.054 11827.519 180.00 1.05869 0.24
8 6 0 2 o 62876.91 69222.40 0.00 1.06125 0.35
0 1 9 2 o 15989.790 18305.451 0.00 1.06052 0.08
2 9 6 2 o 27290.965 28904.852 0.00 1.05939 0.34
4 11 2 1 o 614.263 668.870 180.00 1.05677 0.03
7 8 1 1 o 2436.154 2546.287 0.00 1.05667 0.06
2 12 2 1 o 7668.172 7774.515 180.00 1.05628 0.18
4 2 8 2 o 4661.958 4734.280 0.00 1.05885 0.05
5 4 7 2 o 11718.855 11827.519 180.00 1.05869 0.13
5 9 4 1 o 9596.882 9414.747 180.00 1.05539 0.24
2 11 4 1 o 10509.542 10311.313 180.00 1.05537 0.26
7 7 3 1 o 34192.969 33171.070 180.00 1.05496 0.86
8 6 1 1 o 5622.266 5465.212 180.00 1.05479 0.13
4 9 5 1 o 22213.525 21753.621 180.00 1.05435 0.55
1 1 9 1 o 27202.285 26724.627 180.00 1.05419 0.61
4 11 2 2 o 686.457 668.870 180.00 1.05677 0.01
7 8 1 2 o 2583.802 2546.287 0.00 1.05667 0.03
5 8 5 1 o 5444.165 5387.394 0.00 1.05389 0.15
0 6 8 1 o 14272.865 14191.903 0.00 1.05379 0.16
2 12 2 2 o 7789.142 7774.515 180.00 1.05628 0.09
9 2 1 1 o 27048.943 27117.660 0.00 1.05355 0.62
7 6 4 1 o 21226.309 21564.955 180.00 1.05306 0.48
5 9 4 2 o 9283.993 9414.747 180.00 1.05539 0.11
2 11 4 2 o 10178.855 10311.313 180.00 1.05537 0.13
7 7 3 2 o 33376.801 33171.070 180.00 1.05496 0.42
8 6 1 2 o 5548.733 5465.212 180.00 1.05479 0.07
4 9 5 2 o 22379.043 21753.621 180.00 1.05435 0.27
1 1 9 2 o 27515.098 26724.627 180.00 1.05419 0.31
5 8 5 2 o 5552.213 5387.394 0.00 1.05389 0.08
0 6 8 2 o 14540.328 14191.903 0.00 1.05379 0.08
1 8 7 1 o 31766.441 30983.955 180.00 1.05113 0.80
9 2 1 2 o 27743.127 27117.660 0.00 1.05355 0.32
1 8 7 2 o 31993.545 30983.955 180.00 1.05113 0.40
7 6 4 2 o 21949.305 21564.955 180.00 1.05306 0.25
3 7 7 1 o 11302.710 11090.842 180.00 1.05036 0.28
8 3 4 1 o 14.488 13.825 180.00 1.04795 0.00
3 7 7 2 o 11573.852 11090.842 180.00 1.05036 0.14
9 0 2 1 o 14452.160 13969.656 0.00 1.04762 0.16
1 6 8 1 o 1676.324 1625.090 0.00 1.04758 0.04
4 10 4 1 o 9624.191 9334.501 180.00 1.04930 0.23
4 6 7 1 o 75.788 72.779 180.00 1.04928 0.00
4 10 4 2 o 8961.220 9334.501 180.00 1.04930 0.11
4 6 7 2 o 68.809 72.779 180.00 1.04928 0.00
8 3 4 2 o 14.480 13.825 180.00 1.04795 0.00
9 0 2 2 o 14894.185 13969.656 0.00 1.04762 0.09
1 6 8 2 o 1734.841 1625.090 0.00 1.04758 0.02
1 2 9 1 o 10228.478 9567.733 180.00 1.04445 0.27
9 1 2 1 o 37116.54 35150.49 0.00 1.04440 0.83
3 12 1 1 o 3860.193 3701.370 0.00 1.04422 0.09
7 0 6 1 o 5880.019 5602.672 0.00 1.04401 0.07
1 12 3 1 o 22312.150 21288.816 180.00 1.04332 0.57
6 5 6 1 o 31548.775 29989.275 0.00 1.04324 0.76
6 8 4 1 o 856.446 839.178 180.00 1.04257 0.02
4 3 8 1 o 897.301 860.030 0.00 1.04255 0.03
1 2 9 2 o 9648.957 9567.733 180.00 1.04445 0.13
9 1 2 2 o 35368.18 35150.49 0.00 1.04440 0.39
3 12 1 2 o 3714.700 3701.370 0.00 1.04422 0.04
7 0 6 2 o 5628.853 5602.672 0.00 1.04401 0.03
7 1 6 1 o 3615.598 3598.151 180.00 1.04083 0.08
1 12 3 2 o 21341.088 21288.816 180.00 1.04332 0.27
6 5 6 2 o 29968.521 29989.275 0.00 1.04324 0.36
4 8 6 1 o 20515.844 20955.146 0.00 1.04035 0.46
8 5 3 1 o 8405.018 8701.288 180.00 1.04020 0.19
6 8 4 2 o 810.572 839.178 180.00 1.04257 0.01
4 3 8 2 o 794.820 860.030 0.00 1.04255 0.01
6 1 7 1 o 3472.700 3636.231 0.00 1.03939 0.08
7 1 6 2 o 3660.691 3598.151 180.00 1.04083 0.04
5 10 3 1 o 1949.193 1953.558 180.00 1.03791 0.04
7 8 2 1 o 29384.256 29537.045 180.00 1.03788 0.69
4 8 6 2 o 20723.990 20955.146 0.00 1.04035 0.23
8 5 3 2 o 8515.518 8701.288 180.00 1.04020 0.10
9 3 1 1 o 8825.467 9125.454 180.00 1.03748 0.22
6 1 7 2 o 3542.429 3636.231 0.00 1.03939 0.04
3 10 5 1 o 607.752 609.690 180.00 1.03615 0.02
8 6 2 1 o 29598.951 29643.727 0.00 1.03610 0.70
2 1 9 1 o 132.307 132.212 0.00 1.03586 0.00
5 10 3 2 o 1960.639 1953.558 180.00 1.03791 0.02
7 8 2 2 o 29675.262 29537.045 180.00 1.03788 0.35
9 3 1 2 o 9084.486 9125.454 180.00 1.03748 0.11
9 2 2 1 o 923.535 927.609 0.00 1.03492 0.02
6 7 5 1 o 26382.561 26621.420 0.00 1.03484 0.60
0 3 9 1 o 50415.75 51501.74 180.00 1.03467 0.55
3 5 8 1 o 13294.466 14201.007 180.00 1.03415 0.30
5 7 6 1 o 15.386 16.096 0.00 1.03364 0.00
3 10 5 2 o 554.191 609.690 180.00 1.03615 0.01
8 6 2 2 o 28076.711 29643.727 0.00 1.03610 0.33
2 1 9 2 o 129.654 132.212 0.00 1.03586 0.00
2 8 7 1 o 23.399 22.981 0.00 1.03295 0.00
7 5 5 1 o 1428.835 1385.753 0.00 1.03248 0.02
9 2 2 2 o 980.457 927.609 0.00 1.03492 0.01
6 7 5 2 o 28090.695 26621.420 0.00 1.03484 0.33
0 3 9 2 o 54226.66 51501.74 180.00 1.03467 0.30
6 9 3 1 o 9148.981 8809.781 0.00 1.03183 0.22
3 5 8 2 o 14480.613 14201.007 180.00 1.03415 0.17
7 2 6 1 o 23791.941 23723.018 180.00 1.03144 0.52
5 7 6 2 o 15.735 16.096 0.00 1.03364 0.00
2 8 7 2 o 22.549 22.981 0.00 1.03295 0.00
6 2 7 1 o 34.043 34.097 180.00 1.03004 0.00
7 5 5 2 o 1386.616 1385.753 0.00 1.03248 0.01
5 5 7 1 o 10293.434 10273.484 180.00 1.02989 0.20
2 6 8 1 o 645.799 639.920 180.00 1.02958 0.02
6 9 3 2 o 8957.202 8809.781 0.00 1.03183 0.11
3 9 6 1 o 12024.263 11713.521 0.00 1.02892 0.29
7 2 6 2 o 24352.201 23723.018 180.00 1.03144 0.27
1 3 9 1 o 12470.414 12140.425 180.00 1.02879 0.30
6 2 7 2 o 34.352 34.097 180.00 1.03004 0.00
5 5 7 2 o 10411.325 10273.484 180.00 1.02989 0.10
6 10 0 1 o 1187.955 1160.531 180.00 1.02710 0.01
2 6 8 2 o 661.383 639.920 180.00 1.02958 0.01
2 2 9 1 o 55380.36 53620.74 180.00 1.02661 1.22
3 9 6 2 o 12022.492 11713.521 0.00 1.02892 0.15
1 3 9 2 o 12384.528 12140.425 180.00 1.02879 0.15
3 12 2 1 o 5283.789 5253.861 180.00 1.02607 0.14
8 4 4 1 o 78740.27 78699.89 0.00 1.02601 1.76
4 11 3 1 o 37262.25 37304.46 180.00 1.02599 0.94
2 12 3 1 o 7455.605 7646.748 180.00 1.02554 0.18
3 11 4 1 o 1240.771 1271.147 0.00 1.02524 0.03
6 10 0 2 o 1178.397 1160.531 180.00 1.02710 0.01
0 11 5 1 o 21215.092 20788.904 0.00 1.02429 0.28
2 2 9 2 o 54363.97 53620.74 180.00 1.02661 0.59
3 12 2 2 o 5179.212 5253.861 180.00 1.02607 0.07
8 4 4 2 o 77277.52 78699.89 0.00 1.02601 0.86
4 11 3 2 o 36595.69 37304.46 180.00 1.02599 0.46
0 10 6 1 o 32870.875 33818.785 0.00 1.02327 0.38
2 12 3 2 o 7326.845 7646.748 180.00 1.02554 0.09
3 11 4 2 o 1197.858 1271.147 0.00 1.02524 0.02
0 11 5 2 o 19583.369 20788.904 0.00 1.02429 0.12
6 10 1 1 o 4635.076 5038.894 0.00 1.02124 0.11
5 11 1 1 o 450.829 480.271 0.00 1.02109 0.01
4 4 8 1 o 9988.783 10874.410 0.00 1.02093 0.18
0 10 6 2 o 30471.307 33818.785 0.00 1.02327 0.17
8 7 0 1 o 2323.827 2632.252 180.00 1.02008 0.04
0 13 1 1 o 150.612 161.588 0.00 1.01993 0.00
9 3 2 1 o 5938.220 6122.926 0.00 1.01968 0.12
6 10 1 2 o 5484.645 5038.894 0.00 1.02124 0.07
8 1 5 1 o 55471.63 51061.48 180.00 1.01863 1.24
1 11 5 1 o 4108.775 3799.807 180.00 1.01858 0.10
5 11 1 2 o 507.929 480.271 0.00 1.02109 0.00
4 4 8 2 o 11516.288 10874.410 0.00 1.02093 0.11
1 10 6 1 o 55493.97 56506.39 0.00 1.01759 1.38
8 7 0 2 o 2562.007 2632.252 180.00 1.02008 0.02
5 0 8 1 o 48919.10 50023.79 0.00 1.01754 0.53
0 13 1 2 o 156.190 161.588 0.00 1.01993 0.00
9 3 2 2 o 5843.392 6122.926 0.00 1.01968 0.06
7 3 6 1 o 1900.578 1974.583 180.00 1.01635 0.05
9 4 1 1 o 4452.652 4544.305 180.00 1.01618 0.10
8 1 5 2 o 50224.00 51061.48 180.00 1.01863 0.55
1 11 5 2 o 3751.687 3799.807 180.00 1.01858 0.05
1 10 6 2 o 56159.92 56506.39 0.00 1.01759 0.70
5 0 8 2 o 49602.39 50023.79 0.00 1.01754 0.27
6 3 7 1 o 797.931 804.681 0.00 1.01501 0.02
9 1 3 1 o 3641.141 3811.345 180.00 1.01466 0.10
5 1 8 1 o 15726.563 16408.662 0.00 1.01459 0.33
8 7 1 1 o 1995.098 2127.963 0.00 1.01434 0.04
1 13 1 1 o 1751.314 1872.308 0.00 1.01430 0.04
7 3 6 2 o 1775.083 1974.583 180.00 1.01635 0.02
9 4 1 2 o 4142.571 4544.305 180.00 1.01618 0.04
7 7 4 1 o 74.531 72.142 0.00 1.01280 0.00
6 3 7 2 o 856.500 804.681 0.00 1.01501 0.01
9 1 3 2 o 4305.606 3811.345 180.00 1.01466 0.06
5 1 8 2 o 18132.697 16408.662 0.00 1.01459 0.20
8 7 1 2 o 2359.240 2127.963 0.00 1.01434 0.03
1 13 1 2 o 2072.245 1872.308 0.00 1.01430 0.03
2 3 9 1 o 866.199 774.047 180.00 1.01173 0.02
7 7 4 2 o 81.271 72.142 0.00 1.01280 0.00
8 2 5 1 o 13632.916 12986.918 180.00 1.00983 0.30
6 6 6 1 o 574.237 550.349 180.00 1.00980 0.01
4 12 0 1 o 19820.859 19390.219 0.00 1.00955 0.24
4 7 7 1 o 957.915 941.943 180.00 1.00944 0.02
2 3 9 2 o 788.162 774.047 180.00 1.01173 0.01
7 8 3 1 o 7349.730 6867.281 0.00 1.00867 0.18
1 4 9 1 o 178.831 170.406 0.00 1.00800 0.00
0 12 4 1 o 5735.300 5475.889 0.00 1.00793 0.06
1 7 8 1 o 4.491 4.376 180.00 1.00792 0.00
8 2 5 2 o 13734.736 12986.918 180.00 1.00983 0.15
3 1 9 1 o 11727.475 11064.492 0.00 1.00733 0.27
6 6 6 2 o 579.662 550.349 180.00 1.00980 0.01
4 12 0 2 o 20455.045 19390.219 0.00 1.00955 0.13
8 6 3 1 o 919.263 871.109 0.00 1.00704 0.02
4 7 7 2 o 996.721 941.943 180.00 1.00944 0.01
7 8 3 2 o 7433.636 6867.281 0.00 1.00867 0.09
9 2 3 1 o 45092.32 42123.82 0.00 1.00596 0.98
5 2 8 1 o 10528.592 9847.010 0.00 1.00589 0.23
1 4 9 2 o 178.434 170.406 0.00 1.00800 0.00
0 12 4 2 o 5733.138 5475.889 0.00 1.00793 0.03
1 7 8 2 o 4.491 4.376 180.00 1.00792 0.00
0 9 7 1 o 1664.665 1561.517 180.00 1.00505 0.02
3 1 9 2 o 11795.483 11064.492 0.00 1.00733 0.14
3 8 7 1 o 11986.283 11417.942 0.00 1.00465 0.27
8 6 3 2 o 908.193 871.109 0.00 1.00704 0.01
7 9 1 1 o 11835.779 11349.226 0.00 1.00442 0.33
6 10 2 1 o 8605.825 8369.669 180.00 1.00425 0.21
5 11 2 1 o 13198.058 12875.085 0.00 1.00410 0.34
4 12 1 1 o 3298.342 3220.992 0.00 1.00399 0.09
9 2 3 2 o 42664.27 42123.82 0.00 1.00596 0.46
5 2 8 2 o 9948.285 9847.010 0.00 1.00589 0.11
2 13 0 1 o 38853.28 38476.80 0.00 1.00340 0.53
0 9 7 2 o 1534.017 1561.517 180.00 1.00505 0.01
1 12 4 1 o 3672.242 3737.853 0.00 1.00249 0.09
3 8 7 2 o 11249.364 11417.942 0.00 1.00465 0.13
5 9 5 1 o 3799.853 3842.300 180.00 1.00203 0.07
2 11 5 1 o 9572.394 9706.693 0.00 1.00201 0.23
7 9 1 2 o 11160.094 11349.226 0.00 1.00442 0.15
6 10 2 2 o 8227.873 8369.669 180.00 1.00425 0.10
5 11 2 2 o 12576.465 12875.085 0.00 1.00410 0.16
3 6 8 1 o 52971.78 54455.98 180.00 1.00155 1.19
4 12 1 2 o 3122.381 3220.992 0.00 1.00399 0.04
2 10 6 1 o 2787.621 2972.130 180.00 1.00107 0.07
2 13 0 2 o 35885.17 38476.80 0.00 1.00340 0.24
7 6 5 1 o 686.220 740.260 0.00 1.00003 0.02
1 12 4 2 o 3514.678 3737.853 0.00 1.00249 0.04
8 5 4 1 o 5130.403 5314.240 0.00 0.99972 0.10
1 9 7 1 o 6821.910 7084.388 180.00 0.99966 0.17
5 9 5 2 o 3759.586 3842.300 180.00 1.00203 0.03
2 11 5 2 o 9455.514 9706.693 0.00 1.00201 0.11
9 4 2 1 o 253.038 257.809 180.00 0.99943 0.01
3 6 8 2 o 54878.59 54455.98 180.00 1.00155 0.62
3 2 9 1 o 7.020 5.214 180.00 0.99881 0.00
2 10 6 2 o 3044.900 2972.130 180.00 1.00107 0.04
2 13 1 1 o 19606.969 19249.301 0.00 0.99794 0.52
3 12 3 1 o 21730.098 21391.994 0.00 0.99783 0.59
5 10 4 1 o 19436.455 19250.232 0.00 0.99769 0.49
8 7 2 1 o 1253.613 1237.127 0.00 0.99769 0.04
5 6 7 1 o 36040.55 35712.15 180.00 0.99768 0.85
1 13 2 1 o 13532.232 13438.881 180.00 0.99764 0.35
7 6 5 2 o 743.634 740.260 0.00 1.00003 0.01
8 5 4 2 o 5285.866 5314.240 0.00 0.99972 0.05
1 9 7 2 o 7039.145 7084.388 180.00 0.99966 0.09
9 4 2 2 o 258.361 257.809 180.00 0.99943 0.00
4 10 5 1 o 292.332 288.678 0.00 0.99681 0.01
3 2 9 2 o 8.890 5.214 180.00 0.99881 0.00
7 4 6 1 o 69656.04 67081.40 180.00 0.99630 1.54
8 3 5 1 o 11656.250 11632.611 0.00 0.99565 0.25
2 13 1 2 o 19102.791 19249.301 0.00 0.99794 0.25
3 12 3 2 o 21109.941 21391.994 0.00 0.99783 0.28
5 10 4 2 o 18888.977 19250.232 0.00 0.99769 0.23
8 7 2 2 o 1204.602 1237.127 0.00 0.99769 0.02
5 6 7 2 o 35002.859 35712.15 180.00 0.99768 0.41
1 13 2 2 o 13175.184 13438.881 180.00 0.99764 0.17
6 4 7 1 o 132.491 137.928 180.00 0.99504 0.00
4 5 8 1 o 542.623 555.098 0.00 0.99503 0.01
4 10 5 2 o 282.786 288.678 0.00 0.99681 0.00
7 4 6 2 o 68020.36 67081.40 180.00 0.99630 0.75
8 3 5 2 o 11637.094 11632.611 0.00 0.99565 0.12
6 4 7 2 o 140.017 137.928 180.00 0.99504 0.00
4 5 8 2 o 560.041 555.098 0.00 0.99503 0.01
6 9 4 1 o 31561.592 30844.592 180.00 0.99229 0.72
9 3 3 1 o 8171.405 7957.810 180.00 0.99195 0.16
2 4 9 1 o 14151.468 13732.009 0.00 0.99194 0.32
5 3 8 1 o 3473.534 3381.025 0.00 0.99188 0.07
2 7 8 1 o 249.384 240.237 180.00 0.99187 0.01
6 8 5 1 o 35785.75 35713.38 180.00 0.99104 0.84
9 5 1 1 o 4589.408 4708.884 180.00 0.99062 0.13
4 9 6 1 o 46.670 46.894 0.00 0.99037 0.00
5 8 6 1 o 20831.127 21975.742 0.00 0.98999 0.47
6 9 4 2 o 29077.820 30844.592 180.00 0.99229 0.32
9 3 3 2 o 7470.656 7957.810 180.00 0.99195 0.07
2 4 9 2 o 12775.629 13732.009 0.00 0.99194 0.14
5 3 8 2 o 3171.663 3381.025 0.00 0.99188 0.03
2 7 8 2 o 219.589 240.237 180.00 0.99187 0.00
6 8 5 2 o 35394.13 35713.38 180.00 0.99104 0.41
7 9 2 1 o 6272.189 6382.241 0.00 0.98824 0.15
9 5 1 2 o 4586.075 4708.884 180.00 0.99062 0.06
0 5 9 1 o 2904.926 2972.757 180.00 0.98817 0.03
4 9 6 2 o 46.608 46.894 0.00 0.99037 0.00
4 12 2 1 o 21177.928 22416.463 0.00 0.98783 0.57
5 8 6 2 o 20293.975 21975.742 0.00 0.98999 0.23
4 11 4 1 o 19.384 33.425 0.00 0.98709 0.00
2 12 4 1 o 13071.305 14557.126 180.00 0.98669 0.36
7 9 2 2 o 5999.129 6382.241 0.00 0.98824 0.07
0 5 9 2 o 2804.857 2972.757 180.00 0.98817 0.02
4 12 2 2 o 21869.135 22416.463 0.00 0.98783 0.30
3 3 9 1 o 21449.721 21683.744 0.00 0.98509 0.44
4 11 4 2 o 28.040 33.425 0.00 0.98709 0.00
2 12 4 2 o 13458.048 14557.126 180.00 0.98669 0.19
2 9 7 1 o 2175.281 2345.394 0.00 0.98399 0.05
1 5 9 1 o 12365.663 12240.537 180.00 0.98304 0.27
3 3 9 2 o 22365.186 21683.744 0.00 0.98509 0.23
2 13 2 1 o 3511.267 3549.136 0.00 0.98206 0.10
2 9 7 2 o 2209.632 2345.394 0.00 0.98399 0.03
1 5 9 2 o 12567.025 12240.537 180.00 0.98304 0.14
2 13 2 2 o 3933.299 3549.136 0.00 0.98206 0.06
9 0 4 1 o 15516.570 14102.162 0.00 0.97962 0.18
8 8 0 1 o 61616.58 57675.57 0.00 0.97806 0.72
6 10 3 1 o 793.288 767.058 180.00 0.97772 0.02
5 11 3 1 o 1590.559 1539.563 0.00 0.97759 0.04
9 0 4 2 o 14469.257 14102.162 0.00 0.97962 0.08
9 1 4 1 o 5097.469 4963.316 0.00 0.97699 0.11
8 4 5 1 o 2986.927 2891.389 0.00 0.97678 0.07
0 13 3 1 o 34982.848 33751.316 180.00 0.97657 0.47
3 11 5 1 o 16136.982 15458.118 0.00 0.97612 0.40
8 8 0 2 o 60518.95 57675.57 0.00 0.97806 0.35
6 10 3 2 o 790.485 767.058 180.00 0.97772 0.01
9 4 3 1 o 7593.568 7610.391 180.00 0.97328 0.16
3 10 6 1 o 1315.444 1280.863 0.00 0.97524 0.03
5 4 8 1 o 1695.687 1696.935 0.00 0.97321 0.04
5 11 3 2 o 1575.605 1539.563 0.00 0.97759 0.02
9 5 2 1 o 46290.32 45775.53 180.00 0.97509 1.02
8 8 1 1 o 6047.396 6024.827 0.00 0.97300 0.14
3 10 6 2 o 1289.168 1280.863 0.00 0.97524 0.02
9 5 2 2 o 46228.92 45775.53 180.00 0.97509 0.51
9 1 4 2 o 4775.257 4963.316 0.00 0.97699 0.05
8 4 5 2 o 2748.655 2891.389 0.00 0.97678 0.03
3 13 1 1 o 4931.636 4843.479 0.00 0.97235 0.11
0 8 8 1 o 15629.663 15197.586 0.00 0.97221 0.20
0 13 3 2 o 32185.082 33751.316 180.00 0.97657 0.21
6 7 6 1 o 1120.254 1200.915 0.00 0.97414 0.04
7 5 6 1 o 4183.126 4073.063 0.00 0.97218 0.09
3 11 5 2 o 15127.336 15458.118 0.00 0.97612 0.18
6 7 6 2 o 1235.588 1200.915 0.00 0.97414 0.02
8 7 3 1 o 35370.66 34910.895 180.00 0.97166 0.80
7 8 4 1 o 17373.773 17180.582 180.00 0.97164 0.40
1 13 3 1 o 2559.278 2532.394 0.00 0.97162 0.07
4 1 9 1 o 18673.221 19595.369 180.00 0.97107 0.40
6 5 7 1 o 818.469 857.921 0.00 0.97100 0.02
9 4 3 2 o 7163.341 7610.391 180.00 0.97328 0.07
5 4 8 2 o 1587.125 1696.935 0.00 0.97321 0.02
8 8 1 2 o 5638.396 6024.827 0.00 0.97300 0.07
8 6 4 1 o 340.508 346.947 180.00 0.97018 0.01
3 13 1 2 o 4848.973 4843.479 0.00 0.97235 0.05
0 8 8 2 o 15392.710 15197.586 0.00 0.97221 0.10
7 5 6 2 o 4129.650 4073.063 0.00 0.97218 0.05
8 7 3 2 o 35227.30 34910.895 180.00 0.97166 0.40
7 8 4 2 o 17299.832 17180.582 180.00 0.97164 0.20
1 13 3 2 o 2546.859 2532.394 0.00 0.97162 0.04
9 2 4 1 o 5629.341 5608.679 0.00 0.96921 0.12
7 1 7 1 o 45716.55 46391.31 0.00 0.96906 0.92
4 1 9 2 o 18030.977 19595.369 180.00 0.97107 0.19
4 8 7 1 o 12.120 13.396 0.00 0.96867 0.00
6 5 7 2 o 788.905 857.921 0.00 0.97100 0.01
6 11 0 1 o 7861.641 8703.175 180.00 0.96854 0.08
2 5 9 1 o 18.883 23.159 180.00 0.96813 0.00
8 6 4 2 o 297.701 346.947 180.00 0.97018 0.00
1 8 8 1 o 1625.428 1807.893 0.00 0.96733 0.04
9 2 4 2 o 5482.408 5608.679 0.00 0.96921 0.06
3 4 9 1 o 574.090 587.137 180.00 0.96680 0.01
3 7 8 1 o 16.466 16.737 0.00 0.96673 0.00
7 1 7 2 o 45777.09 46391.31 0.00 0.96906 0.46
4 8 7 2 o 13.197 13.396 0.00 0.96867 0.00
10 0 0 1 o 2.308 2.371 0.00 0.96628 0.00
6 11 0 2 o 8620.058 8703.175 180.00 0.96854 0.05
4 6 8 1 o 3345.380 3341.447 180.00 0.96589 0.07
2 5 9 2 o 23.374 23.159 180.00 0.96813 0.00
7 7 5 1 o 25481.748 25015.412 0.00 0.96537 0.62
1 8 8 2 o 1841.819 1807.893 0.00 0.96733 0.02
3 4 9 2 o 623.992 587.137 180.00 0.96680 0.01
3 7 8 2 o 17.821 16.737 0.00 0.96673 0.00
10 0 0 2 o 2.827 2.371 0.00 0.96628 0.00
10 1 0 1 o 18470.986 17152.223 180.00 0.96375 0.19
6 11 1 1 o 31021.090 28971.156 0.00 0.96362 0.78
4 6 8 2 o 3532.878 3341.447 180.00 0.96589 0.04
4 2 9 1 o 2349.122 2239.713 180.00 0.96343 0.05
5 7 7 1 o 163.751 157.485 180.00 0.96324 0.01
8 0 6 1 o 5078.189 5051.539 180.00 0.96309 0.05
7 7 5 2 o 24812.717 25015.412 0.00 0.96537 0.30
7 9 3 1 o 5819.498 5891.688 0.00 0.96293 0.11
4 12 3 1 o 389.835 402.929 180.00 0.96255 0.01
3 12 4 1 o 6219.100 6221.299 180.00 0.96193 0.15
9 6 1 1 o 14310.566 14302.800 180.00 0.96186 0.33
7 2 7 1 o 5270.819 5327.778 180.00 0.96147 0.11
10 1 0 2 o 16912.740 17152.223 180.00 0.96375 0.08
6 11 1 2 o 28411.773 28971.156 0.00 0.96362 0.35
4 2 9 2 o 2187.157 2239.713 180.00 0.96343 0.02
5 7 7 2 o 150.520 157.485 180.00 0.96324 0.00
8 0 6 2 o 4881.391 5051.539 180.00 0.96309 0.03
6 0 8 1 o 2638.405 2727.958 180.00 0.96063 0.02
8 1 6 1 o 10555.928 11067.350 180.00 0.96059 0.27
7 9 3 2 o 5698.438 5891.688 0.00 0.96293 0.05
1 11 6 1 o 5097.245 5318.547 0.00 0.96055 0.13
4 12 3 2 o 387.979 402.929 180.00 0.96255 0.00
3 12 4 2 o 6320.396 6221.299 180.00 0.96193 0.08
9 6 1 2 o 14654.471 14302.800 180.00 0.96186 0.17
3 9 7 1 o 21190.572 20628.793 0.00 0.95943 0.48
7 2 7 2 o 5550.377 5327.778 180.00 0.96147 0.06
10 1 1 1 o 39195.79 37507.59 0.00 0.95890 0.88
5 12 1 1 o 10843.111 10539.724 0.00 0.95850 0.26
6 0 8 2 o 2776.310 2727.958 180.00 0.96063 0.01
8 8 2 1 o 19820.980 19427.607 0.00 0.95827 0.46
8 1 6 2 o 11300.958 11067.350 180.00 0.96059 0.14
1 11 6 2 o 5404.272 5318.547 0.00 0.96055 0.07
6 1 8 1 o 19887.740 19589.529 0.00 0.95815 0.48
3 13 2 1 o 9894.646 10084.110 0.00 0.95764 0.26
0 0 10 1 o 21040.391 21531.766 0.00 0.95750 0.10
2 13 3 1 o 8437.094 8703.609 0.00 0.95721 0.22
3 9 7 2 o 20143.543 20628.793 0.00 0.95943 0.22
9 3 4 1 o 1984.252 1971.178 0.00 0.95666 0.04
10 1 1 2 o 38055.38 37507.59 0.00 0.95890 0.42
1 12 5 1 o 93.765 93.249 0.00 0.95643 0.00
10 2 0 1 o 31060.891 30321.504 180.00 0.95629 0.36
5 12 1 2 o 10769.082 10539.724 0.00 0.95850 0.13
8 8 2 2 o 19764.873 19427.607 0.00 0.95827 0.23
6 1 8 2 o 19833.545 19589.529 0.00 0.95815 0.24
3 13 2 2 o 9884.208 10084.110 0.00 0.95764 0.13
0 0 10 2 o 21056.199 21531.766 0.00 0.95750 0.05
1 6 9 1 o 3548.834 3676.474 0.00 0.95492 0.10
2 13 3 2 o 8460.954 8703.609 0.00 0.95721 0.11
9 3 4 2 o 2006.005 1971.178 0.00 0.95666 0.02
7 10 1 1 o 303.345 298.277 0.00 0.95430 0.01
1 12 5 2 o 94.494 93.249 0.00 0.95643 0.00
8 5 5 1 o 1504.170 1424.456 180.00 0.95402 0.03
10 2 0 2 o 32444.625 30321.504 180.00 0.95629 0.19
8 2 6 1 o 7350.789 6503.720 0.00 0.95320 0.16
2 8 8 1 o 354.585 284.824 0.00 0.95311 0.01
1 0 10 1 o 40078.64 36793.96 0.00 0.95284 0.46
1 6 9 2 o 3821.304 3676.474 0.00 0.95492 0.05
0 14 0 1 o 113776.80 111500.50 0.00 0.95250 0.76
5 10 5 1 o 12.638 13.031 180.00 0.95225 0.00
7 10 1 2 o 296.644 298.277 0.00 0.95430 0.00
8 5 5 2 o 1445.669 1424.456 180.00 0.95402 0.02
10 2 1 1 o 17664.230 17274.324 180.00 0.95155 0.37
4 3 9 1 o 42036.93 40520.58 0.00 0.95110 0.94
8 2 6 2 o 6699.002 6503.720 0.00 0.95320 0.07
6 2 8 1 o 15.428 14.211 0.00 0.95082 0.00
2 8 8 2 o 299.753 284.824 0.00 0.95311 0.01
9 5 3 1 o 1163.510 1143.554 180.00 0.95075 0.02
5 5 8 1 o 23118.041 22576.281 180.00 0.95069 0.51
1 0 10 2 o 37336.61 36793.96 0.00 0.95284 0.21
1 1 10 1 o 2607.375 2581.999 0.00 0.95041 0.06
1 10 7 1 o 122.624 122.629 180.00 0.95022 0.00
0 14 0 2 o 110819.92 111500.50 0.00 0.95250 0.37
5 10 5 2 o 11.919 13.031 180.00 0.95225 0.00
6 11 2 1 o 3288.555 3390.130 180.00 0.94931 0.10
7 3 7 1 o 3438.342 3499.023 180.00 0.94921 0.06
10 2 1 2 o 16923.586 17274.324 180.00 0.95155 0.18
4 3 9 2 o 40453.59 40520.58 0.00 0.95110 0.45
6 2 8 2 o 14.743 14.211 0.00 0.95082 0.00
9 5 3 2 o 1156.278 1143.554 180.00 0.95075 0.01
5 5 8 2 o 23047.199 22576.281 180.00 0.95069 0.25
1 1 10 2 o 2700.920 2581.999 0.00 0.95041 0.03
1 10 7 2 o 122.766 122.629 180.00 0.95022 0.00
0 2 10 1 o 5644.739 5241.844 180.00 0.94778 0.06
9 6 2 1 o 3811.506 3533.729 0.00 0.94762 0.08
6 9 5 1 o 4033.433 3696.021 0.00 0.94755 0.10
10 0 2 1 o 4103.151 3811.642 180.00 0.94718 0.04
6 11 2 2 o 3704.985 3390.130 180.00 0.94931 0.06
7 3 7 2 o 3691.106 3499.023 180.00 0.94921 0.03
5 9 6 1 o 24843.705 23853.637 0.00 0.94663 0.60
2 11 6 1 o 9962.407 9549.761 180.00 0.94662 0.27
0 2 10 2 o 5612.387 5241.844 180.00 0.94778 0.03
9 6 2 2 o 3820.897 3533.729 0.00 0.94762 0.04
6 9 5 2 o 4061.561 3696.021 0.00 0.94755 0.05
7 6 6 1 o 34.417 31.115 0.00 0.94495 0.00
10 0 2 2 o 4227.352 3811.642 180.00 0.94718 0.02
10 1 2 1 o 4227.135 3688.152 180.00 0.94480 0.11
3 5 9 1 o 10671.322 9585.208 0.00 0.94471 0.22
5 12 2 1 o 4010.707 3559.186 0.00 0.94441 0.11
5 9 6 2 o 26771.482 23853.637 0.00 0.94663 0.33
2 11 6 2 o 10809.242 9549.761 180.00 0.94662 0.15
10 3 0 1 o 2988.875 2729.887 180.00 0.94422 0.03
4 13 0 1 o 211.436 199.369 0.00 0.94417 0.00
6 10 4 1 o 25323.621 22848.268 180.00 0.94388 0.63
6 6 7 1 o 1.153 0.697 180.00 0.94387 0.00
5 11 4 1 o 2782.604 2507.108 0.00 0.94376 0.07
1 14 1 1 o 4189.696 3700.244 0.00 0.94329 0.15
1 2 10 1 o 11636.505 10591.869 0.00 0.94325 0.26
4 11 5 1 o 85158.24 78283.02 180.00 0.94302 2.19
2 12 5 1 o 52027.29 49184.21 180.00 0.94267 1.35
7 6 6 2 o 32.597 31.115 0.00 0.94495 0.00
10 1 2 2 o 3852.598 3688.152 180.00 0.94480 0.05
3 5 9 2 o 9844.602 9585.208 0.00 0.94471 0.10
4 10 6 1 o 8670.704 8508.348 180.00 0.94223 0.23
5 12 2 2 o 3597.753 3559.186 0.00 0.94441 0.05
10 3 0 2 o 2744.904 2729.887 180.00 0.94422 0.01
4 13 0 2 o 200.099 199.369 0.00 0.94417 0.00
6 10 4 2 o 23198.656 22848.268 180.00 0.94388 0.28
6 6 7 2 o 0.764 0.697 180.00 0.94387 0.00
5 11 4 2 o 2559.283 2507.108 0.00 0.94376 0.03
8 3 6 1 o 5637.598 5458.415 180.00 0.94125 0.15
2 6 9 1 o 30149.465 29350.732 0.00 0.94123 0.69
1 14 1 2 o 3853.406 3700.244 0.00 0.94329 0.07
1 2 10 2 o 10925.931 10591.869 0.00 0.94325 0.12
4 11 5 2 o 80821.32 78283.02 180.00 0.94302 1.03
7 10 2 1 o 20568.059 20032.027 0.00 0.94039 0.49
2 12 5 2 o 50485.84 49184.21 180.00 0.94267 0.65
4 10 6 2 o 8622.778 8508.348 180.00 0.94223 0.11
9 4 4 1 o 1550.834 1534.184 0.00 0.93988 0.03
10 3 1 1 o 80.851 80.517 0.00 0.93967 0.00
4 13 1 1 o 49555.58 49315.24 180.00 0.93961 1.28
2 0 10 1 o 174.958 175.329 0.00 0.93924 0.00
6 3 8 1 o 8227.743 8369.594 0.00 0.93896 0.21
8 3 6 2 o 5355.505 5458.415 180.00 0.94125 0.07
2 6 9 2 o 28883.205 29350.732 0.00 0.94123 0.33
8 7 4 1 o 1126.933 1172.834 180.00 0.93843 0.04
1 13 4 1 o 2889.464 2972.384 180.00 0.93839 0.07
7 10 2 2 o 19577.094 20032.027 0.00 0.94039 0.23
10 2 2 1 o 11113.905 11134.766 180.00 0.93776 0.24
9 4 4 2 o 1555.008 1534.184 0.00 0.93988 0.02
10 3 1 2 o 81.995 80.517 0.00 0.93967 0.00
6 8 6 1 o 1148.602 1114.672 180.00 0.93735 0.03
4 13 1 2 o 50742.88 49315.24 180.00 0.93961 0.66
2 0 10 2 o 176.520 175.329 0.00 0.93924 0.00
2 1 10 1 o 32318.689 31658.621 180.00 0.93692 0.73
2 10 7 1 o 10.653 10.518 180.00 0.93672 0.00
6 3 8 2 o 8392.063 8369.594 0.00 0.93896 0.11
8 9 0 1 o 14479.997 14540.393 0.00 0.93619 0.18
8 7 4 2 o 1170.777 1172.834 180.00 0.93843 0.02
1 13 4 2 o 2973.860 2972.384 180.00 0.93839 0.04
10 2 2 2 o 11456.174 11134.766 180.00 0.93776 0.12
8 8 3 1 o 939.115 908.644 180.00 0.93514 0.02
6 8 6 2 o 1156.920 1114.672 180.00 0.93735 0.01
2 1 10 2 o 31718.074 31658.621 180.00 0.93692 0.36
4 4 9 1 o 439.153 438.641 0.00 0.93461 0.01
3 13 3 1 o 36804.95 37028.11 0.00 0.93456 1.01
4 7 8 1 o 991.403 1003.094 180.00 0.93454 0.03
2 14 0 1 o 12122.166 12303.581 180.00 0.93451 0.18
2 10 7 2 o 9.976 10.518 180.00 0.93672 0.00
9 1 5 1 o 1905.003 1995.974 180.00 0.93420 0.03
0 14 2 1 o 32540.227 35247.46 0.00 0.93419 0.46
8 9 0 2 o 12610.632 14540.393 0.00 0.93619 0.08
8 8 3 2 o 833.895 908.644 180.00 0.93514 0.01
7 4 7 1 o 1107.478 1207.300 0.00 0.93281 0.02
4 4 9 2 o 413.159 438.641 0.00 0.93461 0.00
3 13 3 2 o 34742.387 37028.11 0.00 0.93456 0.47
4 7 8 2 o 920.221 1003.094 180.00 0.93454 0.02
2 14 0 2 o 11529.547 12303.581 180.00 0.93451 0.08
9 1 5 2 o 1929.527 1995.974 180.00 0.93420 0.01
0 14 2 2 o 33335.465 35247.46 0.00 0.93419 0.24
8 9 1 1 o 20242.041 21239.033 180.00 0.93175 0.47
1 3 10 1 o 1471.808 1550.537 0.00 0.93167 0.04
9 7 1 1 o 1442.631 1469.013 0.00 0.93089 0.04
3 8 8 1 o 36257.42 36633.40 180.00 0.93074 0.84
7 9 4 1 o 1531.179 1543.029 0.00 0.93055 0.04
7 4 7 2 o 1198.917 1207.300 0.00 0.93281 0.01
4 12 4 1 o 949.159 951.805 0.00 0.93021 0.02
2 14 1 1 o 363.936 365.029 180.00 0.93009 0.01
2 2 10 1 o 6.174 6.179 0.00 0.93005 0.00
1 14 2 1 o 35635.98 35671.99 0.00 0.92985 0.98
5 1 9 1 o 3240.672 3243.253 180.00 0.92973 0.05
7 8 5 1 o 64.500 64.640 180.00 0.92952 0.00
8 9 1 2 o 21167.295 21239.033 180.00 0.93175 0.25
1 3 10 2 o 1543.364 1550.537 0.00 0.93167 0.02
0 7 9 1 o 43424.52 43548.68 0.00 0.92886 0.50
9 7 1 2 o 1471.554 1469.013 0.00 0.93089 0.02
3 8 8 2 o 36688.41 36633.40 180.00 0.93074 0.43
7 9 4 2 o 1540.933 1543.029 0.00 0.93055 0.02
8 6 5 1 o 6271.555 6282.752 0.00 0.92824 0.15
10 4 0 1 o 44073.07 44313.86 180.00 0.92808 0.48
4 9 7 1 o 2673.360 2699.376 180.00 0.92794 0.07
4 12 4 2 o 945.478 951.805 0.00 0.93021 0.01
2 14 1 2 o 359.938 365.029 180.00 0.93009 0.01
2 2 10 2 o 6.154 6.179 0.00 0.93005 0.00
5 8 7 1 o 19716.760 20080.477 0.00 0.92763 0.44
1 14 2 2 o 34904.781 35671.99 0.00 0.92985 0.48
5 1 9 2 o 3178.572 3243.253 180.00 0.92973 0.03
9 2 5 1 o 498.428 508.553 180.00 0.92740 0.01
7 8 5 2 o 62.964 64.640 180.00 0.92952 0.00
6 11 3 1 o 5649.547 5792.832 0.00 0.92680 0.14
1 9 8 1 o 14188.791 14493.800 180.00 0.92676 0.33
0 7 9 2 o 43303.74 43548.68 0.00 0.92886 0.25
10 3 2 1 o 3059.705 2996.917 180.00 0.92638 0.09
4 13 2 1 o 616.868 599.727 0.00 0.92633 0.02
8 6 5 2 o 6765.135 6282.752 0.00 0.92824 0.08
10 4 0 2 o 48402.49 44313.86 180.00 0.92808 0.27
4 9 7 2 o 2999.602 2699.376 180.00 0.92794 0.04
2 13 4 1 o 28873.660 26058.174 180.00 0.92539 0.81
5 8 7 2 o 22022.291 20080.477 0.00 0.92763 0.26
8 4 6 1 o 30895.074 28289.494 0.00 0.92525 0.71
9 6 3 1 o 20916.459 19223.113 180.00 0.92524 0.48
5 6 8 1 o 34209.703 31486.959 0.00 0.92518 0.82
9 2 5 2 o 536.308 508.553 180.00 0.92740 0.00
3 11 6 1 o 2722.777 2670.325 180.00 0.92469 0.07
1 7 9 1 o 16643.371 16505.717 180.00 0.92459 0.37
6 11 3 2 o 5808.021 5792.832 0.00 0.92680 0.08
1 9 8 2 o 14488.185 14493.800 180.00 0.92676 0.17
10 3 2 2 o 2985.099 2996.917 180.00 0.92638 0.04
4 13 2 2 o 599.735 599.727 0.00 0.92633 0.01
10 4 1 1 o 5877.964 5687.192 0.00 0.92375 0.14
2 13 4 2 o 28413.068 26058.174 180.00 0.92539 0.40
6 4 8 1 o 2.330 0.537 180.00 0.92308 0.00
5 2 9 1 o 426.172 408.480 0.00 0.92303 0.01
8 4 6 2 o 30599.385 28289.494 0.00 0.92525 0.35
9 6 3 2 o 20735.516 19223.113 180.00 0.92524 0.24
5 6 8 2 o 33967.008 31486.959 0.00 0.92518 0.41
3 12 5 1 o 615.355 659.389 180.00 0.92101 0.02
10 1 3 1 o 3844.788 3693.766 0.00 0.92261 0.08
6 4 8 2 o -0.248 0.537 180.00 0.92308 0.00
5 2 9 2 o 402.024 408.480 0.00 0.92303 0.00
3 11 6 2 o 2708.794 2670.325 180.00 0.92469 0.03
1 7 9 2 o 16503.721 16505.717 180.00 0.92459 0.18
5 12 3 1 o 32330.715 32675.059 0.00 0.92225 0.84
10 1 3 2 o 3741.267 3693.766 0.00 0.92261 0.04
0 4 10 1 o 22868.537 22585.436 180.00 0.92030 0.23
5 12 3 2 o 32776.047 32675.059 0.00 0.92225 0.43
10 4 1 2 o 5232.016 5687.192 0.00 0.92375 0.06
3 6 9 1 o 95.610 106.433 0.00 0.91966 0.01
9 5 4 1 o 9419.774 9967.891 180.00 0.91955 0.21
2 3 10 1 o 7288.718 8660.942 180.00 0.91895 0.16
8 9 2 1 o 42.028 44.046 0.00 0.91879 0.00
3 12 5 2 o 536.975 659.389 180.00 0.92101 0.01
7 10 3 1 o 1442.801 1819.048 0.00 0.91850 0.04
0 4 10 2 o 18817.199 22585.436 180.00 0.92030 0.08
9 7 2 1 o 7.771 8.764 0.00 0.91797 0.00
3 0 10 1 o 1186.361 1488.175 180.00 0.91781 0.01
3 6 9 2 o 45.223 106.433 0.00 0.91966 0.00
9 5 4 2 o 8109.424 9967.891 180.00 0.91955 0.09
2 14 2 1 o 4519.493 5284.223 180.00 0.91720 0.10
2 3 10 2 o 8377.202 8660.942 180.00 0.91895 0.10
8 9 2 2 o 43.908 44.046 0.00 0.91879 0.00
9 3 5 1 o 10956.229 11085.392 180.00 0.91638 0.28
7 10 3 2 o 1771.220 1819.048 0.00 0.91850 0.02
1 4 10 1 o 1958.837 2029.230 0.00 0.91615 0.04
10 2 3 1 o 4586.073 4860.023 0.00 0.91605 0.10
9 7 2 2 o 8.108 8.764 0.00 0.91797 0.00
3 1 10 1 o 1606.150 1871.735 180.00 0.91564 0.04
3 0 10 2 o 1266.647 1488.175 180.00 0.91781 0.01
7 7 6 1 o 177.181 219.525 180.00 0.91554 0.01
3 10 7 1 o 6938.585 8518.688 0.00 0.91546 0.20
2 14 2 2 o 4660.523 5284.223 180.00 0.91720 0.05
6 12 0 1 o 7690.139 8505.009 180.00 0.91464 0.10
4 5 9 1 o 1129.870 1244.538 0.00 0.91461 0.02
6 7 7 1 o 2226.069 2456.428 0.00 0.91456 0.05
2 9 8 1 o 8481.907 9163.001 180.00 0.91423 0.18
9 3 5 2 o 10034.696 11085.392 180.00 0.91638 0.13
1 4 10 2 o 1862.742 2029.230 0.00 0.91615 0.02
10 2 3 2 o 4434.872 4860.023 0.00 0.91605 0.05
3 1 10 2 o 1745.243 1871.735 180.00 0.91564 0.02
7 7 6 2 o 204.058 219.525 180.00 0.91554 0.00
3 10 7 2 o 8047.255 8518.688 0.00 0.91546 0.12
7 5 7 1 o 10636.186 10819.480 0.00 0.91293 0.28
6 12 0 2 o 8800.583 8505.009 180.00 0.91464 0.06
4 5 9 2 o 1289.816 1244.538 0.00 0.91461 0.01
6 7 7 2 o 2560.044 2456.428 0.00 0.91456 0.03
5 3 9 1 o 27861.758 26509.574 180.00 0.91216 0.68
2 7 9 1 o 801.844 764.688 0.00 0.91215 0.02
2 9 8 2 o 9637.411 9163.001 180.00 0.91423 0.11
0 12 6 1 o 16246.932 15193.163 0.00 0.91193 0.25
10 4 2 1 o 26010.975 22698.645 180.00 0.91112 0.65
7 5 7 2 o 12653.075 10819.480 0.00 0.91293 0.17
6 12 1 1 o 29522.330 25842.172 180.00 0.91049 0.80
5 3 9 2 o 29673.912 26509.574 180.00 0.91216 0.37
2 7 9 2 o 850.078 764.688 0.00 0.91215 0.01
0 12 6 2 o 16906.426 15193.163 0.00 0.91193 0.13
3 14 1 1 o 1656.487 1510.500 0.00 0.90927 0.07
3 2 10 1 o 17829.988 16778.432 180.00 0.90923 0.42
10 4 2 2 o 23150.766 22698.645 180.00 0.91112 0.28
1 14 3 1 o 611.811 622.569 180.00 0.90868 0.03
10 5 0 1 o 20418.369 21129.902 0.00 0.90849 0.21
6 12 1 2 o 24132.947 25842.172 180.00 0.91049 0.31
1 12 6 1 o 9723.583 10813.063 0.00 0.90790 0.24
0 11 7 1 o 212.839 240.902 180.00 0.90725 0.00
3 14 1 2 o 1103.604 1510.500 0.00 0.90927 0.02
3 2 10 2 o 13643.254 16778.432 180.00 0.90923 0.15
7 11 1 1 o 10136.044 12496.430 0.00 0.90678 0.22
1 14 3 2 o 410.969 622.569 180.00 0.90868 0.01
10 5 0 2 o 17611.662 21129.902 0.00 0.90849 0.09
8 5 6 1 o 7721.736 8822.412 0.00 0.90584 0.20
1 12 6 2 o 9928.688 10813.063 0.00 0.90790 0.12
10 3 3 1 o 21757.027 23081.217 0.00 0.90543 0.50
8 8 4 1 o 170.747 179.741 180.00 0.90540 0.00
4 13 3 1 o 2318.446 2460.048 180.00 0.90539 0.07
6 10 5 1 o 7209.701 7483.633 180.00 0.90513 0.19
5 11 5 1 o 12703.219 13112.225 180.00 0.90503 0.34
0 11 7 2 o 235.709 240.902 180.00 0.90725 0.00
3 13 4 1 o 597.399 608.751 0.00 0.90487 0.01
7 11 1 2 o 12342.785 12496.430 0.00 0.90678 0.15
10 5 1 1 o 6556.544 6634.256 0.00 0.90442 0.15
5 10 6 1 o 363.590 368.132 0.00 0.90433 0.01
7 0 8 1 o 4127.083 4185.216 0.00 0.90429 0.05
0 13 5 1 o 42178.00 42818.13 180.00 0.90422 0.56
2 4 10 1 o 1013.261 1048.622 0.00 0.90404 0.04
6 5 8 1 o 16578.971 17207.602 180.00 0.90379 0.40
8 5 6 2 o 8399.233 8822.412 0.00 0.90584 0.11
8 1 7 1 o 2810.219 2961.070 180.00 0.90331 0.07
1 11 7 1 o 515.154 541.239 0.00 0.90328 0.01
10 3 3 2 o 21941.773 23081.217 0.00 0.90543 0.26
8 8 4 2 o 171.584 179.741 180.00 0.90540 0.00
4 13 3 2 o 2328.449 2460.048 180.00 0.90539 0.03
6 10 5 2 o 7115.227 7483.633 180.00 0.90513 0.09
5 11 5 2 o 12500.707 13112.225 180.00 0.90503 0.17
3 13 4 2 o 590.655 608.751 0.00 0.90487 0.01
7 1 8 1 o 2080.727 2067.332 180.00 0.90222 0.05
10 5 1 2 o 6693.424 6634.256 0.00 0.90442 0.08
5 10 6 2 o 374.839 368.132 0.00 0.90433 0.00
7 0 8 2 o 4280.356 4185.216 0.00 0.90429 0.03
5 13 1 1 o 8659.599 8408.011 180.00 0.90202 0.27
0 13 5 2 o 43998.13 42818.13 180.00 0.90422 0.30
4 8 8 1 o 417.244 410.659 180.00 0.90191 0.01
2 4 10 2 o 1109.525 1048.622 0.00 0.90404 0.02
9 4 5 1 o 675.800 643.355 0.00 0.90160 0.02
6 5 8 2 o 18064.666 17207.602 180.00 0.90379 0.23
8 1 7 2 o 3216.967 2961.070 180.00 0.90331 0.04
1 11 7 2 o 587.125 541.239 0.00 0.90328 0.01
8 7 5 1 o 77042.67 70754.20 180.00 0.90032 1.92
6 9 6 1 o 24439.533 22418.783 180.00 0.90030 0.66
1 13 5 1 o 13375.141 12327.102 180.00 0.90029 0.38
7 1 8 2 o 2102.574 2067.332 180.00 0.90222 0.02
5 13 1 2 o 8087.705 8408.011 180.00 0.90202 0.13
4 8 8 2 o 399.759 410.659 180.00 0.90191 0.00
9 4 5 2 o 583.212 643.355 0.00 0.90160 0.01
3 3 10 1 o 106.422 108.954 180.00 0.89885 0.00
9 8 1 1 o 6928.755 6933.900 0.00 0.89863 0.16
6 12 2 1 o 7055.186 6892.635 180.00 0.89839 0.18
8 9 3 1 o 7084.835 6872.288 180.00 0.89834 0.19
8 7 5 2 o 73801.14 70754.20 180.00 0.90032 0.91
6 9 6 2 o 23445.625 22418.783 180.00 0.90030 0.31
1 13 5 2 o 12881.501 12327.102 180.00 0.90029 0.18
6 11 4 1 o 20573.010 19621.920 0.00 0.89783 0.62
5 4 9 1 o 111.212 108.272 180.00 0.89758 0.00
9 7 3 1 o 170.499 162.122 180.00 0.89757 0.01
5 7 8 1 o 7.632 7.438 0.00 0.89753 0.00
1 5 10 1 o 6251.609 6008.289 180.00 0.89729 0.16
3 14 2 1 o 17577.818 16883.516 0.00 0.89721 0.50
8 2 7 1 o 28.987 27.618 180.00 0.89716 0.00
2 14 3 1 o 148.080 135.822 0.00 0.89686 0.00
3 3 10 2 o 118.366 108.954 180.00 0.89885 0.00
9 8 1 2 o 7844.193 6933.900 0.00 0.89863 0.09
4 11 6 1 o 2309.256 1952.085 180.00 0.89641 0.08
9 6 4 1 o 10834.809 9425.257 0.00 0.89640 0.28
6 12 2 2 o 7806.899 6892.635 180.00 0.89839 0.10
8 9 3 2 o 7874.244 6872.288 180.00 0.89834 0.11
2 12 6 1 o 254.891 245.329 180.00 0.89611 0.00
7 2 8 1 o 22882.199 20148.996 180.00 0.89609 0.55
10 0 4 1 o 49256.63 43419.56 180.00 0.89603 0.61
6 11 4 2 o 21427.188 19621.920 0.00 0.89783 0.32
5 4 9 2 o 113.190 108.272 180.00 0.89758 0.00
9 7 3 2 o 176.075 162.122 180.00 0.89757 0.00
5 7 8 2 o 7.751 7.438 0.00 0.89753 0.00
8 10 0 1 o 6373.225 6050.623 180.00 0.89521 0.09
1 5 10 2 o 6302.988 6008.289 180.00 0.89729 0.08
3 14 2 2 o 17599.951 16883.516 0.00 0.89721 0.25
8 2 7 2 o 28.860 27.618 180.00 0.89716 0.00
7 11 2 1 o 3929.370 3766.297 180.00 0.89483 0.12
2 14 3 2 o 141.334 135.822 0.00 0.89686 0.00
3 9 8 1 o 9369.897 9049.827 0.00 0.89444 0.24
4 11 6 2 o 2026.094 1952.085 180.00 0.89641 0.03
9 6 4 2 o 9715.804 9425.257 0.00 0.89640 0.12
10 1 4 1 o 23072.484 22593.654 0.00 0.89401 0.58
2 12 6 2 o 246.176 245.329 180.00 0.89611 0.00
7 2 8 2 o 20362.477 20148.996 180.00 0.89609 0.24
10 0 4 2 o 43666.71 43419.56 180.00 0.89603 0.26
5 12 4 1 o 6451.940 6496.637 0.00 0.89369 0.18
7 9 5 1 o 12084.758 12566.733 0.00 0.89336 0.35
4 12 5 1 o 3658.227 3807.920 180.00 0.89305 0.10
8 10 0 2 o 5834.125 6050.623 180.00 0.89521 0.04
1 8 9 1 o 561.297 576.330 180.00 0.89296 0.01
7 11 2 2 o 3759.235 3766.297 180.00 0.89483 0.06
10 5 2 1 o 3423.035 3406.977 0.00 0.89256 0.09
3 7 9 1 o 6026.219 5962.020 0.00 0.89249 0.16
3 9 8 2 o 9237.468 9049.827 0.00 0.89444 0.12
4 6 9 1 o 1687.603 1680.012 0.00 0.89182 0.04
10 1 4 2 o 22678.104 22593.654 0.00 0.89401 0.29
5 9 7 1 o 22881.939 23052.646 180.00 0.89168 0.62
2 11 7 1 o 1423.506 1434.546 0.00 0.89166 0.04
5 12 4 2 o 6356.617 6496.637 0.00 0.89369 0.09
8 10 1 1 o 1227.245 1270.118 0.00 0.89132 0.03
10 4 3 1 o 1597.551 1666.734 180.00 0.89117 0.04
7 9 5 2 o 11991.504 12566.733 0.00 0.89336 0.17
4 12 5 2 o 3635.171 3807.920 180.00 0.89305 0.05
9 0 6 1 o 2182.127 2273.135 0.00 0.89080 0.02
1 8 9 2 o 557.538 576.330 180.00 0.89296 0.01
0 10 8 1 o 6888.750 7143.929 180.00 0.89072 0.08
10 5 2 2 o 3286.514 3406.977 0.00 0.89256 0.04
3 7 9 2 o 5746.643 5962.020 0.00 0.89249 0.08
7 10 4 1 o 82.000 84.342 0.00 0.89028 0.00
7 6 7 1 o 2668.735 2758.755 0.00 0.89027 0.06
5 13 2 1 o 15785.205 16357.185 0.00 0.89024 0.43
4 0 10 1 o 51754.49 54199.84 180.00 0.89013 0.63
