#------------------------------------------------------------------------------
#$Date: 2016-03-21 01:21:50 +0200 (Mon, 21 Mar 2016) $
#$Revision: 178377 $
#$URL: svn://www.crystallography.net/cod/cif/4/00/11/4001182.cif $
#------------------------------------------------------------------------------
#
# This file is available in the Crystallography Open Database (COD),
# http://www.crystallography.net/
#
# All data on this site have been placed in the public domain by the
# contributors.
#
data_4001182
loop_
_publ_author_name
'Zhou, Yongkai'
'Adams, Stefan'
'Rao, R. Prasada'
'Edwards, Doreen D.'
'Neiman, Arkady'
'Pestereva, N.'
_publ_section_title
;
 Charge Transport by Polyatomic Anion Diffusion in Sc2(WO4)3
;
_journal_issue                   20
_journal_name_full               'Chemistry of Materials'
_journal_page_first              6335
_journal_paper_doi               10.1021/cm800466y
_journal_volume                  20
_journal_year                    2008
_chemical_formula_moiety         ' Sc2(WO4)3 '
_chemical_formula_sum            'O12 Sc2 W3'
_chemical_formula_weight         833.45
_chemical_melting_point          1913
_chemical_name_common            ' Scandium Tungstate '
_chemical_name_systematic        ' Scandium Tungstate '
_space_group_IT_number           60
_symmetry_cell_setting           orthorhombic
_symmetry_space_group_name_Hall  '-P 2a 2n'
_symmetry_space_group_name_H-M   'P n c a'
_audit_creation_date             2008-01-25T12:03
_audit_creation_method           'from EXP file using GSAS2CIF'
_audit_update_record
' 2008-01-25T12:03  Initial CIF as created by GSAS2CIF'
_cell_angle_alpha                90.0
_cell_angle_beta                 90.0
_cell_angle_gamma                90.0
_cell_formula_units_Z            4
_cell_length_a                   9.68300(11)
_cell_length_b                   13.31784(15)
_cell_length_c                   9.59151(11)
_cell_measurement_temperature    11
_cell_volume                     1236.89(2)
_computing_structure_refinement  GSAS
_diffrn_radiation_polarisn_ratio 0.68
_diffrn_radiation_probe          x-ray
_exptl_absorpt_correction_T_max  1.00000
_exptl_absorpt_correction_T_min  1.00000
_exptl_absorpt_process_details
;   GSAS Absorption/surface roughness correction: function number 0
 No correction is applied.
;
_pd_block_id
2008-01-25T12:03|T11K|Zhou_Yongkai|Philips_Xpert
_pd_calc_method                  'Rietveld Refinement'
_pd_instr_location               ' ?'
_pd_meas_2theta_range_inc        0.017
_pd_meas_2theta_range_max        119.9874
_pd_meas_2theta_range_min        10.0144
_pd_meas_number_of_points        6470
_pd_proc_2theta_range_inc        0.017
_pd_proc_2theta_range_max        119.9874
_pd_proc_2theta_range_min        10.0144
_pd_proc_info_datetime           2008-01-25T12:03:55
_pd_proc_info_excluded_regions   ' ?'
_pd_proc_ls_background_function
;   GSAS Background function number 1 with 12 terms.
 Shifted Chebyshev function of 1st kind
      1:    273.270     2:   -57.0605     3:    37.8397     4:    10.6081    
      5:    9.12639     6:   -4.95872     7:    4.42746     8:   -5.09027    
      9:    10.9460    10:   -18.0085    11:    16.4978    12:   -9.06643    
;
_pd_proc_ls_peak_cutoff          0.00250
_pd_proc_ls_pref_orient_corr
;   March-Dollase
 AXIS  1 Ratio=   0.98042  h= 0.000  k= 1.000  l= 0.000
 Prefered orientation correction range: Min=   0.97077, Max=   1.06114
;
_pd_proc_ls_profile_function
;
 CW Profile function number 3 with  19 terms
 Pseudovoigt profile coefficients as parameterized in
 P. Thompson, D.E. Cox & J.B. Hastings (1987). J. Appl. Cryst.,20,79-83.
 Asymmetry correction of L.W. Finger, D.E. Cox & A. P. Jephcoat (1994).
 J. Appl. Cryst.,27,892-900.
 Peak tails are ignored  where the intensity is below 0.0025 times the peak
   Aniso. broadening axis   0.0   0.0   1.0
;
_pd_proc_ls_prof_R_factor        0.0495
_pd_proc_ls_prof_wR_expected     0.0371
_pd_proc_ls_prof_wR_factor       0.0684
_pd_proc_number_of_points        6470
_pd_spec_mounting                ' ?'
_refine_ls_goodness_of_fit_all   1.85
_refine_ls_matrix_type           full
_refine_ls_number_parameters     51
_refine_ls_number_restraints     0
_refine_ls_R_Fsqd_factor         0.03318
_refine_ls_shift/su_max          0.03
_refine_ls_shift/su_mean         0.01
_reflns_d_resolution_high        0.890
_reflns_d_resolution_low         6.659
_reflns_limit_h_max              10
_reflns_limit_h_min              0
_reflns_limit_k_max              15
_reflns_limit_k_min              0
_reflns_limit_l_max              10
_reflns_limit_l_min              0
_reflns_number_total             1847
_cod_data_source_file            cm800466y_si_001.cif
_cod_data_source_block           T11K_publ
_cod_depositor_comments
;
The following automatic conversions were performed:

'_chemical_melting_point' value ' 1913K ' was changed to '1913' - the
value should be numeric and without a unit
designator.

'_geom_bond_publ_flag' value 'N' changed to 'n'
according to /home/saulius/struct/CIF-dictionaries/cif_core.dic
dictionary named 'cif_core.dic' version 2.4.1 from 2010-06-29 (26
times).

'_geom_angle_publ_flag' value 'N' changed to 'n' according
to /home/saulius/struct/CIF-dictionaries/cif_core.dic dictionary
named 'cif_core.dic' version 2.4.1 from 2010-06-29 (33 times).

Automatic conversion script
Id: cif_fix_values 1715 2011-07-08 13:25:40Z adriana 
;
_cod_original_cell_volume        1236.889(31)
_cod_database_code               4001182
#BEGIN Tags that were not found in dictionaries:
_gsas_exptl_extinct_corr_t_min   1.00000
_gsas_exptl_extinct_corr_t_max   1.00000
#END Tags that were not found in dictionaries
loop_
_symmetry_equiv_pos_site_id
_symmetry_equiv_pos_as_xyz
1 +x,+y,+z
2 -x+1/2,+y+1/2,+z+1/2
3 +x,-y+1/2,+z+1/2
4 -x+1/2,-y,+z
-1 -x,-y,-z
-2 +x+1/2,-y+1/2,-z+1/2
-3 -x,+y+1/2,-z+1/2
-4 +x+1/2,+y,-z
loop_
_atom_site_type_symbol
_atom_site_label
_atom_site_fract_x
_atom_site_fract_y
_atom_site_fract_z
_atom_site_occupancy
_atom_site_thermal_displace_type
_atom_site_U_iso_or_equiv
_atom_site_symmetry_multiplicity
Sc Sc1 0.46751(34) 0.37951(25) 0.2504(4) 1.0 Uiso 0.0099(11) 8
W W1 0.25 0.0 0.47376(14) 1.0 Uiso 0.00915(26) 4
W W2 0.11800(10) 0.35550(8) 0.39566(11) 1.0 Uiso 0.00915(26) 8
O O1 0.0997(11) 0.1406(9) 0.0783(11) 1.0 Uiso 0.0154(16) 8
O O2 0.1303(13) 0.0620(7) 0.3630(11) 1.0 Uiso 0.0154(16) 8
O O3 0.0070(12) 0.2633(9) 0.3166(10) 1.0 Uiso 0.0154(16) 8
O O4 0.3350(11) 0.4032(7) 0.0770(11) 1.0 Uiso 0.0154(16) 8
O O5 0.0693(10) 0.4734(8) 0.3204(11) 1.0 Uiso 0.0154(16) 8
O O6 0.2983(12) 0.3318(8) 0.3583(11) 1.0 Uiso 0.0154(16) 8
loop_
_atom_type_symbol
_atom_type_number_in_cell
_atom_type_scat_dispersion_real
_atom_type_scat_dispersion_imag
_atom_type_scat_Cromer_Mann_a1
_atom_type_scat_Cromer_Mann_a2
_atom_type_scat_Cromer_Mann_a3
_atom_type_scat_Cromer_Mann_a4
_atom_type_scat_Cromer_Mann_b1
_atom_type_scat_Cromer_Mann_b2
_atom_type_scat_Cromer_Mann_b3
_atom_type_scat_Cromer_Mann_b4
_atom_type_scat_Cromer_Mann_c
_atom_type_scat_source
Sc 8.0 0.000 0.000 9.18900 9.02130 7.36790 0.57290 1.64090 136.108 1.46800
51.3531 1.33290 International_Tables_Vol_C
W 12.0 0.000 0.000 29.0818 1.72029 15.4300 9.22590 14.4327 0.32170 5.11982
57.0560 9.88750 International_Tables_Vol_C
O 48.0 0.000 0.000 3.04850 13.2771 2.28680 5.70110 1.54630 0.32390 0.86700
32.9089 0.25080 International_Tables_Vol_C
loop_
_diffrn_radiation_wavelength
_diffrn_radiation_wavelength_wt
_diffrn_radiation_type
_diffrn_radiation_wavelength_id
1.540500 1.000 K\a~1~ 1
1.544300 0.500 K\a~2~ 2
loop_
_geom_angle_atom_site_label_1
_geom_angle_atom_site_label_2
_geom_angle_atom_site_label_3
_geom_angle
_geom_angle_site_symmetry_1
_geom_angle_site_symmetry_3
_geom_angle_publ_flag
O1 Sc1 O2 89.7(4) -2_666 -2_666 n
O1 Sc1 O3 90.7(4) -2_666 -2_666 n
O1 Sc1 O4 178.8(5) -2_666 1_555 n
O1 Sc1 O5 88.4(4) -2_666 4_565 n
O1 Sc1 O6 93.0(5) -2_666 1_555 n
O2 Sc1 O3 92.4(5) -2_666 -2_666 n
O2 Sc1 O4 89.6(5) -2_666 1_555 n
O2 Sc1 O5 86.9(4) -2_666 4_565 n
O2 Sc1 O6 175.5(5) -2_666 1_555 n
O3 Sc1 O4 90.3(4) -2_666 1_555 n
O3 Sc1 O5 178.9(5) -2_666 4_565 n
O3 Sc1 O6 91.1(4) -2_666 1_555 n
O4 Sc1 O5 90.5(4) 1_555 4_565 n
O4 Sc1 O6 87.6(4) 1_555 1_555 n
O5 Sc1 O6 89.6(4) 4_565 1_555 n
O2 W1 O2 106.5(7) 1_555 4_555 n
O2 W1 O4 111.1(5) 1_555 2_545 n
O2 W1 O4 106.9(5) 1_555 3_555 n
O2 W1 O4 106.9(5) 4_555 2_545 n
O2 W1 O4 111.1(5) 4_555 3_555 n
O4 W1 O4 114.2(6) 2_545 3_555 n
O1 W2 O3 112.3(5) 3_555 1_555 n
O1 W2 O5 110.4(5) 3_555 1_555 n
O1 W2 O6 107.4(4) 3_555 1_555 n
O3 W2 O5 105.7(5) 1_555 1_555 n
O3 W2 O6 111.9(5) 1_555 1_555 n
O5 W2 O6 109.1(4) 1_555 1_555 n
Sc1 O1 W2 147.5(6) -2_466 3_554 n
Sc1 O2 W1 170.9(7) -2_555 1_555 n
Sc1 O3 W2 151.6(7) -2_466 1_555 n
Sc1 O4 W1 143.5(6) 1_555 2_554 n
Sc1 O5 W2 172.1(6) 4_565 1_555 n
Sc1 O6 W2 145.1(6) 1_555 1_555 n
loop_
_geom_bond_atom_site_label_1
_geom_bond_atom_site_label_2
_geom_bond_distance
_geom_bond_site_symmetry_2
_geom_bond_publ_flag
Sc1 O1 2.100(11) -2_555 n
Sc1 O2 2.068(12) -2_555 n
Sc1 O3 2.044(12) -2_555 n
Sc1 O4 2.124(10) 1_555 n
Sc1 O5 2.101(11) 4_565 n
Sc1 O6 2.040(11) 1_555 n
W1 O2 1.776(12) 1_555 n
W1 O2 1.776(12) 4_555 n
W1 O4 1.822(10) 2_545 n
W1 O4 1.822(10) 3_555 n
W2 O1 1.762(11) 3_555 n
W2 O3 1.799(11) 1_555 n
W2 O5 1.792(11) 1_555 n
W2 O6 1.810(11) 1_555 n
O1 Sc1 2.100(11) -2_455 n
O1 W2 1.762(11) 3_554 n
O2 Sc1 2.068(12) -2_455 n
O2 W1 1.776(12) 1_555 n
O3 Sc1 2.044(12) -2_455 n
O3 W2 1.799(11) 1_555 n
O4 Sc1 2.124(10) 1_555 n
O4 W1 1.822(10) 2_554 n
O5 Sc1 2.101(11) 4_565 n
O5 W2 1.792(11) 1_555 n
O6 Sc1 2.040(11) 1_555 n
O6 W2 1.810(11) 1_555 n
loop_
_pd_meas_counts_total
_pd_proc_ls_weight
_pd_proc_intensity_bkg_calc
_pd_calc_intensity_total
671.0 0.0 866.60919 .
631.0 0.0 861.67529 .
643.0 0.0 856.77356 .
665.0 0.0 851.90417 .
620.0 0.0 847.06567 .
631.0 0.0 842.25940 .
650.0 0.0 837.48395 .
649.0 0.0 832.74017 .
619.0 0.0 828.02771 .
655.0 0.0 823.34564 .
576.0 0.0 818.69482 .
584.0 0.0 814.07465 .
604.0 0.0 809.48480 .
620.0 0.0 804.92554 .
631.0 0.0 800.39636 .
626.0 0.0 795.89734 .
607.0 0.0 791.42798 .
594.0 0.0 786.98822 .
575.0 0.0 782.57898 .
607.0 0.0 778.19873 .
611.0 0.0 773.84790 .
591.0 0.0 769.52625 .
590.0 0.0 765.23334 .
580.0 0.0 760.96960 .
580.0 0.0 756.73499 .
586.0 0.0 752.52875 .
584.0 0.0 748.35120 .
583.0 0.0 744.20160 .
576.0 0.0 740.08044 .
574.0 0.0 735.98730 .
595.0 0.0 731.92242 .
591.0 0.0 727.88507 .
576.0 0.0 723.87518 .
576.0 0.0 719.89325 .
569.0 0.0 715.93860 .
565.0 0.0 712.01099 .
585.0 0.0 708.11078 .
572.0 0.0 704.23724 .
581.0 0.0 700.39075 .
558.0 0.0 696.57123 .
517.0 0.0 692.77783 .
523.0 0.0 689.01123 .
540.0 0.0 685.27069 .
528.0 0.0 681.55652 .
526.0 0.0 677.86859 .
559.0 0.0 674.20636 .
544.0 0.0 670.56970 .
534.0 0.0 666.95874 .
550.0 0.0 663.37354 .
540.0 0.0 659.81396 .
539.0 0.0 656.27954 .
530.0 0.0 652.76996 .
542.0 0.0 649.28522 .
528.0 0.0 645.82587 .
536.0 0.0 642.39124 .
555.0 0.0 638.98126 .
509.0 0.0 635.59546 .
530.0 0.0 632.23407 .
534.0 0.0 628.89728 .
537.0 0.0 625.58472 .
535.0 0.0 622.29608 .
493.0 0.0 619.03107 .
514.0 0.0 615.78973 .
510.0 0.0 612.57245 .
484.0 0.0 609.37866 .
520.0 0.0 606.20831 .
519.0 0.0 603.06091 .
499.0 0.0 599.93677 .
547.0 0.0 596.83575 .
513.0 0.0 593.75781 .
496.0 0.0 590.70264 .
507.0 0.0 587.66998 .
501.0 0.0 584.65985 .
472.0 0.0 581.67224 .
499.0 0.0 578.70728 .
530.0 0.0 575.76422 .
500.0 0.0 572.84326 .
490.0 0.0 569.94427 .
468.0 0.0 567.06726 .
474.0 0.0 564.21198 .
493.0 0.0 561.37848 .
471.0 0.0 558.56610 .
480.0 0.0 555.77539 .
456.0 0.0 553.00592 .
472.0 0.0 550.25781 .
457.0 0.0 547.53076 .
443.0 0.0 544.82434 .
443.0 0.0 542.13904 .
440.0 0.0 539.47430 .
465.0 0.0 536.83044 .
470.0 0.0 534.20709 .
462.0 0.0 531.60388 .
481.0 0.0 529.02112 .
467.0 0.0 526.45862 .
439.0 0.0 523.91620 .
457.0 0.0 521.39374 .
455.0 0.0 518.89099 .
471.0 0.0 516.40814 .
448.0 0.0 513.94482 .
429.0 0.0 511.50125 .
432.0 0.0 509.07706 .
468.0 0.0 506.67209 .
418.0 0.0 504.28635 .
466.0 0.0 501.91992 .
456.0 0.0 499.57233 .
402.0 0.0 497.24380 .
433.0 0.0 494.93384 .
425.0 0.0 492.64279 .
438.0 0.0 490.37045 .
461.0 0.0 488.11639 .
450.0 0.0 485.88083 .
474.0 0.0 483.66351 .
472.0 0.0 481.46448 .
456.0 0.0 479.28348 .
454.0 0.0 477.12067 .
439.0 0.0 474.97562 .
415.0 0.0 472.84830 .
436.0 0.0 470.73865 .
438.0 0.0 468.64676 .
437.0 0.0 466.57239 .
452.0 0.0 464.51547 .
396.0 0.0 462.47565 .
429.0 0.0 460.45303 .
451.0 0.0 458.44775 .
439.0 0.0 456.45932 .
446.0 0.0 454.48801 .
407.0 0.0 452.53336 .
401.0 0.0 450.59525 .
442.0 0.0 448.67410 .
420.0 0.0 446.76941 .
426.0 0.0 444.88135 .
443.0 0.0 443.00940 .
411.0 0.0 441.15366 .
461.0 0.0 439.31421 .
468.0 0.0 437.49100 .
449.0 0.002227 435.68369 435.67981
428.0 0.002336 433.89218 433.88831
414.0 0.002415 432.11639 432.11234
405.0 0.002469 430.35654 430.35251
395.0 0.002532 428.61227 428.60818
424.0 0.002358 426.88348 426.87930
439.0 0.002278 425.17010 425.16589
410.0 0.002439 423.47198 423.46771
403.0 0.002481 421.78943 421.78503
433.0 0.002309 420.12198 420.11752
441.0 0.002268 418.46951 420.59814
449.0 0.002227 416.83200 419.08084
442.0 0.002262 415.20944 418.65457
395.0 0.002532 413.60175 417.25006
394.0 0.002538 412.00882 415.87958
392.0 0.002551 410.43054 414.54523
405.0 0.002469 408.86673 413.25015
405.0 0.002469 407.31738 411.99789
412.0 0.002427 405.78268 410.79282
423.0 0.002364 404.26221 409.64001
429.0 0.002331 402.75586 408.54584
422.0 0.002370 401.26367 407.51840
431.0 0.002320 399.78549 406.56754
418.0 0.002392 398.32135 405.70663
410.0 0.002439 396.87122 404.95251
415.0 0.002410 395.43469 404.32788
469.0 0.002132 394.01205 403.86502
430.0 0.002326 392.60287 403.61151
443.0 0.002257 391.20749 403.65317
450.0 0.002222 389.82556 404.19598
418.0 0.002392 388.45697 405.77554
428.0 0.002336 387.10165 409.51016
466.0 0.002146 385.75949 416.95972
465.0 0.002151 384.43073 429.25455
475.0 0.002105 383.11487 446.64630
461.0 0.002169 381.81213 468.62772
458.0 0.002183 380.52219 494.53293
530.0 0.001887 379.24512 523.94800
516.0 0.001938 377.98090 556.91956
507.0 0.001972 376.72934 593.85852
570.0 0.001754 375.49045 635.42499
617.0 0.001621 374.26392 682.52753
653.0 0.001531 373.04980 736.39038
700.0 0.001429 371.84830 798.69800
757.0 0.001321 370.65900 871.83936
819.0 0.001221 369.48199 959.32416
917.0 0.001091 368.31699 1066.68079
1105.0 0.000905 367.16406 1203.57971
1276.0 0.000784 366.02319 1388.69849
1489.0 0.000672 364.89429 1653.03491
1849.0 0.000541 363.77728 2011.26868
2189.0 0.000457 362.67191 2369.32788
2364.0 0.000423 361.57825 2466.39917
2143.0 0.000467 360.49628 2133.68896
1766.0 0.000566 359.42593 1600.33789
1342.0 0.000745 358.36700 1076.11841
961.0 0.001041 357.31937 715.00146
699.0 0.001431 356.28320 533.90027
526.0 0.001901 355.25830 458.85263
432.0 0.002315 354.24457 426.55054
400.0 0.002500 353.24200 408.61932
377.0 0.002653 352.25040 396.44742
373.0 0.002681 351.26981 387.45215
370.0 0.002703 350.30011 380.50729
356.0 0.002809 349.34131 374.96619
354.0 0.002825 348.39334 370.42227
352.0 0.002841 347.45590 366.60803
372.0 0.002688 346.52911 363.34198
386.0 0.002591 345.61298 360.49670
376.0 0.002660 344.70737 357.98053
373.0 0.002681 343.81216 355.72614
372.0 0.002688 342.92725 353.68304
373.0 0.002681 342.05264 351.81323
374.0 0.002674 341.18826 350.08719
364.0 0.002747 340.33411 348.48190
351.0 0.002849 339.48999 346.97882
364.0 0.002747 338.65591 345.56320
353.0 0.002833 337.83176 344.22345
336.0 0.002976 337.01752 342.94958
349.0 0.002865 336.21310 341.73395
375.0 0.002667 335.41849 340.56967
351.0 0.002849 334.63361 339.45120
327.0 0.003058 333.85822 338.37393
337.0 0.002967 333.09244 334.61444
320.0 0.003125 332.33621 333.76492
301.0 0.003322 331.58948 331.58331
327.0 0.003058 330.85199 335.28641
346.0 0.002890 330.12390 334.79846
333.0 0.003003 329.40494 334.34003
344.0 0.002907 328.69537 336.22781
358.0 0.002793 327.99484 335.96436
345.0 0.002899 327.30328 335.75012
326.0 0.003067 326.62079 335.59009
334.0 0.002994 325.94727 335.49048
357.0 0.002801 325.28256 335.45816
361.0 0.002770 324.62680 335.50195
315.0 0.003175 323.97955 335.63187
350.0 0.002857 323.34119 335.86041
402.0 0.002488 322.71149 336.20267
355.0 0.002817 322.09030 336.67734
366.0 0.002732 321.47766 337.30814
373.0 0.002681 320.87350 338.12476
358.0 0.002793 320.27762 339.16602
365.0 0.002740 319.69019 340.48331
364.0 0.002747 319.11099 342.14661
400.0 0.002500 318.54004 344.25507
399.0 0.002506 317.97717 346.96277
407.0 0.002457 317.42249 350.57141
392.0 0.002551 316.87589 355.83807
413.0 0.002421 316.33728 364.59827
433.0 0.002309 315.80667 380.19919
469.0 0.002132 315.28375 406.45871
486.0 0.002058 314.76874 445.59549
516.0 0.001938 314.26151 497.89691
590.0 0.001695 313.76202 562.38330
623.0 0.001605 313.27014 637.70807
641.0 0.001560 312.78589 723.62775
694.0 0.001441 312.30908 821.04163
753.0 0.001328 311.83990 931.60834
858.0 0.001166 311.37814 1058.09570
950.0 0.001053 310.92377 1204.64258
1072.0 0.000933 310.47675 1377.13062
1252.0 0.000799 310.03687 1584.13489
1492.0 0.000670 309.60431 1839.42786
1787.0 0.000560 309.17886 2168.06592
2267.0 0.000441 308.76059 2617.76270
2875.0 0.0003478 308.34933 3255.31152
3723.0 0.0002686 307.94510 4068.20703
4288.0 0.0002332 307.54791 4754.32959
4308.0 0.0002321 307.15753 4721.28760
3898.0 0.0002565 306.77405 3873.35425
2915.0 0.0003431 306.39731 2785.38477
1934.0 0.000517 306.02737 1749.92786
1243.0 0.000805 305.66415 1038.58215
841.0 0.001189 305.30756 678.98041
591.0 0.001692 304.95755 528.02069
456.0 0.002193 304.61407 462.12604
425.0 0.002353 304.27713 425.50525
381.0 0.002625 303.94659 400.98361
356.0 0.002809 303.62262 383.23871
338.0 0.002959 303.30475 369.88962
354.0 0.002825 302.99335 359.55725
350.0 0.002857 302.68811 351.37109
334.0 0.002994 302.38913 344.75632
333.0 0.003003 302.09634 339.31961
319.0 0.003135 301.80960 334.78482
345.0 0.002899 301.52890 330.95319
343.0 0.002915 301.25418 327.67868
324.0 0.003086 300.98557 324.85214
318.0 0.003145 300.72287 322.38980
327.0 0.003058 300.46582 320.22696
354.0 0.002825 300.21478 318.31323
305.0 0.003279 299.96945 316.60861
330.0 0.003030 299.72989 315.08102
315.0 0.003175 299.49603 313.70425
302.0 0.003311 299.26782 312.45721
336.0 0.002976 299.04514 311.32239
328.0 0.003049 298.82803 310.28506
317.0 0.003155 298.61633 309.33353
352.0 0.002841 298.41025 308.45728
321.0 0.003115 298.20950 301.62793
333.0 0.003003 298.01419 301.22321
305.0 0.003279 297.82410 297.81955
296.0 0.003378 297.63937 297.63483
331.0 0.003021 297.45987 297.45538
306.0 0.003268 297.28555 297.28107
302.0 0.003311 297.11639 297.11194
280.0 0.00357 296.95224 296.94788
329.0 0.003040 296.79327 296.78894
321.0 0.003115 296.63931 296.63495
323.0 0.003096 296.49030 296.48596
327.0 0.003058 296.34625 296.34195
286.0 0.003497 296.20703 296.20282
314.0 0.003185 296.07275 296.06851
336.0 0.002976 295.94324 295.93909
328.0 0.003049 295.81845 295.81436
330.0 0.003030 295.69849 295.69440
296.0 0.003378 295.58313 295.57910
291.0 0.003436 295.47250 295.46848
314.0 0.003185 295.36636 295.36237
326.0 0.003067 295.26489 295.26093
323.0 0.003096 295.16788 295.16403
304.0 0.003289 295.07538 295.07162
288.0 0.003472 294.98737 294.98358
291.0 0.003436 294.90369 294.89993
276.0 0.00362 294.82443 294.82074
280.0 0.00357 294.74951 294.74582
302.0 0.003311 294.67889 294.67517
316.0 0.003165 294.61240 294.60883
314.0 0.003185 294.55029 294.54666
329.0 0.003040 294.49222 294.48874
308.0 0.003247 294.43835 294.43491
306.0 0.003268 294.38855 294.38510
306.0 0.003268 294.34290 294.33939
324.0 0.003086 294.30112 294.29773
298.0 0.003356 294.26340 294.26007
320.0 0.003125 294.22955 294.22629
345.0 0.002899 294.19980 294.19650
333.0 0.003003 294.17374 294.17053
325.0 0.003077 294.15158 294.14844
289.0 0.003460 294.13327 294.13013
288.0 0.003472 294.11871 294.11560
292.0 0.003425 294.10776 294.10474
298.0 0.003356 294.10065 294.09769
310.0 0.003226 294.09711 294.09418
285.0 0.00351 294.09723 294.09436
309.0 0.003236 294.10095 294.09805
308.0 0.003247 294.10822 294.10541
321.0 0.003115 294.11893 294.11615
298.0 0.003356 294.13321 294.13055
287.0 0.003484 294.15094 294.14825
299.0 0.003344 294.17209 294.16937
289.0 0.003460 294.19656 294.19391
297.0 0.003367 294.22443 294.22177
317.0 0.003155 294.25555 294.25299
293.0 0.003413 294.28995 294.28745
284.0 0.00352 294.32764 294.32516
269.0 0.00372 294.36847 294.36615
285.0 0.00351 294.41260 294.41022
294.0 0.003401 294.45978 294.45749
284.0 0.00352 294.51013 294.50787
292.0 0.003425 294.56351 294.56128
280.0 0.00357 294.62000 294.61780
287.0 0.003484 294.67944 294.67731
278.0 0.00360 294.74194 294.73981
294.0 0.003401 294.80734 294.80527
292.0 0.003425 294.87564 294.87366
301.0 0.003322 294.94690 294.94495
296.0 0.003378 295.02094 295.01904
289.0 0.003460 295.09784 295.09598
274.0 0.00365 295.17758 295.17575
296.0 0.003378 295.26004 295.25827
291.0 0.003436 295.34521 295.34344
303.0 0.003300 295.43311 295.43146
333.0 0.003003 295.52374 295.52206
301.0 0.003322 295.61697 295.61536
290.0 0.003448 295.71283 295.71124
289.0 0.003460 295.81125 295.80975
292.0 0.003425 295.91226 295.91077
283.0 0.00353 296.01572 296.01437
273.0 0.00366 296.12173 296.12033
280.0 0.00357 296.23026 296.22885
293.0 0.003413 296.34113 296.33984
283.0 0.00353 296.45450 296.45322
284.0 0.00352 296.57019 296.56897
283.0 0.00353 296.68823 296.68710
305.0 0.003279 296.80862 296.80753
309.0 0.003236 296.93134 296.93027
318.0 0.003145 297.05627 297.05527
301.0 0.003322 297.18353 297.18253
312.0 0.003205 297.31293 297.31195
295.0 0.003390 297.44455 297.44366
279.0 0.00358 297.57831 297.57742
304.0 0.003289 297.71417 297.71341
305.0 0.003279 297.85220 297.85144
277.0 0.00361 297.99228 297.99155
313.0 0.003195 298.13440 298.13370
318.0 0.003145 298.27863 298.27798
294.0 0.003401 298.42474 298.42413
301.0 0.003322 298.57291 298.57230
285.0 0.00351 298.72299 298.72247
307.0 0.003257 298.87494 298.87454
303.0 0.003300 299.02887 299.02844
277.0 0.00361 299.18463 299.18427
244.0 0.00410 299.34222 299.34195
312.0 0.003205 299.50168 299.50143
286.0 0.003497 299.66290 299.66275
316.0 0.003165 299.82596 299.82578
272.0 0.00368 299.99072 299.99060
272.0 0.00368 300.15714 300.15707
279.0 0.00358 300.32532 300.32529
294.0 0.003401 300.49518 300.49518
307.0 0.003257 300.66669 300.66675
298.0 0.003356 300.83981 300.83987
274.0 0.00365 301.01453 301.01465
292.0 0.003425 301.19086 301.19098
258.0 0.00388 301.36862 301.36887
298.0 0.003356 301.54800 301.54831
296.0 0.003378 301.72891 301.72922
298.0 0.003356 301.91129 301.91165
292.0 0.003425 302.09506 302.09546
273.0 0.00366 302.28033 302.28079
279.0 0.00358 302.46707 302.46753
295.0 0.003390 302.65506 302.65561
300.0 0.003333 302.84454 302.84512
297.0 0.003367 303.03528 303.03589
289.0 0.003460 303.22742 303.22812
290.0 0.003448 303.42084 303.42151
296.0 0.003378 303.61548 303.61627
298.0 0.003356 303.81152 303.81223
300.0 0.003333 304.00867 304.00952
294.0 0.003401 304.20703 304.20792
288.0 0.003472 304.40668 304.40759
314.0 0.003185 304.60742 304.60837
288.0 0.003472 304.80939 304.81030
287.0 0.003484 305.01242 305.01349
299.0 0.003344 305.21664 305.21768
307.0 0.003257 305.42184 305.42297
313.0 0.003195 305.62820 305.62939
309.0 0.003236 305.83557 305.83676
309.0 0.003236 306.04395 306.04523
319.0 0.003135 306.25333 306.25464
315.0 0.003175 306.46381 306.46524
320.0 0.003125 306.67520 306.67654
319.0 0.003135 306.88745 306.88895
331.0 0.003021 307.10074 307.17407
323.0 0.003096 307.31488 307.39200
313.0 0.003195 307.53000 307.61118
304.0 0.003289 307.74588 307.86801
315.0 0.003175 307.96271 308.09149
326.0 0.003067 308.18030 308.31647
300.0 0.003333 308.39865 308.54294
299.0 0.003344 308.61789 308.77094
309.0 0.003236 308.83792 309.00049
314.0 0.003185 309.05869 309.23184
305.0 0.003279 309.28012 309.46490
288.0 0.003472 309.50238 311.26965
287.0 0.003484 309.72531 311.59058
332.0 0.003012 309.94891 312.67490
315.0 0.003175 310.17316 313.05487
295.0 0.003390 310.39810 313.44971
288.0 0.003472 310.62372 313.86127
308.0 0.003247 310.84991 314.29147
284.0 0.00352 311.07663 314.96729
291.0 0.003436 311.30399 315.45490
333.0 0.003003 311.53189 315.97153
312.0 0.003205 311.76038 316.63531
292.0 0.003425 311.98938 317.23117
300.0 0.003333 312.21887 317.87482
331.0 0.003021 312.44888 318.57620
324.0 0.003086 312.67938 319.35202
347.0 0.002882 312.91031 320.23434
311.0 0.003215 313.14175 321.28464
337.0 0.002967 313.37354 322.59930
308.0 0.003247 313.60580 324.27686
307.0 0.003257 313.83838 326.38779
334.0 0.002994 314.07147 328.98422
346.0 0.002890 314.30481 332.11417
338.0 0.002959 314.53854 335.83774
352.0 0.002841 314.77264 340.28915
342.0 0.002924 315.00702 345.68066
362.0 0.002762 315.24167 352.46817
361.0 0.002770 315.47675 361.69666
372.0 0.002688 315.71194 375.29129
400.0 0.002500 315.94748 395.98349
437.0 0.002288 316.18326 425.87219
471.0 0.002123 316.41922 465.04977
490.0 0.002041 316.65540 507.53513
502.0 0.001992 316.89185 546.04523
544.0 0.001838 317.12842 583.37823
570.0 0.001754 317.36520 630.06763
605.0 0.001653 317.60214 689.09589
695.0 0.001439 317.83926 766.43622
797.0 0.001255 318.07639 873.13965
921.0 0.001086 318.31372 1022.86096
1173.0 0.000853 318.55115 1232.81860
1497.0 0.000668 318.78867 1500.63074
1714.0 0.000583 319.02621 1744.36877
1776.0 0.000563 319.26392 1789.14441
1660.0 0.000602 319.50153 1580.42383
1397.0 0.000716 319.73926 1318.29932
1122.0 0.000891 319.97702 1063.64502
851.0 0.001175 320.21475 823.72772
678.0 0.001475 320.45251 674.13800
592.0 0.001689 320.69019 618.79901
561.0 0.001783 320.92792 604.63153
546.0 0.001832 321.16562 575.38715
503.0 0.001988 321.40326 525.56439
481.0 0.002079 321.64072 478.30298
416.0 0.002404 321.87817 432.32001
350.0 0.002857 322.11551 392.42288
345.0 0.002899 322.35278 366.99631
327.0 0.003058 322.59000 353.79657
307.0 0.003257 322.82693 347.16278
322.0 0.003106 323.06384 343.26910
316.0 0.003165 323.30048 351.35852
331.0 0.003021 323.53705 349.89908
353.0 0.002833 323.77347 348.94235
347.0 0.002882 324.00961 353.67270
347.0 0.002882 324.24554 353.69995
332.0 0.003012 324.48135 354.00787
353.0 0.002833 324.71692 354.51312
360.0 0.002778 324.95224 355.30798
379.0 0.002639 325.18729 356.32733
333.0 0.003003 325.42206 357.57065
372.0 0.002688 325.65659 359.04404
328.0 0.003049 325.89087 360.76025
322.0 0.003106 326.12485 362.73859
330.0 0.003030 326.35858 365.00543
356.0 0.002809 326.59192 365.36661
370.0 0.002703 326.82501 368.45490
367.0 0.002725 327.05774 371.95786
407.0 0.002457 327.29013 374.85822
388.0 0.002577 327.52209 379.49573
415.0 0.002410 327.75385 384.83292
426.0 0.002347 327.98508 391.02985
391.0 0.002558 328.21606 397.95700
405.0 0.002469 328.44659 406.61194
453.0 0.002208 328.67676 417.03745
477.0 0.002096 328.90649 429.68155
537.0 0.001862 329.13577 445.98178
568.0 0.001761 329.36469 468.20554
598.0 0.001672 329.59311 502.07483
676.0 0.001479 329.82117 558.46918
751.0 0.001332 330.04861 651.98254
847.0 0.001181 330.27573 792.58484
947.0 0.001056 330.50229 989.52167
1090.0 0.000917 330.72849 1243.18127
1321.0 0.000757 330.95404 1561.57361
1625.0 0.000615 331.17926 1946.49719
2002.0 0.000500 331.40381 2415.52563
2546.0 0.000393 331.62787 2989.82178
3321.0 0.0003011 331.85147 3711.18555
4277.0 0.0002338 332.07446 4670.81592
5713.0 0.0001750 332.29697 5993.26221
7790.0 0.0001284 332.51889 7724.04443
9592.0 0.0001043 332.74030 9471.92480
9833.0 0.0001017 332.96112 10161.73242
9009.0 0.0001110 333.18134 9015.01465
7576.0 0.0001320 333.40100 7191.85205
5680.0 0.0001761 333.62003 5488.33203
3806.0 0.0002627 333.83853 3692.20825
2335.0 0.000428 334.05630 2209.07202
1392.0 0.000718 334.27362 1337.65894
881.0 0.001135 334.49014 928.53943
629.0 0.001590 334.70615 745.22906
531.0 0.001883 334.92142 647.88831
500.0 0.002000 335.13620 584.95563
449.0 0.002227 335.35025 540.07886
424.0 0.002358 335.56360 506.63757
442.0 0.002262 335.77625 481.00098
422.0 0.002370 335.98828 460.89908
383.0 0.002611 336.19965 444.84076
395.0 0.002532 336.41031 431.80881
389.0 0.002571 336.62027 421.08804
390.0 0.002564 336.82956 412.16470
374.0 0.002674 337.03806 404.66104
370.0 0.002703 337.24597 398.29501
369.0 0.002710 337.45309 392.85168
408.0 0.002451 337.65945 388.16415
440.0 0.002273 337.86508 384.10233
413.0 0.002421 338.07001 380.56247
421.0 0.002375 338.27417 377.46243
367.0 0.002725 338.47757 388.83975
416.0 0.002404 338.68021 387.16678
400.0 0.002500 338.88202 385.82666
380.0 0.002632 339.08313 391.80264
373.0 0.002681 339.28354 391.40884
431.0 0.002320 339.48303 375.30231
402.0 0.002488 339.68173 376.42264
359.0 0.002786 339.87973 377.74081
357.0 0.002801 340.07690 371.36230
374.0 0.002674 340.27319 373.57599
390.0 0.002564 340.46869 375.99280
395.0 0.002532 340.66345 378.64185
399.0 0.002506 340.85736 381.55756
370.0 0.002703 341.05032 384.78107
380.0 0.002632 341.24261 388.36169
394.0 0.002538 341.43399 392.35913
418.0 0.002392 341.62451 396.84720
414.0 0.002415 341.81421 401.91660
401.0 0.002494 342.00302 407.68170
393.0 0.002545 342.19095 414.28616
418.0 0.002392 342.37811 421.91504
416.0 0.002404 342.56433 430.81107
446.0 0.002242 342.74966 441.29819
510.0 0.001961 342.93408 453.81992
542.0 0.001845 343.11780 469.00262
562.0 0.001779 343.30042 487.79721
640.0 0.001563 343.48221 511.92206
692.0 0.001445 343.66312 545.22479
738.0 0.001355 343.84308 596.47382
818.0 0.001222 344.02222 681.81555
922.0 0.001085 344.20044 822.27789
1077.0 0.000929 344.37769 1031.83533
1258.0 0.000795 344.55402 1324.97998
1514.0 0.000661 344.72946 1703.93225
1907.0 0.000524 344.90393 2184.41602
2324.0 0.000430 345.07751 2773.61157
2916.0 0.0003429 345.25012 3508.16284
3722.0 0.0002687 345.42181 4432.91064
4937.0 0.0002026 345.59253 5647.77295
6863.0 0.0001457 345.76239 7319.82861
9669.0 0.0001034 345.93124 9513.78809
12462.0 0.0000802 346.09912 11806.62988
12894.0 0.0000776 346.26596 12924.32910
11436.0 0.0000874 346.43195 11715.67090
9653.0 0.0001036 346.59698 9454.80176
7551.0 0.0001324 346.76093 7443.55859
5207.0 0.0001920 346.92401 5308.77637
3131.0 0.0003194 347.08615 3274.56494
1761.0 0.000568 347.24722 1932.67664
1112.0 0.000899 347.40729 1252.40552
807.0 0.001239 347.56641 945.99963
719.0 0.001391 347.72464 793.32166
585.0 0.001709 347.88171 699.85010
521.0 0.001919 348.03790 634.64520
539.0 0.001855 348.19305 586.51038
563.0 0.001776 348.34717 549.85547
466.0 0.002146 348.50034 533.03424
483.0 0.002070 348.65247 510.88135
487.0 0.002053 348.80353 493.11478
473.0 0.002114 348.95370 484.52014
452.0 0.002212 349.10278 473.02695
471.0 0.002123 349.25092 463.63312
511.0 0.001957 349.39792 468.00128
452.0 0.002212 349.54395 462.34924
468.0 0.002137 349.68903 457.93713
452.0 0.002212 349.83298 454.60556
441.0 0.002268 349.97595 458.48346
469.0 0.002132 350.11783 457.31348
452.0 0.002212 350.25873 456.98672
434.0 0.002304 350.39856 457.47372
442.0 0.002262 350.53738 458.76633
438.0 0.002283 350.67514 460.87970
481.0 0.002079 350.81186 463.84964
461.0 0.002169 350.94745 467.73877
478.0 0.002092 351.08215 472.63852
494.0 0.002024 351.21573 478.66995
501.0 0.001996 351.34827 486.00525
506.0 0.001976 351.47968 494.86575
561.0 0.001783 351.61014 505.55795
598.0 0.001672 351.73953 518.49695
637.0 0.001570 351.86777 534.24579
698.0 0.001433 351.99503 553.64874
783.0 0.001277 352.12115 607.62256
828.0 0.001208 352.24628 628.76678
873.0 0.001145 352.37030 677.13281
964.0 0.001037 352.49335 766.27081
1096.0 0.000912 352.61526 886.10944
1278.0 0.000782 352.73605 1060.97656
1412.0 0.000708 352.85580 1314.33704
1661.0 0.000602 352.97455 1655.30444
2079.0 0.000481 353.09219 2088.52490
2538.0 0.000394 353.20871 2644.95679
3215.0 0.0003110 353.32419 3361.94434
4070.0 0.0002457 353.43860 4304.66992
5314.0 0.0001882 353.55191 5590.77295
7244.0 0.0001380 353.66409 7343.96240
9968.0 0.0001003 353.77524 9569.98535
12033.0 0.0000831 353.88538 11769.76758
12245.0 0.0000817 353.99426 12828.19727
11712.0 0.0000854 354.10226 12246.27832
11284.0 0.0000886 354.20908 11443.42676
10941.0 0.0000914 354.31479 11242.00586
11226.0 0.0000891 354.41940 11318.82324
12294.0 0.0000813 354.52298 11774.03320
12591.0 0.0000794 354.62546 12281.52832
11544.0 0.0000866 354.72690 11571.66699
9823.0 0.0001018 354.82712 9613.62109
8089.0 0.0001236 354.92630 7806.27295
6134.0 0.0001630 355.02448 6204.58350
4334.0 0.0002307 355.12143 4426.01611
3099.0 0.0003227 355.21741 2983.66357
2441.0 0.000410 355.31229 2198.33618
2288.0 0.000437 355.40594 1961.72949
2392.0 0.000418 355.49863 2090.96460
2728.0 0.000367 355.59024 2478.81689
3127.0 0.0003198 355.68069 3108.77173
3932.0 0.0002543 355.77002 3973.28979
4925.0 0.0002030 355.85834 5115.07861
6476.0 0.0001544 355.94547 6565.84814
8464.0 0.0001181 356.03162 8453.93457
11051.0 0.0000905 356.11661 10952.82520
14536.0 0.0000688 356.20056 14367.72461
18774.0 0.0000533 356.28333 18841.55469
23402.0 0.0000427 356.36502 23518.89844
25972.0 0.0000385 356.44568 25928.53125
23829.0 0.0000420 356.52512 23709.38867
19947.0 0.0000501 356.60364 19252.88672
15982.0 0.0000626 356.68091 15488.26074
12081.0 0.0000828 356.75720 11641.31348
7747.0 0.0001291 356.83237 7465.10889
4614.0 0.0002167 356.90640 4354.63867
2686.0 0.000372 356.97934 2633.23877
1624.0 0.000616 357.05124 1828.94910
1119.0 0.000894 357.12198 1441.97815
949.0 0.001054 357.19168 1217.85486
801.0 0.001248 357.26025 1065.83276
742.0 0.001348 357.32767 954.79132
697.0 0.001435 357.39417 870.82556
682.0 0.001466 357.45947 805.80750
626.0 0.001597 357.52362 744.20508
571.0 0.001751 357.58679 703.82166
570.0 0.001754 357.64880 671.40570
543.0 0.001842 357.70987 640.13953
550.0 0.001818 357.76968 619.53546
532.0 0.001880 357.82843 603.36505
528.0 0.001894 357.88608 591.16748
576.0 0.001736 357.94275 571.95959
585.0 0.001709 357.99826 567.97302
597.0 0.001675 358.05270 568.86896
604.0 0.001656 358.10605 571.83990
636.0 0.001572 358.15826 593.03967
689.0 0.001451 358.20950 633.84308
732.0 0.001366 358.25958 699.53448
844.0 0.001185 358.30862 794.89838
955.0 0.001047 358.35654 925.46509
1099.0 0.000910 358.40335 1093.58435
1269.0 0.000788 358.44922 1311.81836
1535.0 0.000651 358.49393 1596.09460
1904.0 0.000525 358.53754 1977.15161
2475.0 0.000404 358.58011 2504.25757
3392.0 0.0002948 358.62155 3177.99976
3885.0 0.0002574 358.66199 3854.38745
4116.0 0.0002430 358.70129 4166.16064
3890.0 0.0002571 358.73959 3862.04053
3408.0 0.0002934 358.77676 3368.14063
2983.0 0.0003352 358.81293 3022.91724
2684.0 0.000373 358.84796 2670.06006
2352.0 0.000425 358.88199 2364.07568
2338.0 0.000428 358.91492 2292.02881
2529.0 0.000395 358.94678 2442.09668
2621.0 0.000382 358.97757 2612.62109
2465.0 0.000406 359.00735 2494.66675
2077.0 0.000481 359.03604 2120.21973
1847.0 0.000541 359.06363 1780.03967
1497.0 0.000668 359.09030 1484.97864
1148.0 0.000871 359.11575 1140.52551
788.0 0.001269 359.14032 833.10834
651.0 0.001536 359.16373 638.68494
537.0 0.001862 359.18613 539.16541
514.0 0.001946 359.20740 490.79373
506.0 0.001976 359.22763 463.84586
488.0 0.002049 359.24692 445.87195
465.0 0.002151 359.26514 432.63849
448.0 0.002232 359.28223 422.44269
478.0 0.002092 359.29834 414.37042
485.0 0.002062 359.31342 407.84937
488.0 0.002049 359.32748 402.48627
511.0 0.001957 359.34039 398.01395
562.0 0.001779 359.35245 394.23666
620.0 0.001613 359.36337 391.01187
630.0 0.001587 359.37332 388.23502
623.0 0.001605 359.38211 394.03531
580.0 0.001724 359.38998 392.34396
567.0 0.001764 359.39682 390.93719
528.0 0.001894 359.40268 389.77878
497.0 0.002012 359.40744 393.03055
449.0 0.002227 359.41122 392.50858
462.0 0.002165 359.41397 392.18713
456.0 0.002193 359.41574 392.05621
427.0 0.002342 359.41647 392.11035
397.0 0.002519 359.41620 392.34790
400.0 0.002500 359.41483 392.77087
401.0 0.002494 359.41257 393.38477
416.0 0.002404 359.40927 390.40479
429.0 0.002331 359.40497 391.60760
410.0 0.002439 359.39969 393.03171
402.0 0.002488 359.39340 394.70349
424.0 0.002358 359.38611 394.82095
428.0 0.002336 359.37778 397.17386
438.0 0.002283 359.36856 399.89264
438.0 0.002283 359.35828 403.03983
427.0 0.002342 359.34698 406.69922
454.0 0.002203 359.33475 408.77829
477.0 0.002096 359.32156 413.90399
471.0 0.002123 359.30731 419.95584
502.0 0.001992 359.29211 426.05740
528.0 0.001894 359.27600 434.81921
561.0 0.001783 359.25885 445.53726
601.0 0.001664 359.24078 458.92239
645.0 0.001550 359.22171 476.21860
720.0 0.001389 359.20163 500.03955
786.0 0.001272 359.18063 536.17493
804.0 0.001244 359.15875 595.39319
900.0 0.001111 359.13580 693.07080
1070.0 0.000935 359.11194 842.41052
1209.0 0.000827 359.08710 1054.06018
1453.0 0.000688 359.06134 1339.57629
1795.0 0.000557 359.03458 1710.93701
2269.0 0.000441 359.00690 2213.64819
2879.0 0.0003473 358.97833 2860.68677
3766.0 0.0002655 358.94876 3735.32324
4889.0 0.0002045 358.91827 4896.44873
6131.0 0.0001631 358.88684 6204.29492
6827.0 0.0001465 358.85446 7111.25586
6679.0 0.0001497 358.82117 6894.57275
5658.0 0.0001767 358.78687 5789.71973
4869.0 0.0002054 358.75180 4786.91113
3905.0 0.0002561 358.71564 3962.30127
2968.0 0.0003369 358.67868 2945.51685
2023.0 0.000494 358.64072 1945.40564
1427.0 0.000701 358.60196 1274.07764
1125.0 0.000889 358.56216 922.73273
985.0 0.001015 358.52158 759.46936
1027.0 0.000974 358.47995 678.40332
1139.0 0.000878 358.43750 630.77905
1201.0 0.000833 358.39410 599.62292
986.0 0.001014 358.34991 578.71967
815.0 0.001227 358.30472 565.12219
844.0 0.001185 358.25864 557.12994
747.0 0.001339 358.21164 553.74939
633.0 0.001580 358.16385 554.44373
643.0 0.001555 358.11514 559.01379
650.0 0.001538 358.06552 567.54962
653.0 0.001531 358.01508 580.44086
696.0 0.001437 357.96365 598.43286
721.0 0.001387 357.91150 622.75867
789.0 0.001267 357.85834 655.63123
921.0 0.001086 357.80438 701.55762
1036.0 0.000965 357.74954 770.76349
1119.0 0.000894 357.69388 883.88153
1285.0 0.000778 357.63727 1073.54236
1566.0 0.000639 357.57983 1375.85681
1917.0 0.000522 357.52158 1812.08142
2382.0 0.000420 357.46243 2423.36206
3146.0 0.0003179 357.40244 3224.14233
4180.0 0.0002392 357.34167 4286.24023
5548.0 0.0001802 357.28000 5689.62354
7588.0 0.0001318 357.21753 7619.01904
10496.0 0.0000953 357.15417 10156.76465
13800.0 0.0000725 357.09000 13066.22559
15653.0 0.0000639 357.02502 15228.63379
14704.0 0.0000680 356.95914 15028.80078
12498.0 0.0000800 356.89252 12671.81836
10666.0 0.0000938 356.82504 10392.97656
8739.0 0.0001144 356.75677 8645.23730
6363.0 0.0001572 356.68771 6524.87549
4166.0 0.0002400 356.61774 4233.55420
2469.0 0.000405 356.54706 2567.85938
1587.0 0.000630 356.47556 1638.74500
1068.0 0.000936 356.40317 1193.68152
783.0 0.001277 356.33008 972.14813
660.0 0.001515 356.25610 840.48389
579.0 0.001727 356.18146 749.84058
538.0 0.001859 356.10590 683.13507
538.0 0.001859 356.02963 632.41406
503.0 0.001988 355.95255 592.90533
478.0 0.002092 355.87469 561.43469
497.0 0.002012 355.79602 535.92249
431.0 0.002320 355.71661 514.91693
449.0 0.002227 355.63638 497.39725
436.0 0.002294 355.55545 482.63150
438.0 0.002283 355.47369 470.05472
455.0 0.002198 355.39130 459.25400
443.0 0.002257 355.30798 449.90125
402.0 0.002488 355.22400 441.74365
430.0 0.002326 355.13928 434.58731
381.0 0.002625 355.05377 428.26767
344.0 0.002907 354.96759 422.65970
332.0 0.003012 354.88058 417.65622
377.0 0.002653 354.79285 413.17075
401.0 0.002494 354.70438 409.13522
367.0 0.002725 354.61511 405.48718
360.0 0.002778 354.52527 402.17917
353.0 0.002833 354.43460 399.16733
363.0 0.002755 354.34323 396.41589
377.0 0.002653 354.25116 393.89609
405.0 0.002469 354.15836 391.58014
410.0 0.002439 354.06482 389.44656
382.0 0.002618 353.97058 387.47510
385.0 0.002597 353.87564 385.64850
404.0 0.002475 353.77994 383.95319
406.0 0.002463 353.68359 382.37491
398.0 0.002513 353.58667 363.79404
378.0 0.002646 353.48886 363.19290
378.0 0.002646 353.39047 362.62750
372.0 0.002688 353.29138 362.09442
369.0 0.002710 353.19156 353.21521
377.0 0.002653 353.09109 353.11386
387.0 0.002584 352.98993 353.00253
366.0 0.002732 352.88809 352.90036
377.0 0.002653 352.78558 352.79764
393.0 0.002545 352.68246 352.68933
359.0 0.002786 352.57867 359.72699
339.0 0.002950 352.47409 359.98343
356.0 0.002809 352.36899 360.26752
341.0 0.002933 352.26318 360.58194
354.0 0.002825 352.15674 364.51239
361.0 0.002770 352.04962 365.08032
346.0 0.002890 351.94193 365.70480
359.0 0.002786 351.83350 366.39288
351.0 0.002849 351.72446 367.15146
375.0 0.002667 351.61481 367.99033
363.0 0.002755 351.50458 368.91907
349.0 0.002865 351.39365 369.95035
403.0 0.002481 351.28207 371.09839
399.0 0.002506 351.16995 372.37933
369.0 0.002710 351.05725 373.81381
372.0 0.002688 350.94382 375.42471
401.0 0.002494 350.82980 377.24130
379.0 0.002639 350.71515 379.29871
375.0 0.002667 350.60004 381.63773
391.0 0.002558 350.48416 384.31235
364.0 0.002747 350.36780 387.38608
361.0 0.002770 350.25082 390.94254
333.0 0.003003 350.13318 395.08740
393.0 0.002545 350.01501 399.95380
425.0 0.002353 349.89630 405.72406
403.0 0.002481 349.77698 412.63556
432.0 0.002315 349.65707 421.02124
512.0 0.001953 349.53656 431.35217
464.0 0.002155 349.41550 444.33075
486.0 0.002058 349.29395 461.20734
496.0 0.002016 349.17172 484.56195
597.0 0.001675 349.04898 519.98566
639.0 0.001565 348.92566 577.81384
725.0 0.001379 348.80185 672.95331
864.0 0.001157 348.67743 819.82251
1014.0 0.000986 348.55252 1028.08130
1263.0 0.000792 348.42703 1320.78540
1578.0 0.000634 348.30099 1710.54932
2055.0 0.000487 348.17441 2241.13379
2881.0 0.0003471 348.04736 2960.57056
4162.0 0.0002403 347.91971 3916.63696
5663.0 0.0001766 347.79166 4983.13135
6345.0 0.0001576 347.66287 5773.79395
5741.0 0.0001742 347.53378 5711.28662
4726.0 0.0002116 347.40402 4875.94629
4167.0 0.0002400 347.27386 4063.41577
3595.0 0.0002782 347.14313 3494.94873
2682.0 0.000373 347.01193 2834.29761
1752.0 0.000571 346.88013 2010.65393
1133.0 0.000883 346.74792 1332.05823
784.0 0.001276 346.61520 919.85608
592.0 0.001689 346.48203 712.68488
521.0 0.001919 346.34827 610.78931
466.0 0.002146 346.21423 554.43066
414.0 0.002415 346.07950 517.75098
419.0 0.002387 345.94437 492.41144
415.0 0.002410 345.80881 473.03357
403.0 0.002481 345.67273 458.39929
385.0 0.002597 345.53613 447.27606
389.0 0.002571 345.39917 438.84702
387.0 0.002584 345.26169 432.58612
380.0 0.002632 345.12372 428.14951
390.0 0.002564 344.98535 425.33890
398.0 0.002513 344.84650 424.07654
407.0 0.002457 344.70724 424.40091
396.0 0.002525 344.56757 428.25876
403.0 0.002481 344.42746 432.72958
440.0 0.002273 344.28677 440.66089
507.0 0.001972 344.14578 454.59930
495.0 0.002020 344.00427 479.97577
566.0 0.001767 343.86246 521.35760
630.0 0.001587 343.72012 585.06696
788.0 0.001269 343.57733 676.19440
955.0 0.001047 343.43420 803.63757
1143.0 0.000875 343.29062 974.34052
1336.0 0.000749 343.14673 1211.64404
1677.0 0.000596 343.00238 1531.73389
1933.0 0.000517 342.85751 1932.77002
2265.0 0.000442 342.71234 2320.11182
2588.0 0.000386 342.56677 2498.37061
2547.0 0.000393 342.42084 2313.52466
2113.0 0.000473 342.27441 1973.96826
1748.0 0.000572 342.12778 1727.49280
1547.0 0.000646 341.98062 1539.60938
1336.0 0.000749 341.83313 1279.30652
1106.0 0.000904 341.68530 1012.71033
838.0 0.001193 341.53699 843.30884
748.0 0.001337 341.38837 791.80560
771.0 0.001297 341.23944 827.39832
894.0 0.001119 341.09003 937.47858
1129.0 0.000886 340.94031 1109.31140
1460.0 0.000685 340.79031 1330.51807
1659.0 0.000603 340.63989 1538.08252
1686.0 0.000593 340.48911 1614.33411
1518.0 0.000659 340.33795 1486.69824
1315.0 0.000760 340.18655 1291.87781
1267.0 0.000789 340.03473 1157.57532
1097.0 0.000912 339.88257 1052.82764
894.0 0.001119 339.73019 911.47095
731.0 0.001368 339.57736 772.56281
655.0 0.001527 339.42429 697.97211
683.0 0.001464 339.27090 699.37927
752.0 0.001330 339.11703 762.29449
908.0 0.001101 338.96304 880.90863
1063.0 0.000941 338.80859 1056.26929
1284.0 0.000779 338.65393 1286.71216
1516.0 0.000660 338.49887 1523.17090
1601.0 0.000625 338.34363 1654.86169
1475.0 0.000678 338.18802 1570.22998
1259.0 0.000794 338.03207 1359.23901
1149.0 0.000870 337.87589 1190.82874
1019.0 0.000981 337.71942 1070.80518
871.0 0.001148 337.56262 915.29071
690.0 0.001449 337.40561 725.63293
541.0 0.001848 337.24826 573.12439
478.0 0.002092 337.09070 480.51566
436.0 0.002294 336.93280 432.63461
441.0 0.002268 336.77460 408.29019
449.0 0.002227 336.61621 394.15933
435.0 0.002299 336.45755 384.54855
425.0 0.002353 336.29861 374.70734
417.0 0.002398 336.13937 369.25391
397.0 0.002519 335.97986 364.90228
373.0 0.002681 335.82019 361.35681
363.0 0.002755 335.66022 357.07928
331.0 0.003021 335.50003 354.66010
330.0 0.003030 335.33963 352.59763
314.0 0.003185 335.17886 350.81766
321.0 0.003115 335.01797 349.26620
335.0 0.002985 334.85678 347.89984
331.0 0.003021 334.69547 346.68671
332.0 0.003012 334.53384 345.60068
331.0 0.003021 334.37204 344.62122
301.0 0.003322 334.20999 343.73257
315.0 0.003175 334.04770 341.37622
314.0 0.003185 333.88519 340.70190
314.0 0.003185 333.72260 340.08008
330.0 0.003030 333.55960 339.50339
358.0 0.002793 333.39651 338.19693
311.0 0.003215 333.23325 337.72964
320.0 0.003125 333.06979 337.29050
328.0 0.003049 332.90613 336.87585
361.0 0.002770 332.74216 336.48273
307.0 0.003257 332.57816 336.10895
326.0 0.003067 332.41385 335.75214
296.0 0.003378 332.24942 335.41064
333.0 0.003003 332.08490 335.08273
303.0 0.003300 331.92004 334.76682
320.0 0.003125 331.75510 334.46228
336.0 0.002976 331.58990 332.56659
310.0 0.003226 331.42462 332.35306
343.0 0.002915 331.25922 337.44824
347.0 0.002882 331.09354 337.51062
350.0 0.002857 330.92773 336.79797
329.0 0.003040 330.76181 336.94626
326.0 0.003067 330.59573 339.73099
333.0 0.003003 330.42953 340.06567
293.0 0.003413 330.26309 340.44290
323.0 0.003096 330.09662 345.04214
334.0 0.002994 329.92990 345.73367
337.0 0.002967 329.76312 346.50177
329.0 0.003040 329.59622 347.35614
313.0 0.003195 329.42911 350.36066
304.0 0.003289 329.26196 353.54059
305.0 0.003279 329.09464 354.94382
294.0 0.003401 328.92722 356.50735
321.0 0.003115 328.75964 358.25513
354.0 0.002825 328.59189 361.20450
337.0 0.002967 328.42416 363.45865
320.0 0.003125 328.25620 366.00272
329.0 0.003040 328.08835 368.88446
327.0 0.003058 327.92017 372.16617
326.0 0.003067 327.75189 375.92422
350.0 0.002857 327.58371 380.25143
379.0 0.002639 327.41534 385.27209
385.0 0.002597 327.24680 391.14105
412.0 0.002427 327.07822 398.06778
426.0 0.002347 326.90955 406.33319
432.0 0.002315 326.74078 416.31607
434.0 0.002304 326.57193 428.58243
442.0 0.002262 326.40302 444.02640
487.0 0.002053 326.23404 464.36075
527.0 0.001898 326.06497 493.13138
575.0 0.001739 325.89587 537.12872
671.0 0.001490 325.72672 607.36444
750.0 0.001333 325.55737 717.70758
899.0 0.001112 325.38806 879.68335
1117.0 0.000895 325.21866 1109.70190
1424.0 0.000702 325.04929 1434.32471
1913.0 0.000523 324.87982 1879.90405
2676.0 0.000374 324.71033 2495.60522
3647.0 0.0002742 324.54074 3255.53174
4523.0 0.0002211 324.37106 4017.26538
4527.0 0.0002209 324.20148 4444.85400
4221.0 0.0002369 324.03174 4328.50977
4005.0 0.0002497 323.86197 4019.14551
4066.0 0.0002459 323.69223 3977.66675
4366.0 0.0002290 323.52237 4204.05273
4560.0 0.0002193 323.35257 4418.14355
4442.0 0.0002251 323.18268 4447.48242
4264.0 0.0002345 323.01282 4224.78223
3749.0 0.0002667 322.84296 3768.44043
3536.0 0.0002828 322.67300 3412.51782
3481.0 0.0002873 322.50308 3319.99512
3445.0 0.0002903 322.33316 3280.26709
3024.0 0.0003307 322.16321 2973.35352
2422.0 0.000413 321.99323 2401.19482
1870.0 0.000535 321.82327 1865.40918
1489.0 0.000672 321.65335 1527.44739
1312.0 0.000762 321.48340 1315.06042
1100.0 0.000909 321.31345 1100.10791
825.0 0.001212 321.14346 873.47437
712.0 0.001404 320.97354 696.43835
560.0 0.001786 320.80362 585.48065
490.0 0.002041 320.63373 523.72064
442.0 0.002262 320.46384 489.33862
448.0 0.002232 320.29401 468.17300
437.0 0.002288 320.12411 453.82144
438.0 0.002283 319.95432 443.79114
426.0 0.002347 319.78455 438.22501
428.0 0.002336 319.61484 434.27161
417.0 0.002398 319.44507 432.87708
415.0 0.002410 319.27530 434.09402
431.0 0.002320 319.10574 438.87158
438.0 0.002283 318.93610 447.00339
495.0 0.002020 318.76654 465.35077
525.0 0.001905 318.59702 490.42850
559.0 0.001789 318.42749 534.04199
602.0 0.001661 318.25815 607.13916
699.0 0.001431 318.08868 722.52625
868.0 0.001152 317.91946 887.32813
1126.0 0.000888 317.75012 1124.70898
1517.0 0.000659 317.58093 1452.80188
2044.0 0.000489 317.41180 1902.76233
2675.0 0.000374 317.24274 2445.04712
3250.0 0.0003077 317.07379 2971.78955
3357.0 0.0002979 316.90485 3219.71265
2965.0 0.0003373 316.73599 2995.54468
2515.0 0.000398 316.56720 2542.41846
2202.0 0.000454 316.39850 2200.55225
1974.0 0.000507 316.22989 1982.87122
1658.0 0.000603 316.06134 1697.82996
1189.0 0.000841 315.89282 1302.16077
840.0 0.001190 315.72455 942.59479
649.0 0.001541 315.55621 704.08923
495.0 0.002020 315.38815 572.48389
435.0 0.002299 315.22003 506.94821
442.0 0.002262 315.05197 475.08075
414.0 0.002415 314.88409 457.81021
413.0 0.002421 314.71631 448.74179
396.0 0.002525 314.54861 446.10956
412.0 0.002427 314.38107 449.38223
466.0 0.002146 314.21353 462.36212
487.0 0.002053 314.04620 487.23215
538.0 0.001859 313.87897 527.34833
619.0 0.001616 313.71188 587.48645
780.0 0.001282 313.54480 676.04803
900.0 0.001111 313.37790 803.66119
1042.0 0.000960 313.21118 984.44067
1241.0 0.000806 313.04456 1215.11023
1474.0 0.000678 312.87796 1461.53418
1723.0 0.000580 312.71158 1661.08521
1937.0 0.000516 312.54526 1813.15479
2107.0 0.000475 312.37918 2031.98950
2625.0 0.000381 312.21317 2409.06104
3180.0 0.0003145 312.04736 2876.91919
3596.0 0.0002781 311.88162 3238.30396
3395.0 0.0002946 311.71600 3242.66626
2767.0 0.000361 311.55063 2844.00586
2374.0 0.000421 311.38531 2371.47607
2178.0 0.000459 311.22025 2067.53735
1943.0 0.000515 311.05524 1860.38525
1498.0 0.000668 310.89032 1569.67285
1141.0 0.000876 310.72568 1194.89063
824.0 0.001214 310.56113 879.52966
622.0 0.001608 310.39682 683.06897
553.0 0.001808 310.23264 586.52496
511.0 0.001957 310.06854 547.24530
500.0 0.002000 309.90469 542.06104
519.0 0.001927 309.74097 544.86517
499.0 0.002004 309.57751 536.80823
469.0 0.002132 309.41412 509.25681
448.0 0.002232 309.25085 475.26532
425.0 0.002353 309.08786 452.19781
395.0 0.002532 308.92508 435.40521
378.0 0.002646 308.76242 415.30466
360.0 0.002778 308.59995 390.87680
342.0 0.002924 308.43765 369.56165
334.0 0.002994 308.27557 354.80341
304.0 0.003289 308.11368 345.65417
297.0 0.003367 307.95190 339.94586
297.0 0.003367 307.79044 335.99246
307.0 0.003257 307.62897 332.93088
318.0 0.003145 307.46783 330.40097
295.0 0.003390 307.30692 328.24167
290.0 0.003448 307.14615 326.36627
275.0 0.00364 306.98560 324.71542
264.0 0.00379 306.82526 323.24713
278.0 0.00360 306.66510 321.93036
279.0 0.00358 306.50519 320.73999
282.0 0.00355 306.34552 319.65720
301.0 0.003322 306.18597 318.66629
283.0 0.00353 306.02664 316.62811
278.0 0.00360 305.86755 315.83759
287.0 0.003484 305.70868 315.10376
288.0 0.003472 305.55014 314.42032
291.0 0.003436 305.39166 313.78113
287.0 0.003484 305.23340 312.63434
307.0 0.003257 305.07541 308.23206
319.0 0.003135 304.91766 307.89886
274.0 0.00365 304.76016 307.58044
286.0 0.003497 304.60284 307.27527
256.0 0.00391 304.44571 306.98175
288.0 0.003472 304.28894 304.82327
286.0 0.003497 304.13232 304.63495
267.0 0.00375 303.97598 304.44974
280.0 0.00357 303.81985 304.26706
267.0 0.00375 303.66394 304.08682
275.0 0.00364 303.50833 303.90884
249.0 0.00402 303.35291 303.73279
271.0 0.00369 303.19778 303.55856
271.0 0.00369 303.04288 303.17578
287.0 0.003484 302.88812 303.01431
281.0 0.00356 302.73370 302.85367
285.0 0.00351 302.57956 302.69373
272.0 0.00368 302.42569 302.53448
286.0 0.003497 302.27203 302.27374
297.0 0.003367 302.11865 302.12024
284.0 0.00352 301.96548 301.96713
295.0 0.003390 301.81259 301.81430
280.0 0.00357 301.65994 301.66168
287.0 0.003484 301.50769 301.50931
292.0 0.003425 301.35550 301.35718
278.0 0.00360 301.20370 301.20535
286.0 0.003497 301.05219 301.05371
270.0 0.00370 300.90088 300.90250
275.0 0.00364 300.74985 300.75146
280.0 0.00357 300.59912 300.60071
312.0 0.003205 300.44870 300.45020
312.0 0.003205 300.29840 300.30002
301.0 0.003322 300.14859 300.15012
292.0 0.003425 299.99893 300.00043
281.0 0.00356 299.84955 299.85101
293.0 0.003413 299.70050 299.70197
306.0 0.003268 299.55167 299.55316
305.0 0.003279 299.40323 299.40466
282.0 0.00355 299.25500 299.25644
285.0 0.00351 299.10699 299.10846
280.0 0.00357 298.95938 298.96088
274.0 0.00365 298.81204 298.81348
274.0 0.00365 298.66498 298.66638
279.0 0.00358 298.51822 298.51965
302.0 0.003311 298.37173 298.37311
287.0 0.003484 298.22556 298.22696
281.0 0.00356 298.07974 298.08109
296.0 0.003378 297.93417 297.93552
306.0 0.003268 297.78885 300.33340
312.0 0.003205 297.64386 300.31717
281.0 0.00356 297.49924 300.31116
275.0 0.00364 297.35483 300.31662
313.0 0.003195 297.21085 300.33475
302.0 0.003311 297.06705 301.64664
290.0 0.003448 296.92361 301.75946
308.0 0.003247 296.78046 301.89468
294.0 0.003401 296.63760 302.05527
300.0 0.003333 296.49512 302.24396
295.0 0.003390 296.35297 302.46466
326.0 0.003067 296.21109 302.72128
282.0 0.00355 296.06952 311.41754
301.0 0.003322 295.92825 312.18387
312.0 0.003205 295.78735 313.03586
349.0 0.002865 295.64682 313.98557
318.0 0.003145 295.50644 315.04694
312.0 0.003205 295.36658 320.45483
292.0 0.003425 295.22690 322.00317
280.0 0.00357 295.08762 323.73782
304.0 0.003289 294.94864 325.68976
278.0 0.00360 294.80991 327.89633
303.0 0.003300 294.67163 330.40195
296.0 0.003378 294.53357 333.26569
289.0 0.003460 294.39597 336.55881
317.0 0.003155 294.25867 340.37698
342.0 0.002924 294.12164 348.01736
346.0 0.002890 293.98505 353.45840
320.0 0.003125 293.84863 359.95905
374.0 0.002674 293.71274 367.85968
385.0 0.002597 293.57709 379.25647
379.0 0.002639 293.44177 392.30252
435.0 0.002299 293.30685 411.43921
416.0 0.002404 293.17218 439.15515
482.0 0.002075 293.03787 482.58765
569.0 0.001757 292.90396 550.22260
672.0 0.001488 292.77032 650.72937
831.0 0.001203 292.63715 796.36896
1035.0 0.000966 292.50421 1002.77820
1331.0 0.000751 292.37173 1272.34265
1736.0 0.000576 292.23953 1588.01367
2021.0 0.000495 292.10764 1867.69397
2036.0 0.000491 291.97617 1983.95642
1843.0 0.000543 291.84497 1872.12219
1716.0 0.000583 291.71423 1681.98438
1680.0 0.000595 291.58383 1586.06921
1723.0 0.000580 291.45374 1604.79761
1741.0 0.000574 291.32404 1674.73096
1829.0 0.000547 291.19458 1770.22693
2027.0 0.000493 291.06570 1985.07092
2502.0 0.000400 290.93695 2437.32153
3288.0 0.0003041 290.80872 3156.41235
4286.0 0.0002333 290.68079 4090.22095
5178.0 0.0001931 290.55319 5006.12646
5406.0 0.0001850 290.42603 5486.18555
4860.0 0.0002058 290.29922 5191.35254
4156.0 0.0002406 290.17270 4427.66553
3663.0 0.0002730 290.04666 3809.41211
3407.0 0.0002935 289.92087 3476.53223
3107.0 0.0003219 289.79547 3184.47339
2550.0 0.000392 289.67053 2676.42480
1891.0 0.000529 289.54587 2072.47339
1529.0 0.000654 289.42166 1631.68201
1437.0 0.000696 289.29776 1448.24963
1561.0 0.000641 289.17426 1503.31384
1738.0 0.000575 289.05112 1730.33435
2005.0 0.000499 288.92831 2049.35059
2291.0 0.000436 288.80597 2324.37085
2381.0 0.000420 288.68387 2390.94409
2135.0 0.000468 288.56235 2205.40771
1916.0 0.000522 288.44107 1971.80505
1759.0 0.000569 288.32016 1856.93713
1712.0 0.000584 288.19965 1831.97693
1719.0 0.000582 288.07947 1755.93848
1451.0 0.000689 287.95981 1539.11877
1201.0 0.000833 287.84039 1242.29785
940.0 0.001064 287.72137 986.41461
808.0 0.001238 287.60284 825.07123
701.0 0.001427 287.48465 735.21930
635.0 0.001575 287.36682 667.42151
532.0 0.001880 287.24936 588.74207
430.0 0.002326 287.13223 512.21460
452.0 0.002212 287.01569 454.14319
381.0 0.002625 286.89935 414.01968
378.0 0.002646 286.78348 391.45090
341.0 0.002933 286.66794 377.64725
336.0 0.002976 286.55276 368.53659
336.0 0.002976 286.43808 362.22549
329.0 0.003040 286.32364 356.89056
337.0 0.002967 286.20978 355.06934
357.0 0.002801 286.09622 356.00375
342.0 0.002924 285.98303 360.48154
350.0 0.002857 285.87027 369.38864
401.0 0.002494 285.75787 384.12756
449.0 0.002227 285.64594 405.54910
483.0 0.002070 285.53427 432.62857
484.0 0.002066 285.42316 452.36859
496.0 0.002016 285.31232 469.74918
496.0 0.002016 285.20190 465.63089
477.0 0.002096 285.09192 445.47192
459.0 0.002179 284.98236 423.27094
430.0 0.002326 284.87302 414.65182
431.0 0.002320 284.76431 409.95743
448.0 0.002232 284.65588 400.61063
419.0 0.002387 284.54779 386.97574
415.0 0.002410 284.44028 379.20123
438.0 0.002283 284.33298 379.05408
488.0 0.002049 284.22629 391.34357
551.0 0.001815 284.11978 419.84534
582.0 0.001718 284.01382 469.55048
657.0 0.001522 283.90820 553.49011
755.0 0.001325 283.80301 676.88940
897.0 0.001115 283.69821 855.69263
1253.0 0.000798 283.59384 1102.92236
1748.0 0.000572 283.48984 1389.62805
2125.0 0.000471 283.38626 1661.63904
2082.0 0.000480 283.28302 1795.77087
1768.0 0.000566 283.18027 1703.50024
1497.0 0.000668 283.07791 1483.74194
1406.0 0.000711 282.97601 1301.88037
1350.0 0.000741 282.87448 1205.03308
1247.0 0.000802 282.77322 1123.49976
984.0 0.001016 282.67255 978.12115
754.0 0.001326 282.57230 782.04529
585.0 0.001709 282.47232 610.47717
478.0 0.002092 282.37283 494.73526
404.0 0.002475 282.27374 428.76733
372.0 0.002688 282.17508 395.50735
344.0 0.002907 282.07678 377.66058
355.0 0.002817 281.97891 367.64203
347.0 0.002882 281.88147 361.76566
386.0 0.002591 281.78439 358.60043
349.0 0.002865 281.68777 357.56720
351.0 0.002849 281.59155 358.43680
359.0 0.002786 281.49579 361.20297
329.0 0.003040 281.40033 366.09567
388.0 0.002577 281.30542 373.73685
417.0 0.002398 281.21082 385.49408
424.0 0.002358 281.11667 404.06912
475.0 0.002105 281.02289 433.78616
526.0 0.001901 280.92957 481.91547
616.0 0.001623 280.83670 556.79181
726.0 0.001377 280.74417 667.43866
910.0 0.001099 280.65204 828.43475
1109.0 0.000902 280.56046 1049.46924
1338.0 0.000747 280.46915 1311.53760
1607.0 0.000622 280.37833 1572.33740
1793.0 0.000558 280.28790 1749.58484
1875.0 0.000533 280.19788 1811.99829
1933.0 0.000517 280.10828 1847.88159
2023.0 0.000494 280.01917 1940.61377
2137.0 0.000468 279.93036 2053.56274
2264.0 0.000442 279.84210 2074.93970
2206.0 0.000453 279.75412 1999.08179
2168.0 0.000461 279.66663 1947.09607
2224.0 0.000450 279.57959 1983.95154
2258.0 0.000443 279.49286 2048.93262
2123.0 0.000471 279.40665 1998.92639
1873.0 0.000534 279.32077 1806.23401
1691.0 0.000591 279.23538 1627.23633
1627.0 0.000615 279.15042 1578.61658
1767.0 0.000566 279.06577 1661.89380
1944.0 0.000514 278.98160 1780.30713
2001.0 0.000500 278.89789 1830.17627
1864.0 0.000536 278.81454 1752.82458
1561.0 0.000641 278.73163 1541.40808
1309.0 0.000764 278.64914 1298.42688
1143.0 0.000875 278.56708 1128.47534
1096.0 0.000912 278.48541 1037.69666
1029.0 0.000972 278.40421 963.89893
841.0 0.001189 278.32339 844.38141
677.0 0.001477 278.24301 691.84149
517.0 0.001934 278.16302 558.30695
415.0 0.002410 278.08340 466.03229
401.0 0.002494 278.00430 410.96692
349.0 0.002865 277.92554 380.13010
319.0 0.003135 277.84723 362.20807
302.0 0.003311 277.76941 350.67685
302.0 0.003311 277.69196 342.57956
298.0 0.003356 277.61487 336.61057
321.0 0.003115 277.53827 332.02155
319.0 0.003135 277.46201 328.19296
346.0 0.002890 277.38623 324.63635
309.0 0.003236 277.31085 321.37634
339.0 0.002950 277.23593 318.75403
362.0 0.002762 277.16141 316.87378
333.0 0.003003 277.08725 315.57800
328.0 0.003049 277.01364 314.61911
363.0 0.002755 276.94034 312.08783
375.0 0.002667 276.86746 312.03082
371.0 0.002695 276.79504 312.68097
364.0 0.002747 276.72299 314.17584
383.0 0.002611 276.65140 316.69208
431.0 0.002320 276.58026 319.13702
395.0 0.002532 276.50946 324.43533
445.0 0.002247 276.43912 334.55380
449.0 0.002227 276.36917 351.55316
487.0 0.002053 276.29968 380.10309
585.0 0.001709 276.23059 423.95514
625.0 0.001600 276.16190 494.91028
702.0 0.001425 276.09363 597.46320
814.0 0.001229 276.02579 737.15088
936.0 0.001068 275.95834 899.19238
1024.0 0.000977 275.89136 1044.14795
1079.0 0.000927 275.82483 1112.23059
1103.0 0.000907 275.75861 1056.01196
981.0 0.001019 275.69287 935.31488
857.0 0.001167 275.62759 837.44623
783.0 0.001277 275.56259 785.44482
741.0 0.001350 275.49811 748.49963
710.0 0.001408 275.43405 679.15991
631.0 0.001585 275.37027 574.32178
539.0 0.001855 275.30707 474.32953
426.0 0.002347 275.24420 409.61926
380.0 0.002632 275.18179 365.62640
324.0 0.003086 275.11981 341.63181
308.0 0.003247 275.05814 328.77850
305.0 0.003279 274.99701 321.36292
309.0 0.003236 274.93622 316.61905
312.0 0.003205 274.87585 317.52615
309.0 0.003236 274.81589 315.53461
312.0 0.003205 274.75635 314.32498
314.0 0.003185 274.69724 313.74710
322.0 0.003106 274.63855 313.70013
314.0 0.003185 274.58023 314.14282
280.0 0.00357 274.52237 315.04214
293.0 0.003413 274.46490 316.39529
310.0 0.003226 274.40784 318.22052
318.0 0.003145 274.35120 320.55685
305.0 0.003279 274.29504 323.47745
301.0 0.003322 274.23914 327.07996
301.0 0.003322 274.18375 331.51410
333.0 0.003003 274.12875 337.49826
348.0 0.002874 274.07419 344.47479
333.0 0.003003 274.01999 353.66226
364.0 0.002747 273.96622 366.76483
372.0 0.002688 273.91281 385.85135
437.0 0.002288 273.85989 415.24274
504.0 0.001984 273.80731 460.94574
535.0 0.001869 273.75522 529.72711
637.0 0.001570 273.70349 626.19098
793.0 0.001261 273.65216 756.10620
919.0 0.001088 273.60123 907.29578
1044.0 0.000958 273.55069 1050.04944
1127.0 0.000887 273.50058 1135.05579
1096.0 0.000912 273.45093 1127.63892
1148.0 0.000871 273.40158 1075.05090
1171.0 0.000854 273.35275 1069.64966
1270.0 0.000787 273.30423 1155.83875
1467.0 0.000682 273.25613 1343.28821
1777.0 0.000563 273.20853 1629.69824
2215.0 0.000451 273.16116 2040.99475
2781.0 0.000360 273.11432 2639.81885
3657.0 0.0002734 273.06778 3400.91211
4263.0 0.0002346 273.02179 4156.79980
4672.0 0.0002140 272.97607 4616.97656
4411.0 0.0002267 272.93082 4482.23633
3698.0 0.0002704 272.88596 3892.64282
3193.0 0.0003132 272.84149 3322.73022
2900.0 0.0003448 272.79749 2995.05786
2738.0 0.000365 272.75378 2822.81836
2456.0 0.000407 272.71054 2559.68164
1942.0 0.000515 272.66763 2082.55225
1399.0 0.000715 272.62512 1538.92432
1038.0 0.000963 272.58307 1099.34998
772.0 0.001295 272.54144 810.92212
643.0 0.001555 272.50012 647.63037
540.0 0.001852 272.45926 564.46826
536.0 0.001866 272.41876 526.77374
515.0 0.001942 272.37866 516.98676
536.0 0.001866 272.33893 528.92963
602.0 0.001661 272.29965 561.82397
663.0 0.001508 272.26074 612.67853
697.0 0.001435 272.22220 672.54822
742.0 0.001348 272.18411 726.94067
758.0 0.001319 272.14630 761.44366
761.0 0.001314 272.10901 784.96863
822.0 0.001217 272.07202 821.28778
913.0 0.001095 272.03546 876.15332
1061.0 0.000943 271.99927 939.19910
1130.0 0.000885 271.96350 989.46985
1099.0 0.000910 271.92804 994.37030
968.0 0.001033 271.89310 931.63373
817.0 0.001224 271.85846 826.92023
754.0 0.001326 271.82419 731.06671
710.0 0.001408 271.79037 667.15698
705.0 0.001418 271.75687 625.19147
578.0 0.001730 271.72382 579.97736
497.0 0.002012 271.69110 515.91858
446.0 0.002242 271.65881 448.32568
409.0 0.002445 271.62689 394.83099
350.0 0.002857 271.59531 358.04660
326.0 0.003067 271.56415 336.31927
310.0 0.003226 271.53336 323.59464
277.0 0.00361 271.50299 315.66022
303.0 0.003300 271.47293 310.13553
293.0 0.003413 271.44327 306.16705
256.0 0.00391 271.41403 295.00412
272.0 0.00368 271.38519 292.58298
264.0 0.00379 271.35663 290.58575
280.0 0.00357 271.32855 288.91599
280.0 0.00357 271.30072 287.50568
257.0 0.00389 271.27335 282.35037
240.0 0.00417 271.24634 281.50525
279.0 0.00358 271.21973 280.79276
241.0 0.00415 271.19342 280.19235
278.0 0.00360 271.16754 279.68863
280.0 0.00357 271.14200 279.27014
259.0 0.00386 271.11691 278.92813
282.0 0.00355 271.09207 278.65698
257.0 0.00389 271.06775 278.45285
276.0 0.00362 271.04364 278.31412
257.0 0.00389 271.02005 278.89728
286.0 0.003497 270.99667 278.92654
294.0 0.003401 270.97382 279.03268
259.0 0.00386 270.95123 279.22467
272.0 0.00368 270.92902 279.04022
261.0 0.00383 270.90729 279.78922
256.0 0.00391 270.88577 280.37979
262.0 0.00382 270.86469 280.90259
250.0 0.00400 270.84390 281.93823
254.0 0.00394 270.82349 283.09198
268.0 0.00373 270.80350 285.07574
284.0 0.00352 270.78384 287.17093
289.0 0.003460 270.76456 291.88437
278.0 0.00360 270.74557 299.88889
317.0 0.003155 270.72702 313.06427
346.0 0.002890 270.70880 334.01978
357.0 0.002801 270.69086 365.28162
396.0 0.002525 270.67343 406.20850
469.0 0.002132 270.65625 453.58105
493.0 0.002028 270.63947 496.40686
491.0 0.002037 270.62302 518.03430
484.0 0.002066 270.60693 506.57965
462.0 0.002165 270.59119 473.23380
432.0 0.002315 270.57581 444.00400
418.0 0.002392 270.56079 428.61920
416.0 0.002404 270.54611 421.27686
383.0 0.002611 270.53171 408.79291
368.0 0.002717 270.51773 384.34259
360.0 0.002778 270.50409 355.52759
339.0 0.002950 270.49081 331.88422
313.0 0.003195 270.47784 316.64093
322.0 0.003106 270.46527 308.91360
290.0 0.003448 270.45300 306.68390
265.0 0.00377 270.44107 308.60968
287.0 0.003484 270.42953 314.78180
296.0 0.003378 270.41833 326.76175
330.0 0.003030 270.40747 347.33130
394.0 0.002538 270.39691 379.56784
452.0 0.002212 270.38669 425.68347
549.0 0.001821 270.37677 484.97379
606.0 0.001650 270.36728 548.06067
677.0 0.001477 270.35806 597.31097
674.0 0.001484 270.34927 609.83240
657.0 0.001522 270.34073 580.19971
577.0 0.001733 270.33255 536.36877
523.0 0.001912 270.32462 506.88995
546.0 0.001832 270.31717 495.33258
500.0 0.002000 270.30997 488.11407
512.0 0.001953 270.30313 471.35904
499.0 0.002004 270.29657 445.69427
470.0 0.002128 270.29037 428.06326
524.0 0.001908 270.28448 433.14392
514.0 0.001946 270.27896 469.61215
613.0 0.001631 270.27377 541.84467
690.0 0.001449 270.26883 649.15497
828.0 0.001208 270.26428 786.97308
990.0 0.001010 270.26010 931.18219
1111.0 0.000900 270.25616 1028.21436
1124.0 0.000890 270.25259 1031.85242
994.0 0.001006 270.24924 943.92297
903.0 0.001107 270.24631 835.70630
773.0 0.001294 270.24374 765.86798
755.0 0.001325 270.24139 734.10486
742.0 0.001348 270.23941 709.40179
695.0 0.001439 270.23773 649.84467
564.0 0.001773 270.23639 559.47559
476.0 0.002101 270.23532 470.07318
401.0 0.002494 270.23459 401.98181
343.0 0.002915 270.23419 360.16095
330.0 0.003030 270.23410 335.91357
307.0 0.003257 270.23422 321.95184
328.0 0.003049 270.23480 313.79715
308.0 0.003247 270.23563 308.55084
295.0 0.003390 270.23679 304.88870
291.0 0.003436 270.23813 302.23312
292.0 0.003425 270.23993 300.76187
300.0 0.003333 270.24203 299.41473
291.0 0.003436 270.24435 298.52460
279.0 0.00358 270.24704 298.02115
287.0 0.003484 270.24997 297.85913
287.0 0.003484 270.25330 298.01144
286.0 0.003497 270.25681 298.46545
296.0 0.003378 270.26071 299.22089
300.0 0.003333 270.26489 299.65451
293.0 0.003413 270.26938 301.09039
293.0 0.003413 270.27411 311.51019
305.0 0.003279 270.27924 314.17258
304.0 0.003289 270.28452 317.36703
315.0 0.003175 270.29019 321.19873
332.0 0.003012 270.29611 325.49872
326.0 0.003067 270.30237 331.08899
323.0 0.003096 270.30890 342.23151
365.0 0.002740 270.31570 350.89554
409.0 0.002445 270.32285 361.83505
414.0 0.002415 270.33023 376.21274
479.0 0.002088 270.33792 396.31351
538.0 0.001859 270.34592 426.63260
625.0 0.001600 270.35422 475.16360
722.0 0.001385 270.36267 554.71582
886.0 0.001129 270.37149 681.53784
1050.0 0.000952 270.38068 876.70496
1234.0 0.000810 270.39005 1146.13843
1577.0 0.000634 270.39972 1483.41589
1808.0 0.000553 270.40970 1844.24268
2041.0 0.000490 270.41995 2113.38721
2290.0 0.000437 270.43039 2182.00879
2191.0 0.000456 270.44122 2040.90894
1880.0 0.000532 270.45227 1848.60315
1828.0 0.000547 270.46365 1751.76794
1753.0 0.000570 270.47525 1764.33032
1857.0 0.000539 270.48712 1786.54639
1814.0 0.000551 270.49927 1704.66040
1571.0 0.000637 270.51169 1481.81421
1214.0 0.000824 270.52441 1216.99292
978.0 0.001022 270.53738 1009.46320
947.0 0.001056 270.55063 887.76019
895.0 0.001117 270.56412 829.92932
866.0 0.001155 270.57791 801.55585
813.0 0.001230 270.59186 783.39050
804.0 0.001244 270.60626 792.61700
893.0 0.001120 270.62079 863.10400
1114.0 0.000898 270.63556 1032.31494
1414.0 0.000707 270.65067 1341.02539
1864.0 0.000536 270.66605 1822.08594
2556.0 0.000391 270.68161 2471.56006
3504.0 0.0002854 270.69748 3248.89673
4544.0 0.0002201 270.71359 3988.91406
4835.0 0.0002068 270.72989 4401.02100
4325.0 0.0002312 270.74658 4282.48291
3630.0 0.0002755 270.76346 3753.73413
3129.0 0.0003196 270.78064 3211.06445
3089.0 0.0003237 270.79800 2897.01514
3043.0 0.0003286 270.81564 2770.24170
2769.0 0.000361 270.83344 2634.87988
2344.0 0.000427 270.85156 2321.02979
1817.0 0.000550 270.87003 1851.03455
1352.0 0.000740 270.88864 1387.98914
1031.0 0.000970 270.90750 1038.63794
836.0 0.001196 270.92664 820.94080
734.0 0.001362 270.94595 709.20868
701.0 0.001427 270.96552 674.68396
746.0 0.001340 270.98532 700.39600
841.0 0.001189 271.00543 779.20428
953.0 0.001049 271.02576 909.55182
1193.0 0.000838 271.04626 1085.65430
1466.0 0.000682 271.06705 1279.51196
1568.0 0.000638 271.08810 1429.74377
1563.0 0.000640 271.10938 1483.28796
1486.0 0.000673 271.13089 1435.66748
1470.0 0.000680 271.15253 1372.77454
1466.0 0.000682 271.17459 1377.25488
1561.0 0.000641 271.19672 1457.64697
1627.0 0.000615 271.21918 1543.02722
1602.0 0.000624 271.24176 1544.10925
1502.0 0.000666 271.26465 1412.64807
1286.0 0.000778 271.28775 1209.21191
1067.0 0.000937 271.31104 1032.88770
894.0 0.001119 271.33459 930.02441
904.0 0.001106 271.35837 889.26520
897.0 0.001115 271.38232 877.02618
888.0 0.001126 271.40659 867.41693
868.0 0.001152 271.43100 868.93481
899.0 0.001112 271.45563 907.43365
977.0 0.001024 271.48053 991.56525
1091.0 0.000917 271.50565 1101.15051
1264.0 0.000791 271.53098 1185.79199
1197.0 0.000835 271.55637 1202.15833
1176.0 0.000850 271.58212 1159.77588
1172.0 0.000853 271.60800 1131.80640
1279.0 0.000782 271.63419 1172.78076
1413.0 0.000708 271.66052 1312.49902
1562.0 0.000640 271.68710 1512.64258
1680.0 0.000595 271.71387 1722.90601
1744.0 0.000573 271.74088 1879.52039
1928.0 0.000519 271.76804 1955.00378
1935.0 0.000517 271.79544 1963.29700
1853.0 0.000540 271.82303 1967.51892
1804.0 0.000554 271.85080 1966.06982
1766.0 0.000566 271.87881 1914.87976
1751.0 0.000571 271.90701 1797.09753
1575.0 0.000635 271.93539 1657.34717
1511.0 0.000662 271.96399 1550.65601
1453.0 0.000688 271.99274 1513.79907
1475.0 0.000678 272.02176 1535.32312
1544.0 0.000648 272.05090 1568.70557
1505.0 0.000664 272.08035 1564.32214
1432.0 0.000698 272.10983 1495.54504
1312.0 0.000762 272.13956 1361.17163
1139.0 0.000878 272.16953 1205.37878
1036.0 0.000965 272.19965 1089.57605
992.0 0.001008 272.22995 1024.57385
958.0 0.001044 272.26053 986.85797
941.0 0.001063 272.29120 944.75598
858.0 0.001166 272.32199 881.62085
805.0 0.001242 272.35315 813.08667
768.0 0.001302 272.38440 772.49231
761.0 0.001314 272.41583 777.04144
793.0 0.001261 272.44739 825.91547
869.0 0.001151 272.47922 914.14093
958.0 0.001044 272.51117 1023.46222
1066.0 0.000938 272.54327 1129.54578
1209.0 0.000827 272.57559 1221.73071
1356.0 0.000737 272.60806 1321.20325
1469.0 0.000681 272.64072 1436.51526
1545.0 0.000647 272.67361 1521.44580
1445.0 0.000692 272.70654 1510.62488
1212.0 0.000825 272.73975 1388.54602
1106.0 0.000904 272.77310 1218.73401
1000.0 0.001000 272.80661 1077.58289
942.0 0.001062 272.84024 991.26123
938.0 0.001066 272.87411 934.83673
839.0 0.001192 272.90811 864.42999
704.0 0.001420 272.94232 760.60858
595.0 0.001681 272.97665 646.47333
521.0 0.001919 273.01111 553.02032
507.0 0.001972 273.04581 488.25671
503.0 0.001988 273.08060 454.63513
517.0 0.001934 273.11566 444.66119
587.0 0.001704 273.15070 455.24438
603.0 0.001658 273.18600 486.97595
714.0 0.001401 273.22144 553.19000
781.0 0.001280 273.25705 664.62518
887.0 0.001127 273.29279 834.82684
1106.0 0.000904 273.32867 1061.06677
1215.0 0.000823 273.36472 1322.83643
1438.0 0.000695 273.40091 1561.46582
1628.0 0.000614 273.43726 1686.89673
1726.0 0.000579 273.47382 1638.48376
1679.0 0.000596 273.51041 1472.47241
1524.0 0.000656 273.54721 1313.14587
1230.0 0.000813 273.58414 1231.95068
1150.0 0.000870 273.62119 1219.16992
1091.0 0.000917 273.65839 1207.70996
1147.0 0.000872 273.69574 1128.21643
1033.0 0.000968 273.73328 970.56543
841.0 0.001189 273.77084 792.00824
681.0 0.001468 273.80859 644.90112
569.0 0.001757 273.84653 545.85583
486.0 0.002058 273.88455 486.98364
441.0 0.002268 273.92273 450.49957
413.0 0.002421 273.96103 421.23196
369.0 0.002710 273.99954 392.04962
331.0 0.003021 274.03802 368.83380
331.0 0.003021 274.07672 351.83560
339.0 0.002950 274.11557 341.55725
359.0 0.002786 274.15454 337.80801
362.0 0.002762 274.19363 338.53195
352.0 0.002841 274.23279 347.62177
362.0 0.002762 274.27209 364.10187
408.0 0.002451 274.31158 385.85321
439.0 0.002278 274.35114 409.02417
438.0 0.002283 274.39081 425.64706
424.0 0.002358 274.43060 426.24704
410.0 0.002439 274.47055 411.97272
386.0 0.002591 274.51065 392.08246
347.0 0.002882 274.55081 376.83115
333.0 0.003003 274.59103 369.26898
339.0 0.002950 274.63144 365.93161
357.0 0.002801 274.67191 360.27054
340.0 0.002941 274.71252 348.23877
337.0 0.002967 274.75330 332.21155
326.0 0.003067 274.79413 317.08163
308.0 0.003247 274.83508 305.47595
321.0 0.003115 274.87610 297.69882
296.0 0.003378 274.91727 292.89743
303.0 0.003300 274.95847 289.98792
301.0 0.003322 274.99982 288.12906
285.0 0.00351 275.04135 286.82639
293.0 0.003413 275.08289 282.81625
276.0 0.00362 275.12451 282.15948
289.0 0.003460 275.16632 281.63489
286.0 0.003497 275.20816 281.21039
267.0 0.00375 275.25015 280.86526
263.0 0.00380 275.29224 280.58447
253.0 0.00395 275.33441 278.69659
264.0 0.00379 275.37671 278.60623
267.0 0.00375 275.41898 278.55057
263.0 0.00380 275.46143 278.52579
276.0 0.00362 275.50394 278.52988
272.0 0.00368 275.54657 278.56140
246.0 0.00407 275.58923 278.70679
252.0 0.00397 275.63208 278.64368
282.0 0.00355 275.67496 278.77271
279.0 0.00358 275.71790 278.94211
279.0 0.00358 275.76093 279.15503
267.0 0.00375 275.80408 279.43649
300.0 0.003333 275.84732 279.82547
303.0 0.003300 275.89063 280.38821
288.0 0.003472 275.93402 284.22742
285.0 0.00351 275.97739 285.56845
258.0 0.00388 276.02097 287.38940
276.0 0.00362 276.06461 289.64880
275.0 0.00364 276.10825 292.14548
292.0 0.003425 276.15204 294.09946
284.0 0.00352 276.19586 295.50797
300.0 0.003333 276.23984 297.32474
268.0 0.00373 276.28369 297.16068
305.0 0.003279 276.32779 297.45026
314.0 0.003185 276.37192 298.78848
298.0 0.003356 276.41605 301.44400
296.0 0.003378 276.46036 305.65839
296.0 0.003378 276.50467 312.13150
304.0 0.003289 276.54901 322.41019
337.0 0.002967 276.59348 338.48880
353.0 0.002833 276.63800 361.41034
405.0 0.002469 276.68262 390.02832
452.0 0.002212 276.72726 419.98529
495.0 0.002020 276.77194 442.87598
493.0 0.002028 276.81671 449.87390
455.0 0.002198 276.86145 439.42325
405.0 0.002469 276.90628 420.34378
382.0 0.002618 276.95126 403.56366
406.0 0.002463 276.99631 394.64130
424.0 0.002358 277.04126 391.46820
446.0 0.002242 277.08633 387.77267
432.0 0.002315 277.13150 378.39944
412.0 0.002427 277.17670 363.81705
418.0 0.002392 277.22186 349.46481
405.0 0.002469 277.26718 337.47137
354.0 0.002825 277.31256 330.50681
334.0 0.002994 277.35791 328.75070
327.0 0.003058 277.40332 332.02884
336.0 0.002976 277.44876 340.54712
382.0 0.002618 277.49435 354.90402
404.0 0.002475 277.53986 375.75378
419.0 0.002387 277.58548 400.82187
438.0 0.002283 277.63104 427.15430
468.0 0.002137 277.67679 448.14063
449.0 0.002227 277.72244 456.97913
456.0 0.002193 277.76819 453.61380
395.0 0.002532 277.81400 447.34213
439.0 0.002278 277.85986 447.96597
491.0 0.002037 277.90564 462.52716
519.0 0.001927 277.95157 487.17206
556.0 0.001799 277.99747 525.49811
571.0 0.001751 278.04343 584.99945
681.0 0.001468 278.08939 684.51270
857.0 0.001167 278.13535 850.62634
1125.0 0.000889 278.18140 1104.20935
1507.0 0.000664 278.22748 1443.20044
2108.0 0.000474 278.27350 1827.66077
2550.0 0.000392 278.31967 2173.17871
2712.0 0.000369 278.36578 2348.91748
2466.0 0.000406 278.41193 2271.65991
1987.0 0.000503 278.45807 2013.49622
1716.0 0.000583 278.50427 1748.31580
1552.0 0.000644 278.55048 1582.73511
1565.0 0.000639 278.59674 1521.58582
1593.0 0.000628 278.64304 1493.67578
1458.0 0.000686 278.68921 1406.52283
1177.0 0.000850 278.73560 1222.60815
885.0 0.001130 278.78183 992.23444
701.0 0.001427 278.82816 783.19543
563.0 0.001776 278.87442 626.49945
485.0 0.002062 278.92084 523.74982
441.0 0.002268 278.96716 462.21994
408.0 0.002451 279.01355 426.95401
371.0 0.002695 279.05984 406.43558
383.0 0.002611 279.10626 394.07727
357.0 0.002801 279.15259 386.81833
381.0 0.002625 279.19897 383.46579
421.0 0.002375 279.24539 383.70273
438.0 0.002283 279.29175 388.54016
483.0 0.002070 279.33813 400.10535
525.0 0.001905 279.38458 422.40961
572.0 0.001748 279.43094 461.84424
637.0 0.001570 279.47736 525.12396
703.0 0.001422 279.52371 616.41632
809.0 0.001236 279.57010 731.49109
899.0 0.001112 279.61646 854.51141
996.0 0.001004 279.66287 953.55402
1038.0 0.000963 279.70926 988.91357
1008.0 0.000992 279.75565 947.52795
942.0 0.001062 279.80200 868.49670
875.0 0.001143 279.84836 800.45709
824.0 0.001214 279.89474 769.47607
803.0 0.001245 279.94101 771.45325
867.0 0.001153 279.98740 784.17645
859.0 0.001164 280.03369 786.85553
882.0 0.001134 280.08002 785.54254
920.0 0.001087 280.12631 812.96857
1001.0 0.000999 280.17255 906.81763
1186.0 0.000843 280.21875 1086.66858
1403.0 0.000713 280.26501 1343.53101
1667.0 0.000600 280.31119 1636.62280
1865.0 0.000536 280.35745 1886.90503
1824.0 0.000548 280.40369 1989.44995
1820.0 0.000549 280.44980 1899.83728
1680.0 0.000595 280.49591 1697.76416
1517.0 0.000659 280.54202 1515.85168
1322.0 0.000756 280.58813 1420.02820
1358.0 0.000736 280.63425 1398.71985
1290.0 0.000775 280.68024 1386.95398
1222.0 0.000818 280.72629 1311.43286
1109.0 0.000902 280.77228 1156.60742
904.0 0.001106 280.81818 971.67450
738.0 0.001355 280.86420 820.70331
722.0 0.001385 280.91003 723.96057
610.0 0.001639 280.95596 676.76880
649.0 0.001541 281.00180 658.57806
619.0 0.001616 281.04758 648.53461
571.0 0.001751 281.09341 629.37964
463.0 0.002160 281.13913 590.32092
490.0 0.002041 281.18488 545.47913
466.0 0.002146 281.23056 509.38406
445.0 0.002247 281.27615 487.89056
407.0 0.002457 281.32175 478.16586
415.0 0.002410 281.36725 472.88193
399.0 0.002506 281.41278 462.19293
390.0 0.002564 281.45828 442.60675
362.0 0.002762 281.50372 420.76471
346.0 0.002890 281.54913 403.83734
348.0 0.002874 281.59448 395.47873
363.0 0.002755 281.63974 397.01938
379.0 0.002639 281.68503 408.62314
406.0 0.002463 281.73019 429.54852
450.0 0.002222 281.77539 457.71686
457.0 0.002188 281.82053 490.39417
491.0 0.002037 281.86563 526.18646
554.0 0.001805 281.91061 563.74225
599.0 0.001669 281.95560 611.45764
648.0 0.001543 282.00046 690.16571
775.0 0.001290 282.04532 818.98846
966.0 0.001035 282.09021 1000.23328
1214.0 0.000824 282.13495 1209.67639
1455.0 0.000687 282.17960 1404.38940
1615.0 0.000619 282.22424 1527.41724
1562.0 0.000640 282.26889 1515.32104
1392.0 0.000718 282.31339 1382.02820
1255.0 0.000797 282.35791 1223.18713
1156.0 0.000865 282.40231 1115.24805
1132.0 0.000883 282.44662 1075.69263
1188.0 0.000842 282.49091 1087.15637
1206.0 0.000829 282.53513 1112.50842
1135.0 0.000881 282.57932 1114.65393
1106.0 0.000904 282.62344 1103.86853
1093.0 0.000915 282.66748 1115.35681
1120.0 0.000893 282.71149 1162.25134
1240.0 0.000806 282.75540 1224.91052
1318.0 0.000759 282.79926 1257.16687
1275.0 0.000784 282.84299 1236.04517
1209.0 0.000827 282.88672 1160.99548
1084.0 0.000923 282.93033 1056.12524
911.0 0.001098 282.97394 962.30170
854.0 0.001171 283.01736 901.96826
855.0 0.001170 283.06085 867.00092
827.0 0.001209 283.10422 829.22760
794.0 0.001259 283.14746 773.96204
685.0 0.001460 283.19067 695.96631
602.0 0.001661 283.23383 605.48822
485.0 0.002062 283.27689 522.01282
418.0 0.002392 283.31982 457.06192
388.0 0.002577 283.36276 412.29724
364.0 0.002747 283.40558 383.66800
335.0 0.002985 283.44833 365.96194
327.0 0.003058 283.49094 355.50787
330.0 0.003030 283.53357 349.05487
300.0 0.003333 283.57605 344.98627
294.0 0.003401 283.61847 342.51233
315.0 0.003175 283.66083 341.28937
328.0 0.003049 283.70306 341.20886
293.0 0.003413 283.74527 342.17181
321.0 0.003115 283.78732 344.78955
366.0 0.002732 283.82932 349.52487
352.0 0.002841 283.87128 357.54431
372.0 0.002688 283.91302 370.67935
377.0 0.002653 283.95483 391.33463
434.0 0.002304 283.99643 421.86938
466.0 0.002146 284.03802 463.18530
492.0 0.002033 284.07950 512.92957
596.0 0.001678 284.12085 566.23718
684.0 0.001462 284.16208 617.64972
722.0 0.001385 284.20328 661.08661
740.0 0.001351 284.24438 702.87518
819.0 0.001221 284.28543 762.48334
891.0 0.001122 284.32632 851.02026
988.0 0.001012 284.36716 963.21771
1130.0 0.000885 284.40781 1083.21460
1199.0 0.000834 284.44846 1184.75549
1247.0 0.000802 284.48895 1253.53394
1301.0 0.000769 284.52945 1302.90588
1305.0 0.000766 284.56970 1347.86243
1330.0 0.000752 284.60989 1367.29407
1340.0 0.000746 284.65005 1323.53174
1266.0 0.000790 284.69003 1220.69019
1166.0 0.000858 284.72998 1101.07080
1005.0 0.000995 284.76974 991.68469
885.0 0.001130 284.80948 914.16547
857.0 0.001167 284.84903 866.28381
844.0 0.001185 284.88852 821.16101
801.0 0.001248 284.92792 755.32220
726.0 0.001377 284.96725 671.59186
641.0 0.001560 285.00638 594.54889
614.0 0.001629 285.04544 541.50452
559.0 0.001789 285.08438 519.77301
521.0 0.001919 285.12326 531.93909
559.0 0.001789 285.16193 568.17340
606.0 0.001650 285.20059 615.92480
609.0 0.001642 285.23907 658.57617
645.0 0.001550 285.27756 677.55615
622.0 0.001608 285.31577 658.94073
570.0 0.001754 285.35394 612.65845
548.0 0.001825 285.39197 566.16052
505.0 0.001980 285.42996 535.35083
472.0 0.002119 285.46774 521.59216
507.0 0.001972 285.50549 517.13812
480.0 0.002083 285.54303 509.32306
450.0 0.002222 285.58051 486.88824
416.0 0.002404 285.61786 452.24130
399.0 0.002506 285.65503 420.51053
378.0 0.002646 285.69226 390.89410
341.0 0.002933 285.72919 369.73416
331.0 0.003021 285.76608 356.32263
311.0 0.003215 285.80280 348.65961
317.0 0.003155 285.83945 344.70078
312.0 0.003205 285.87592 342.96234
316.0 0.003165 285.91232 344.66043
315.0 0.003175 285.94861 345.30215
316.0 0.003165 285.98468 346.71533
315.0 0.003175 286.02069 348.84869
332.0 0.003012 286.05655 351.71320
321.0 0.003115 286.09225 355.36401
304.0 0.003289 286.12796 359.89603
361.0 0.002770 286.16339 365.45224
371.0 0.002695 286.19873 372.23627
375.0 0.002667 286.23404 380.18875
400.0 0.002500 286.26910 390.42673
471.0 0.002123 286.30411 405.40601
506.0 0.001976 286.33890 422.08966
547.0 0.001828 286.37360 444.77823
598.0 0.001672 286.40817 477.68387
683.0 0.001464 286.44263 527.75677
804.0 0.001244 286.47693 608.00586
963.0 0.001038 286.51108 734.78070
1151.0 0.000869 286.54507 927.35638
1313.0 0.000762 286.57907 1195.63916
1522.0 0.000657 286.61285 1532.04138
1907.0 0.000524 286.64642 1906.46436
2216.0 0.000451 286.67981 2265.58374
2471.0 0.000405 286.71323 2531.62061
2574.0 0.000389 286.74646 2654.08008
2666.0 0.000375 286.77951 2669.55200
2654.0 0.000377 286.81244 2611.19800
2547.0 0.000393 286.84528 2469.26587
2348.0 0.000426 286.87790 2280.45874
2084.0 0.000480 286.91046 2107.37256
1897.0 0.000527 286.94275 1956.27844
1760.0 0.000568 286.97501 1805.94275
1577.0 0.000634 287.00699 1655.47595
1434.0 0.000697 287.03897 1499.85852
1339.0 0.000747 287.07074 1318.36230
1216.0 0.000822 287.10245 1122.18774
1052.0 0.000951 287.13388 949.91241
868.0 0.001152 287.16525 824.84320
767.0 0.001304 287.19641 757.54071
796.0 0.001256 287.22754 751.40082
879.0 0.001138 287.25845 813.47034
1030.0 0.000971 287.28918 957.34961
1239.0 0.000807 287.31979 1199.60669
1519.0 0.000658 287.35025 1545.83350
1883.0 0.000531 287.38058 1968.51147
2314.0 0.000432 287.41074 2393.14136
2609.0 0.000383 287.44073 2717.05908
2796.0 0.000358 287.47058 2819.59888
2568.0 0.000389 287.50027 2647.17749
2265.0 0.000442 287.52985 2327.56567
2097.0 0.000477 287.55917 2038.70691
1894.0 0.000528 287.58847 1868.30164
1847.0 0.000541 287.61752 1809.76709
1774.0 0.000564 287.64645 1800.78967
1807.0 0.000553 287.67529 1751.97839
1616.0 0.000619 287.70386 1598.19958
1412.0 0.000708 287.73236 1370.76050
1219.0 0.000820 287.76062 1150.16650
1081.0 0.000925 287.78885 993.06830
918.0 0.001089 287.81674 926.03992
1044.0 0.000958 287.84467 956.26038
1056.0 0.000947 287.87228 1075.90295
1215.0 0.000823 287.89984 1259.69104
1411.0 0.000709 287.92709 1462.18005
1546.0 0.000647 287.95435 1626.48499
1674.0 0.000597 287.98138 1689.31384
1610.0 0.000621 288.00827 1618.89063
1468.0 0.000681 288.03500 1470.99084
1250.0 0.000800 288.06152 1331.40027
1185.0 0.000844 288.08792 1242.31970
1138.0 0.000879 288.11414 1200.20337
1147.0 0.000872 288.14026 1179.56812
1139.0 0.000878 288.16605 1144.09705
1100.0 0.000909 288.19180 1063.61401
927.0 0.001079 288.21738 948.20483
813.0 0.001230 288.24280 837.03986
737.0 0.001357 288.26801 755.40070
731.0 0.001368 288.29312 720.04077
773.0 0.001294 288.31799 732.35138
822.0 0.001217 288.34271 786.11096
878.0 0.001139 288.36725 869.37469
944.0 0.001059 288.39166 952.44806
1028.0 0.000973 288.41589 1002.30859
1008.0 0.000992 288.43994 989.00824
917.0 0.001091 288.46384 915.65881
801.0 0.001248 288.48755 825.31781
749.0 0.001335 288.51105 755.61700
710.0 0.001408 288.53452 717.74908
692.0 0.001445 288.55768 705.81824
715.0 0.001399 288.58075 699.36176
700.0 0.001429 288.60355 675.24304
612.0 0.001634 288.62625 623.96753
525.0 0.001905 288.64880 557.34753
462.0 0.002165 288.67114 494.15503
409.0 0.002445 288.69327 443.83945
373.0 0.002681 288.71530 408.27603
346.0 0.002890 288.73712 385.14386
348.0 0.002874 288.75876 370.56543
313.0 0.003195 288.78024 361.28729
345.0 0.002899 288.80145 355.65765
340.0 0.002941 288.82266 350.08926
320.0 0.003125 288.84360 350.83603
324.0 0.003086 288.86432 354.60211
341.0 0.002933 288.88495 360.96182
361.0 0.002770 288.90536 368.66956
369.0 0.002710 288.92551 376.48560
386.0 0.002591 288.94559 380.86530
356.0 0.002809 288.96548 379.04898
403.0 0.002481 288.98523 374.69339
370.0 0.002703 289.00467 369.61612
374.0 0.002674 289.02402 367.12695
364.0 0.002747 289.04318 368.90710
373.0 0.002681 289.06216 375.46600
386.0 0.002591 289.08096 387.28333
364.0 0.002747 289.09958 403.74799
405.0 0.002469 289.11801 425.83792
407.0 0.002457 289.13623 454.49817
482.0 0.002075 289.15430 488.30347
523.0 0.001912 289.17218 520.15680
541.0 0.001848 289.18988 548.12610
552.0 0.001812 289.20746 562.85339
484.0 0.002066 289.22473 568.31842
554.0 0.001805 289.24191 578.63538
564.0 0.001773 289.25891 606.10211
612.0 0.001634 289.27563 652.40662
717.0 0.001395 289.29221 708.03174
779.0 0.001284 289.30872 759.60028
832.0 0.001202 289.32486 786.02625
783.0 0.001277 289.34091 774.84918
711.0 0.001406 289.35678 740.10626
683.0 0.001464 289.37244 714.07654
683.0 0.001464 289.38791 722.30762
787.0 0.001271 289.40326 777.30676
925.0 0.001081 289.41833 878.76825
1033.0 0.000968 289.43323 1011.58411
1209.0 0.000827 289.44800 1144.24963
1331.0 0.000751 289.46246 1239.28540
1309.0 0.000764 289.47690 1265.99524
1204.0 0.000831 289.49103 1205.03699
1050.0 0.000952 289.50500 1085.00940
937.0 0.001067 289.51880 965.08661
884.0 0.001131 289.53241 883.15460
830.0 0.001205 289.54578 847.40295
850.0 0.001176 289.55902 842.59650
885.0 0.001130 289.57199 843.24493
871.0 0.001148 289.58490 822.50592
815.0 0.001227 289.59750 775.79639
767.0 0.001304 289.60995 725.74670
719.0 0.001391 289.62219 700.56812
723.0 0.001383 289.63428 715.60736
828.0 0.001208 289.64618 773.69165
851.0 0.001175 289.65787 863.31299
896.0 0.001116 289.66940 961.31183
947.0 0.001056 289.68060 1039.66504
1072.0 0.000933 289.69177 1073.64709
1075.0 0.000930 289.70267 1065.90417
1029.0 0.000972 289.71344 1050.79932
1008.0 0.000992 289.72388 1053.11743
1023.0 0.000978 289.73419 1070.96826
1096.0 0.000912 289.74432 1081.11877
1041.0 0.000961 289.75430 1057.47009
984.0 0.001016 289.76404 994.92676
892.0 0.001121 289.77362 906.97876
804.0 0.001244 289.78293 817.83405
770.0 0.001299 289.79214 748.74976
671.0 0.001490 289.80109 702.69513
617.0 0.001621 289.80981 673.57947
653.0 0.001531 289.81842 650.39044
572.0 0.001748 289.82678 630.21954
598.0 0.001672 289.83493 619.87958
635.0 0.001575 289.84296 623.54987
654.0 0.001529 289.85074 636.84290
639.0 0.001565 289.85834 647.40564
647.0 0.001546 289.86575 641.28815
665.0 0.001504 289.87292 612.75549
586.0 0.001706 289.87985 572.44891
526.0 0.001901 289.88663 536.73730
537.0 0.001862 289.89334 514.65472
522.0 0.001916 289.89966 506.51370
513.0 0.001949 289.90588 506.62653
540.0 0.001852 289.91190 505.75772
538.0 0.001859 289.91772 498.25021
494.0 0.002024 289.92328 484.52271
501.0 0.001996 289.92871 473.73062
493.0 0.002028 289.93390 474.85922
524.0 0.001908 289.93896 493.16364
567.0 0.001764 289.94379 529.48578
549.0 0.001821 289.94836 579.72443
634.0 0.001577 289.95276 635.26202
693.0 0.001443 289.95700 686.37543
789.0 0.001267 289.96100 722.37781
867.0 0.001153 289.96481 748.38257
878.0 0.001139 289.96841 774.61182
875.0 0.001143 289.97180 804.75891
876.0 0.001142 289.97507 833.76910
851.0 0.001175 289.97806 851.44537
800.0 0.001250 289.98083 857.67487
815.0 0.001227 289.98343 860.40283
811.0 0.001233 289.98584 860.99475
818.0 0.001222 289.98810 857.72375
810.0 0.001235 289.99002 841.66248
818.0 0.001222 289.99185 803.57214
786.0 0.001272 289.99350 747.34106
691.0 0.001447 289.99484 685.53662
610.0 0.001639 289.99603 634.23969
548.0 0.001825 289.99701 599.08459
514.0 0.001946 289.99783 580.92682
514.0 0.001946 289.99838 571.02069
508.0 0.001969 289.99878 561.76758
505.0 0.001980 289.99893 547.80292
500.0 0.002000 289.99893 533.47729
504.0 0.001984 289.99869 527.07648
539.0 0.001855 289.99829 534.98108
549.0 0.001821 289.99765 566.90698
616.0 0.001623 289.99683 623.05511
682.0 0.001466 289.99579 696.76801
786.0 0.001272 289.99454 769.81708
850.0 0.001176 289.99304 818.87390
835.0 0.001198 289.99139 821.73816
756.0 0.001323 289.98959 776.08099
647.0 0.001546 289.98752 708.08807
626.0 0.001597 289.98529 648.36755
639.0 0.001565 289.98279 611.35828
655.0 0.001527 289.98013 596.71613
709.0 0.001410 289.97726 593.63971
737.0 0.001357 289.97415 586.46356
690.0 0.001449 289.97092 564.51154
667.0 0.001499 289.96747 523.01166
532.0 0.001880 289.96375 475.95670
474.0 0.002110 289.95984 434.17532
444.0 0.002252 289.95569 401.31177
448.0 0.002232 289.95145 378.58496
430.0 0.002326 289.94696 364.47000
419.0 0.002387 289.94223 356.70309
423.0 0.002364 289.93732 354.57535
438.0 0.002283 289.93225 354.33615
370.0 0.002703 289.92685 356.85080
352.0 0.002841 289.92136 362.94843
357.0 0.002801 289.91562 373.59662
429.0 0.002331 289.90970 392.96188
425.0 0.002353 289.90353 421.22522
441.0 0.002268 289.89722 462.41415
487.0 0.002053 289.89066 516.94135
541.0 0.001848 289.88391 580.03967
593.0 0.001686 289.87692 642.25116
576.0 0.001736 289.86978 688.40167
653.0 0.001531 289.86237 704.03076
683.0 0.001464 289.85480 686.87836
695.0 0.001439 289.84708 654.89001
642.0 0.001558 289.83911 632.28070
642.0 0.001558 289.83090 635.14886
634.0 0.001577 289.82251 671.48383
710.0 0.001408 289.81393 741.52228
831.0 0.001203 289.80518 839.46564
919.0 0.001088 289.79611 955.28979
1074.0 0.000931 289.78687 1074.52100
1207.0 0.000829 289.77756 1175.83948
1238.0 0.000808 289.76785 1232.06311
1201.0 0.000833 289.75806 1215.09229
1117.0 0.000895 289.74802 1126.94910
1047.0 0.000955 289.73776 1011.45782
999.0 0.001001 289.72729 914.36163
922.0 0.001085 289.71671 858.60852
870.0 0.001149 289.70578 843.03284
932.0 0.001073 289.69479 845.91559
945.0 0.001058 289.68350 842.59863
873.0 0.001145 289.67203 810.76367
787.0 0.001271 289.66040 749.77576
765.0 0.001307 289.64853 679.28613
765.0 0.001307 289.63644 618.67664
758.0 0.001319 289.62415 579.22784
749.0 0.001335 289.61166 567.22852
762.0 0.001312 289.59894 587.75446
753.0 0.001328 289.58609 648.04333
881.0 0.001135 289.57300 758.17291
1087.0 0.000920 289.55966 928.26477
1244.0 0.000804 289.54620 1161.32129
1490.0 0.000671 289.53250 1442.82043
1791.0 0.000558 289.51855 1731.76660
2025.0 0.000494 289.50443 1966.63232
2153.0 0.000464 289.49017 2079.08105
2080.0 0.000481 289.47562 2039.33594
1924.0 0.000520 289.46088 1899.15381
1771.0 0.000565 289.44598 1741.27185
1723.0 0.000580 289.43079 1619.52209
1555.0 0.000643 289.41547 1559.25183
1622.0 0.000617 289.39987 1556.84802
1633.0 0.000612 289.38428 1588.06067
1622.0 0.000617 289.36823 1614.86707
1598.0 0.000626 289.35211 1614.74207
1659.0 0.000603 289.33572 1594.88367
1587.0 0.000630 289.31915 1561.09607
1482.0 0.000675 289.30237 1499.98254
1394.0 0.000717 289.28546 1394.39014
1265.0 0.000791 289.26828 1247.26147
1103.0 0.000907 289.25095 1094.44971
1006.0 0.000994 289.23337 972.26178
894.0 0.001119 289.21561 897.06342
875.0 0.001143 289.19757 866.12708
922.0 0.001085 289.17941 862.73413
902.0 0.001109 289.16104 866.36987
890.0 0.001124 289.14246 858.30768
821.0 0.001218 289.12363 838.32892
856.0 0.001168 289.10468 828.20752
858.0 0.001166 289.08545 843.80280
942.0 0.001062 289.06610 894.77417
975.0 0.001026 289.04654 973.43365
1031.0 0.000970 289.02673 1058.63586
1195.0 0.000837 289.00677 1122.76404
1267.0 0.000789 288.98651 1145.27075
1238.0 0.000808 288.96609 1135.34583
1271.0 0.000787 288.94553 1131.30066
1243.0 0.000805 288.92471 1173.57288
1267.0 0.000789 288.90381 1279.73853
1357.0 0.000737 288.88257 1438.22485
1455.0 0.000687 288.86118 1607.04370
1585.0 0.000631 288.83954 1723.67383
1663.0 0.000601 288.81778 1728.91028
1663.0 0.000601 288.79578 1609.68457
1527.0 0.000655 288.77356 1422.14429
1277.0 0.000783 288.75119 1239.08093
1131.0 0.000884 288.72855 1106.08069
1042.0 0.000960 288.70578 1033.55188
954.0 0.001048 288.68277 1005.23486
919.0 0.001088 288.65955 989.22809
894.0 0.001119 288.63617 951.68109
849.0 0.001178 288.61261 877.16418
770.0 0.001299 288.58884 780.49152
679.0 0.001473 288.56485 684.50482
582.0 0.001718 288.54065 606.21747
526.0 0.001901 288.51627 553.13989
458.0 0.002183 288.49161 527.76526
493.0 0.002028 288.46689 530.73175
535.0 0.001869 288.44196 559.63507
581.0 0.001721 288.41675 621.28357
689.0 0.001451 288.39136 711.09540
838.0 0.001193 288.36584 818.03821
993.0 0.001007 288.34009 924.92316
1101.0 0.000908 288.31409 1003.84338
1076.0 0.000929 288.28793 1027.37744
984.0 0.001016 288.26163 987.22778
897.0 0.001115 288.23505 907.93213
800.0 0.001250 288.20834 830.89392
771.0 0.001297 288.18143 779.53143
705.0 0.001418 288.15424 759.45905
804.0 0.001244 288.12698 763.70367
854.0 0.001171 288.09937 773.76715
833.0 0.001200 288.07175 774.93848
755.0 0.001325 288.04379 759.46509
746.0 0.001340 288.01569 741.43036
734.0 0.001362 287.98734 744.22870
778.0 0.001285 287.95889 787.20612
871.0 0.001148 287.93018 880.42432
953.0 0.001049 287.90134 1021.65070
1131.0 0.000884 287.87219 1191.50781
1370.0 0.000730 287.84293 1355.54492
1462.0 0.000684 287.81348 1468.87354
1489.0 0.000672 287.78378 1492.78076
1358.0 0.000736 287.75394 1430.25769
1268.0 0.000789 287.72397 1327.80847
1187.0 0.000842 287.69373 1233.79919
1143.0 0.000875 287.66333 1170.80164
1139.0 0.000878 287.63269 1137.96216
1111.0 0.000900 287.60184 1125.39771
1081.0 0.000925 287.57092 1112.17639
1076.0 0.000929 287.53973 1078.82849
1025.0 0.000976 287.50839 1022.34058
942.0 0.001062 287.47681 964.77820
947.0 0.001056 287.44507 930.52301
967.0 0.001034 287.41309 931.26978
945.0 0.001058 287.38101 962.47418
1003.0 0.000997 287.34863 1016.31268
1079.0 0.000927 287.31613 1065.07007
1104.0 0.000906 287.28348 1079.10803
1042.0 0.000960 287.25055 1038.34058
907.0 0.001103 287.21747 954.46576
799.0 0.001252 287.18423 862.01703
757.0 0.001321 287.15073 789.76721
717.0 0.001395 287.11713 748.78662
708.0 0.001412 287.08322 738.58875
736.0 0.001359 287.04922 744.26868
743.0 0.001346 287.01501 748.11426
770.0 0.001299 286.98068 736.43909
752.0 0.001330 286.94608 711.64203
687.0 0.001456 286.91141 689.25580
641.0 0.001560 286.87634 682.24774
630.0 0.001587 286.84128 693.01257
659.0 0.001517 286.80594 713.18890
657.0 0.001522 286.77048 727.17041
640.0 0.001563 286.73474 718.91779
642.0 0.001558 286.69888 683.92926
594.0 0.001684 286.66284 634.86841
533.0 0.001876 286.62662 591.81958
518.0 0.001931 286.59024 561.44208
541.0 0.001848 286.55359 548.24646
522.0 0.001916 286.51685 547.66809
508.0 0.001969 286.47986 550.56500
509.0 0.001965 286.44272 546.98444
504.0 0.001984 286.40543 531.98260
485.0 0.002062 286.36783 509.63708
471.0 0.002123 286.33017 487.19913
498.0 0.002008 286.29230 473.60648
509.0 0.001965 286.25415 467.49301
539.0 0.001855 286.21597 472.75723
552.0 0.001812 286.17752 492.56802
554.0 0.001805 286.13901 531.01282
541.0 0.001848 286.10022 590.26550
638.0 0.001567 286.06125 667.37848
684.0 0.001462 286.02209 751.44568
697.0 0.001435 285.98285 823.74164
749.0 0.001335 285.94330 859.45331
769.0 0.001300 285.90366 847.96069
761.0 0.001314 285.86383 795.67798
741.0 0.001350 285.82379 730.07452
686.0 0.001458 285.78357 675.34564
617.0 0.001621 285.74323 644.03937
558.0 0.001792 285.70267 635.80957
557.0 0.001795 285.66196 641.86609
567.0 0.001764 285.62106 647.64441
587.0 0.001704 285.57996 643.54095
590.0 0.001695 285.53876 627.42450
560.0 0.001786 285.49731 608.24097
554.0 0.001805 285.45569 595.40399
555.0 0.001802 285.41391 591.79669
551.0 0.001815 285.37198 593.40027
554.0 0.001805 285.32983 593.40894
554.0 0.001805 285.28757 584.99530
508.0 0.001969 285.24503 572.22241
504.0 0.001984 285.20242 558.17834
498.0 0.002008 285.15958 548.40863
488.0 0.002049 285.11664 551.84100
489.0 0.002045 285.07349 561.52985
510.0 0.001961 285.03018 576.76825
530.0 0.001887 284.98666 590.94550
554.0 0.001805 284.94296 597.99408
583.0 0.001715 284.89908 596.15161
597.0 0.001675 284.85513 591.52448
578.0 0.001730 284.81100 596.93378
573.0 0.001745 284.76663 628.27063
622.0 0.001608 284.72214 703.31299
690.0 0.001449 284.67740 832.26202
877.0 0.001140 284.63254 1025.12708
1109.0 0.000902 284.58752 1276.74292
1400.0 0.000714 284.54239 1564.09534
1676.0 0.000597 284.49704 1833.46814
1939.0 0.000516 284.45157 2002.31433
2031.0 0.000492 284.40585 1999.84900
1993.0 0.000502 284.36002 1842.13196
1700.0 0.000588 284.31396 1620.44641
1423.0 0.000703 284.26782 1421.77991
1252.0 0.000799 284.22144 1293.06128
1201.0 0.000833 284.17496 1244.88916
1177.0 0.000850 284.12830 1254.80713
1145.0 0.000873 284.08148 1273.86914
1268.0 0.000789 284.03445 1244.92004
1203.0 0.000831 283.98727 1144.40027
1008.0 0.000992 283.93997 997.42828
875.0 0.001143 283.89252 842.85675
708.0 0.001412 283.84491 706.71344
602.0 0.001661 283.79703 599.53076
522.0 0.001916 283.74915 522.90369
441.0 0.002268 283.70096 472.29678
463.0 0.002160 283.65265 440.99149
385.0 0.002597 283.60425 421.64661
372.0 0.002688 283.55566 412.11826
395.0 0.002532 283.50690 408.87122
400.0 0.002500 283.45798 411.01807
376.0 0.002660 283.40891 418.92288
414.0 0.002415 283.35962 432.83429
436.0 0.002294 283.31024 453.39859
457.0 0.002188 283.26068 480.40701
500.0 0.002000 283.21100 512.40118
523.0 0.001912 283.16119 545.78607
516.0 0.001938 283.11115 578.76508
522.0 0.001916 283.06097 613.21844
550.0 0.001818 283.01059 659.30328
604.0 0.001656 282.96014 730.34558
662.0 0.001511 282.90948 838.31384
758.0 0.001319 282.85873 991.91174
951.0 0.001052 282.80774 1197.82568
1222.0 0.000818 282.75665 1454.16602
1563.0 0.000640 282.70541 1739.58521
2048.0 0.000488 282.65408 2000.17590
2422.0 0.000413 282.60251 2151.97632
2412.0 0.000415 282.55075 2130.02441
2171.0 0.000461 282.49890 1958.02332
1913.0 0.000523 282.44693 1726.61304
1595.0 0.000627 282.39478 1518.08850
1361.0 0.000735 282.34250 1377.81372
1276.0 0.000784 282.29001 1316.76953
1304.0 0.000767 282.23740 1315.14063
1437.0 0.000696 282.18469 1324.72644
1525.0 0.000656 282.13174 1288.38757
1419.0 0.000705 282.07880 1181.26709
1192.0 0.000839 282.02554 1029.24548
963.0 0.001038 281.97220 866.24664
753.0 0.001328 281.91870 720.93988
623.0 0.001605 281.86517 605.04205
510.0 0.001961 281.81134 520.47754
447.0 0.002237 281.75745 459.33994
429.0 0.002331 281.70337 422.23056
414.0 0.002415 281.64917 398.98572
374.0 0.002674 281.59485 384.85779
346.0 0.002890 281.54037 378.31381
325.0 0.003077 281.48569 376.03983
350.0 0.002857 281.43091 379.32703
364.0 0.002747 281.37601 388.80225
367.0 0.002725 281.32095 406.30554
385.0 0.002597 281.26569 426.42648
429.0 0.002331 281.21042 451.43109
463.0 0.002160 281.15494 475.93365
516.0 0.001938 281.09927 487.82370
507.0 0.001972 281.04355 483.46683
516.0 0.001938 280.98767 465.84836
482.0 0.002075 280.93164 443.69495
442.0 0.002262 280.87540 424.54633
449.0 0.002227 280.81912 413.09912
397.0 0.002519 280.76270 408.53058
438.0 0.002283 280.70605 409.41977
436.0 0.002294 280.64935 412.22220
448.0 0.002232 280.59250 409.70422
403.0 0.002481 280.53552 400.65372
410.0 0.002439 280.47845 387.29575
395.0 0.002532 280.42114 373.23938
400.0 0.002500 280.36377 361.02930
379.0 0.002639 280.30621 351.91272
344.0 0.002907 280.24863 346.26602
341.0 0.002933 280.19077 343.76352
368.0 0.002717 280.13284 344.67697
356.0 0.002809 280.07483 348.66293
338.0 0.002959 280.01660 355.75351
325.0 0.003077 279.95837 366.57922
370.0 0.002703 279.89984 379.33618
366.0 0.002732 279.84131 394.21783
376.0 0.002660 279.78259 409.03320
448.0 0.002232 279.72375 420.99216
444.0 0.002252 279.66479 428.95053
446.0 0.002242 279.60571 431.38348
469.0 0.002132 279.54648 441.68863
519.0 0.001927 279.48712 462.67169
598.0 0.001672 279.42767 501.84927
640.0 0.001563 279.36807 566.65155
725.0 0.001379 279.30838 663.07690
810.0 0.001235 279.24857 793.54395
862.0 0.001160 279.18857 952.81183
994.0 0.001006 279.12845 1124.20386
1111.0 0.000900 279.06821 1274.38281
1238.0 0.000808 279.00793 1361.59546
1348.0 0.000742 278.94742 1351.95703
1347.0 0.000742 278.88681 1262.91931
1271.0 0.000787 278.82617 1146.99023
1166.0 0.000858 278.76535 1051.40137
1076.0 0.000929 278.70438 1004.06512
1058.0 0.000945 278.64331 1015.20105
1083.0 0.000923 278.58209 1079.69055
1207.0 0.000829 278.52081 1180.74121
1299.0 0.000770 278.45935 1289.23511
1381.0 0.000724 278.39789 1391.76550
1448.0 0.000691 278.33618 1491.33191
1614.0 0.000620 278.27441 1588.73792
1711.0 0.000584 278.21249 1669.24023
1751.0 0.000571 278.15048 1718.69958
1694.0 0.000590 278.08841 1734.73071
1628.0 0.000614 278.02615 1709.19690
1632.0 0.000613 277.96375 1630.06421
1624.0 0.000616 277.90128 1508.06860
1576.0 0.000635 277.83871 1382.38977
1438.0 0.000695 277.77597 1282.05005
1300.0 0.000769 277.71317 1212.64478
1211.0 0.000826 277.65030 1163.28662
1154.0 0.000867 277.58722 1121.88062
1069.0 0.000935 277.52408 1078.99072
993.0 0.001007 277.46082 1019.41272
921.0 0.001086 277.39740 933.30347
867.0 0.001153 277.33392 828.40594
845.0 0.001183 277.27029 725.15826
707.0 0.001414 277.20667 635.72333
640.0 0.001563 277.14279 569.05695
588.0 0.001701 277.07895 527.63776
503.0 0.001988 277.01492 510.74799
503.0 0.001988 276.95068 515.75433
511.0 0.001957 276.88651 537.60999
532.0 0.001880 276.82220 569.93011
619.0 0.001616 276.75775 603.73041
585.0 0.001709 276.69318 624.81512
590.0 0.001695 276.62848 623.51208
579.0 0.001727 276.56372 601.70984
560.0 0.001786 276.49884 572.14453
490.0 0.002041 276.43396 548.12726
503.0 0.001988 276.36880 537.64673
521.0 0.001919 276.30365 544.10126
517.0 0.001934 276.23834 565.30914
601.0 0.001664 276.17303 594.09442
640.0 0.001563 276.10754 618.92432
664.0 0.001506 276.04193 628.85760
667.0 0.001499 275.97623 621.03119
638.0 0.001567 275.91046 600.62451
618.0 0.001618 275.84464 574.36157
611.0 0.001637 275.77863 548.27649
575.0 0.001739 275.71259 529.63007
551.0 0.001815 275.64636 525.01349
543.0 0.001842 275.58008 537.22327
547.0 0.001828 275.51373 572.79456
587.0 0.001704 275.44730 630.70245
633.0 0.001580 275.38074 710.57300
756.0 0.001323 275.31409 810.04980
923.0 0.001083 275.24738 917.46820
1091.0 0.000917 275.18054 1014.09204
1196.0 0.000836 275.11356 1070.96375
1216.0 0.000822 275.04657 1064.11292
1110.0 0.000901 274.97940 997.85297
959.0 0.001043 274.91226 906.56030
839.0 0.001192 274.84494 821.61853
761.0 0.001314 274.77756 762.70508
773.0 0.001294 274.71005 735.19196
767.0 0.001304 274.64252 737.93811
838.0 0.001193 274.57483 756.11420
893.0 0.001120 274.50711 769.08252
842.0 0.001188 274.43927 765.68726
840.0 0.001190 274.37134 748.69568
813.0 0.001230 274.30328 733.80487
751.0 0.001332 274.23520 736.63245
819.0 0.001221 274.16705 764.51111
869.0 0.001151 274.09875 816.22046
888.0 0.001126 274.03043 882.69476
893.0 0.001120 273.96198 949.69238
936.0 0.001068 273.89343 1003.38159
955.0 0.001047 273.82486 1030.71960
950.0 0.001053 273.75616 1016.95215
907.0 0.001103 273.68741 962.97235
941.0 0.001063 273.61856 890.12891
892.0 0.001121 273.54962 822.23083
830.0 0.001205 273.48065 772.62469
767.0 0.001304 273.41156 742.87372
715.0 0.001399 273.34235 727.83954
681.0 0.001468 273.27307 719.29254
707.0 0.001414 273.20383 707.91742
633.0 0.001580 273.13437 680.96698
653.0 0.001531 273.06488 637.56256
577.0 0.001733 272.99527 585.19672
542.0 0.001845 272.92563 533.15521
495.0 0.002020 272.85587 486.29660
484.0 0.002066 272.78610 446.21161
390.0 0.002564 272.71622 413.62555
369.0 0.002710 272.64630 388.84912
358.0 0.002793 272.57626 371.86847
349.0 0.002865 272.50613 360.46661
330.0 0.003030 272.43604 353.86630
357.0 0.002801 272.36575 351.71445
330.0 0.003030 272.29544 350.05896
345.0 0.002899 272.22507 348.66888
330.0 0.003030 272.15460 346.53241
334.0 0.002994 272.08411 344.07663
318.0 0.003145 272.01346 341.71240
331.0 0.003021 271.94278 340.20923
371.0 0.002695 271.87207 340.04199
388.0 0.002577 271.80127 341.85242
371.0 0.002695 271.73041 346.13742
385.0 0.002597 271.65948 352.54330
380.0 0.002632 271.58844 362.76712
412.0 0.002427 271.51730 378.47763
453.0 0.002208 271.44626 402.22116
494.0 0.002024 271.37503 435.35059
551.0 0.001815 271.30380 484.34106
552.0 0.001812 271.23245 550.01782
615.0 0.001626 271.16104 632.86438
707.0 0.001414 271.08957 729.28467
753.0 0.001328 271.01807 830.41382
817.0 0.001224 270.94641 925.28204
929.0 0.001076 270.87482 1006.28015
975.0 0.001026 270.80304 1066.07349
1022.0 0.000978 270.73132 1092.61816
1101.0 0.000908 270.65948 1083.35999
1102.0 0.000907 270.58755 1051.52344
1071.0 0.000934 270.51556 1017.73059
1065.0 0.000939 270.44360 993.36938
960.0 0.001042 270.37152 979.46637
956.0 0.001046 270.29944 972.47626
950.0 0.001053 270.22723 966.41119
905.0 0.001105 270.15494 953.70068
899.0 0.001112 270.08267 925.40222
897.0 0.001115 270.01028 881.50238
893.0 0.001120 269.93790 832.67615
884.0 0.001131 269.86542 797.26965
847.0 0.001181 269.79297 785.19836
809.0 0.001236 269.72034 802.89948
873.0 0.001145 269.64771 850.27380
910.0 0.001099 269.57507 922.49884
967.0 0.001034 269.50229 1006.53601
1139.0 0.000878 269.42953 1081.12048
1180.0 0.000847 269.35669 1125.34436
1134.0 0.000882 269.28381 1128.99585
1085.0 0.000922 269.21091 1096.96484
1060.0 0.000943 269.13788 1041.21631
994.0 0.001006 269.06482 983.32050
943.0 0.001060 268.99176 947.55969
910.0 0.001099 268.91864 949.41541
947.0 0.001056 268.84543 992.56195
1011.0 0.000989 268.77222 1067.98608
1135.0 0.000881 268.69891 1156.74915
1246.0 0.000803 268.62564 1235.48047
1248.0 0.000801 268.55231 1278.37976
1246.0 0.000803 268.47888 1262.73242
1224.0 0.000817 268.40543 1187.34094
1075.0 0.000930 268.33188 1078.46350
1018.0 0.000982 268.25836 968.99957
884.0 0.001131 268.18481 882.41614
797.0 0.001255 268.11121 828.09161
808.0 0.001238 268.03745 805.72101
796.0 0.001256 267.96378 804.23718
812.0 0.001232 267.89005 804.47070
802.0 0.001247 267.81622 786.80005
748.0 0.001337 267.74240 743.28729
705.0 0.001418 267.66855 681.49780
636.0 0.001572 267.59460 615.05884
584.0 0.001712 267.52075 554.71332
523.0 0.001912 267.44672 505.07581
465.0 0.002151 267.37274 467.99811
449.0 0.002227 267.29861 441.50555
437.0 0.002288 267.22452 421.56815
392.0 0.002551 267.15039 404.76129
356.0 0.002809 267.07623 388.75745
359.0 0.002786 267.00198 375.78366
377.0 0.002653 266.92776 366.31970
382.0 0.002618 266.85352 361.15869
367.0 0.002725 266.77921 358.76263
368.0 0.002717 266.70483 361.32043
354.0 0.002825 266.63052 365.99487
366.0 0.002732 266.55609 370.71750
371.0 0.002695 266.48169 372.79672
350.0 0.002857 266.40714 370.93582
355.0 0.002817 266.33270 367.32205
366.0 0.002732 266.25824 363.74011
371.0 0.002695 266.18369 361.82556
344.0 0.002907 266.10904 363.00479
361.0 0.002770 266.03439 365.74063
369.0 0.002710 265.95981 368.08365
378.0 0.002646 265.88513 368.38354
412.0 0.002427 265.81042 366.59589
401.0 0.002494 265.73569 362.58905
375.0 0.002667 265.66095 358.11710
406.0 0.002463 265.58615 354.96597
384.0 0.002604 265.51141 355.17569
374.0 0.002674 265.43655 358.93784
388.0 0.002577 265.36172 369.82910
396.0 0.002525 265.28683 387.45364
384.0 0.002604 265.21204 415.95660
459.0 0.002179 265.13712 457.05960
503.0 0.001988 265.06213 512.52594
567.0 0.001764 264.98718 581.51837
649.0 0.001541 264.91223 658.23383
714.0 0.001401 264.83719 731.87488
779.0 0.001284 264.76221 782.40637
812.0 0.001232 264.68719 794.97211
782.0 0.001279 264.61218 767.83173
753.0 0.001328 264.53708 714.84924
684.0 0.001462 264.46198 660.69916
686.0 0.001458 264.38687 618.33649
636.0 0.001572 264.31177 594.70898
657.0 0.001522 264.23654 589.79926
628.0 0.001592 264.16144 597.46722
623.0 0.001605 264.08636 607.23865
644.0 0.001553 264.01114 607.11328
646.0 0.001548 263.93591 591.70172
601.0 0.001664 263.86066 567.06555
603.0 0.001658 263.78546 544.02631
528.0 0.001894 263.71027 529.69708
490.0 0.002041 263.63501 530.65045
533.0 0.001876 263.55972 548.46167
496.0 0.002016 263.48447 580.86511
556.0 0.001799 263.40915 621.77863
634.0 0.001577 263.33392 660.36566
657.0 0.001522 263.25854 684.73419
646.0 0.001548 263.18326 685.94897
654.0 0.001529 263.10791 665.78076
611.0 0.001637 263.03262 637.26483
590.0 0.001695 262.95721 612.48590
554.0 0.001805 262.88193 601.76599
566.0 0.001767 262.80655 608.83075
604.0 0.001656 262.73123 631.88745
615.0 0.001626 262.65582 663.76349
644.0 0.001553 262.58051 692.38959
665.0 0.001504 262.50507 706.36230
715.0 0.001399 262.42972 702.12598
722.0 0.001385 262.35428 685.87433
654.0 0.001529 262.27890 666.45447
668.0 0.001497 262.20352 647.42096
673.0 0.001486 262.12817 630.99286
631.0 0.001585 262.05280 617.93713
622.0 0.001608 261.97733 612.29333
631.0 0.001585 261.90189 617.44336
624.0 0.001603 261.82651 633.50592
656.0 0.001524 261.75119 658.21777
632.0 0.001582 261.67575 688.13940
647.0 0.001546 261.60034 714.98621
709.0 0.001410 261.52490 727.78168
746.0 0.001340 261.44952 717.93115
682.0 0.001466 261.37418 687.32758
648.0 0.001543 261.29871 647.79291
617.0 0.001621 261.22336 610.37152
590.0 0.001695 261.14795 582.82245
537.0 0.001862 261.07257 566.93140
572.0 0.001748 260.99719 560.35797
543.0 0.001842 260.92184 558.03265
535.0 0.001869 260.84650 554.71625
543.0 0.001842 260.77106 545.98987
527.0 0.001898 260.69577 531.64313
564.0 0.001773 260.62036 516.02893
520.0 0.001923 260.54504 505.21490
515.0 0.001942 260.46967 503.31949
550.0 0.001818 260.39438 513.64685
572.0 0.001748 260.31903 538.31580
593.0 0.001686 260.24377 579.67041
645.0 0.001550 260.16849 639.09338
779.0 0.001284 260.09314 717.26166
817.0 0.001224 260.01785 810.66638
860.0 0.001163 259.94266 910.62610
914.0 0.001094 259.86737 1003.89124
972.0 0.001029 259.79214 1075.10730
1056.0 0.000947 259.71692 1113.01001
1107.0 0.000903 259.64166 1120.52820
1146.0 0.000873 259.56647 1106.99683
1119.0 0.000894 259.49130 1083.30969
1109.0 0.000902 259.41614 1063.58826
1089.0 0.000918 259.34094 1064.03748
1077.0 0.000929 259.26581 1097.00110
1112.0 0.000899 259.19064 1165.82666
1146.0 0.000873 259.11554 1263.73743
1261.0 0.000793 259.04044 1375.05469
1327.0 0.000754 258.96539 1480.65857
1479.0 0.000676 258.89029 1560.37659
1631.0 0.000613 258.81528 1595.75183
1567.0 0.000638 258.74026 1573.83118
1545.0 0.000647 258.66522 1497.31470
1476.0 0.000678 258.59021 1390.25745
1327.0 0.000754 258.51523 1285.18005
1238.0 0.000808 258.44034 1205.09656
1149.0 0.000870 258.36539 1157.48511
1106.0 0.000904 258.29041 1137.76453
1090.0 0.000917 258.21558 1135.43018
1133.0 0.000883 258.14069 1137.93213
1152.0 0.000868 258.06589 1128.60046
1150.0 0.000870 257.99112 1092.11841
1065.0 0.000939 257.91623 1023.00946
964.0 0.001037 257.84149 932.11774
874.0 0.001144 257.76672 837.66571
778.0 0.001285 257.69202 750.83948
696.0 0.001437 257.61731 678.22003
633.0 0.001580 257.54263 621.27399
600.0 0.001667 257.46796 580.10175
587.0 0.001704 257.39331 553.02069
584.0 0.001712 257.31876 535.95294
566.0 0.001767 257.24423 524.23468
566.0 0.001767 257.16962 515.74854
526.0 0.001901 257.09512 512.84021
527.0 0.001898 257.02063 519.04108
533.0 0.001876 256.94617 535.67200
487.0 0.002053 256.87177 562.90204
535.0 0.001869 256.79733 597.93719
633.0 0.001580 256.72299 634.32703
628.0 0.001592 256.64865 664.49762
646.0 0.001548 256.57434 684.93652
673.0 0.001486 256.50006 698.22815
684.0 0.001462 256.42581 709.81531
729.0 0.001372 256.35156 719.37671
730.0 0.001370 256.27737 721.44061
694.0 0.001441 256.20328 710.89746
697.0 0.001435 256.12918 689.57037
630.0 0.001587 256.05508 662.82776
626.0 0.001597 255.98100 636.26019
593.0 0.001686 255.90703 612.10333
554.0 0.001805 255.83304 592.60809
543.0 0.001842 255.75912 581.55927
551.0 0.001815 255.68523 580.05463
550.0 0.001818 255.61133 585.60907
599.0 0.001669 255.53752 592.81860
617.0 0.001621 255.46368 596.65570
594.0 0.001684 255.39000 594.50977
577.0 0.001733 255.31624 583.53784
538.0 0.001859 255.24258 561.48224
533.0 0.001876 255.16891 529.27570
501.0 0.001996 255.09534 492.64496
431.0 0.002320 255.02180 458.16879
396.0 0.002525 254.94826 430.78143
411.0 0.002433 254.87477 412.28284
415.0 0.002410 254.80128 401.65204
380.0 0.002632 254.72791 398.48453
413.0 0.002421 254.65460 398.43372
426.0 0.002347 254.58125 396.72266
384.0 0.002604 254.50797 390.25647
384.0 0.002604 254.43472 378.75699
364.0 0.002747 254.36160 364.20816
326.0 0.003067 254.28844 349.23578
338.0 0.002959 254.21533 335.91516
310.0 0.003226 254.14224 325.59329
307.0 0.003257 254.06926 317.88266
295.0 0.003390 253.99631 312.70959
287.0 0.003484 253.92339 310.35382
301.0 0.003322 253.85054 310.66034
306.0 0.003268 253.77771 312.51169
293.0 0.003413 253.70494 318.39166
305.0 0.003279 253.63220 328.99854
324.0 0.003086 253.55951 343.73920
324.0 0.003086 253.48688 365.35889
362.0 0.002762 253.41429 396.03198
424.0 0.002358 253.34171 437.16809
478.0 0.002092 253.26924 490.41473
537.0 0.001862 253.19681 554.48206
611.0 0.001637 253.12447 625.27020
694.0 0.001441 253.05208 696.94843
765.0 0.001307 252.97980 761.65668
824.0 0.001214 252.90758 809.64093
834.0 0.001199 252.83539 828.50140
806.0 0.001241 252.76324 812.54199
778.0 0.001285 252.69116 769.29480
701.0 0.001427 252.61911 715.31598
681.0 0.001468 252.54713 665.42487
634.0 0.001577 252.47527 628.43744
629.0 0.001590 252.40335 606.45612
584.0 0.001712 252.33150 598.41534
621.0 0.001610 252.25975 596.60858
661.0 0.001513 252.18808 594.42413
581.0 0.001721 252.11642 583.50189
566.0 0.001767 252.04486 559.36407
533.0 0.001876 251.97327 524.89709
514.0 0.001946 251.90176 487.56033
468.0 0.002137 251.83038 453.71109
439.0 0.002278 251.75902 429.27350
429.0 0.002331 251.68767 416.20074
411.0 0.002433 251.61642 415.50702
432.0 0.002315 251.54521 426.94675
412.0 0.002427 251.47408 447.02429
448.0 0.002232 251.40305 471.52124
507.0 0.001972 251.33202 495.18036
541.0 0.001848 251.26103 509.70609
512.0 0.001953 251.19016 509.22238
476.0 0.002101 251.11931 494.22775
458.0 0.002183 251.04857 471.05655
460.0 0.002174 250.97781 447.01242
418.0 0.002392 250.90712 427.79669
379.0 0.002639 250.83650 415.45486
403.0 0.002481 250.76602 410.43161
408.0 0.002451 250.69553 411.58249
415.0 0.002410 250.62509 415.14960
415.0 0.002410 250.55472 416.68481
427.0 0.002342 250.48447 412.11203
432.0 0.002315 250.41428 402.15250
410.0 0.002439 250.34413 388.81958
360.0 0.002778 250.27403 375.41772
359.0 0.002786 250.20398 364.54630
382.0 0.002618 250.13402 360.85333
379.0 0.002639 250.06412 359.22427
381.0 0.002625 249.99435 364.04196
389.0 0.002571 249.92453 376.70374
424.0 0.002358 249.85483 399.00867
457.0 0.002188 249.78519 432.65466
509.0 0.001965 249.71565 479.81116
553.0 0.001808 249.64616 541.23523
584.0 0.001712 249.57672 616.20038
711.0 0.001406 249.50732 701.23077
826.0 0.001211 249.43805 790.62775
925.0 0.001081 249.36884 870.19708
963.0 0.001038 249.29968 932.08624
973.0 0.001028 249.23058 975.87109
1008.0 0.000992 249.16158 1009.68256
1016.0 0.000984 249.09261 1041.76599
981.0 0.001019 249.02376 1074.14087
994.0 0.001006 248.95494 1100.68921
1033.0 0.000968 248.88620 1110.32227
1058.0 0.000945 248.81750 1096.63293
1044.0 0.000958 248.74893 1063.56812
1082.0 0.000924 248.68042 1019.19244
1022.0 0.000978 248.61197 969.49854
913.0 0.001095 248.54359 920.01764
860.0 0.001163 248.47527 877.74323
801.0 0.001248 248.40703 847.53003
814.0 0.001229 248.33888 831.52533
775.0 0.001290 248.27081 826.34869
763.0 0.001311 248.20279 826.30225
823.0 0.001215 248.13486 827.34937
802.0 0.001247 248.06697 833.38263
858.0 0.001166 247.99921 847.15100
886.0 0.001129 247.93150 870.12378
879.0 0.001138 247.86388 901.32422
910.0 0.001099 247.79631 937.44849
987.0 0.001013 247.72882 969.75800
978.0 0.001022 247.66139 984.96326
1034.0 0.000967 247.59406 971.70020
935.0 0.001070 247.52681 931.30176
843.0 0.001186 247.45964 877.65204
861.0 0.001161 247.39253 826.45947
808.0 0.001238 247.32553 787.20050
777.0 0.001287 247.25856 763.37390
779.0 0.001284 247.19170 753.99915
728.0 0.001374 247.12491 755.72479
759.0 0.001318 247.05823 760.97638
786.0 0.001272 246.99156 763.04175
781.0 0.001280 246.92505 756.66614
777.0 0.001287 246.85858 742.77203
784.0 0.001276 246.79219 727.99561
791.0 0.001264 246.72583 719.25348
782.0 0.001279 246.65965 719.17560
777.0 0.001287 246.59351 727.48615
812.0 0.001232 246.52740 738.55389
803.0 0.001245 246.46143 749.06464
822.0 0.001217 246.39554 758.31860
820.0 0.001220 246.32971 765.88269
878.0 0.001139 246.26396 778.91400
927.0 0.001079 246.19833 808.03448
983.0 0.001017 246.13274 865.42743
1073.0 0.000932 246.06723 960.89362
1168.0 0.000856 246.00183 1099.03943
1289.0 0.000776 245.93652 1279.00281
1363.0 0.000734 245.87126 1491.01282
1461.0 0.000684 245.80611 1715.85168
1632.0 0.000613 245.74101 1920.82239
1783.0 0.000561 245.67609 2057.97070
1882.0 0.000531 245.61119 2085.13477
1960.0 0.000510 245.54639 1995.45898
1888.0 0.000530 245.48160 1826.84644
1761.0 0.000568 245.41696 1633.93591
1561.0 0.000641 245.35237 1460.61548
1350.0 0.000741 245.28795 1332.30066
1197.0 0.000835 245.22357 1258.11792
1116.0 0.000896 245.15924 1232.67175
1140.0 0.000877 245.09499 1237.57227
1181.0 0.000847 245.03088 1243.57471
1134.0 0.000882 244.96689 1219.78589
1144.0 0.000874 244.90289 1149.42725
1045.0 0.000957 244.83900 1041.79016
971.0 0.001030 244.77527 916.62238
861.0 0.001161 244.71161 793.02893
705.0 0.001418 244.64799 683.83740
634.0 0.001577 244.58447 595.41064
517.0 0.001934 244.52104 528.61523
488.0 0.002049 244.45772 484.25735
452.0 0.002212 244.39447 458.01373
492.0 0.002033 244.33134 445.58368
450.0 0.002222 244.26825 441.89645
478.0 0.002092 244.20528 442.87817
512.0 0.001953 244.14241 443.48773
472.0 0.002119 244.07962 439.88492
464.0 0.002155 244.01694 431.17844
436.0 0.002294 243.95433 419.37955
414.0 0.002415 243.89180 407.59097
479.0 0.002088 243.82936 397.87469
438.0 0.002283 243.76701 392.50217
442.0 0.002262 243.70482 391.22598
410.0 0.002439 243.64264 393.11804
462.0 0.002165 243.58060 397.19180
479.0 0.002088 243.51860 401.86334
512.0 0.001953 243.45676 406.75827
481.0 0.002079 243.39499 411.85590
474.0 0.002110 243.33331 418.81876
489.0 0.002045 243.27168 432.83246
499.0 0.002004 243.21017 455.14688
517.0 0.001934 243.14882 488.12057
534.0 0.001873 243.08751 528.14453
558.0 0.001792 243.02632 573.40637
584.0 0.001712 242.96518 618.48645
618.0 0.001618 242.90414 655.68945
691.0 0.001447 242.84323 679.52094
762.0 0.001312 242.78238 691.20313
772.0 0.001295 242.72162 698.73352
784.0 0.001276 242.66103 715.03925
780.0 0.001282 242.60043 748.59357
798.0 0.001253 242.53999 803.97150
838.0 0.001193 242.47961 877.59454
858.0 0.001166 242.41936 961.67407
913.0 0.001095 242.35921 1042.91602
1002.0 0.000998 242.29913 1107.09900
1027.0 0.000974 242.23917 1139.15564
1035.0 0.000966 242.17929 1127.07483
1059.0 0.000944 242.11954 1073.20581
1038.0 0.000963 242.05983 992.34631
943.0 0.001060 242.00024 905.90417
850.0 0.001176 241.94081 830.25659
758.0 0.001319 241.88142 773.71045
693.0 0.001443 241.82211 737.17365
681.0 0.001468 241.76292 716.48859
660.0 0.001515 241.70384 704.86212
639.0 0.001565 241.64485 694.79974
656.0 0.001524 241.58594 677.23181
621.0 0.001610 241.52721 643.44659
596.0 0.001678 241.46846 601.78625
556.0 0.001799 241.40988 554.88257
513.0 0.001949 241.35138 509.33313
471.0 0.002123 241.29303 469.35120
439.0 0.002278 241.23471 436.52582
390.0 0.002564 241.17651 410.55490
353.0 0.002833 241.11841 389.70929
355.0 0.002817 241.06046 372.27338
347.0 0.002882 241.00253 357.96335
375.0 0.002667 240.94479 343.88428
327.0 0.003058 240.88704 334.10172
322.0 0.003106 240.82945 326.94992
347.0 0.002882 240.77196 322.14566
325.0 0.003077 240.71461 319.52719
312.0 0.003205 240.65729 318.70099
322.0 0.003106 240.60013 319.07410
333.0 0.003003 240.54303 319.92041
340.0 0.002941 240.48605 320.67551
319.0 0.003135 240.42917 321.28674
318.0 0.003145 240.37242 323.41229
337.0 0.002967 240.31572 325.18527
352.0 0.002841 240.25917 328.15146
326.0 0.003067 240.20271 332.64331
347.0 0.002882 240.14633 340.43134
356.0 0.002809 240.09010 347.24774
348.0 0.002874 240.03394 355.85364
398.0 0.002513 239.97791 367.69839
432.0 0.002315 239.92195 384.93262
449.0 0.002227 239.86607 409.97830
465.0 0.002151 239.81033 445.78571
523.0 0.001912 239.75475 493.12561
543.0 0.001842 239.69917 553.60486
573.0 0.001745 239.64375 626.64465
657.0 0.001522 239.58839 709.00677
741.0 0.001350 239.53320 796.47473
860.0 0.001163 239.47807 880.67615
912.0 0.001096 239.42308 957.93805
965.0 0.001036 239.36816 1021.65497
1003.0 0.000997 239.31337 1060.80249
1002.0 0.000998 239.25865 1064.14136
1018.0 0.000982 239.20410 1030.57825
982.0 0.001018 239.14958 972.84741
868.0 0.001152 239.09518 909.05017
823.0 0.001215 239.04095 852.85345
771.0 0.001297 238.98677 812.55713
729.0 0.001372 238.93266 790.03955
736.0 0.001359 238.87869 784.37000
752.0 0.001330 238.82484 792.53876
772.0 0.001295 238.77115 808.43402
820.0 0.001220 238.71745 823.44922
804.0 0.001244 238.66396 831.59399
786.0 0.001272 238.61049 829.99811
809.0 0.001236 238.55721 824.14325
774.0 0.001292 238.50404 816.42590
758.0 0.001319 238.45088 806.08032
747.0 0.001339 238.39790 794.00964
783.0 0.001277 238.34500 779.33698
740.0 0.001351 238.29222 766.34283
721.0 0.001387 238.23953 761.98383
768.0 0.001302 238.18695 773.32227
789.0 0.001267 238.13451 803.78894
881.0 0.001135 238.08214 852.70038
903.0 0.001107 238.02991 912.82733
1047.0 0.000955 237.97774 971.47992
1061.0 0.000943 237.92570 1011.39087
1158.0 0.000864 237.87378 1017.18726
1103.0 0.000907 237.82195 986.67194
968.0 0.001033 237.77028 929.18304
904.0 0.001106 237.71864 860.59308
779.0 0.001284 237.66718 795.52454
754.0 0.001326 237.61575 744.31049
690.0 0.001449 237.56448 711.87183
698.0 0.001433 237.51331 698.75549
691.0 0.001447 237.46227 700.52472
706.0 0.001416 237.41135 710.27216
830.0 0.001205 237.36049 719.66772
774.0 0.001292 237.30977 723.86353
729.0 0.001372 237.25912 724.69360
743.0 0.001346 237.20863 729.46771
752.0 0.001330 237.15819 747.49945
768.0 0.001302 237.10793 787.76141
776.0 0.001289 237.05769 857.49939
873.0 0.001145 237.00766 960.85992
983.0 0.001017 236.95764 1097.47192
1097.0 0.000912 236.90781 1260.43982
1311.0 0.000763 236.85803 1435.52319
1452.0 0.000689 236.80838 1603.98730
1741.0 0.000574 236.75887 1749.13928
1859.0 0.000538 236.70949 1858.38293
1986.0 0.000504 236.66013 1917.49268
2049.0 0.000488 236.61093 1911.20972
1945.0 0.000514 236.56181 1837.50708
1767.0 0.000566 236.51286 1716.98193
1543.0 0.000648 236.46402 1582.51172
1397.0 0.000716 236.41521 1461.63611
1293.0 0.000773 236.36653 1368.64160
1215.0 0.000823 236.31801 1305.16162
1186.0 0.000843 236.26955 1264.38062
1213.0 0.000824 236.22125 1237.46973
1282.0 0.000780 236.17303 1212.66516
1289.0 0.000776 236.12492 1177.61511
1193.0 0.000838 236.07692 1117.87402
1068.0 0.000936 236.02907 1031.81018
968.0 0.001033 235.98128 927.57581
900.0 0.001111 235.93362 819.05371
760.0 0.001316 235.88605 716.60364
650.0 0.001538 235.83862 630.54773
622.0 0.001608 235.79132 563.34583
567.0 0.001764 235.74409 516.25183
535.0 0.001869 235.69699 489.43256
548.0 0.001825 235.64998 481.47183
539.0 0.001855 235.60309 491.08401
544.0 0.001838 235.55629 515.94232
569.0 0.001757 235.50966 553.32507
616.0 0.001623 235.46310 599.11652
608.0 0.001645 235.41666 647.18811
594.0 0.001684 235.37030 688.27368
702.0 0.001425 235.32410 714.15326
745.0 0.001342 235.27795 718.05542
700.0 0.001429 235.23198 701.93457
726.0 0.001377 235.18608 674.34656
714.0 0.001401 235.14029 644.32050
673.0 0.001486 235.09460 619.06244
655.0 0.001527 235.04907 602.17444
568.0 0.001761 235.00360 594.66772
587.0 0.001704 234.95828 594.29443
609.0 0.001642 234.91299 596.36847
554.0 0.001805 234.86794 595.05286
565.0 0.001770 234.82297 585.50281
517.0 0.001934 234.77808 567.13989
553.0 0.001808 234.73328 540.47559
571.0 0.001751 234.68860 509.75449
524.0 0.001908 234.64401 482.33359
466.0 0.002146 234.59961 459.62656
421.0 0.002375 234.55528 443.05899
450.0 0.002222 234.51102 432.61307
428.0 0.002336 234.46689 426.73267
430.0 0.002326 234.42288 422.90121
443.0 0.002257 234.37904 418.32312
413.0 0.002421 234.33524 410.78876
434.0 0.002304 234.29158 400.01120
397.0 0.002519 234.24797 385.60651
399.0 0.002506 234.20457 370.48892
353.0 0.002833 234.16122 356.85812
348.0 0.002874 234.11803 345.78235
364.0 0.002747 234.07486 338.13211
347.0 0.002882 234.03188 333.95734
353.0 0.002833 233.98900 332.90686
364.0 0.002747 233.94624 334.20364
385.0 0.002597 233.90350 336.76636
378.0 0.002646 233.86098 339.53720
376.0 0.002660 233.81851 342.07736
358.0 0.002793 233.77618 343.68182
371.0 0.002695 233.73401 348.12714
392.0 0.002551 233.69185 355.51288
430.0 0.002326 233.64983 367.04337
433.0 0.002309 233.60796 383.63715
442.0 0.002262 233.56621 403.88806
480.0 0.002083 233.52449 433.29825
485.0 0.002062 233.48297 469.94263
537.0 0.001862 233.44148 514.59320
594.0 0.001684 233.40016 567.29254
628.0 0.001592 233.35892 627.08704
651.0 0.001536 233.31781 686.83203
669.0 0.001495 233.27678 741.84595
703.0 0.001422 233.23590 784.01093
738.0 0.001355 233.19508 807.36066
763.0 0.001311 233.15443 807.65228
775.0 0.001290 233.11386 787.70978
795.0 0.001258 233.07343 751.36969
773.0 0.001294 233.03307 707.85242
716.0 0.001397 232.99286 666.64209
690.0 0.001449 232.95270 634.31140
624.0 0.001603 232.91269 613.87823
584.0 0.001712 232.87279 603.18610
561.0 0.001783 232.83301 598.70557
559.0 0.001789 232.79329 595.09167
573.0 0.001745 232.75374 587.29944
540.0 0.001852 232.71432 571.73505
529.0 0.001890 232.67494 547.11652
503.0 0.001988 232.63571 515.22217
510.0 0.001961 232.59659 480.18381
485.0 0.002062 232.55754 446.50638
441.0 0.002268 232.51865 417.65039
412.0 0.002427 232.47984 395.00107
421.0 0.002375 232.44115 381.76880
382.0 0.002618 232.40254 378.01199
396.0 0.002525 232.36409 384.77847
437.0 0.002288 232.32576 402.15472
443.0 0.002257 232.28749 431.22375
440.0 0.002273 232.24934 472.23489
500.0 0.002000 232.21132 524.57727
522.0 0.001916 232.17339 586.05096
602.0 0.001661 232.13554 651.84265
643.0 0.001555 232.09787 714.74615
757.0 0.001321 232.06026 762.66541
721.0 0.001387 232.02281 785.50690
795.0 0.001258 231.98543 777.61865
747.0 0.001339 231.94815 743.80255
710.0 0.001408 231.91100 695.30743
615.0 0.001626 231.87395 644.66992
571.0 0.001751 231.83698 601.10358
571.0 0.001751 231.80016 569.90576
552.0 0.001812 231.76346 552.63934
536.0 0.001866 231.72682 547.90704
521.0 0.001919 231.69031 550.96149
538.0 0.001859 231.65390 554.82849
542.0 0.001845 231.61763 552.01410
511.0 0.001957 231.58145 538.09192
495.0 0.002020 231.54535 512.18866
473.0 0.002114 231.50940 478.87723
462.0 0.002165 231.47353 443.21704
432.0 0.002315 231.43779 409.26666
381.0 0.002625 231.40219 379.62613
353.0 0.002833 231.36662 355.68805
337.0 0.002967 231.33119 338.01364
318.0 0.003145 231.29585 326.59323
348.0 0.002874 231.26065 321.20679
343.0 0.002915 231.22554 322.05807
324.0 0.003086 231.19058 329.32910
337.0 0.002967 231.15567 343.81912
375.0 0.002667 231.12091 365.86749
412.0 0.002427 231.08620 396.34576
436.0 0.002294 231.05167 435.27411
467.0 0.002141 231.01720 481.58133
467.0 0.002141 230.98285 532.46802
525.0 0.001905 230.94858 583.34576
541.0 0.001848 230.91444 626.88068
635.0 0.001575 230.88042 654.37482
703.0 0.001422 230.84650 659.20251
648.0 0.001543 230.81265 641.32452
576.0 0.001736 230.77896 607.56744
569.0 0.001757 230.74535 568.59991
550.0 0.001818 230.71184 532.20020
521.0 0.001919 230.67850 502.96655
497.0 0.002012 230.64519 484.86575
477.0 0.002096 230.61194 477.03464
472.0 0.002119 230.57889 477.33890
481.0 0.002079 230.54594 481.22830
459.0 0.002179 230.51305 483.70837
476.0 0.002101 230.48032 478.58340
448.0 0.002232 230.44763 464.24634
457.0 0.002188 230.41508 442.46078
405.0 0.002469 230.38261 417.63068
403.0 0.002481 230.35028 393.49838
385.0 0.002597 230.31804 372.49808
368.0 0.002717 230.28592 357.30350
344.0 0.002907 230.25386 348.52521
394.0 0.002538 230.22197 346.43066
334.0 0.002994 230.19012 350.51590
384.0 0.002604 230.15843 360.24417
370.0 0.002703 230.12677 373.50302
385.0 0.002597 230.09529 388.20999
448.0 0.002232 230.06390 402.07516
434.0 0.002304 230.03259 412.90970
453.0 0.002208 230.00139 420.06274
474.0 0.002110 229.97031 424.68155
431.0 0.002320 229.93930 428.84763
459.0 0.002179 229.90843 434.11823
439.0 0.002278 229.87761 441.93018
475.0 0.002105 229.84695 449.09933
479.0 0.002088 229.81636 456.19290
443.0 0.002257 229.78587 458.03110
467.0 0.002141 229.75557 454.65823
468.0 0.002137 229.72528 449.24979
446.0 0.002242 229.69508 443.89420
451.0 0.002217 229.66501 438.38641
437.0 0.002288 229.63503 435.88834
453.0 0.002208 229.60518 438.42133
446.0 0.002242 229.57542 447.18558
448.0 0.002232 229.54575 462.60809
470.0 0.002128 229.51620 482.08029
489.0 0.002045 229.48672 503.93787
493.0 0.002028 229.45738 522.95251
523.0 0.001912 229.42815 535.15808
540.0 0.001852 229.39899 537.93762
539.0 0.001855 229.36989 529.73621
523.0 0.001912 229.34094 511.18344
483.0 0.002070 229.31210 487.35553
457.0 0.002188 229.28334 463.44992
453.0 0.002208 229.25470 443.46997
432.0 0.002315 229.22615 429.65378
427.0 0.002342 229.19769 422.58871
437.0 0.002288 229.16933 421.43765
446.0 0.002242 229.14110 424.15298
438.0 0.002283 229.11293 427.81433
438.0 0.002283 229.08485 428.68524
421.0 0.002375 229.05692 424.19077
410.0 0.002439 229.02907 413.74081
411.0 0.002433 229.00128 399.48605
397.0 0.002519 228.97368 383.15784
387.0 0.002584 228.94606 367.71097
352.0 0.002841 228.91862 354.90106
337.0 0.002967 228.89125 345.83752
320.0 0.003125 228.86400 341.07950
355.0 0.002817 228.83679 339.92407
382.0 0.002618 228.80966 344.21738
365.0 0.002740 228.78273 353.01779
395.0 0.002532 228.75587 366.28680
388.0 0.002577 228.72906 384.36517
431.0 0.002320 228.70239 407.50336
445.0 0.002247 228.67580 435.51141
472.0 0.002119 228.64934 466.84698
472.0 0.002119 228.62294 499.40472
553.0 0.001808 228.59663 529.80212
513.0 0.001949 228.57039 554.06244
564.0 0.001773 228.54433 568.81500
576.0 0.001736 228.51828 573.58118
619.0 0.001616 228.49240 570.91907
580.0 0.001724 228.46657 565.58954
607.0 0.001647 228.44083 562.02466
565.0 0.001770 228.41521 563.29376
591.0 0.001692 228.38969 571.27307
591.0 0.001692 228.36424 586.90350
659.0 0.001517 228.33887 609.97974
648.0 0.001543 228.31363 638.89758
670.0 0.001493 228.28850 671.06555
705.0 0.001418 228.26343 704.40485
743.0 0.001346 228.23846 739.78400
813.0 0.001230 228.21359 781.23022
868.0 0.001152 228.18880 835.73639
917.0 0.001091 228.16412 908.45007
997.0 0.001003 228.13953 1002.00287
1051.0 0.000951 228.11504 1114.37292
1131.0 0.000884 228.09058 1238.37402
1206.0 0.000829 228.06628 1361.18799
1301.0 0.000769 228.04205 1466.43994
1433.0 0.000698 228.01794 1539.30811
1560.0 0.000641 227.99390 1569.81409
1563.0 0.000640 227.96994 1559.50366
1538.0 0.000650 227.94608 1516.81030
1485.0 0.000673 227.92233 1452.91858
1392.0 0.000718 227.89865 1377.32666
1324.0 0.000755 227.87506 1298.71899
1224.0 0.000817 227.85158 1226.76892
1155.0 0.000866 227.82820 1168.14697
1100.0 0.000909 227.80482 1124.51843
1034.0 0.000967 227.78163 1092.18384
977.0 0.001024 227.75854 1063.72424
989.0 0.001011 227.73544 1030.83435
978.0 0.001022 227.71254 989.53217
927.0 0.001079 227.68965 939.44489
896.0 0.001116 227.66685 881.87115
832.0 0.001202 227.64423 820.32098
839.0 0.001192 227.62163 755.89624
749.0 0.001335 227.59911 692.19885
665.0 0.001504 227.57669 633.76373
588.0 0.001701 227.55434 585.00458
586.0 0.001706 227.53214 548.19519
532.0 0.001880 227.50996 524.21759
537.0 0.001862 227.48790 512.50299
496.0 0.002016 227.46591 511.05362
476.0 0.002101 227.44405 516.85547
536.0 0.001866 227.42221 526.15356
536.0 0.001866 227.40051 535.92853
566.0 0.001767 227.37888 542.22388
532.0 0.001880 227.35735 541.91809
520.0 0.001923 227.33588 533.74976
532.0 0.001880 227.31450 519.28467
523.0 0.001912 227.29324 502.12711
536.0 0.001866 227.27202 486.20499
497.0 0.002012 227.25093 472.95096
481.0 0.002079 227.22989 464.07196
455.0 0.002198 227.20897 459.83829
487.0 0.002053 227.18808 460.05963
466.0 0.002146 227.16728 464.25046
470.0 0.002128 227.14661 471.44476
511.0 0.001957 227.12605 480.22452
476.0 0.002101 227.10550 489.02792
456.0 0.002193 227.08502 496.82208
481.0 0.002079 227.06471 503.16479
490.0 0.002041 227.04445 507.89243
480.0 0.002083 227.02423 509.58191
491.0 0.002037 227.00417 505.72757
483.0 0.002070 226.98412 496.02631
464.0 0.002155 226.96422 481.13754
470.0 0.002128 226.94434 464.25592
439.0 0.002278 226.92461 449.11267
429.0 0.002331 226.90488 439.19168
407.0 0.002457 226.88525 436.64359
406.0 0.002463 226.86574 442.73682
408.0 0.002451 226.84628 457.74365
437.0 0.002288 226.82689 480.84796
477.0 0.002096 226.80762 509.97623
534.0 0.001873 226.78842 542.60333
605.0 0.001653 226.76929 574.76898
638.0 0.001567 226.75024 602.32886
677.0 0.001477 226.73129 622.17725
669.0 0.001495 226.71239 633.64532
643.0 0.001555 226.69359 638.66034
644.0 0.001553 226.67488 641.42401
645.0 0.001550 226.65622 645.51917
663.0 0.001508 226.63762 651.52570
676.0 0.001479 226.61917 661.21484
684.0 0.001462 226.60078 670.46228
672.0 0.001488 226.58241 681.52032
673.0 0.001486 226.56413 694.70905
683.0 0.001464 226.54597 711.37805
690.0 0.001449 226.52786 731.86890
730.0 0.001370 226.50986 757.53131
757.0 0.001321 226.49187 785.34924
795.0 0.001258 226.47403 812.47479
858.0 0.001166 226.45625 836.38867
906.0 0.001104 226.43849 853.78900
922.0 0.001085 226.42087 859.96906
906.0 0.001104 226.40327 852.44629
882.0 0.001134 226.38580 829.54913
814.0 0.001229 226.36839 796.61066
757.0 0.001321 226.35104 759.02832
688.0 0.001453 226.33377 721.98444
713.0 0.001403 226.31660 688.02948
676.0 0.001479 226.29945 659.51892
624.0 0.001603 226.28244 635.23425
603.0 0.001658 226.26544 614.76648
602.0 0.001661 226.24855 597.10199
604.0 0.001656 226.23174 580.56946
583.0 0.001715 226.21500 563.16705
575.0 0.001739 226.19832 543.55670
485.0 0.002062 226.18172 522.06061
484.0 0.002066 226.16518 500.43619
519.0 0.001927 226.14870 481.53531
458.0 0.002183 226.13232 466.23593
434.0 0.002304 226.11600 455.31369
490.0 0.002041 226.09976 448.74011
464.0 0.002155 226.08359 446.67978
417.0 0.002398 226.06750 448.39957
484.0 0.002066 226.05145 452.81735
504.0 0.001984 226.03551 458.04462
472.0 0.002119 226.01959 461.43427
473.0 0.002114 226.00380 460.74130
481.0 0.002079 225.98802 455.51321
442.0 0.002262 225.97235 447.24216
445.0 0.002247 225.95673 439.36514
414.0 0.002415 225.94121 434.94519
428.0 0.002336 225.92572 436.70792
441.0 0.002268 225.91034 447.01898
460.0 0.002174 225.89497 466.30862
512.0 0.001953 225.87971 493.98080
528.0 0.001894 225.86450 527.94641
582.0 0.001718 225.84937 564.48962
611.0 0.001637 225.83429 597.65759
626.0 0.001597 225.81929 621.91266
625.0 0.001600 225.80437 631.00043
653.0 0.001531 225.78952 622.73462
644.0 0.001553 225.77473 599.86475
585.0 0.001709 225.75998 568.63391
542.0 0.001845 225.74527 535.80225
498.0 0.002008 225.73071 506.67090
447.0 0.002237 225.71616 484.50894
438.0 0.002283 225.70168 470.69730
452.0 0.002212 225.68727 465.08133
452.0 0.002212 225.67296 465.42953
476.0 0.002101 225.65871 468.52325
505.0 0.001980 225.64444 470.89523
507.0 0.001972 225.63031 468.38849
502.0 0.001992 225.61621 460.29648
456.0 0.002193 225.60216 447.12039
443.0 0.002257 225.58823 432.04001
422.0 0.002370 225.57434 417.27069
407.0 0.002457 225.56049 405.64853
372.0 0.002688 225.54672 398.17862
376.0 0.002660 225.53300 396.27396
406.0 0.002463 225.51933 399.07684
403.0 0.002481 225.50575 405.23914
438.0 0.002283 225.49225 412.67786
433.0 0.002309 225.47876 419.05164
473.0 0.002114 225.46536 422.73642
445.0 0.002247 225.45201 423.32858
435.0 0.002299 225.43872 421.82300
452.0 0.002212 225.42551 419.81372
402.0 0.002488 225.41235 418.19290
412.0 0.002427 225.39922 418.42038
419.0 0.002387 225.38620 421.71680
406.0 0.002463 225.37320 428.96814
406.0 0.002463 225.36029 440.27118
431.0 0.002320 225.34741 454.61310
438.0 0.002283 225.33459 469.82391
510.0 0.001961 225.32185 482.95776
529.0 0.001890 225.30916 491.33884
512.0 0.001953 225.29652 493.73605
516.0 0.001938 225.28394 490.60403
521.0 0.001919 225.27139 483.34335
472.0 0.002119 225.25896 473.76001
484.0 0.002066 225.24652 464.10922
462.0 0.002165 225.23416 456.98419
427.0 0.002342 225.22188 454.70914
426.0 0.002347 225.20964 458.70090
475.0 0.002105 225.19743 469.12994
493.0 0.002028 225.18529 484.90399
462.0 0.002165 225.17323 503.75031
532.0 0.001880 225.16119 522.56024
558.0 0.001792 225.14925 538.01434
568.0 0.001761 225.13728 547.25757
559.0 0.001789 225.12546 548.86627
563.0 0.001776 225.11362 542.89642
523.0 0.001912 225.10190 532.85925
482.0 0.002075 225.09016 522.50372
494.0 0.002024 225.07852 515.02411
486.0 0.002058 225.06694 511.95535
501.0 0.001996 225.05537 514.87195
498.0 0.002008 225.04387 521.33545
533.0 0.001876 225.03244 528.28845
569.0 0.001757 225.02109 532.17706
541.0 0.001848 225.00974 530.22125
537.0 0.001862 224.99846 521.51886
504.0 0.001984 224.98720 507.09912
466.0 0.002146 224.97600 488.39392
453.0 0.002208 224.96487 467.97318
420.0 0.002381 224.95377 447.85593
423.0 0.002364 224.94273 429.68765
436.0 0.002294 224.93175 414.23560
410.0 0.002439 224.92082 402.19592
401.0 0.002494 224.90991 393.11935
412.0 0.002427 224.89906 385.83243
397.0 0.002519 224.88828 378.95374
388.0 0.002577 224.87755 371.43835
378.0 0.002646 224.86684 363.21124
359.0 0.002786 224.85617 354.93256
345.0 0.002899 224.84557 347.43146
337.0 0.002967 224.83502 341.29462
344.0 0.002907 224.82454 336.76495
318.0 0.003145 224.81406 333.85468
313.0 0.003195 224.80363 332.43839
354.0 0.002825 224.79323 332.28415
366.0 0.002732 224.78293 334.87482
357.0 0.002801 224.77263 340.27020
366.0 0.002732 224.76244 349.13718
368.0 0.002717 224.75223 361.98251
360.0 0.002778 224.74208 378.98535
372.0 0.002688 224.73199 399.85184
370.0 0.002703 224.72191 423.70718
396.0 0.002525 224.71193 449.23160
470.0 0.002128 224.70192 475.08542
469.0 0.002132 224.69200 500.32828
525.0 0.001905 224.68211 524.12524
516.0 0.001938 224.67227 545.13123
553.0 0.001808 224.66245 561.88354
546.0 0.001832 224.65273 571.63269
583.0 0.001715 224.64297 572.41711
550.0 0.001818 224.63333 563.34540
565.0 0.001770 224.62367 546.16077
522.0 0.001916 224.61412 524.53674
505.0 0.001980 224.60452 501.61728
453.0 0.002208 224.59503 480.28104
382.0 0.002618 224.58556 461.99057
424.0 0.002358 224.57613 447.40787
447.0 0.002237 224.56674 436.57544
400.0 0.002500 224.55742 428.82129
388.0 0.002577 224.54810 423.11639
398.0 0.002513 224.53882 417.40610
386.0 0.002591 224.52956 409.70026
420.0 0.002381 224.52037 398.52374
406.0 0.002463 224.51120 383.67984
358.0 0.002793 224.50209 366.25708
345.0 0.002899 224.49303 347.61557
334.0 0.002994 224.48396 329.41751
308.0 0.003247 224.47493 312.76010
286.0 0.003497 224.46597 298.29611
278.0 0.00360 224.45705 286.31296
281.0 0.00356 224.44814 276.55588
286.0 0.003497 224.43929 269.62375
279.0 0.00358 224.43045 264.69382
280.0 0.00357 224.42168 261.68820
269.0 0.00372 224.41290 260.23306
260.0 0.00385 224.40417 260.59171
263.0 0.00380 224.39551 262.41220
283.0 0.00353 224.38686 265.73590
264.0 0.00379 224.37823 270.55447
280.0 0.00357 224.36964 276.82935
289.0 0.003460 224.36108 284.43900
281.0 0.00356 224.35260 293.13843
292.0 0.003425 224.34410 302.38544
303.0 0.003300 224.33565 311.61182
303.0 0.003300 224.32721 319.84216
317.0 0.003155 224.31885 325.53568
315.0 0.003175 224.31047 328.17505
319.0 0.003135 224.30217 327.64594
309.0 0.003236 224.29385 324.68771
324.0 0.003086 224.28564 320.38162
315.0 0.003175 224.27736 315.83582
332.0 0.003012 224.26920 311.86227
315.0 0.003175 224.26100 308.89716
325.0 0.003077 224.25288 307.02170
290.0 0.003448 224.24480 305.73682
312.0 0.003205 224.23671 305.01245
310.0 0.003226 224.22867 304.14331
297.0 0.003367 224.22063 302.39243
320.0 0.003125 224.21263 299.77271
297.0 0.003367 224.20468 295.82446
337.0 0.002967 224.19676 290.80603
325.0 0.003077 224.18884 285.15839
313.0 0.003195 224.18097 279.48593
332.0 0.003012 224.17308 274.34018
319.0 0.003135 224.16528 269.55792
329.0 0.003040 224.15749 265.43906
282.0 0.00355 224.14975 261.72928
317.0 0.003155 224.14198 258.65234
294.0 0.003401 224.13428 255.84256
259.0 0.00386 224.12659 253.30351
278.0 0.00360 224.11891 251.04247
281.0 0.00356 224.11125 249.12067
257.0 0.00389 224.10368 247.58752
280.0 0.00357 224.09608 246.43018
280.0 0.00357 224.08853 245.73546
280.0 0.00357 224.08096 245.47629
263.0 0.00380 224.07347 246.00206
260.0 0.00385 224.06596 246.92984
293.0 0.003413 224.05852 248.60994
295.0 0.003390 224.05107 251.21230
290.0 0.003448 224.04364 254.99254
289.0 0.003460 224.03622 260.25812
307.0 0.003257 224.02885 267.35226
319.0 0.003135 224.02151 276.60989
327.0 0.003058 224.01418 288.12982
319.0 0.003135 224.00688 302.39014
324.0 0.003086 223.99957 319.07843
342.0 0.002924 223.99232 337.68771
351.0 0.002849 223.98506 357.20462
347.0 0.002882 223.97784 376.55923
362.0 0.002762 223.97066 393.92007
376.0 0.002660 223.96346 406.89130
364.0 0.002747 223.95630 414.85840
388.0 0.002577 223.94916 416.39865
427.0 0.002342 223.94202 411.57980
419.0 0.002387 223.93494 401.81662
408.0 0.002451 223.92786 389.41165
404.0 0.002475 223.92076 376.70029
384.0 0.002604 223.91377 365.73334
376.0 0.002660 223.90671 357.71988
372.0 0.002688 223.89967 353.07990
328.0 0.003049 223.89270 351.78314
337.0 0.002967 223.88571 353.11185
347.0 0.002882 223.87877 355.91293
338.0 0.002959 223.87183 359.39807
351.0 0.002849 223.86490 362.38739
347.0 0.002882 223.85797 364.79694
355.0 0.002817 223.85110 365.38666
347.0 0.002882 223.84419 365.26483
360.0 0.002778 223.83731 365.14658
370.0 0.002703 223.83052 365.41415
365.0 0.002740 223.82365 366.13867
349.0 0.002865 223.81689 366.75592
338.0 0.002959 223.81007 366.44058
311.0 0.003215 223.80328 364.60599
317.0 0.003155 223.79652 361.40918
349.0 0.002865 223.78978 357.08945
341.0 0.002933 223.78300 352.51660
336.0 0.002976 223.77629 348.46594
352.0 0.002841 223.76956 346.11224
320.0 0.003125 223.76286 345.54370
334.0 0.002994 223.75620 347.64908
368.0 0.002717 223.74950 352.47705
360.0 0.002778 223.74281 359.59335
372.0 0.002688 223.73619 368.00092
342.0 0.002924 223.72954 376.24030
369.0 0.002710 223.72292 382.56726
431.0 0.002320 223.71628 385.53049
408.0 0.002451 223.70967 385.15781
364.0 0.002747 223.70308 381.85413
397.0 0.002519 223.69650 377.00150
383.0 0.002611 223.68990 372.06216
373.0 0.002681 223.68333 368.21704
360.0 0.002778 223.67682 366.20001
377.0 0.002653 223.67026 366.37729
345.0 0.002899 223.66368 368.61603
365.0 0.002740 223.65718 372.74734
375.0 0.002667 223.65067 377.59335
364.0 0.002747 223.64415 382.96579
408.0 0.002451 223.63765 388.37000
410.0 0.002439 223.63116 393.64789
421.0 0.002375 223.62469 398.46140
392.0 0.002551 223.61819 402.58087
371.0 0.002695 223.61172 405.57617
365.0 0.002740 223.60527 406.97598
383.0 0.002611 223.59883 405.43631
405.0 0.002469 223.59233 400.89255
405.0 0.002469 223.58592 393.88406
389.0 0.002571 223.57948 385.57739
385.0 0.002597 223.57306 377.95007
375.0 0.002667 223.56664 370.87390
369.0 0.002710 223.56021 365.81409
372.0 0.002688 223.55379 363.29077
340.0 0.002941 223.54741 363.43802
362.0 0.002762 223.54097 365.80176
388.0 0.002577 223.53459 369.51581
386.0 0.002591 223.52817 373.19852
373.0 0.002681 223.52180 375.32602
365.0 0.002740 223.51540 374.25333
384.0 0.002604 223.50902 369.63638
381.0 0.002625 223.50267 362.16440
386.0 0.002591 223.49628 353.30731
373.0 0.002681 223.48991 344.90503
335.0 0.002985 223.48352 337.88687
319.0 0.003135 223.47716 333.47119
346.0 0.002890 223.47083 332.29288
338.0 0.002959 223.46445 334.65900
348.0 0.002874 223.45805 340.48383
358.0 0.002793 223.45174 349.38461
395.0 0.002532 223.44534 360.61682
378.0 0.002646 223.43903 373.37070
405.0 0.002469 223.43265 386.04391
418.0 0.002392 223.42630 397.84375
426.0 0.002347 223.41995 408.64752
409.0 0.002445 223.41360 418.52081
408.0 0.002451 223.40724 427.56421
426.0 0.002347 223.40091 436.40961
445.0 0.002247 223.39452 445.00616
435.0 0.002299 223.38814 452.84998
452.0 0.002212 223.38181 461.04163
478.0 0.002092 223.37546 471.09213
492.0 0.002033 223.36911 484.61005
553.0 0.001808 223.36273 502.58954
508.0 0.001969 223.35638 525.07117
536.0 0.001866 223.35001 550.54248
558.0 0.001792 223.34367 576.55426
577.0 0.001733 223.33728 599.70313
589.0 0.001698 223.33092 615.94556
565.0 0.001770 223.32454 622.62433
615.0 0.001626 223.31818 618.90198
609.0 0.001642 223.31177 606.69086
587.0 0.001704 223.30542 589.19849
603.0 0.001658 223.29904 569.79004
544.0 0.001838 223.29265 551.84674
521.0 0.001919 223.28622 537.39050
526.0 0.001901 223.27982 527.64935
533.0 0.001876 223.27342 522.11761
490.0 0.002041 223.26704 519.49243
497.0 0.002012 223.26060 517.91113
522.0 0.001916 223.25420 515.54791
516.0 0.001938 223.24777 510.68839
518.0 0.001931 223.24138 501.44745
480.0 0.002083 223.23489 487.87296
470.0 0.002128 223.22849 471.16522
444.0 0.002252 223.22202 453.43759
446.0 0.002242 223.21558 436.49564
432.0 0.002315 223.20909 421.99670
415.0 0.002410 223.20265 410.84723
398.0 0.002513 223.19615 403.54764
410.0 0.002439 223.18968 400.47693
404.0 0.002475 223.18321 401.35675
424.0 0.002358 223.17674 405.93948
452.0 0.002212 223.17023 414.04608
427.0 0.002342 223.16368 425.40265
447.0 0.002237 223.15720 439.12399
457.0 0.002188 223.15067 454.34283
468.0 0.002137 223.14413 469.64908
474.0 0.002110 223.13757 483.36258
480.0 0.002083 223.13104 494.39438
512.0 0.001953 223.12447 502.49783
497.0 0.002012 223.11790 508.95886
485.0 0.002062 223.11133 515.73029
461.0 0.002169 223.10472 524.86066
497.0 0.002012 223.09810 537.33008
512.0 0.001953 223.09154 553.00995
490.0 0.002041 223.08490 570.80872
500.0 0.002000 223.07828 588.93048
583.0 0.001715 223.07161 606.22693
651.0 0.001536 223.06496 620.88507
660.0 0.001515 223.05829 631.03601
653.0 0.001531 223.05164 634.02271
688.0 0.001453 223.04491 629.01440
631.0 0.001585 223.03822 614.14459
610.0 0.001639 223.03152 592.52844
560.0 0.001786 223.02478 567.56171
499.0 0.002004 223.01804 542.49774
466.0 0.002146 223.01128 519.88293
433.0 0.002309 223.00453 500.73288
460.0 0.002174 222.99774 485.60126
458.0 0.002183 222.99098 474.68082
408.0 0.002451 222.98416 466.72861
429.0 0.002331 222.97733 461.58621
449.0 0.002227 222.97055 458.56003
463.0 0.002160 222.96373 456.63058
418.0 0.002392 222.95682 455.40329
471.0 0.002123 222.94998 453.67035
455.0 0.002198 222.94307 452.25787
458.0 0.002183 222.93619 451.90149
423.0 0.002364 222.92928 453.61218
446.0 0.002242 222.92236 456.55649
429.0 0.002331 222.91539 460.45557
463.0 0.002160 222.90845 464.38412
458.0 0.002183 222.90146 467.36157
472.0 0.002119 222.89452 469.40479
483.0 0.002070 222.88747 470.40930
474.0 0.002110 222.88046 471.09238
466.0 0.002146 222.87341 471.57425
495.0 0.002020 222.86636 471.30460
478.0 0.002092 222.85930 469.28793
492.0 0.002033 222.85222 464.80405
466.0 0.002146 222.84511 459.10315
460.0 0.002174 222.83801 451.97992
443.0 0.002257 222.83084 445.05289
419.0 0.002387 222.82370 439.60300
421.0 0.002375 222.81656 437.56525
389.0 0.002571 222.80934 436.14551
384.0 0.002604 222.80214 436.66946
404.0 0.002475 222.79492 439.25668
419.0 0.002387 222.78764 443.73438
440.0 0.002273 222.78043 449.08783
473.0 0.002114 222.77315 455.14468
494.0 0.002024 222.76581 459.73117
502.0 0.001992 222.75856 461.31400
503.0 0.001988 222.75117 459.65808
482.0 0.002075 222.74382 454.58487
433.0 0.002309 222.73643 447.98602
417.0 0.002398 222.72906 441.60950
421.0 0.002375 222.72166 437.11096
433.0 0.002309 222.71422 434.87363
446.0 0.002242 222.70676 433.85294
467.0 0.002141 222.69931 433.63812
444.0 0.002252 222.69179 432.84964
435.0 0.002299 222.68431 429.87311
402.0 0.002488 222.67671 424.85864
397.0 0.002519 222.66922 417.51407
400.0 0.002500 222.66161 408.35562
381.0 0.002625 222.65405 398.20157
385.0 0.002597 222.64639 387.64975
371.0 0.002695 222.63878 377.61258
357.0 0.002801 222.63113 368.93042
342.0 0.002924 222.62341 362.11505
353.0 0.002833 222.61569 357.45764
364.0 0.002747 222.60800 354.53964
361.0 0.002770 222.60025 352.94077
360.0 0.002778 222.59248 351.94147
335.0 0.002985 222.58469 350.86035
333.0 0.003003 222.57689 349.48651
389.0 0.002571 222.56905 348.08432
329.0 0.003040 222.56116 347.45627
345.0 0.002899 222.55328 348.21375
332.0 0.003012 222.54538 352.32007
332.0 0.003012 222.53748 360.27136
340.0 0.002941 222.52950 373.27634
405.0 0.002469 222.52155 392.28909
399.0 0.002506 222.51353 418.09592
423.0 0.002364 222.50548 451.17731
487.0 0.002053 222.49744 491.54092
551.0 0.001815 222.48940 538.33258
604.0 0.001656 222.48126 590.68213
671.0 0.001490 222.47319 646.41290
789.0 0.001267 222.46498 701.35376
871.0 0.001148 222.45685 751.64349
909.0 0.001100 222.44865 792.41266
867.0 0.001153 222.44046 822.23248
864.0 0.001157 222.43219 840.71399
895.0 0.001117 222.42393 850.79382
854.0 0.001171 222.41565 856.65472
838.0 0.001193 222.40732 861.97974
782.0 0.001279 222.39894 868.89380
824.0 0.001214 222.39061 877.96582
892.0 0.001121 222.38220 888.84100
951.0 0.001052 222.37378 898.88947
916.0 0.001092 222.36533 907.15649
926.0 0.001080 222.35684 913.38623
975.0 0.001026 222.34840 917.34509
978.0 0.001022 222.33981 918.91321
921.0 0.001086 222.33127 917.83386
891.0 0.001122 222.32269 912.99182
872.0 0.001147 222.31412 903.98615
846.0 0.001182 222.30547 891.18359
844.0 0.001185 222.29681 875.93890
821.0 0.001218 222.28813 860.68976
806.0 0.001241 222.27942 848.24274
776.0 0.001289 222.27066 841.33899
768.0 0.001302 222.26190 843.24005
754.0 0.001326 222.25308 854.17609
763.0 0.001311 222.24426 875.87787
853.0 0.001172 222.23543 909.25354
915.0 0.001093 222.22653 954.27087
952.0 0.001050 222.21765 1009.17377
1034.0 0.000967 222.20869 1069.73706
1146.0 0.000873 222.19972 1130.80725
1210.0 0.000826 222.19075 1185.70239
1247.0 0.000802 222.18173 1228.74805
1285.0 0.000778 222.17268 1255.87964
1282.0 0.000780 222.16360 1263.01550
1303.0 0.000767 222.15450 1248.39990
1314.0 0.000761 222.14532 1213.66089
1175.0 0.000851 222.13618 1164.15405
1117.0 0.000895 222.12701 1107.71790
996.0 0.001004 222.11778 1052.56580
958.0 0.001044 222.10854 1004.99591
900.0 0.001111 222.09926 968.82220
900.0 0.001111 222.08995 945.26862
912.0 0.001096 222.08061 933.55170
823.0 0.001215 222.07121 931.23663
999.0 0.001001 222.06183 934.20007
955.0 0.001047 222.05241 937.86462
1001.0 0.000999 222.04294 937.35791
963.0 0.001038 222.03346 927.43073
938.0 0.001066 222.02391 904.90479
832.0 0.001202 222.01439 869.52563
836.0 0.001196 222.00479 824.81256
749.0 0.001335 221.99518 773.95428
675.0 0.001481 221.98553 722.42023
633.0 0.001580 221.97589 672.94769
593.0 0.001686 221.96617 627.70667
550.0 0.001818 221.95647 587.56030
544.0 0.001838 221.94667 553.17413
513.0 0.001949 221.93689 524.37518
469.0 0.002132 221.92706 501.42264
470.0 0.002128 221.91721 482.10992
472.0 0.002119 221.90732 466.08075
459.0 0.002179 221.89742 452.27335
417.0 0.002398 221.88748 439.98087
399.0 0.002506 221.87746 429.06424
394.0 0.002538 221.86746 419.99600
398.0 0.002513 221.85741 413.02670
385.0 0.002597 221.84734 408.33066
380.0 0.002632 221.83723 405.97937
378.0 0.002646 221.82709 405.87634
387.0 0.002584 221.81693 407.69092
410.0 0.002439 221.80670 411.19202
444.0 0.002252 221.79648 416.30881
442.0 0.002262 221.78619 423.56503
432.0 0.002315 221.77589 432.34390
432.0 0.002315 221.76555 443.03760
454.0 0.002203 221.75520 455.24390
489.0 0.002045 221.74483 468.06937
515.0 0.001942 221.73441 480.21396
520.0 0.001923 221.72395 490.33337
528.0 0.001894 221.71341 497.68326
533.0 0.001876 221.70291 502.46667
515.0 0.001942 221.69232 506.31384
500.0 0.002000 221.68173 510.23730
517.0 0.001934 221.67110 517.78406
530.0 0.001887 221.66048 529.04150
514.0 0.001946 221.64975 544.38080
487.0 0.002053 221.63904 562.86926
541.0 0.001848 221.62831 582.91119
510.0 0.001961 221.61749 602.31506
545.0 0.001835 221.60667 617.77179
578.0 0.001730 221.59581 625.66943
574.0 0.001742 221.58495 625.68384
589.0 0.001698 221.57399 617.48468
623.0 0.001605 221.56308 603.13135
644.0 0.001553 221.55205 585.79376
611.0 0.001637 221.54108 568.12061
514.0 0.001946 221.52994 553.76422
498.0 0.002008 221.51888 544.04504
541.0 0.001848 221.50774 539.73718
560.0 0.001786 221.49661 540.22815
540.0 0.001852 221.48538 545.10205
497.0 0.002012 221.47420 552.35657
567.0 0.001764 221.46289 559.63269
516.0 0.001938 221.45163 564.64227
538.0 0.001859 221.44028 565.35931
551.0 0.001815 221.42892 561.94360
535.0 0.001869 221.41753 555.06543
562.0 0.001779 221.40610 546.65057
559.0 0.001789 221.39465 538.66730
550.0 0.001818 221.38315 532.45874
516.0 0.001938 221.37158 528.44769
535.0 0.001869 221.36003 525.41638
555.0 0.001802 221.34842 523.56781
583.0 0.001715 221.33681 520.45605
539.0 0.001855 221.32515 514.82086
554.0 0.001805 221.31345 504.87067
474.0 0.002110 221.30170 494.37701
501.0 0.001996 221.28990 483.00656
503.0 0.001988 221.27812 472.23422
486.0 0.002058 221.26625 463.51791
476.0 0.002101 221.25436 458.18701
467.0 0.002141 221.24248 457.77661
514.0 0.001946 221.23056 463.19208
534.0 0.001873 221.21855 474.98984
514.0 0.001946 221.20654 492.80402
537.0 0.001862 221.19450 516.72412
565.0 0.001770 221.18239 545.33435
594.0 0.001684 221.17030 576.70325
597.0 0.001675 221.15811 608.70581
624.0 0.001603 221.14590 639.44794
662.0 0.001511 221.13368 668.09271
665.0 0.001504 221.12141 692.08386
687.0 0.001456 221.10916 710.34296
737.0 0.001357 221.09680 723.07489
759.0 0.001318 221.08446 731.69836
735.0 0.001361 221.07204 738.30408
743.0 0.001346 221.05962 744.64624
734.0 0.001362 221.04716 751.37244
734.0 0.001362 221.03465 757.88043
724.0 0.001381 221.02208 762.31683
746.0 0.001340 221.00955 762.32574
725.0 0.001379 220.99692 757.04901
726.0 0.001377 220.98425 746.81244
717.0 0.001395 220.97160 732.93988
699.0 0.001431 220.95889 716.73761
682.0 0.001466 220.94614 698.70905
661.0 0.001513 220.93333 679.10675
648.0 0.001543 220.92055 658.25787
607.0 0.001647 220.90767 636.99860
561.0 0.001783 220.89481 616.48810
555.0 0.001802 220.88185 597.80310
521.0 0.001919 220.86890 581.17834
625.0 0.001600 220.85588 566.49573
537.0 0.001862 220.84290 552.88580
540.0 0.001852 220.82979 538.15570
475.0 0.002105 220.81670 522.08191
472.0 0.002119 220.80357 504.92004
472.0 0.002119 220.79037 487.33643
482.0 0.002075 220.77718 470.39505
416.0 0.002404 220.76398 454.80002
438.0 0.002283 220.75066 440.31116
435.0 0.002299 220.73738 427.72452
437.0 0.002288 220.72401 416.46332
405.0 0.002469 220.71065 406.38672
392.0 0.002551 220.69724 397.30960
374.0 0.002674 220.68375 388.83987
402.0 0.002488 220.67027 380.54907
370.0 0.002703 220.65674 371.93619
347.0 0.002882 220.64322 362.98669
353.0 0.002833 220.62962 353.67645
333.0 0.003003 220.61598 344.67361
349.0 0.002865 220.60233 335.97925
339.0 0.002950 220.58864 329.20499
327.0 0.003058 220.57491 324.02316
321.0 0.003115 220.56117 320.32343
306.0 0.003268 220.54733 318.49500
303.0 0.003300 220.53348 318.98486
299.0 0.003344 220.51962 320.02512
321.0 0.003115 220.50572 322.17825
346.0 0.002890 220.49178 325.13864
341.0 0.002933 220.47781 328.54144
328.0 0.003049 220.46378 332.15982
322.0 0.003106 220.44975 335.45267
318.0 0.003145 220.43565 338.78653
325.0 0.003077 220.42155 342.48923
342.0 0.002924 220.40738 346.23798
355.0 0.002817 220.39323 351.81815
368.0 0.002717 220.37900 359.04843
375.0 0.002667 220.36475 368.13470
376.0 0.002660 220.35045 379.57568
389.0 0.002571 220.33612 391.43661
418.0 0.002392 220.32181 403.74673
405.0 0.002469 220.30737 414.25232
403.0 0.002481 220.29298 421.72806
411.0 0.002433 220.27852 424.81778
424.0 0.002358 220.26402 422.65338
416.0 0.002404 220.24948 416.34943
393.0 0.002545 220.23494 406.81760
403.0 0.002481 220.22029 395.70255
408.0 0.002451 220.20569 384.91232
375.0 0.002667 220.19101 374.57993
372.0 0.002688 220.17633 366.31406
361.0 0.002770 220.16159 360.53900
373.0 0.002681 220.14682 357.60181
381.0 0.002625 220.13202 357.79022
404.0 0.002475 220.11719 360.11392
360.0 0.002778 220.10231 364.46646
358.0 0.002793 220.08740 370.03247
393.0 0.002545 220.07243 376.20822
395.0 0.002532 220.05751 382.72906
449.0 0.002227 220.04247 390.21115
450.0 0.002222 220.02744 399.23935
398.0 0.002513 220.01241 410.63983
381.0 0.002625 219.99728 424.55685
405.0 0.002469 219.98213 442.72675
467.0 0.002141 219.96698 463.59457
436.0 0.002294 219.95172 486.88831
458.0 0.002183 219.93651 510.98267
475.0 0.002105 219.92125 533.72247
526.0 0.001901 219.90593 552.77087
556.0 0.001799 219.89056 566.00061
599.0 0.001669 219.87520 571.55756
574.0 0.001742 219.85980 570.94946
560.0 0.001786 219.84436 564.57928
539.0 0.001855 219.82890 554.31268
493.0 0.002028 219.81337 542.19586
498.0 0.002008 219.79784 530.33344
484.0 0.002066 219.78229 520.27814
479.0 0.002088 219.76668 513.88898
492.0 0.002033 219.75104 511.90268
501.0 0.001996 219.73537 514.34210
508.0 0.001969 219.71967 520.34302
480.0 0.002083 219.70393 528.31403
508.0 0.001969 219.68813 535.94196
500.0 0.002000 219.67236 540.75439
535.0 0.001869 219.65651 540.25098
591.0 0.001692 219.64069 534.22058
565.0 0.001770 219.62479 522.51031
515.0 0.001942 219.60883 506.38611
495.0 0.002020 219.59291 487.75278
477.0 0.002096 219.57689 468.35077
450.0 0.002222 219.56084 450.00873
450.0 0.002222 219.54482 434.21173
440.0 0.002273 219.52872 422.22479
432.0 0.002315 219.51259 415.00677
421.0 0.002375 219.49643 413.27771
441.0 0.002268 219.48029 416.84769
481.0 0.002079 219.46407 425.79260
473.0 0.002114 219.44778 439.62131
484.0 0.002066 219.43152 457.99637
509.0 0.001965 219.41521 480.13657
530.0 0.001887 219.39888 505.31775
524.0 0.001908 219.38255 532.75507
514.0 0.001946 219.36609 561.71521
580.0 0.001724 219.34972 590.83606
587.0 0.001704 219.33324 618.65674
577.0 0.001733 219.31674 642.68555
613.0 0.001631 219.30025 660.92371
640.0 0.001563 219.28365 672.18250
667.0 0.001499 219.26706 676.70966
684.0 0.001462 219.25044 676.54956
707.0 0.001414 219.23381 674.22089
705.0 0.001418 219.21716 672.36597
717.0 0.001395 219.20045 673.06232
673.0 0.001486 219.18372 677.29651
666.0 0.001502 219.16693 685.53320
645.0 0.001550 219.15013 697.53253
666.0 0.001502 219.13332 712.18469
715.0 0.001399 219.11646 727.90369
611.0 0.001637 219.09959 741.77905
649.0 0.001541 219.08267 750.83514
667.0 0.001499 219.06570 751.89661
693.0 0.001443 219.04875 743.33325
727.0 0.001376 219.03174 725.33887
731.0 0.001368 219.01472 700.00592
666.0 0.001502 218.99763 669.86700
629.0 0.001590 218.98058 638.57458
564.0 0.001773 218.96347 608.32343
578.0 0.001730 218.94630 580.78943
529.0 0.001890 218.92917 557.17511
484.0 0.002066 218.91196 538.22211
503.0 0.001988 218.89470 524.24835
519.0 0.001927 218.87747 515.42108
482.0 0.002075 218.86014 510.83264
480.0 0.002083 218.84286 509.93463
470.0 0.002128 218.82550 512.01654
500.0 0.002000 218.80811 516.62231
482.0 0.002075 218.79076 523.88422
560.0 0.001786 218.77335 534.51782
571.0 0.001751 218.75589 549.20972
553.0 0.001808 218.73839 569.14508
556.0 0.001799 218.72090 593.70526
635.0 0.001575 218.70337 622.41608
653.0 0.001531 218.68581 653.81097
659.0 0.001517 218.66823 685.35010
713.0 0.001403 218.65062 713.81311
746.0 0.001340 218.63295 735.51019
730.0 0.001370 218.61530 747.44348
722.0 0.001385 218.59760 748.53607
703.0 0.001422 218.57986 739.67810
705.0 0.001418 218.56209 723.11005
705.0 0.001418 218.54436 702.68634
675.0 0.001481 218.52658 680.87152
652.0 0.001534 218.50873 660.40442
623.0 0.001605 218.49091 642.50281
645.0 0.001550 218.47301 627.94672
636.0 0.001572 218.45512 617.37024
610.0 0.001639 218.43723 610.80927
598.0 0.001672 218.41925 607.77661
591.0 0.001692 218.40126 607.12787
600.0 0.001667 218.38326 607.02441
653.0 0.001531 218.36520 605.28394
659.0 0.001517 218.34717 599.94482
606.0 0.001650 218.32913 589.81683
582.0 0.001718 218.31100 574.89587
563.0 0.001776 218.29288 555.55823
566.0 0.001767 218.27473 532.91913
532.0 0.001880 218.25659 509.08813
513.0 0.001949 218.23837 484.80682
467.0 0.002141 218.22014 461.14554
463.0 0.002160 218.20190 438.74857
442.0 0.002262 218.18365 418.48328
405.0 0.002469 218.16536 400.77185
390.0 0.002564 218.14705 385.88538
371.0 0.002695 218.12872 373.98712
353.0 0.002833 218.11037 364.92569
342.0 0.002924 218.09196 358.42575
350.0 0.002857 218.07358 354.04333
370.0 0.002703 218.05513 351.24887
354.0 0.002825 218.03670 349.57852
361.0 0.002770 218.01822 348.69934
348.0 0.002874 217.99973 348.40732
380.0 0.002632 217.98123 349.15790
364.0 0.002747 217.96268 351.05789
389.0 0.002571 217.94414 354.23770
412.0 0.002427 217.92554 359.13391
340.0 0.002941 217.90692 365.14078
400.0 0.002500 217.88834 372.32437
371.0 0.002695 217.86972 380.50488
346.0 0.002890 217.85104 388.61569
375.0 0.002667 217.83232 397.88138
421.0 0.002375 217.81361 406.79926
416.0 0.002404 217.79491 414.55096
402.0 0.002488 217.77615 420.42276
437.0 0.002288 217.75740 423.92798
441.0 0.002268 217.73857 425.59207
434.0 0.002304 217.71980 425.90286
457.0 0.002188 217.70097 425.76981
436.0 0.002294 217.68210 425.63794
436.0 0.002294 217.66325 425.82278
445.0 0.002247 217.64436 426.43140
444.0 0.002252 217.62547 426.86517
479.0 0.002088 217.60657 426.10739
425.0 0.002353 217.58760 425.22873
412.0 0.002427 217.56866 423.07925
434.0 0.002304 217.54968 420.72171
439.0 0.002278 217.53065 418.10391
410.0 0.002439 217.51166 415.51883
403.0 0.002481 217.49265 413.10226
402.0 0.002488 217.47359 411.03885
401.0 0.002494 217.45451 409.62167
405.0 0.002469 217.43539 408.95584
414.0 0.002415 217.41631 409.22015
435.0 0.002299 217.39719 410.00272
431.0 0.002320 217.37807 410.96570
450.0 0.002222 217.35889 411.52930
442.0 0.002262 217.33972 411.16165
428.0 0.002336 217.32054 409.82306
441.0 0.002268 217.30132 407.21445
418.0 0.002392 217.28210 404.12515
427.0 0.002342 217.26285 401.38553
394.0 0.002538 217.24359 399.89069
381.0 0.002625 217.22438 400.41885
406.0 0.002463 217.20506 403.55542
402.0 0.002488 217.18578 409.61816
428.0 0.002336 217.16643 418.67432
466.0 0.002146 217.14709 430.61084
456.0 0.002193 217.12779 444.38367
469.0 0.002132 217.10843 459.16678
471.0 0.002123 217.08907 473.68729
531.0 0.001883 217.06966 486.48740
530.0 0.001887 217.05025 496.73926
518.0 0.001931 217.03084 504.33002
508.0 0.001969 217.01140 509.81863
511.0 0.001957 216.99194 513.98749
492.0 0.002033 216.97247 517.71429
473.0 0.002114 216.95302 521.63953
518.0 0.001931 216.93355 525.47260
468.0 0.002137 216.91406 529.46906
522.0 0.001916 216.89453 533.89050
522.0 0.001916 216.87500 539.62207
568.0 0.001761 216.85547 546.76660
542.0 0.001845 216.83595 556.08588
577.0 0.001733 216.81633 567.16040
577.0 0.001733 216.79680 578.64355
615.0 0.001626 216.77718 590.52142
619.0 0.001616 216.75755 600.20569
603.0 0.001658 216.73801 606.01184
634.0 0.001577 216.71837 606.96741
610.0 0.001639 216.69876 602.38324
642.0 0.001558 216.67909 592.95093
576.0 0.001736 216.65942 579.30774
565.0 0.001770 216.63982 563.07709
515.0 0.001942 216.62012 544.74438
500.0 0.002000 216.60046 525.75458
483.0 0.002070 216.58072 507.06445
462.0 0.002165 216.56102 489.31247
475.0 0.002105 216.54134 473.38049
494.0 0.002024 216.52159 459.73657
472.0 0.002119 216.50189 448.61514
451.0 0.002217 216.48215 439.59106
444.0 0.002252 216.46239 431.99442
446.0 0.002242 216.44266 424.90323
447.0 0.002237 216.42287 417.54578
417.0 0.002398 216.40312 409.38464
439.0 0.002278 216.38329 400.06052
444.0 0.002252 216.36349 389.86850
394.0 0.002538 216.34373 379.46017
369.0 0.002710 216.32391 369.37064
371.0 0.002695 216.30412 360.30145
371.0 0.002695 216.28426 352.34186
358.0 0.002793 216.26443 345.99365
353.0 0.002833 216.24464 341.51773
339.0 0.002950 216.22476 339.32150
323.0 0.003096 216.20494 339.20978
332.0 0.003012 216.18507 341.57727
326.0 0.003067 216.16522 345.86340
314.0 0.003185 216.14540 351.96729
334.0 0.002994 216.12547 359.61707
356.0 0.002809 216.10564 368.00064
362.0 0.002762 216.08572 376.50900
345.0 0.002899 216.06583 384.22571
377.0 0.002653 216.04599 390.42770
375.0 0.002667 216.02605 394.66867
387.0 0.002584 216.00618 396.93353
381.0 0.002625 215.98627 398.01462
387.0 0.002584 215.96634 398.58493
354.0 0.002825 215.94646 399.59967
349.0 0.002865 215.92651 401.74600
380.0 0.002632 215.90662 405.43375
367.0 0.002725 215.88667 410.44907
390.0 0.002564 215.86673 416.19342
452.0 0.002212 215.84683 422.38803
435.0 0.002299 215.82689 427.82797
465.0 0.002151 215.80696 431.44171
501.0 0.001996 215.78703 432.44449
469.0 0.002132 215.76707 430.45502
391.0 0.002558 215.74713 425.66754
411.0 0.002433 215.72722 418.55582
360.0 0.002778 215.70728 409.90881
382.0 0.002618 215.68730 400.56210
369.0 0.002710 215.66736 391.84665
360.0 0.002778 215.64743 384.51544
343.0 0.002915 215.62747 379.24442
366.0 0.002732 215.60753 376.49475
353.0 0.002833 215.58755 376.41702
379.0 0.002639 215.56764 378.79166
403.0 0.002481 215.54770 383.49371
379.0 0.002639 215.52773 389.88818
420.0 0.002381 215.50780 397.34467
413.0 0.002421 215.48785 405.14365
402.0 0.002488 215.46791 412.69321
447.0 0.002237 215.44797 419.66064
454.0 0.002203 215.42802 425.56509
450.0 0.002222 215.40808 430.02493
452.0 0.002212 215.38815 433.08362
464.0 0.002155 215.36821 434.96118
444.0 0.002252 215.34828 436.13132
456.0 0.002193 215.32835 437.40073
436.0 0.002294 215.30840 439.55121
438.0 0.002283 215.28848 443.23111
450.0 0.002222 215.26852 448.68359
446.0 0.002242 215.24864 455.79935
477.0 0.002096 215.22868 464.24573
472.0 0.002119 215.20880 473.52277
474.0 0.002110 215.18890 483.26035
467.0 0.002141 215.16899 493.20447
482.0 0.002075 215.14909 503.30405
503.0 0.001988 215.12921 513.38367
504.0 0.001984 215.10930 523.80054
515.0 0.001942 215.08943 534.31348
534.0 0.001873 215.06950 544.44910
520.0 0.001923 215.04967 553.77539
525.0 0.001905 215.02980 561.72668
559.0 0.001789 215.00992 567.67242
562.0 0.001779 214.99007 570.84058
580.0 0.001724 214.97021 571.30542
598.0 0.001672 214.95039 568.53058
594.0 0.001684 214.93053 562.49811
545.0 0.001835 214.91071 553.56360
569.0 0.001757 214.89088 542.61310
555.0 0.001802 214.87105 530.93378
516.0 0.001938 214.85126 519.92865
473.0 0.002114 214.83142 510.77203
445.0 0.002247 214.81165 504.65955
498.0 0.002008 214.79185 502.61417
478.0 0.002092 214.77206 504.60114
506.0 0.001976 214.75230 511.08963
470.0 0.002128 214.73256 521.41418
476.0 0.002101 214.71278 534.75043
556.0 0.001799 214.69304 550.15503
494.0 0.002024 214.67332 566.49384
538.0 0.001859 214.65364 583.74188
618.0 0.001618 214.63391 599.73572
537.0 0.001862 214.61418 614.38037
634.0 0.001577 214.59447 626.80493
638.0 0.001567 214.57481 636.08954
689.0 0.001451 214.55515 641.50507
665.0 0.001504 214.53546 642.77002
648.0 0.001543 214.51582 640.03607
666.0 0.001502 214.49619 634.17633
603.0 0.001658 214.47658 626.84534
621.0 0.001610 214.45695 618.25952
583.0 0.001715 214.43733 609.99969
609.0 0.001642 214.41776 602.75433
576.0 0.001736 214.39818 596.50281
595.0 0.001681 214.37860 591.34570
588.0 0.001701 214.35907 587.06195
605.0 0.001653 214.33952 583.46515
623.0 0.001605 214.31998 579.51971
633.0 0.001580 214.30048 574.98419
591.0 0.001692 214.28096 569.26868
587.0 0.001704 214.26147 561.51819
564.0 0.001773 214.24202 551.36285
533.0 0.001876 214.22258 538.81061
493.0 0.002028 214.20316 524.13397
503.0 0.001988 214.18365 508.03815
492.0 0.002033 214.16431 491.50040
457.0 0.002188 214.14488 474.62473
426.0 0.002347 214.12552 458.30847
458.0 0.002183 214.10616 442.75549
442.0 0.002262 214.08679 428.52432
407.0 0.002457 214.06749 415.45169
409.0 0.002445 214.04816 403.37189
401.0 0.002494 214.02884 392.08032
401.0 0.002494 214.00957 381.30511
384.0 0.002604 213.99033 370.91104
375.0 0.002667 213.97108 360.88455
365.0 0.002740 213.95184 350.83984
356.0 0.002809 213.93266 340.94284
353.0 0.002833 213.91342 331.22040
346.0 0.002890 213.89423 321.86850
325.0 0.003077 213.87509 312.77274
325.0 0.003077 213.85597 304.50064
317.0 0.003155 213.83687 297.04507
296.0 0.003378 213.81775 290.44489
299.0 0.003344 213.79866 284.74182
281.0 0.00356 213.77960 280.22964
273.0 0.00366 213.76054 276.78589
300.0 0.003333 213.74156 274.37067
299.0 0.003344 213.72256 273.06744
308.0 0.003247 213.70357 272.45786
308.0 0.003247 213.68459 272.58060
281.0 0.00356 213.66565 273.28210
287.0 0.003484 213.64671 274.44269
292.0 0.003425 213.62785 275.73618
323.0 0.003096 213.60896 277.00238
300.0 0.003333 213.59012 278.11032
320.0 0.003125 213.57129 278.71808
273.0 0.00366 213.55249 278.67349
270.0 0.00370 213.53371 278.05032
288.0 0.003472 213.51491 277.01523
294.0 0.003401 213.49619 275.29239
292.0 0.003425 213.47748 273.31885
281.0 0.00356 213.45879 271.53159
253.0 0.00395 213.44008 269.99915
263.0 0.00380 213.42145 268.97211
285.0 0.00351 213.40283 268.39691
271.0 0.00369 213.38423 268.40451
265.0 0.00377 213.36566 268.99704
295.0 0.003390 213.34708 270.15131
282.0 0.00355 213.32855 271.79385
283.0 0.00353 213.31009 273.63989
293.0 0.003413 213.29161 275.97235
284.0 0.00352 213.27318 278.45840
284.0 0.00352 213.25473 280.86322
286.0 0.003497 213.23633 283.09610
333.0 0.003003 213.21794 285.06717
293.0 0.003413 213.19960 286.68726
300.0 0.003333 213.18127 288.06345
302.0 0.003311 213.16301 289.34055
322.0 0.003106 213.14471 290.55179
332.0 0.003012 213.12651 292.39932
332.0 0.003012 213.10828 294.98111
326.0 0.003067 213.09012 298.58868
313.0 0.003195 213.07195 303.23651
332.0 0.003012 213.05382 310.03571
319.0 0.003135 213.03574 318.44534
332.0 0.003012 213.01765 329.24701
363.0 0.002755 212.99963 342.66843
381.0 0.002625 212.98163 358.92053
388.0 0.002577 212.96365 378.22784
417.0 0.002398 212.94571 400.53235
459.0 0.002179 212.92776 425.71368
484.0 0.002066 212.90990 453.26627
479.0 0.002088 212.89201 482.45718
500.0 0.002000 212.87418 512.26288
529.0 0.001890 212.85640 541.23438
548.0 0.001825 212.83861 568.03772
584.0 0.001712 212.82089 591.29889
599.0 0.001669 212.80315 610.14508
598.0 0.001672 212.78548 624.40643
592.0 0.001689 212.76784 635.29962
615.0 0.001626 212.75023 644.16541
605.0 0.001653 212.73268 651.99371
654.0 0.001529 212.71509 659.26654
707.0 0.001414 212.69757 666.99292
724.0 0.001381 212.68010 674.36957
701.0 0.001427 212.66267 680.72229
695.0 0.001439 212.64525 685.47986
695.0 0.001439 212.62787 688.16156
665.0 0.001504 212.61050 688.85773
681.0 0.001468 212.59323 687.46710
675.0 0.001481 212.57590 684.15277
619.0 0.001616 212.55865 678.14789
633.0 0.001580 212.54147 669.84778
607.0 0.001647 212.52425 659.22876
654.0 0.001529 212.50713 646.15851
633.0 0.001580 212.49004 631.48383
609.0 0.001642 212.47298 615.95471
561.0 0.001783 212.45593 600.49695
573.0 0.001745 212.43892 585.94537
541.0 0.001848 212.42195 572.32959
514.0 0.001946 212.40500 559.67383
571.0 0.001751 212.38812 547.13385
539.0 0.001855 212.37126 534.53473
548.0 0.001825 212.35445 521.45532
530.0 0.001887 212.33766 508.00314
478.0 0.002092 212.32092 494.30954
469.0 0.002132 212.30424 480.83142
438.0 0.002283 212.28755 467.72672
401.0 0.002494 212.27090 455.23242
457.0 0.002188 212.25433 443.53555
397.0 0.002519 212.23779 432.79999
398.0 0.002513 212.22125 422.70935
445.0 0.002247 212.20477 413.52094
396.0 0.002525 212.18835 405.17627
388.0 0.002577 212.17195 397.84747
380.0 0.002632 212.15559 391.76013
400.0 0.002500 212.13928 387.27423
392.0 0.002551 212.12300 384.77924
398.0 0.002513 212.10672 384.17493
410.0 0.002439 212.09059 385.80792
408.0 0.002451 212.07440 389.40799
380.0 0.002632 212.05829 395.03113
404.0 0.002475 212.04219 402.61969
400.0 0.002500 212.02617 411.74146
412.0 0.002427 212.01021 421.98795
442.0 0.002262 211.99423 433.09311
444.0 0.002252 211.97832 444.79962
467.0 0.002141 211.96245 456.83011
462.0 0.002165 211.94659 468.97574
456.0 0.002193 211.93082 480.87473
469.0 0.002132 211.91507 491.98782
456.0 0.002193 211.89940 501.49860
470.0 0.002128 211.88376 508.65286
491.0 0.002037 211.86812 512.61902
479.0 0.002088 211.85258 512.88513
503.0 0.001988 211.83701 509.60043
514.0 0.001946 211.82155 502.60800
491.0 0.002037 211.80611 492.71002
488.0 0.002049 211.79071 480.93484
477.0 0.002096 211.77539 468.36426
486.0 0.002058 211.76007 455.79257
448.0 0.002232 211.74478 444.06754
393.0 0.002545 211.72957 433.74231
395.0 0.002532 211.71440 425.26373
380.0 0.002632 211.69930 419.02963
438.0 0.002283 211.68420 414.71365
417.0 0.002398 211.66919 412.31393
424.0 0.002358 211.65417 411.39670
433.0 0.002309 211.63927 411.42371
422.0 0.002370 211.62437 411.78339
438.0 0.002283 211.60947 411.97266
451.0 0.002217 211.59470 411.66156
414.0 0.002415 211.57996 410.98752
402.0 0.002488 211.56523 409.68924
459.0 0.002179 211.55057 408.25223
455.0 0.002198 211.53598 406.95593
433.0 0.002309 211.52144 406.04514
425.0 0.002353 211.50690 405.53787
407.0 0.002457 211.49245 405.29343
429.0 0.002331 211.47801 404.93750
411.0 0.002433 211.46364 403.98944
419.0 0.002387 211.44931 402.06787
419.0 0.002387 211.43504 399.12094
435.0 0.002299 211.42081 394.63690
455.0 0.002198 211.40665 389.24777
441.0 0.002268 211.39253 383.37308
403.0 0.002481 211.37843 377.46759
406.0 0.002463 211.36446 371.87708
393.0 0.002545 211.35043 366.94244
419.0 0.002387 211.33652 362.86722
399.0 0.002506 211.32263 359.91510
391.0 0.002558 211.30881 358.30069
355.0 0.002817 211.29507 358.18573
378.0 0.002646 211.28133 359.66843
383.0 0.002611 211.26767 362.08716
391.0 0.002558 211.25404 366.55597
386.0 0.002591 211.24049 372.22601
407.0 0.002457 211.22694 378.86740
391.0 0.002558 211.21349 386.32220
408.0 0.002451 211.20009 394.62479
423.0 0.002364 211.18672 403.53165
428.0 0.002336 211.17345 413.21170
424.0 0.002358 211.16019 423.59308
427.0 0.002342 211.14697 434.19968
456.0 0.002193 211.13383 445.48929
496.0 0.002016 211.12071 456.74731
482.0 0.002075 211.10768 467.49167
495.0 0.002020 211.09468 477.15610
539.0 0.001855 211.08179 485.62619
549.0 0.001821 211.06889 492.41583
537.0 0.001862 211.05606 497.20667
511.0 0.001957 211.04330 500.77103
514.0 0.001946 211.03056 503.05713
536.0 0.001866 211.01793 504.43787
560.0 0.001786 211.00533 505.62024
521.0 0.001919 210.99277 506.88013
529.0 0.001890 210.98029 508.55704
536.0 0.001866 210.96782 509.99496
519.0 0.001927 210.95541 511.12881
557.0 0.001795 210.94312 511.39047
543.0 0.001842 210.93083 510.94781
545.0 0.001835 210.91864 509.74792
521.0 0.001919 210.90649 507.75998
516.0 0.001938 210.89439 504.93121
497.0 0.002012 210.88231 501.37622
505.0 0.001980 210.87035 497.02969
484.0 0.002066 210.85840 491.89767
487.0 0.002053 210.84653 486.40964
489.0 0.002045 210.83470 480.92929
466.0 0.002146 210.82295 475.92120
520.0 0.001923 210.81126 471.64935
462.0 0.002165 210.79958 468.69113
461.0 0.002169 210.78802 466.96155
463.0 0.002160 210.77647 466.31967
420.0 0.002381 210.76501 466.34366
439.0 0.002278 210.75357 466.26984
437.0 0.002288 210.74226 465.60480
440.0 0.002273 210.73096 464.16315
459.0 0.002179 210.71974 461.53018
425.0 0.002353 210.70857 457.78049
425.0 0.002353 210.69746 453.19907
432.0 0.002315 210.68639 448.17044
434.0 0.002304 210.67537 443.01202
452.0 0.002212 210.66444 438.54306
462.0 0.002165 210.65358 435.15082
426.0 0.002347 210.64275 433.28107
412.0 0.002427 210.63200 433.21674
433.0 0.002309 210.62129 435.19083
413.0 0.002421 210.61067 439.07794
399.0 0.002506 210.60007 444.40048
444.0 0.002252 210.58958 450.80676
459.0 0.002179 210.57910 457.14645
434.0 0.002304 210.56871 462.73886
441.0 0.002268 210.55840 466.41241
444.0 0.002252 210.54813 468.02902
446.0 0.002242 210.53792 467.17892
466.0 0.002146 210.52780 464.17728
481.0 0.002079 210.51767 459.60822
466.0 0.002146 210.50766 454.03510
424.0 0.002358 210.49776 447.87033
442.0 0.002262 210.48784 441.55164
453.0 0.002208 210.47801 435.16531
441.0 0.002268 210.46822 428.80005
403.0 0.002481 210.45851 422.84396
422.0 0.002370 210.44887 417.11331
449.0 0.002227 210.43929 412.20471
446.0 0.002242 210.42979 408.25427
416.0 0.002404 210.42032 405.57739
419.0 0.002387 210.41090 404.30649
417.0 0.002398 210.40164 404.20132
412.0 0.002427 210.39236 405.02661
431.0 0.002320 210.38315 406.79962
434.0 0.002304 210.37401 409.34064
408.0 0.002451 210.36494 412.60989
427.0 0.002342 210.35597 416.53140
424.0 0.002358 210.34702 420.92215
424.0 0.002358 210.33813 425.39572
420.0 0.002381 210.32932 429.27747
421.0 0.002375 210.32057 431.64780
427.0 0.002342 210.31190 432.01804
439.0 0.002278 210.30328 429.68762
450.0 0.002222 210.29474 424.15265
411.0 0.002433 210.28625 415.79779
446.0 0.002242 210.27782 405.40631
414.0 0.002415 210.26949 393.42847
394.0 0.002538 210.26117 380.86490
414.0 0.002415 210.25298 368.50577
361.0 0.002770 210.24480 357.01953
345.0 0.002899 210.23674 346.83017
373.0 0.002681 210.22873 338.23465
327.0 0.003058 210.22078 331.35251
327.0 0.003058 210.21286 326.20554
316.0 0.003165 210.20508 322.65237
338.0 0.002959 210.19733 320.43039
335.0 0.002985 210.18965 319.24487
303.0 0.003300 210.18202 318.48492
298.0 0.003356 210.17448 317.98291
324.0 0.003086 210.16699 317.14310
321.0 0.003115 210.15958 315.75363
314.0 0.003185 210.15221 313.76276
332.0 0.003012 210.14494 311.32794
313.0 0.003195 210.13774 308.78986
341.0 0.002933 210.13060 306.39343
315.0 0.003175 210.12352 304.50217
318.0 0.003145 210.11649 303.42642
331.0 0.003021 210.10959 303.14349
315.0 0.003175 210.10271 304.15482
287.0 0.003484 210.09590 306.29272
286.0 0.003497 210.08919 309.59665
299.0 0.003344 210.08253 313.56195
332.0 0.003012 210.07596 318.27530
329.0 0.003040 210.06941 322.87616
333.0 0.003003 210.06293 327.07962
332.0 0.003012 210.05656 330.39859
308.0 0.003247 210.05026 332.34277
303.0 0.003300 210.04401 332.80356
340.0 0.002941 210.03783 331.58826
347.0 0.002882 210.03174 329.61340
322.0 0.003106 210.02568 326.95636
305.0 0.003279 210.01974 324.36163
316.0 0.003165 210.01384 322.06580
313.0 0.003195 210.00801 320.58170
323.0 0.003096 210.00227 319.93784
325.0 0.003077 209.99657 320.81155
296.0 0.003378 209.99095 323.06531
304.0 0.003289 209.98541 326.68408
330.0 0.003030 209.97995 331.71985
330.0 0.003030 209.97455 337.75311
332.0 0.003012 209.96924 344.65097
347.0 0.002882 209.96394 351.69778
365.0 0.002740 209.95877 358.42258
382.0 0.002618 209.95366 364.19101
363.0 0.002755 209.94861 368.39514
371.0 0.002695 209.94363 370.53317
384.0 0.002604 209.93874 370.40237
390.0 0.002564 209.93390 368.19693
365.0 0.002740 209.92915 363.86441
321.0 0.003115 209.92444 358.04428
337.0 0.002967 209.91986 350.98065
333.0 0.003003 209.91533 343.24384
330.0 0.003030 209.91084 335.65009
316.0 0.003165 209.90645 328.53406
311.0 0.003215 209.90210 322.24466
317.0 0.003155 209.89786 317.21268
314.0 0.003185 209.89372 313.59543
302.0 0.003311 209.88959 311.50662
301.0 0.003322 209.88557 310.96335
290.0 0.003448 209.88161 311.89523
318.0 0.003145 209.87772 314.16092
300.0 0.003333 209.87392 317.55707
350.0 0.002857 209.87015 321.75742
351.0 0.002849 209.86649 326.40390
332.0 0.003012 209.86288 331.72119
348.0 0.002874 209.85936 337.18692
346.0 0.002890 209.85594 342.56888
357.0 0.002801 209.85254 348.01932
343.0 0.002915 209.84924 353.00797
343.0 0.002915 209.84601 357.53769
346.0 0.002890 209.84286 361.43320
373.0 0.002681 209.83980 364.23407
366.0 0.002732 209.83676 365.55566
371.0 0.002695 209.83386 365.54224
367.0 0.002725 209.83098 364.00192
372.0 0.002688 209.82819 361.18137
351.0 0.002849 209.82549 357.54843
368.0 0.002717 209.82286 353.68823
360.0 0.002778 209.82030 350.22028
366.0 0.002732 209.81778 347.63083
359.0 0.002786 209.81538 346.52863
342.0 0.002924 209.81305 346.97699
347.0 0.002882 209.81081 349.17310
357.0 0.002801 209.80861 353.05023
366.0 0.002732 209.80646 358.46741
356.0 0.002809 209.80444 365.03516
391.0 0.002558 209.80247 372.35739
413.0 0.002421 209.80060 379.74991
397.0 0.002519 209.79878 386.68625
393.0 0.002545 209.79701 392.40869
406.0 0.002463 209.79536 396.27994
398.0 0.002513 209.79375 398.36627
390.0 0.002564 209.79222 398.11368
376.0 0.002660 209.79082 395.49457
374.0 0.002674 209.78941 390.77032
371.0 0.002695 209.78815 384.34772
374.0 0.002674 209.78694 376.94165
378.0 0.002646 209.78578 369.35260
375.0 0.002667 209.78473 362.09799
359.0 0.002786 209.78374 355.97672
355.0 0.002817 209.78281 351.27634
346.0 0.002890 209.78197 348.51596
358.0 0.002793 209.78123 347.84235
375.0 0.002667 209.78053 349.43353
372.0 0.002688 209.77989 353.37827
361.0 0.002770 209.77936 359.60828
348.0 0.002874 209.77892 368.07721
363.0 0.002755 209.77855 378.65942
365.0 0.002740 209.77826 391.28854
405.0 0.002469 209.77800 405.77228
438.0 0.002283 209.77782 421.83652
452.0 0.002212 209.77779 439.23038
470.0 0.002128 209.77777 457.69513
511.0 0.001957 209.77782 476.79236
494.0 0.002024 209.77795 496.07141
502.0 0.001992 209.77818 514.89337
514.0 0.001946 209.77849 532.33826
574.0 0.001742 209.77888 547.66187
615.0 0.001626 209.77931 560.16254
576.0 0.001736 209.77983 569.33722
638.0 0.001567 209.78043 575.15985
561.0 0.001783 209.78110 577.96503
548.0 0.001825 209.78185 578.26099
567.0 0.001764 209.78270 576.68829
552.0 0.001812 209.78363 573.15698
559.0 0.001789 209.78459 568.55530
597.0 0.001675 209.78566 562.63312
559.0 0.001789 209.78679 555.50385
534.0 0.001873 209.78801 547.35864
566.0 0.001767 209.78931 538.50928
534.0 0.001873 209.79066 529.42017
494.0 0.002024 209.79208 520.59119
513.0 0.001949 209.79364 512.52136
501.0 0.001996 209.79521 505.20187
504.0 0.001984 209.79688 498.75879
504.0 0.001984 209.79863 493.07275
444.0 0.002252 209.80049 488.00406
471.0 0.002123 209.80237 483.33765
502.0 0.001992 209.80432 479.08194
453.0 0.002208 209.80640 475.25403
465.0 0.002151 209.80852 471.88675
453.0 0.002208 209.81075 468.88712
432.0 0.002315 209.81305 466.21893
465.0 0.002151 209.81537 463.39835
469.0 0.002132 209.81781 460.01843
446.0 0.002242 209.82036 455.63675
437.0 0.002288 209.82292 450.05161
442.0 0.002262 209.82562 442.77744
440.0 0.002273 209.82835 433.92123
445.0 0.002247 209.83113 423.68912
421.0 0.002375 209.83403 412.63242
405.0 0.002469 209.83701 401.14462
401.0 0.002494 209.84010 389.82458
389.0 0.002571 209.84320 379.22198
379.0 0.002639 209.84639 369.73279
371.0 0.002695 209.84969 361.66083
348.0 0.002874 209.85303 355.17554
325.0 0.003077 209.85648 350.27280
323.0 0.003096 209.85995 346.81998
348.0 0.002874 209.86357 344.70874
351.0 0.002849 209.86723 343.49210
356.0 0.002809 209.87096 342.88083
342.0 0.002924 209.87479 342.56430
326.0 0.003067 209.87865 342.12128
313.0 0.003195 209.88266 341.30991
341.0 0.002933 209.88667 339.97556
367.0 0.002725 209.89081 337.99933
344.0 0.002907 209.89500 335.51581
321.0 0.003115 209.89926 332.76831
338.0 0.002959 209.90364 330.06622
346.0 0.002890 209.90804 327.58521
292.0 0.003425 209.91255 326.03906
301.0 0.003322 209.91714 325.48050
294.0 0.003401 209.92178 326.21909
321.0 0.003115 209.92653 328.34216
327.0 0.003058 209.93130 331.87173
313.0 0.003195 209.93619 336.73004
381.0 0.002625 209.94115 342.79651
351.0 0.002849 209.94620 349.70920
380.0 0.002632 209.95131 357.17966
374.0 0.002674 209.95651 364.82419
400.0 0.002500 209.96176 372.10062
384.0 0.002604 209.96712 378.60730
375.0 0.002667 209.97250 383.99478
381.0 0.002625 209.97801 388.03369
390.0 0.002564 209.98358 390.73691
419.0 0.002387 209.98923 392.23291
395.0 0.002532 209.99495 393.04318
416.0 0.002404 210.00073 393.40335
396.0 0.002525 210.00662 393.98746
364.0 0.002747 210.01254 394.93500
389.0 0.002571 210.01860 396.30020
372.0 0.002688 210.02469 398.54630
389.0 0.002571 210.03085 401.17410
424.0 0.002358 210.03712 403.95114
421.0 0.002375 210.04341 406.50748
397.0 0.002519 210.04985 408.53543
424.0 0.002358 210.05634 409.80127
450.0 0.002222 210.06285 410.29465
437.0 0.002288 210.06950 410.35913
433.0 0.002309 210.07619 409.74161
415.0 0.002410 210.08295 408.85028
417.0 0.002398 210.08983 407.94635
438.0 0.002283 210.09676 407.54251
438.0 0.002283 210.10376 407.03833
417.0 0.002398 210.11086 407.03204
407.0 0.002457 210.11798 407.64987
423.0 0.002364 210.12521 408.94812
418.0 0.002392 210.13254 410.79700
400.0 0.002500 210.13991 413.30576
401.0 0.002494 210.14734 416.14142
425.0 0.002353 210.15488 419.01523
453.0 0.002208 210.16248 421.50266
432.0 0.002315 210.17014 423.27689
444.0 0.002252 210.17792 424.06271
423.0 0.002364 210.18573 423.40506
446.0 0.002242 210.19363 422.14954
432.0 0.002315 210.20160 419.98019
395.0 0.002532 210.20963 417.21350
383.0 0.002611 210.21776 414.20898
419.0 0.002387 210.22597 410.72278
409.0 0.002445 210.23422 407.10544
374.0 0.002674 210.24258 403.61975
396.0 0.002525 210.25101 399.82941
385.0 0.002597 210.25948 396.39990
398.0 0.002513 210.26804 393.24030
402.0 0.002488 210.27669 390.85928
373.0 0.002681 210.28543 389.45035
405.0 0.002469 210.29419 389.01959
393.0 0.002545 210.30305 389.56589
346.0 0.002890 210.31197 390.99503
382.0 0.002618 210.32100 393.13898
393.0 0.002545 210.33006 395.85135
379.0 0.002639 210.33923 398.66931
395.0 0.002532 210.34845 401.87891
439.0 0.002278 210.35774 405.03162
425.0 0.002353 210.36711 408.22629
416.0 0.002404 210.37657 411.34720
421.0 0.002375 210.38608 414.14395
408.0 0.002451 210.39569 416.47021
431.0 0.002320 210.40533 418.38626
416.0 0.002404 210.41507 419.99023
398.0 0.002513 210.42488 421.43515
383.0 0.002611 210.43472 422.96634
430.0 0.002326 210.44472 424.70343
425.0 0.002353 210.45470 426.76849
441.0 0.002268 210.46483 429.12830
425.0 0.002353 210.47498 431.74579
444.0 0.002252 210.48520 434.55923
432.0 0.002315 210.49553 437.59225
431.0 0.002320 210.50591 440.83380
438.0 0.002283 210.51634 444.38950
394.0 0.002538 210.52689 448.17786
436.0 0.002294 210.53749 452.09146
432.0 0.002315 210.54816 455.89789
480.0 0.002083 210.55891 459.23456
484.0 0.002066 210.56969 461.74432
487.0 0.002053 210.58058 463.22226
466.0 0.002146 210.59154 462.88104
449.0 0.002227 210.60257 460.86292
447.0 0.002237 210.61366 457.20230
457.0 0.002188 210.62477 452.08090
429.0 0.002331 210.63603 445.78320
409.0 0.002445 210.64735 438.65063
437.0 0.002288 210.65872 431.06619
435.0 0.002299 210.67015 423.42560
375.0 0.002667 210.68169 416.21942
368.0 0.002717 210.69327 409.50241
354.0 0.002825 210.70491 403.71246
376.0 0.002660 210.71664 399.02686
392.0 0.002551 210.72844 395.59088
376.0 0.002660 210.74030 393.36499
369.0 0.002710 210.75221 392.22021
395.0 0.002532 210.76422 391.86905
401.0 0.002494 210.77628 391.93329
410.0 0.002439 210.78842 391.83698
404.0 0.002475 210.80064 391.60471
420.0 0.002381 210.81291 390.46545
416.0 0.002404 210.82521 388.31464
414.0 0.002415 210.83765 384.96603
389.0 0.002571 210.85014 381.00400
372.0 0.002688 210.86269 376.17914
386.0 0.002591 210.87529 370.91409
376.0 0.002660 210.88797 365.48401
327.0 0.003058 210.90076 360.18881
338.0 0.002959 210.91354 355.28641
334.0 0.002994 210.92644 350.82666
332.0 0.003012 210.93941 346.99664
343.0 0.002915 210.95241 343.89005
336.0 0.002976 210.96552 341.64908
332.0 0.003012 210.97867 340.13498
327.0 0.003058 210.99185 339.38605
365.0 0.002740 211.00514 339.31946
332.0 0.003012 211.01851 339.81384
403.0 0.002481 211.03195 340.81787
372.0 0.002688 211.04543 342.24945
326.0 0.003067 211.05899 344.05249
333.0 0.003003 211.07263 346.16895
358.0 0.002793 211.08626 348.59766
328.0 0.003049 211.10004 351.72864
360.0 0.002778 211.11386 355.72076
346.0 0.002890 211.12772 360.43082
331.0 0.003021 211.14171 366.36148
367.0 0.002725 211.15570 373.61734
391.0 0.002558 211.16978 382.33557
409.0 0.002445 211.18390 392.56174
396.0 0.002525 211.19812 404.27469
416.0 0.002404 211.21239 417.40067
419.0 0.002387 211.22675 431.77936
413.0 0.002421 211.24112 447.11850
439.0 0.002278 211.25560 463.08759
487.0 0.002053 211.27011 479.02405
519.0 0.001927 211.28473 494.80875
556.0 0.001799 211.29938 509.51599
553.0 0.001808 211.31410 522.44104
594.0 0.001684 211.32890 532.88324
612.0 0.001634 211.34372 540.16217
627.0 0.001595 211.35864 544.01013
609.0 0.001642 211.37361 544.17584
596.0 0.001678 211.38869 540.75787
585.0 0.001709 211.40372 534.31433
566.0 0.001767 211.41890 525.59204
542.0 0.001845 211.43414 515.62122
553.0 0.001808 211.44940 505.42868
536.0 0.001866 211.46477 495.89859
480.0 0.002083 211.48018 487.86743
464.0 0.002155 211.49565 481.75912
462.0 0.002165 211.51115 477.87668
454.0 0.002203 211.52676 476.19592
448.0 0.002232 211.54243 476.67932
464.0 0.002155 211.55814 479.07031
484.0 0.002066 211.57388 482.71115
498.0 0.002008 211.58975 486.84354
502.0 0.001992 211.60567 490.72934
511.0 0.001957 211.62161 493.54160
514.0 0.001946 211.63763 494.57068
520.0 0.001923 211.65369 493.40866
525.0 0.001905 211.66982 489.72424
529.0 0.001890 211.68607 483.84912
503.0 0.001988 211.70227 475.97995
490.0 0.002041 211.71861 466.68555
521.0 0.001919 211.73497 456.57672
493.0 0.002028 211.75142 446.24969
429.0 0.002331 211.76790 436.34616
426.0 0.002347 211.78448 427.20486
447.0 0.002237 211.80107 419.22806
429.0 0.002331 211.81773 412.54913
406.0 0.002463 211.83449 407.23642
385.0 0.002597 211.85126 403.18362
392.0 0.002551 211.86812 400.25269
384.0 0.002604 211.88503 398.14539
389.0 0.002571 211.90199 396.59509
373.0 0.002681 211.91895 395.27435
381.0 0.002625 211.93604 393.91708
394.0 0.002538 211.95317 392.29358
387.0 0.002584 211.97034 390.79379
388.0 0.002577 211.98759 389.02399
389.0 0.002571 212.00488 387.47827
358.0 0.002793 212.02226 386.39319
376.0 0.002660 212.03969 385.93115
375.0 0.002667 212.05714 386.35657
383.0 0.002611 212.07465 387.83801
405.0 0.002469 212.09221 390.47321
370.0 0.002703 212.10986 394.15726
370.0 0.002703 212.12755 399.09824
393.0 0.002545 212.14531 404.99930
397.0 0.002519 212.16307 411.63040
434.0 0.002304 212.18092 418.62231
447.0 0.002237 212.19884 425.67514
426.0 0.002347 212.21683 432.28320
486.0 0.002058 212.23483 437.98141
495.0 0.002020 212.25287 442.19519
499.0 0.002004 212.27101 444.81067
487.0 0.002053 212.28915 445.67923
485.0 0.002062 212.30743 444.78589
456.0 0.002193 212.32570 442.78430
452.0 0.002212 212.34402 439.94965
462.0 0.002165 212.36241 436.66406
455.0 0.002198 212.38081 433.58862
447.0 0.002237 212.39932 431.04156
415.0 0.002410 212.41786 429.13525
415.0 0.002410 212.43645 427.99619
440.0 0.002273 212.45512 427.87851
458.0 0.002183 212.47380 428.79141
444.0 0.002252 212.49255 430.86295
459.0 0.002179 212.51134 434.05789
452.0 0.002212 212.53018 438.40125
433.0 0.002309 212.54912 443.78525
434.0 0.002304 212.56807 450.01068
456.0 0.002193 212.58708 456.58832
458.0 0.002183 212.60608 463.02658
449.0 0.002227 212.62518 468.91803
479.0 0.002088 212.64436 473.62939
495.0 0.002020 212.66356 476.81970
493.0 0.002028 212.68280 478.18405
469.0 0.002132 212.70209 477.42670
454.0 0.002203 212.72144 474.63965
460.0 0.002174 212.74084 470.11804
477.0 0.002096 212.76028 463.62381
461.0 0.002169 212.77980 455.84128
477.0 0.002096 212.79935 447.09930
426.0 0.002347 212.81888 437.88104
453.0 0.002208 212.83855 428.36404
438.0 0.002283 212.85820 418.91379
397.0 0.002519 212.87794 409.70367
414.0 0.002415 212.89774 401.01895
381.0 0.002625 212.91753 392.88989
385.0 0.002597 212.93742 385.43500
349.0 0.002865 212.95731 378.85269
355.0 0.002817 212.97731 373.00699
330.0 0.003030 212.99730 367.83401
323.0 0.003096 213.01732 363.09961
349.0 0.002865 213.03746 358.69217
339.0 0.002950 213.05759 354.35196
341.0 0.002933 213.07777 349.80920
354.0 0.002825 213.09802 345.01584
307.0 0.003257 213.11829 339.85471
324.0 0.003086 213.13861 334.47330
348.0 0.002874 213.15897 328.69925
298.0 0.003356 213.17940 322.80325
300.0 0.003333 213.19983 316.90198
316.0 0.003165 213.22031 311.16736
306.0 0.003268 213.24088 305.54703
290.0 0.003448 213.26146 300.09567
278.0 0.00360 213.28207 294.95694
281.0 0.00356 213.30276 290.13867
286.0 0.003497 213.32347 285.59198
284.0 0.00352 213.34421 281.41440
280.0 0.00357 213.36501 277.79788
250.0 0.00400 213.38586 274.19312
257.0 0.00389 213.40674 271.21851
287.0 0.003484 213.42761 268.62201
280.0 0.00357 213.44859 266.40070
275.0 0.00364 213.46959 264.51791
266.0 0.00376 213.49066 262.61600
254.0 0.00394 213.51176 261.43579
254.0 0.00394 213.53287 260.84174
253.0 0.00395 213.55402 260.34778
242.0 0.00413 213.57521 259.95264
254.0 0.00394 213.59647 259.75153
257.0 0.00389 213.61778 259.74112
268.0 0.00373 213.63904 259.77280
254.0 0.00394 213.66042 260.02365
237.0 0.00422 213.68181 260.31686
259.0 0.00386 213.70326 260.80743
263.0 0.00380 213.72475 261.66177
259.0 0.00386 213.74623 262.74750
234.0 0.00427 213.76781 264.23508
235.0 0.00426 213.78937 266.21579
264.0 0.00379 213.81105 268.68570
261.0 0.00383 213.83270 271.53723
261.0 0.00383 213.85435 275.13080
269.0 0.00372 213.87610 279.31808
323.0 0.003096 213.89786 283.85571
300.0 0.003333 213.91971 289.15546
295.0 0.003390 213.94156 294.91333
317.0 0.003155 213.96339 301.15521
301.0 0.003322 213.98534 307.52368
322.0 0.003106 214.00728 313.93472
334.0 0.002994 214.02927 320.27756
309.0 0.003236 214.05128 326.44571
311.0 0.003215 214.07333 332.26505
321.0 0.003115 214.09546 337.72018
330.0 0.003030 214.11755 342.78629
314.0 0.003185 214.13976 347.41266
356.0 0.002809 214.16191 351.65912
384.0 0.002604 214.18413 355.40314
393.0 0.002545 214.20641 358.64700
379.0 0.002639 214.22870 361.20599
401.0 0.002494 214.25102 363.00854
443.0 0.002257 214.27339 364.05508
340.0 0.002941 214.29576 364.05814
372.0 0.002688 214.31821 363.07022
376.0 0.002660 214.34062 361.22855
351.0 0.002849 214.36314 358.66431
356.0 0.002809 214.38567 355.67447
344.0 0.002907 214.40817 352.53058
327.0 0.003058 214.43077 349.50620
320.0 0.003125 214.45338 346.81158
335.0 0.002985 214.47606 344.76266
325.0 0.003077 214.49872 343.18430
333.0 0.003003 214.52138 342.36472
336.0 0.002976 214.54413 342.29651
372.0 0.002688 214.56691 343.11758
363.0 0.002755 214.58971 344.72412
327.0 0.003058 214.61253 347.08621
338.0 0.002959 214.63536 350.09781
346.0 0.002890 214.65825 353.50418
353.0 0.002833 214.68111 357.31439
364.0 0.002747 214.70407 361.16821
378.0 0.002646 214.72705 364.82837
400.0 0.002500 214.75002 368.01477
388.0 0.002577 214.77306 370.59821
407.0 0.002457 214.79610 372.56372
400.0 0.002500 214.81918 373.97928
378.0 0.002646 214.84230 374.93561
376.0 0.002660 214.86537 375.80054
377.0 0.002653 214.88855 376.46198
362.0 0.002762 214.91173 377.53860
370.0 0.002703 214.93495 379.19327
384.0 0.002604 214.95815 381.49796
377.0 0.002653 214.98138 384.65195
385.0 0.002597 215.00471 388.78622
398.0 0.002513 215.02800 393.95215
411.0 0.002433 215.05135 400.18610
401.0 0.002494 215.07471 407.40649
419.0 0.002387 215.09805 415.34302
437.0 0.002288 215.12148 424.33981
463.0 0.002160 215.14490 433.64569
442.0 0.002262 215.16838 443.07123
492.0 0.002033 215.19186 452.10019
470.0 0.002128 215.21532 459.92606
473.0 0.002114 215.23885 466.63150
495.0 0.002020 215.26241 471.39487
501.0 0.001996 215.28598 474.00525
467.0 0.002141 215.30957 474.39374
444.0 0.002252 215.33318 472.63544
471.0 0.002123 215.35681 469.18097
413.0 0.002421 215.38046 464.25748
429.0 0.002331 215.40413 458.30466
433.0 0.002309 215.42787 451.65527
408.0 0.002451 215.45157 444.84396
425.0 0.002353 215.47531 438.10648
382.0 0.002618 215.49907 431.76138
405.0 0.002469 215.52284 426.05173
388.0 0.002577 215.54668 421.19028
423.0 0.002364 215.57047 417.50626
378.0 0.002646 215.59435 414.82086
429.0 0.002331 215.61818 413.37515
403.0 0.002481 215.64206 413.12219
441.0 0.002268 215.66595 413.95844
421.0 0.002375 215.68987 415.76038
409.0 0.002445 215.71382 418.33548
439.0 0.002278 215.73776 421.52963
397.0 0.002519 215.76178 425.18262
415.0 0.002410 215.78574 429.26797
442.0 0.002262 215.80975 433.90900
457.0 0.002188 215.83379 439.00665
426.0 0.002347 215.85783 444.75119
440.0 0.002273 215.88193 451.18759
458.0 0.002183 215.90599 458.41208
460.0 0.002174 215.93002 466.33755
491.0 0.002037 215.95421 474.88770
506.0 0.001976 215.97830 483.90118
510.0 0.001961 216.00247 493.25726
537.0 0.001862 216.02664 502.80951
574.0 0.001742 216.05078 512.47766
558.0 0.001792 216.07500 522.05646
567.0 0.001764 216.09917 531.35638
578.0 0.001730 216.12343 540.09930
585.0 0.001709 216.14764 547.96063
594.0 0.001684 216.17189 554.44861
592.0 0.001689 216.19618 559.17310
585.0 0.001709 216.22043 561.95197
582.0 0.001718 216.24477 562.72406
564.0 0.001773 216.26907 561.56372
556.0 0.001799 216.29335 558.66156
549.0 0.001821 216.31770 554.19238
543.0 0.001842 216.34204 548.40576
522.0 0.001916 216.36642 541.50903
558.0 0.001792 216.39078 533.73303
569.0 0.001757 216.41513 525.29889
512.0 0.001953 216.43954 516.41650
527.0 0.001898 216.46396 507.33929
517.0 0.001934 216.48840 498.28821
513.0 0.001949 216.51283 489.51831
489.0 0.002045 216.53726 481.26599
510.0 0.001961 216.56171 473.68402
468.0 0.002137 216.58618 466.89301
466.0 0.002146 216.61067 460.87939
501.0 0.001996 216.63518 455.56546
491.0 0.002037 216.65965 450.83725
457.0 0.002188 216.68416 446.44159
453.0 0.002208 216.70863 442.28983
405.0 0.002469 216.73323 438.27765
456.0 0.002193 216.75774 434.40506
432.0 0.002315 216.78227 430.71191
403.0 0.002481 216.80682 427.16800
447.0 0.002237 216.83141 423.90613
373.0 0.002681 216.85599 420.89868
379.0 0.002639 216.88057 418.22159
396.0 0.002525 216.90514 415.88931
387.0 0.002584 216.92973 413.92892
385.0 0.002597 216.95433 412.37424
423.0 0.002364 216.97899 411.23459
386.0 0.002591 217.00359 410.51697
392.0 0.002551 217.02821 410.03546
448.0 0.002232 217.05287 410.13538
412.0 0.002427 217.07747 410.57355
414.0 0.002415 217.10216 411.40363
390.0 0.002564 217.12682 412.54898
420.0 0.002381 217.15146 413.96255
398.0 0.002513 217.17612 415.58029
386.0 0.002591 217.20078 417.31198
408.0 0.002451 217.22548 419.14233
393.0 0.002545 217.25017 420.99841
395.0 0.002532 217.27483 422.78751
412.0 0.002427 217.29956 424.66196
423.0 0.002364 217.32423 426.20883
417.0 0.002398 217.34897 427.55017
440.0 0.002273 217.37372 428.55447
455.0 0.002198 217.39836 429.06250
427.0 0.002342 217.42314 428.98703
420.0 0.002381 217.44783 428.24799
426.0 0.002347 217.47255 426.87671
400.0 0.002500 217.49730 424.99582
420.0 0.002381 217.52203 422.54010
416.0 0.002404 217.54677 419.77902
405.0 0.002469 217.57152 416.88181
365.0 0.002740 217.59625 413.71542
400.0 0.002500 217.62102 410.27582
406.0 0.002463 217.64575 406.68564
376.0 0.002660 217.67053 402.82587
368.0 0.002717 217.69530 398.79898
373.0 0.002681 217.72005 394.54218
378.0 0.002646 217.74481 390.27530
375.0 0.002667 217.76953 386.05521
362.0 0.002762 217.79434 382.16962
380.0 0.002632 217.81908 378.32916
397.0 0.002519 217.84389 374.70673
396.0 0.002525 217.86865 371.39743
382.0 0.002618 217.89340 368.21228
369.0 0.002710 217.91820 365.16345
371.0 0.002695 217.94293 362.22803
367.0 0.002725 217.96774 359.36890
343.0 0.002915 217.99249 356.64908
336.0 0.002976 218.01727 354.09818
358.0 0.002793 218.04205 351.72501
347.0 0.002882 218.06680 349.40915
352.0 0.002841 218.09160 347.79047
354.0 0.002825 218.11638 346.52859
326.0 0.003067 218.14113 345.68973
364.0 0.002747 218.16592 345.50790
330.0 0.003030 218.19067 346.08649
327.0 0.003058 218.21545 347.00211
344.0 0.002907 218.24022 348.51849
368.0 0.002717 218.26500 350.62323
351.0 0.002849 218.28978 353.18219
334.0 0.002994 218.31448 356.05008
346.0 0.002890 218.33926 359.11719
331.0 0.003021 218.36406 362.15549
349.0 0.002865 218.38876 364.93726
369.0 0.002710 218.41356 367.31317
347.0 0.002882 218.43831 369.09299
358.0 0.002793 218.46310 370.18817
367.0 0.002725 218.48784 370.51019
396.0 0.002525 218.51259 370.00693
368.0 0.002717 218.53731 368.71600
392.0 0.002551 218.56204 366.54431
311.0 0.003215 218.58681 363.84485
383.0 0.002611 218.61159 360.73618
347.0 0.002882 218.63628 357.14407
337.0 0.002967 218.66098 353.30856
319.0 0.003135 218.68573 349.50488
313.0 0.003195 218.71046 345.95892
313.0 0.003195 218.73520 342.70465
343.0 0.002915 218.75986 339.87103
313.0 0.003195 218.78459 337.63464
295.0 0.003390 218.80928 335.92270
329.0 0.003040 218.83401 334.52414
313.0 0.003195 218.85870 333.71005
299.0 0.003344 218.88338 333.14142
299.0 0.003344 218.90805 332.66187
324.0 0.003086 218.93274 332.08228
336.0 0.002976 218.95743 331.22943
320.0 0.003125 218.98212 329.95972
331.0 0.003021 219.00674 328.17041
332.0 0.003012 219.03143 325.52493
338.0 0.002959 219.05605 322.47650
314.0 0.003185 219.08073 319.03177
318.0 0.003145 219.10535 315.09317
325.0 0.003077 219.12996 310.93658
296.0 0.003378 219.15465 306.69907
302.0 0.003311 219.17929 302.18680
300.0 0.003333 219.20390 297.91226
296.0 0.003378 219.22852 293.84338
289.0 0.003460 219.25310 290.01089
291.0 0.003436 219.27771 286.69397
273.0 0.00366 219.30231 283.80710
288.0 0.003472 219.32689 281.42218
275.0 0.00364 219.35152 279.67093
278.0 0.00360 219.37602 278.44138
287.0 0.003484 219.40060 277.68451
285.0 0.00351 219.42516 277.33298
263.0 0.00380 219.44974 277.29614
274.0 0.00365 219.47432 277.47577
278.0 0.00360 219.49881 277.75232
258.0 0.00388 219.52335 277.88394
286.0 0.003497 219.54788 278.01605
308.0 0.003247 219.57237 278.06427
272.0 0.00368 219.59692 277.94241
259.0 0.00386 219.62140 277.72467
279.0 0.00358 219.64589 277.32190
272.0 0.00368 219.67039 276.79068
263.0 0.00380 219.69489 276.36264
269.0 0.00372 219.71933 276.03448
291.0 0.003436 219.74377 275.86551
278.0 0.00360 219.76822 276.09668
261.0 0.00383 219.79266 276.68192
278.0 0.00360 219.81714 277.70990
279.0 0.00358 219.84158 279.30658
289.0 0.003460 219.86597 281.42047
286.0 0.003497 219.89040 284.18069
291.0 0.003436 219.91481 287.49396
272.0 0.00368 219.93921 291.29245
265.0 0.00377 219.96359 295.58646
265.0 0.00377 219.98793 300.20587
326.0 0.003067 220.01234 305.02130
317.0 0.003155 220.03667 309.83719
326.0 0.003067 220.06105 314.31772
314.0 0.003185 220.08540 318.53815
300.0 0.003333 220.10971 322.14819
330.0 0.003030 220.13405 325.00156
360.0 0.002778 220.15834 327.06003
352.0 0.002841 220.18268 328.20999
348.0 0.002874 220.20695 328.68167
344.0 0.002907 220.23125 328.63535
331.0 0.003021 220.25557 328.19434
312.0 0.003205 220.27980 327.88339
311.0 0.003215 220.30405 327.81110
320.0 0.003125 220.32831 328.27200
306.0 0.003268 220.35255 329.24905
331.0 0.003021 220.37680 331.03235
351.0 0.002849 220.40102 333.66406
353.0 0.002833 220.42523 337.19894
343.0 0.002915 220.44942 341.56671
340.0 0.002941 220.47360 346.63870
357.0 0.002801 220.49777 352.49176
384.0 0.002604 220.52199 358.85870
398.0 0.002513 220.54617 365.41257
394.0 0.002538 220.57033 371.83331
402.0 0.002488 220.59445 377.95407
389.0 0.002571 220.61858 383.41431
408.0 0.002451 220.64273 387.94537
420.0 0.002381 220.66685 391.39270
398.0 0.002513 220.69093 393.67621
405.0 0.002469 220.71503 394.87656
388.0 0.002577 220.73915 395.10419
369.0 0.002710 220.76323 394.37326
376.0 0.002660 220.78731 393.12704
395.0 0.002532 220.81137 391.30496
391.0 0.002558 220.83539 389.08167
389.0 0.002571 220.85944 386.76825
384.0 0.002604 220.88347 384.15771
378.0 0.002646 220.90750 381.62317
375.0 0.002667 220.93150 379.30084
399.0 0.002506 220.95549 377.34933
393.0 0.002545 220.97951 375.87177
387.0 0.002584 221.00346 375.07382
334.0 0.002994 221.02744 375.01630
364.0 0.002747 221.05144 375.79657
381.0 0.002625 221.07536 377.40051
379.0 0.002639 221.09933 380.02615
394.0 0.002538 221.12325 383.31500
403.0 0.002481 221.14719 387.38495
386.0 0.002591 221.17110 392.16351
355.0 0.002817 221.19498 397.44269
433.0 0.002309 221.21893 403.42117
388.0 0.002577 221.24280 409.84976
388.0 0.002577 221.26668 416.75479
407.0 0.002457 221.29056 423.75711
436.0 0.002294 221.31439 430.64301
396.0 0.002525 221.33826 437.48160
423.0 0.002364 221.36209 443.87906
467.0 0.002141 221.38593 449.54813
484.0 0.002066 221.40979 454.31595
454.0 0.002203 221.43355 457.63449
491.0 0.002037 221.45737 459.57999
467.0 0.002141 221.48116 460.00861
496.0 0.002016 221.50494 458.86588
475.0 0.002105 221.52876 456.35312
451.0 0.002217 221.55252 452.79227
454.0 0.002203 221.57626 448.57162
426.0 0.002347 221.60004 444.11362
411.0 0.002433 221.62378 439.87466
412.0 0.002427 221.64754 436.01962
413.0 0.002421 221.67122 432.85849
412.0 0.002427 221.69495 430.44611
417.0 0.002398 221.71867 428.94812
418.0 0.002392 221.74237 428.22488
419.0 0.002387 221.76610 428.10675
439.0 0.002278 221.78976 428.45364
455.0 0.002198 221.81346 428.80923
461.0 0.002169 221.83714 429.04758
456.0 0.002193 221.86081 428.80664
447.0 0.002237 221.88445 427.86356
456.0 0.002193 221.90804 425.93597
446.0 0.002242 221.93176 422.88251
434.0 0.002304 221.95535 418.77328
412.0 0.002427 221.97900 413.60501
395.0 0.002532 222.00261 407.49387
408.0 0.002451 222.02623 400.60416
399.0 0.002506 222.04984 393.15137
382.0 0.002618 222.07344 385.43304
404.0 0.002475 222.09703 377.70566
383.0 0.002611 222.12059 370.21536
324.0 0.003086 222.14417 363.18158
326.0 0.003067 222.16777 356.74396
327.0 0.003058 222.19130 351.05972
328.0 0.003049 222.21487 346.09003
309.0 0.003236 222.23845 341.86957
304.0 0.003289 222.26199 338.33215
282.0 0.00355 222.28552 335.35388
310.0 0.003226 222.30905 332.93094
322.0 0.003106 222.33260 330.75967
322.0 0.003106 222.35614 328.66345
319.0 0.003135 222.37962 326.62860
352.0 0.002841 222.40315 324.51169
335.0 0.002985 222.42667 322.30368
326.0 0.003067 222.45016 319.95377
316.0 0.003165 222.47368 317.61035
330.0 0.003030 222.49716 315.35809
345.0 0.002899 222.52065 313.28250
309.0 0.003236 222.54413 311.60217
316.0 0.003165 222.56760 310.22217
270.0 0.00370 222.59109 309.30545
279.0 0.00358 222.61456 308.89673
307.0 0.003257 222.63805 309.00189
296.0 0.003378 222.66153 309.60608
301.0 0.003322 222.68498 310.66367
308.0 0.003247 222.70847 312.09610
318.0 0.003145 222.73189 313.96582
341.0 0.002933 222.75536 315.81625
340.0 0.002941 222.77879 317.66974
328.0 0.003049 222.80225 319.38647
339.0 0.002950 222.82571 320.84750
322.0 0.003106 222.84914 321.96921
296.0 0.003378 222.87257 322.79794
316.0 0.003165 222.89601 322.94138
310.0 0.003226 222.91948 322.92630
303.0 0.003300 222.94293 322.63034
322.0 0.003106 222.96629 322.13031
340.0 0.002941 222.98978 321.54333
358.0 0.002793 223.01320 321.00168
323.0 0.003096 223.03665 320.61600
314.0 0.003185 223.06007 320.63586
335.0 0.002985 223.08351 320.98785
350.0 0.002857 223.10690 321.80457
310.0 0.003226 223.13036 323.21442
315.0 0.003175 223.15381 325.28992
317.0 0.003155 223.17726 328.04727
311.0 0.003215 223.20067 331.49918
333.0 0.003003 223.22409 335.63312
348.0 0.002874 223.24753 340.38226
339.0 0.002950 223.27101 345.73868
329.0 0.003040 223.29439 351.41321
338.0 0.002959 223.31786 357.31403
333.0 0.003003 223.34132 363.26489
343.0 0.002915 223.36472 369.04153
385.0 0.002597 223.38821 374.43274
389.0 0.002571 223.41167 379.26849
394.0 0.002538 223.43512 383.23840
407.0 0.002457 223.45856 386.24426
398.0 0.002513 223.48201 388.18466
410.0 0.002439 223.50551 389.04111
394.0 0.002538 223.52895 388.83588
380.0 0.002632 223.55243 387.74545
400.0 0.002500 223.57590 385.97537
398.0 0.002513 223.59937 383.79169
407.0 0.002457 223.62288 381.34204
354.0 0.002825 223.64639 378.92746
344.0 0.002907 223.66986 376.76312
348.0 0.002874 223.69339 375.03503
362.0 0.002762 223.71687 373.90366
346.0 0.002890 223.74039 373.51218
361.0 0.002770 223.76392 373.97800
358.0 0.002793 223.78746 375.40646
354.0 0.002825 223.81099 377.79871
412.0 0.002427 223.83452 381.16635
389.0 0.002571 223.85811 385.45676
384.0 0.002604 223.88162 390.54691
381.0 0.002625 223.90517 396.26288
379.0 0.002639 223.92876 402.40845
419.0 0.002387 223.95233 408.71854
414.0 0.002415 223.97595 414.91299
421.0 0.002375 223.99956 420.91403
433.0 0.002309 224.02315 426.30548
419.0 0.002387 224.04678 430.98511
460.0 0.002174 224.07040 434.95493
453.0 0.002208 224.09407 438.22617
489.0 0.002045 224.11771 440.77524
477.0 0.002096 224.14136 442.69312
469.0 0.002132 224.16507 444.09113
465.0 0.002151 224.18874 444.95349
445.0 0.002247 224.21246 445.15536
451.0 0.002217 224.23615 445.05991
421.0 0.002375 224.25984 444.50244
434.0 0.002304 224.28363 443.53201
436.0 0.002294 224.30736 442.13635
428.0 0.002336 224.33116 440.36502
445.0 0.002247 224.35492 438.43185
447.0 0.002237 224.37868 436.35037
458.0 0.002183 224.40250 434.15027
451.0 0.002217 224.42630 431.91840
403.0 0.002481 224.45016 429.63229
412.0 0.002427 224.47401 427.34375
446.0 0.002242 224.49788 425.10178
434.0 0.002304 224.52177 422.88278
406.0 0.002463 224.54565 420.69806
389.0 0.002571 224.56963 418.56326
391.0 0.002558 224.59355 416.35684
401.0 0.002494 224.61749 414.07364
413.0 0.002421 224.64146 411.51163
421.0 0.002375 224.66545 409.10284
426.0 0.002347 224.68948 406.55566
389.0 0.002571 224.71350 404.16226
387.0 0.002584 224.73752 401.66040
401.0 0.002494 224.76164 399.16925
404.0 0.002475 224.78568 396.73239
398.0 0.002513 224.80983 394.36063
395.0 0.002532 224.83397 392.10733
365.0 0.002740 224.85809 389.89734
346.0 0.002890 224.88228 387.75311
363.0 0.002755 224.90646 385.64587
378.0 0.002646 224.93069 383.54071
367.0 0.002725 224.95497 381.41943
399.0 0.002506 224.97916 379.21445
356.0 0.002809 225.00349 377.28714
362.0 0.002762 225.02780 374.92270
400.0 0.002500 225.05214 372.29025
396.0 0.002525 225.07652 369.75839
358.0 0.002793 225.10085 367.19907
386.0 0.002591 225.12531 364.73721
355.0 0.002817 225.14972 362.18027
323.0 0.003096 225.17422 359.97809
340.0 0.002941 225.19872 358.09076
346.0 0.002890 225.22321 356.18646
333.0 0.003003 225.24776 354.57327
320.0 0.003125 225.27235 353.31363
345.0 0.002899 225.29697 352.49686
369.0 0.002710 225.32159 352.07309
363.0 0.002755 225.34625 352.08701
354.0 0.002825 225.37096 352.54126
334.0 0.002994 225.39566 353.41235
360.0 0.002778 225.42043 354.64273
379.0 0.002639 225.44521 356.18680
347.0 0.002882 225.47003 357.97925
346.0 0.002890 225.49490 359.98810
347.0 0.002882 225.51978 362.15729
343.0 0.002915 225.54469 364.45819
354.0 0.002825 225.56963 366.98715
340.0 0.002941 225.59460 369.69128
364.0 0.002747 225.61963 372.50861
324.0 0.003086 225.64468 375.47198
365.0 0.002740 225.66977 378.65994
374.0 0.002674 225.69490 382.04532
385.0 0.002597 225.72003 385.63773
387.0 0.002584 225.74527 389.42096
410.0 0.002439 225.77048 393.38272
417.0 0.002398 225.79576 397.30356
416.0 0.002404 225.82109 401.28174
424.0 0.002358 225.84639 405.28787
433.0 0.002309 225.87178 409.19788
450.0 0.002222 225.89720 412.95242
433.0 0.002309 225.92270 416.45734
444.0 0.002252 225.94821 419.60178
470.0 0.002128 225.97374 422.27332
472.0 0.002119 225.99936 424.38586
449.0 0.002227 226.02495 425.87802
458.0 0.002183 226.05063 426.90561
447.0 0.002237 226.07637 427.11508
418.0 0.002392 226.10208 426.70422
420.0 0.002381 226.12790 425.71564
417.0 0.002398 226.15375 424.37012
418.0 0.002392 226.17964 422.46832
421.0 0.002375 226.20560 420.15475
416.0 0.002404 226.23151 417.52414
437.0 0.002288 226.25760 414.63547
403.0 0.002481 226.28369 411.50653
395.0 0.002532 226.30978 408.14053
376.0 0.002660 226.33595 404.56226
348.0 0.002874 226.36214 400.81418
388.0 0.002577 226.38843 396.96149
426.0 0.002347 226.41476 393.06216
404.0 0.002475 226.44113 389.24112
391.0 0.002558 226.46756 385.59436
369.0 0.002710 226.49399 382.13504
382.0 0.002618 226.52052 378.90942
398.0 0.002513 226.54706 375.93799
378.0 0.002646 226.57375 373.20685
365.0 0.002740 226.60042 370.73206
345.0 0.002899 226.62712 368.38803
376.0 0.002660 226.65390 366.27365
348.0 0.002874 226.68076 364.45496
355.0 0.002817 226.70767 362.61111
344.0 0.002907 226.73460 360.84348
386.0 0.002591 226.76160 358.98163
360.0 0.002778 226.78871 357.31885
344.0 0.002907 226.81583 355.50027
328.0 0.003049 226.84299 353.52011
341.0 0.002933 226.87022 351.52893
360.0 0.002778 226.89751 349.41541
361.0 0.002770 226.92490 347.19351
345.0 0.002899 226.95226 344.90790
342.0 0.002924 226.97980 342.62222
363.0 0.002755 227.00732 340.40466
344.0 0.002907 227.03488 338.37665
358.0 0.002793 227.06256 336.55020
290.0 0.003448 227.09030 335.12097
332.0 0.003012 227.11810 334.10101
360.0 0.002778 227.14594 333.54175
348.0 0.002874 227.17384 333.47366
338.0 0.002959 227.20184 333.90991
343.0 0.002915 227.22987 334.84329
334.0 0.002994 227.25803 336.26260
336.0 0.002976 227.28619 338.08594
359.0 0.002786 227.31444 340.23608
355.0 0.002817 227.34277 342.64795
318.0 0.003145 227.37112 345.13174
315.0 0.003175 227.39960 347.66937
338.0 0.002959 227.42813 350.10248
344.0 0.002907 227.45676 352.12357
344.0 0.002907 227.48541 354.23291
346.0 0.002890 227.51413 355.79279
348.0 0.002874 227.54300 356.95807
354.0 0.002825 227.57188 357.72705
380.0 0.002632 227.60077 358.13177
378.0 0.002646 227.62985 358.20825
365.0 0.002740 227.65892 358.03897
367.0 0.002725 227.68814 357.68604
362.0 0.002762 227.71739 357.31940
364.0 0.002747 227.74673 356.91037
349.0 0.002865 227.77612 356.75351
341.0 0.002933 227.80562 356.87793
356.0 0.002809 227.83521 357.39386
358.0 0.002793 227.86487 358.40216
367.0 0.002725 227.89458 359.99002
413.0 0.002421 227.92438 362.24747
381.0 0.002625 227.95428 365.15057
380.0 0.002632 227.98427 368.81564
393.0 0.002545 228.01434 373.21558
431.0 0.002320 228.04445 378.29028
418.0 0.002392 228.07469 384.03018
416.0 0.002404 228.10495 390.38568
419.0 0.002387 228.13538 397.25897
427.0 0.002342 228.16585 404.76907
436.0 0.002294 228.19638 412.90921
449.0 0.002227 228.22708 421.61313
460.0 0.002174 228.25777 430.68481
478.0 0.002092 228.28862 440.32266
463.0 0.002160 228.31952 450.49573
487.0 0.002053 228.35054 461.19968
520.0 0.001923 228.38161 472.46515
544.0 0.001838 228.41277 484.20514
495.0 0.002020 228.44408 496.64569
518.0 0.001931 228.47543 509.53015
526.0 0.001901 228.50687 522.78741
542.0 0.001845 228.53842 536.27496
564.0 0.001773 228.57007 549.70197
581.0 0.001721 228.60182 562.78107
577.0 0.001733 228.63365 575.01385
583.0 0.001715 228.66551 586.29706
539.0 0.001855 228.69756 596.09357
583.0 0.001715 228.72966 604.13873
636.0 0.001572 228.76190 610.20343
639.0 0.001565 228.79425 614.40198
645.0 0.001550 228.82660 616.28528
648.0 0.001543 228.85915 616.03076
650.0 0.001538 228.89174 613.72437
603.0 0.001658 228.92450 609.46515
622.0 0.001608 228.95732 603.53986
637.0 0.001570 228.99023 596.36652
632.0 0.001582 229.02322 588.12463
631.0 0.001585 229.05638 579.37854
605.0 0.001653 229.08958 570.54785
616.0 0.001623 229.12296 562.06146
576.0 0.001736 229.15637 554.45905
571.0 0.001751 229.18990 547.63782
590.0 0.001695 229.22354 542.05530
561.0 0.001783 229.25734 537.88251
554.0 0.001805 229.29120 534.90411
543.0 0.001842 229.32515 533.15247
548.0 0.001825 229.35925 532.41339
540.0 0.001852 229.39342 532.54834
518.0 0.001931 229.42776 533.30707
520.0 0.001923 229.46217 534.41223
524.0 0.001908 229.49667 535.64398
515.0 0.001942 229.53139 536.81769
565.0 0.001770 229.56609 537.86420
598.0 0.001672 229.60097 538.74048
576.0 0.001736 229.63597 539.35223
570.0 0.001754 229.67104 539.67328
564.0 0.001773 229.70630 539.71442
591.0 0.001692 229.74159 539.50604
559.0 0.001789 229.77707 539.05438
574.0 0.001742 229.81265 538.39117
562.0 0.001779 229.84828 537.60120
567.0 0.001764 229.88411 536.82373
553.0 0.001808 229.92001 535.74725
565.0 0.001770 229.95613 534.69550
523.0 0.001912 229.99228 533.05994
545.0 0.001835 230.02856 531.37469
539.0 0.001855 230.06503 529.17157
551.0 0.001815 230.10153 526.05487
550.0 0.001818 230.13823 522.13831
500.0 0.002000 230.17500 517.10919
519.0 0.001927 230.21188 511.04474
524.0 0.001908 230.24896 504.01498
558.0 0.001792 230.28609 496.07602
555.0 0.001802 230.32346 487.39185
464.0 0.002155 230.36087 478.18521
441.0 0.002268 230.39842 468.81299
471.0 0.002123 230.43610 459.34906
423.0 0.002364 230.47391 450.08322
448.0 0.002232 230.51189 441.13116
408.0 0.002451 230.54997 432.91339
411.0 0.002433 230.58817 425.46201
435.0 0.002299 230.62650 418.87207
401.0 0.002494 230.66496 413.10904
387.0 0.002584 230.70361 408.19714
394.0 0.002538 230.74236 404.09985
396.0 0.002525 230.78120 400.73782
392.0 0.002551 230.82024 397.98959
399.0 0.002506 230.85941 395.65100
375.0 0.002667 230.89873 393.76514
380.0 0.002632 230.93816 391.99075
359.0 0.002786 230.97769 390.19452
376.0 0.002660 231.01746 388.23779
387.0 0.002584 231.05728 385.98105
372.0 0.002688 231.09732 383.40036
423.0 0.002364 231.13747 380.35291
391.0 0.002558 231.17770 376.90436
373.0 0.002681 231.21814 373.08661
376.0 0.002660 231.25871 369.03290
410.0 0.002439 231.29948 364.80618
405.0 0.002469 231.34032 360.57648
389.0 0.002571 231.38127 356.45230
384.0 0.002604 231.42247 352.54816
372.0 0.002688 231.46378 349.10123
335.0 0.002985 231.50522 346.15591
332.0 0.003012 231.54684 343.85062
344.0 0.002907 231.58856 342.19611
346.0 0.002890 231.63046 341.28293
337.0 0.002967 231.67250 341.15634
325.0 0.003077 231.71474 341.81226
354.0 0.002825 231.75706 343.29449
370.0 0.002703 231.79951 345.55408
353.0 0.002833 231.84224 348.58661
365.0 0.002740 231.88503 352.24744
361.0 0.002770 231.92805 356.49054
348.0 0.002874 231.97116 361.20120
353.0 0.002833 232.01440 366.24933
375.0 0.002667 232.05791 371.50781
398.0 0.002513 232.10143 376.80994
381.0 0.002625 232.14525 381.93353
384.0 0.002604 232.18918 386.93997
381.0 0.002625 232.23318 391.51321
371.0 0.002695 232.27744 395.65894
347.0 0.002882 232.32184 399.30963
387.0 0.002584 232.36639 402.47449
417.0 0.002398 232.41115 405.13638
395.0 0.002532 232.45598 407.47443
429.0 0.002331 232.50102 409.49371
431.0 0.002320 232.54625 411.25983
420.0 0.002381 232.59163 412.85614
394.0 0.002538 232.63718 414.34933
383.0 0.002611 232.68283 415.75290
441.0 0.002268 232.72879 417.22308
428.0 0.002336 232.77478 418.75763
442.0 0.002262 232.82101 420.42096
431.0 0.002320 232.86740 422.21738
450.0 0.002222 232.91389 424.15051
472.0 0.002119 232.96066 426.23468
434.0 0.002304 233.00751 428.45609
420.0 0.002381 233.05463 430.71457
418.0 0.002392 233.10185 433.00391
450.0 0.002222 233.14920 435.27780
414.0 0.002415 233.19681 437.33044
413.0 0.002421 233.24452 439.25125
437.0 0.002288 233.29248 440.84167
433.0 0.002309 233.34059 442.01025
443.0 0.002257 233.38882 442.66327
464.0 0.002155 233.43732 442.77850
460.0 0.002174 233.48590 442.41815
424.0 0.002358 233.53473 441.52692
442.0 0.002262 233.58372 440.46921
452.0 0.002212 233.63283 439.30341
453.0 0.002208 233.68219 438.17215
421.0 0.002375 233.73174 437.21268
443.0 0.002257 233.78142 436.56400
497.0 0.002012 233.83133 436.37170
448.0 0.002232 233.88135 436.67520
433.0 0.002309 233.93158 437.52609
458.0 0.002183 233.98203 438.93314
467.0 0.002141 234.03268 440.87091
444.0 0.002252 234.08348 443.29764
443.0 0.002257 234.13438 445.65631
477.0 0.002096 234.18561 448.71286
483.0 0.002070 234.23691 451.91586
466.0 0.002146 234.28847 455.17993
480.0 0.002083 234.34024 458.39493
476.0 0.002101 234.39211 461.36066
472.0 0.002119 234.44420 464.09940
476.0 0.002101 234.49649 466.45370
458.0 0.002183 234.54900 468.81076
462.0 0.002165 234.60165 470.85229
457.0 0.002188 234.65446 472.62671
470.0 0.002128 234.70757 474.02551
453.0 0.002208 234.76074 475.12741
439.0 0.002278 234.81422 475.87885
455.0 0.002198 234.86784 476.30295
473.0 0.002114 234.92162 476.45316
459.0 0.002179 234.97565 476.36508
445.0 0.002247 235.02980 476.17413
461.0 0.002169 235.08424 476.00436
467.0 0.002141 235.13882 476.02701
457.0 0.002188 235.19356 476.41501
456.0 0.002193 235.24860 477.23978
494.0 0.002024 235.30373 478.68896
503.0 0.001988 235.35915 480.78802
507.0 0.001972 235.41469 483.56802
485.0 0.002062 235.47040 487.32095
507.0 0.001972 235.52643 491.89764
504.0 0.001984 235.58258 497.16656
472.0 0.002119 235.63895 503.15137
468.0 0.002137 235.69553 509.39786
516.0 0.001938 235.75223 515.86481
553.0 0.001808 235.80922 522.30457
562.0 0.001779 235.86638 528.69678
573.0 0.001745 235.92380 534.73254
556.0 0.001799 235.98135 540.13055
559.0 0.001789 236.03911 544.77313
577.0 0.001733 236.09709 548.45801
596.0 0.001678 236.15523 551.02295
578.0 0.001730 236.21365 552.47571
598.0 0.001672 236.27226 552.58911
623.0 0.001605 236.33099 551.49921
588.0 0.001701 236.39003 549.30927
564.0 0.001773 236.44917 545.87756
567.0 0.001764 236.50862 541.97150
567.0 0.001764 236.56825 537.52991
548.0 0.001825 236.62802 532.78607
582.0 0.001718 236.68805 527.76044
543.0 0.001842 236.74826 522.88928
542.0 0.001845 236.80873 518.22614
535.0 0.001869 236.86942 513.78931
511.0 0.001957 236.93019 509.68997
526.0 0.001901 236.99133 505.93726
513.0 0.001949 237.05255 502.45984
501.0 0.001996 237.11406 499.24420
474.0 0.002110 237.17577 496.29285
461.0 0.002169 237.23763 493.35983
485.0 0.002062 237.29977 490.40848
496.0 0.002016 237.36206 487.29196
498.0 0.002008 237.42465 483.83621
503.0 0.001988 237.48738 479.97104
497.0 0.002012 237.55026 475.59058
493.0 0.002028 237.61349 470.63480
475.0 0.002105 237.67686 465.18179
486.0 0.002058 237.74048 459.11798
463.0 0.002160 237.80431 452.66415
457.0 0.002188 237.86829 445.96579
474.0 0.002110 237.93254 438.90594
448.0 0.002232 237.99696 432.10291
427.0 0.002342 238.06169 425.31528
425.0 0.002353 238.12654 418.80893
431.0 0.002320 238.19160 412.62323
398.0 0.002513 238.25696 407.05402
388.0 0.002577 238.32243 402.01746
389.0 0.002571 238.38820 397.58319
391.0 0.002558 238.45415 393.79285
385.0 0.002597 238.52026 390.64209
366.0 0.002732 238.58665 388.10794
369.0 0.002710 238.65324 386.16199
354.0 0.002825 238.72012 384.79019
345.0 0.002899 238.78717 383.88666
365.0 0.002740 238.85434 383.40955
380.0 0.002632 238.92184 383.25845
405.0 0.002469 238.98946 383.32697
395.0 0.002532 239.05745 383.49734
378.0 0.002646 239.12558 383.64740
389.0 0.002571 239.19383 383.65869
374.0 0.002674 239.26242 383.42300
384.0 0.002604 239.33119 382.83701
411.0 0.002433 239.40021 381.89377
338.0 0.002959 239.46942 380.47046
388.0 0.002577 239.53877 378.62204
384.0 0.002604 239.60843 376.34274
434.0 0.002304 239.67825 373.69904
427.0 0.002342 239.74840 370.75592
424.0 0.002358 239.81870 367.46405
412.0 0.002427 239.88913 364.18152
379.0 0.002639 239.95998 360.84613
362.0 0.002762 240.03082 357.56140
370.0 0.002703 240.10208 354.33179
362.0 0.002762 240.17345 351.23468
380.0 0.002632 240.24495 348.30502
365.0 0.002740 240.31686 345.56665
385.0 0.002597 240.38889 343.05444
342.0 0.002924 240.46118 340.71841
330.0 0.003030 240.53365 338.77551
326.0 0.003067 240.60626 336.99725
331.0 0.003021 240.67923 335.45209
321.0 0.003115 240.75232 334.16745
313.0 0.003195 240.82578 333.04871
304.0 0.003289 240.89931 332.00467
307.0 0.003257 240.97302 331.22229
324.0 0.003086 241.04709 330.55984
315.0 0.003175 241.12125 329.98425
326.0 0.003067 241.19577 329.43570
342.0 0.002924 241.27040 328.93259
340.0 0.002941 241.34523 328.42535
332.0 0.003012 241.42038 327.89886
312.0 0.003205 241.49562 327.35468
327.0 0.003058 241.57123 326.79666
320.0 0.003125 241.64699 325.98276
308.0 0.003247 241.72282 325.42053
324.0 0.003086 241.79906 324.89151
337.0 0.002967 241.87541 324.39969
319.0 0.003135 241.95209 323.92166
308.0 0.003247 242.02896 323.54791
311.0 0.003215 242.10590 323.19315
330.0 0.003030 242.18321 322.87823
339.0 0.002950 242.26062 322.51227
342.0 0.002924 242.33836 322.19202
362.0 0.002762 242.41628 321.95874
346.0 0.002890 242.49429 321.59662
314.0 0.003185 242.57265 321.14645
314.0 0.003185 242.65120 320.55933
326.0 0.003067 242.72997 319.83917
308.0 0.003247 242.80899 318.96362
325.0 0.003077 242.88806 318.01804
327.0 0.003058 242.96753 316.99118
319.0 0.003135 243.04710 315.91852
294.0 0.003401 243.12697 314.67059
282.0 0.00355 243.20699 313.65689
320.0 0.003125 243.28712 312.71896
324.0 0.003086 243.36763 311.93466
285.0 0.00351 243.44824 311.32626
301.0 0.003322 243.52919 310.92581
311.0 0.003215 243.61024 310.68671
323.0 0.003096 243.69145 310.77759
299.0 0.003344 243.77303 311.14590
292.0 0.003425 243.85468 311.88687
296.0 0.003378 243.93663 312.61581
301.0 0.003322 244.01872 313.76797
313.0 0.003195 244.10095 315.15057
263.0 0.00380 244.18356 316.75574
301.0 0.003322 244.26624 318.39413
312.0 0.003205 244.34923 320.29382
307.0 0.003257 244.43234 322.27551
327.0 0.003058 244.51559 324.28131
322.0 0.003106 244.59921 326.38065
313.0 0.003195 244.68289 328.40683
305.0 0.003279 244.76691 330.37231
301.0 0.003322 244.85103 332.27945
293.0 0.003413 244.93532 334.11868
315.0 0.003175 245.01988 335.91727
340.0 0.002941 245.10460 337.65915
332.0 0.003012 245.18962 339.44635
312.0 0.003205 245.27480 341.35172
330.0 0.003030 245.36003 343.29565
319.0 0.003135 245.44559 345.49173
312.0 0.003205 245.53123 347.87451
323.0 0.003096 245.61723 350.46429
342.0 0.002924 245.70337 353.22079
339.0 0.002950 245.78960 356.01797
331.0 0.003021 245.87610 359.17041
337.0 0.002967 245.96278 362.43796
369.0 0.002710 246.04967 365.83929
378.0 0.002646 246.13673 369.62665
382.0 0.002618 246.22392 372.96970
387.0 0.002584 246.31143 376.23251
387.0 0.002584 246.39899 379.35040
403.0 0.002481 246.48685 382.27686
414.0 0.002415 246.57489 384.94888
408.0 0.002451 246.66296 387.45566
429.0 0.002331 246.75139 389.47070
450.0 0.002222 246.83984 391.08817
433.0 0.002309 246.92865 392.28613
414.0 0.002415 247.01755 393.05756
409.0 0.002445 247.10652 393.42142
408.0 0.002451 247.19582 393.41824
399.0 0.002506 247.28523 393.10077
406.0 0.002463 247.37488 392.52975
406.0 0.002463 247.46465 391.76535
386.0 0.002591 247.55452 390.86108
385.0 0.002597 247.64467 389.85812
386.0 0.002591 247.73494 388.79468
393.0 0.002545 247.82545 387.70056
383.0 0.002611 247.91609 386.61023
372.0 0.002688 248.00679 385.61270
385.0 0.002597 248.09779 384.64642
382.0 0.002618 248.18889 383.83652
399.0 0.002506 248.28023 383.17850
360.0 0.002778 248.37167 382.74103
359.0 0.002786 248.46317 382.58508
406.0 0.002463 248.55502 382.85938
368.0 0.002717 248.64691 383.24579
380.0 0.002632 248.73907 383.95834
372.0 0.002688 248.83133 384.90924
386.0 0.002591 248.92355 386.10913
386.0 0.002591 249.01617 387.53217
392.0 0.002551 249.10880 389.13452
393.0 0.002545 249.20172 390.95218
381.0 0.002625 249.29474 392.80084
405.0 0.002469 249.38779 394.72656
400.0 0.002500 249.48112 396.66656
378.0 0.002646 249.57449 398.58984
367.0 0.002725 249.66806 400.33115
357.0 0.002801 249.76181 402.01398
365.0 0.002740 249.85556 403.49344
430.0 0.002326 249.94957 404.66611
407.0 0.002457 250.04369 405.74249
378.0 0.002646 250.13795 406.22440
377.0 0.002653 250.23232 406.34723
410.0 0.002439 250.32674 405.80551
425.0 0.002353 250.42143 404.68460
412.0 0.002427 250.51613 402.95020
400.0 0.002500 250.61110 400.64169
409.0 0.002445 250.70609 397.77106
389.0 0.002571 250.80112 394.41794
385.0 0.002597 250.89642 390.68356
393.0 0.002545 250.99170 386.69211
374.0 0.002674 251.08731 382.55634
377.0 0.002653 251.18288 378.37247
380.0 0.002632 251.27847 374.33633
367.0 0.002725 251.37434 370.48785
360.0 0.002778 251.47021 366.97202
353.0 0.002833 251.56631 363.84372
321.0 0.003115 251.66243 361.17612
343.0 0.002915 251.75854 359.03259
358.0 0.002793 251.85495 357.42313
344.0 0.002907 251.95129 356.45801
344.0 0.002907 252.04788 355.95251
338.0 0.002959 252.14449 356.05612
338.0 0.002959 252.24109 356.71024
349.0 0.002865 252.33797 357.87839
339.0 0.002950 252.43477 359.49222
335.0 0.002985 252.53180 361.38232
345.0 0.002899 252.62891 363.82742
356.0 0.002809 252.72585 366.44559
347.0 0.002882 252.82315 369.23975
351.0 0.002849 252.92033 372.01520
346.0 0.002890 253.01779 374.91376
364.0 0.002747 253.11523 377.67435
382.0 0.002618 253.21263 380.30380
377.0 0.002653 253.31021 382.75208
370.0 0.002703 253.40779 384.96231
360.0 0.002778 253.50552 386.89792
402.0 0.002488 253.60327 388.56000
394.0 0.002538 253.70093 389.84790
409.0 0.002445 253.79880 390.78333
396.0 0.002525 253.89671 391.35437
402.0 0.002488 253.99466 391.56439
367.0 0.002725 254.09270 391.43250
358.0 0.002793 254.19063 390.99249
390.0 0.002564 254.28874 390.26266
372.0 0.002688 254.38681 389.38809
402.0 0.002488 254.48505 388.42587
358.0 0.002793 254.58318 387.46545
363.0 0.002755 254.68126 386.64923
378.0 0.002646 254.77957 385.99960
381.0 0.002625 254.87776 385.73605
356.0 0.002809 254.97609 385.73001
394.0 0.002538 255.07436 386.06924
400.0 0.002500 255.17253 386.89447
384.0 0.002604 255.27097 388.16153
366.0 0.002732 255.36920 389.87546
382.0 0.002618 255.46761 391.97238
385.0 0.002597 255.56589 394.41461
382.0 0.002618 255.66411 397.10211
367.0 0.002725 255.76254 400.00757
386.0 0.002591 255.86081 403.04239
428.0 0.002336 255.95911 406.11853
426.0 0.002347 256.05743 409.12921
405.0 0.002469 256.15561 412.00616
414.0 0.002415 256.25394 414.64227
427.0 0.002342 256.35211 416.95456
437.0 0.002288 256.45038 418.85278
438.0 0.002283 256.54852 420.23108
443.0 0.002257 256.64655 421.09390
414.0 0.002415 256.74478 421.42896
429.0 0.002331 256.84277 421.25470
423.0 0.002364 256.94086 420.71136
389.0 0.002571 257.03885 419.96350
381.0 0.002625 257.13672 418.84692
414.0 0.002415 257.23459 417.61780
424.0 0.002358 257.33237 416.35736
404.0 0.002475 257.43018 415.14636
414.0 0.002415 257.52789 414.03894
419.0 0.002387 257.62543 413.15549
394.0 0.002538 257.72302 412.40283
392.0 0.002551 257.82043 411.94571
402.0 0.002488 257.91785 411.52356
375.0 0.002667 258.01517 411.24411
399.0 0.002506 258.11227 411.08261
405.0 0.002469 258.20950 410.97882
398.0 0.002513 258.30652 410.95111
386.0 0.002591 258.40341 410.98224
399.0 0.002506 258.50031 411.07755
406.0 0.002463 258.59692 411.30844
390.0 0.002564 258.69360 411.70074
390.0 0.002564 258.79001 412.32278
397.0 0.002519 258.88651 413.23901
424.0 0.002358 258.98273 414.49103
447.0 0.002237 259.07874 416.18378
430.0 0.002326 259.17487 418.35107
417.0 0.002398 259.27066 421.08643
460.0 0.002174 259.36642 424.32767
464.0 0.002155 259.46194 428.16968
445.0 0.002247 259.55731 432.68491
410.0 0.002439 259.65265 437.86783
418.0 0.002392 259.74771 443.72141
413.0 0.002421 259.84274 450.27972
464.0 0.002155 259.93750 457.34811
460.0 0.002174 260.03198 464.88910
485.0 0.002062 260.12653 472.81137
479.0 0.002088 260.22073 481.00238
477.0 0.002096 260.31485 489.14175
530.0 0.001887 260.40869 497.07303
559.0 0.001789 260.50229 504.48569
531.0 0.001883 260.59586 511.26840
535.0 0.001869 260.68906 517.00580
562.0 0.001779 260.78226 521.59692
578.0 0.001730 260.87509 524.77625
560.0 0.001786 260.96762 526.46967
581.0 0.001721 261.06009 526.74146
560.0 0.001786 261.15222 525.59741
564.0 0.001773 261.24423 523.32617
543.0 0.001842 261.33600 519.75568
544.0 0.001838 261.42737 515.46222
533.0 0.001876 261.51859 510.29382
507.0 0.001972 261.60953 504.68393
525.0 0.001905 261.70029 498.72595
467.0 0.002141 261.79074 492.92969
451.0 0.002217 261.88083 487.35614
508.0 0.001969 261.97073 482.26819
490.0 0.002041 262.06036 477.71982
474.0 0.002110 262.14972 473.88876
470.0 0.002128 262.23874 470.86334
464.0 0.002155 262.32739 468.70538
495.0 0.002020 262.41586 467.42569
444.0 0.002252 262.50403 467.11270
432.0 0.002315 262.59186 467.43942
462.0 0.002165 262.67938 468.60861
467.0 0.002141 262.76639 470.43552
478.0 0.002092 262.85330 472.80411
498.0 0.002008 262.93979 475.60669
481.0 0.002079 263.02600 478.72180
470.0 0.002128 263.11176 481.99365
471.0 0.002123 263.19714 485.29727
501.0 0.001996 263.28235 488.53076
520.0 0.001923 263.36703 491.64340
513.0 0.001949 263.45142 494.54822
529.0 0.001890 263.53543 497.24042
480.0 0.002083 263.61887 499.63754
497.0 0.002012 263.70215 501.74661
514.0 0.001946 263.78488 503.73480
514.0 0.001946 263.86734 505.45767
494.0 0.002024 263.94934 506.95847
493.0 0.002028 264.03082 508.21143
501.0 0.001996 264.11200 509.24911
531.0 0.001883 264.19266 510.04758
526.0 0.001901 264.27301 510.59610
541.0 0.001848 264.35291 510.79086
558.0 0.001792 264.43216 510.59949
546.0 0.001832 264.51114 509.95761
549.0 0.001821 264.58954 508.75183
540.0 0.001852 264.66757 507.06796
546.0 0.001832 264.74515 504.85999
525.0 0.001905 264.82208 502.04858
517.0 0.001934 264.89871 498.85822
526.0 0.001901 264.97470 495.12418
528.0 0.001894 265.05032 491.24344
499.0 0.002004 265.12537 487.24390
516.0 0.001938 265.19986 483.28046
496.0 0.002016 265.27383 479.47284
488.0 0.002049 265.34729 475.97314
447.0 0.002237 265.42026 472.88345
434.0 0.002304 265.49265 470.29681
484.0 0.002066 265.56439 468.27444
464.0 0.002155 265.63574 466.84464
446.0 0.002242 265.70636 466.01923
457.0 0.002188 265.77652 465.77713
482.0 0.002075 265.84607 466.08023
452.0 0.002212 265.91498 466.86392
432.0 0.002315 265.98331 468.05411
461.0 0.002169 266.05106 469.57373
465.0 0.002151 266.11829 471.27893
480.0 0.002083 266.18469 473.08435
451.0 0.002217 266.25052 474.85870
508.0 0.001969 266.31577 476.49451
498.0 0.002008 266.38034 477.96338
502.0 0.001992 266.44437 478.95245
512.0 0.001953 266.50757 479.49734
563.0 0.001776 266.57010 479.50089
553.0 0.001808 266.63205 478.93768
522.0 0.001916 266.69327 477.79349
496.0 0.002016 266.75385 476.09189
496.0 0.002016 266.81366 473.84631
515.0 0.001942 266.87274 471.22845
509.0 0.001965 266.93118 468.27948
483.0 0.002070 266.98883 465.07883
488.0 0.002049 267.04581 461.77097
465.0 0.002151 267.10202 458.40530
470.0 0.002128 267.15738 455.16287
461.0 0.002169 267.21210 452.15363
417.0 0.002398 267.26596 449.23718
418.0 0.002392 267.31918 446.54886
429.0 0.002331 267.37146 444.12680
422.0 0.002370 267.42297 442.12854
410.0 0.002439 267.47372 440.47028
411.0 0.002433 267.52359 439.20932
430.0 0.002326 267.57275 438.19064
458.0 0.002183 267.62091 437.43655
432.0 0.002315 267.66837 436.89749
407.0 0.002457 267.71487 436.52145
406.0 0.002463 267.76056 436.25711
416.0 0.002404 267.80539 436.06061
435.0 0.002299 267.84937 435.97495
417.0 0.002398 267.89230 435.83286
426.0 0.002347 267.93451 435.70596
408.0 0.002451 267.97577 435.58234
437.0 0.002288 268.01599 435.40311
437.0 0.002288 268.05545 435.20950
398.0 0.002513 268.09387 435.08560
414.0 0.002415 268.13129 435.02621
384.0 0.002604 268.16782 435.10818
392.0 0.002551 268.20346 435.26758
433.0 0.002309 268.23801 435.54315
394.0 0.002538 268.27155 436.00003
436.0 0.002294 268.30420 436.60858
410.0 0.002439 268.33575 437.38950
427.0 0.002342 268.36630 438.30795
432.0 0.002315 268.39587 439.21747
436.0 0.002294 268.42429 440.27414
435.0 0.002299 268.45178 441.43060
416.0 0.002404 268.47806 442.54105
447.0 0.002237 268.50339 443.61884
441.0 0.002268 268.52756 444.54153
422.0 0.002370 268.55069 445.31635
458.0 0.002183 268.57266 445.87994
466.0 0.002146 268.59357 446.23785
454.0 0.002203 268.61334 446.25513
474.0 0.002110 268.63196 445.94946
456.0 0.002193 268.64948 445.30502
475.0 0.002105 268.66580 444.30750
477.0 0.002096 268.68085 442.96411
429.0 0.002331 268.69482 441.29202
443.0 0.002257 268.70761 439.35248
451.0 0.002217 268.71918 437.15689
436.0 0.002294 268.72949 434.78003
460.0 0.002174 268.73862 432.18365
429.0 0.002331 268.74646 429.67303
430.0 0.002326 268.75305 427.20093
444.0 0.002252 268.75839 424.82947
418.0 0.002392 268.76248 422.58490
414.0 0.002415 268.76520 420.56772
441.0 0.002268 268.76672 418.72537
430.0 0.002326 268.76685 417.10870
404.0 0.002475 268.76575 415.70795
410.0 0.002439 268.76324 414.44699
395.0 0.002532 268.75940 413.41467
403.0 0.002481 268.75415 412.54712
407.0 0.002457 268.74759 411.79324
396.0 0.002525 268.73959 411.12924
396.0 0.002525 268.73026 410.50873
430.0 0.002326 268.71945 409.89447
428.0 0.002336 268.70724 409.24567
417.0 0.002398 268.69357 408.53870
411.0 0.002433 268.67853 407.72476
444.0 0.002252 268.66193 406.78967
410.0 0.002439 268.64389 405.72769
391.0 0.002558 268.62430 404.53940
417.0 0.002398 268.60327 403.24316
427.0 0.002342 268.58075 401.87219
414.0 0.002415 268.55664 400.46011
411.0 0.002433 268.53104 399.08560
400.0 . . .
loop_
_refln_index_h
_refln_index_k
_refln_index_l
_pd_refln_wavelength_id
_refln_observed_status
_refln_F_squared_meas
_refln_F_squared_calc
_refln_phase_calc
_refln_d_spacing
_gsas_i100_meas
0 2 0 1 o 28938.504 30126.064 0.00 6.65892 7.99
0 2 0 2 o 31329.174 30126.064 0.00 6.65892 4.35
1 1 1 1 o 18476.432 20126.797 0.00 6.06635 16.16
1 1 1 2 o 19682.777 20126.797 0.00 6.06635 8.62
2 0 0 1 o 3939.551 3814.667 180.00 4.84150 0.28
2 0 0 2 o 3614.528 3814.667 180.00 4.84150 0.12
0 0 2 1 o 49467.13 51845.77 0.00 4.79576 5.24
0 0 2 2 o 51208.46 51845.77 0.00 4.79576 2.73
1 2 1 1 o 3218.740 3325.849 0.00 4.76257 0.76
1 2 1 2 o 3124.952 3325.849 0.00 4.76257 0.35
2 1 0 1 o 163253.19 168123.63 180.00 4.55016 36.79
2 1 0 2 o 167174.66 168123.63 180.00 4.55016 18.83
1 0 2 1 o 232677.27 238401.59 0.00 4.29754 47.54
1 0 2 2 o 233466.17 238401.59 0.00 4.29754 23.74
2 1 1 1 o 104745.92 104662.72 0.00 4.11102 39.61
2 1 1 2 o 104273.49 104662.72 0.00 4.11102 19.60
1 1 2 1 o 112793.00 111659.16 0.00 4.08988 42.16
1 1 2 2 o 113381.35 111659.16 0.00 4.08988 21.10
0 3 1 1 o 518335.5 517035.5 180.00 4.02870 100.00
0 3 1 2 o 521395.5 517035.5 180.00 4.02870 50.09
2 2 0 1 o 82954.58 80890.14 180.00 3.91587 14.32
2 2 0 2 o 83288.38 80890.14 180.00 3.91587 7.16
0 2 2 1 o 50998.08 48583.84 0.00 3.89155 8.70
0 2 2 2 o 51990.07 48583.84 0.00 3.89155 4.42
1 3 1 1 o 88120.32 82419.83 180.00 3.71960 29.13
1 3 1 2 o 88872.49 82419.83 180.00 3.71960 14.63
2 2 1 1 o 207798.64 204281.69 180.00 3.62537 61.73
2 2 1 2 o 203469.36 204281.69 180.00 3.62537 29.97
1 2 2 1 o 148.122 100.502 0.00 3.61085 0.05
1 2 2 2 o 440.933 100.502 0.00 3.61085 0.07
2 0 2 1 o 168329.88 165750.25 180.00 3.40717 22.86
2 0 2 2 o 159328.77 165750.25 180.00 3.40717 10.72
0 4 0 1 o 130220.72 122114.44 180.00 3.32946 9.29
0 4 0 2 o 127480.26 122114.44 180.00 3.32946 4.52
2 1 2 1 o 20749.441 20099.639 180.00 3.30086 5.16
2 1 2 2 o 20499.906 20099.639 180.00 3.30086 2.53
2 3 0 1 o 42829.39 44533.57 180.00 3.27202 5.07
2 3 0 2 o 41864.33 44533.57 180.00 3.27202 2.45
0 1 3 1 o 151997.42 147261.61 180.00 3.10884 16.03
0 1 3 2 o 149256.45 147261.61 180.00 3.10884 7.81
2 3 1 1 o 56206.48 55614.49 0.00 3.09678 12.11
2 3 1 2 o 56487.75 55614.49 0.00 3.09678 6.06
1 3 2 1 o 27281.074 26914.182 0.00 3.08772 5.87
1 3 2 2 o 26607.904 26914.182 0.00 3.08772 2.84
2 2 2 1 o 62972.43 61361.52 180.00 3.03317 12.60
2 2 2 2 o 59550.06 61361.52 180.00 3.03317 5.87
1 4 1 1 o 16814.377 16120.616 180.00 2.99148 3.55
1 4 1 2 o 16770.492 16120.616 180.00 2.99148 1.76
3 1 1 1 o 60088.68 58469.82 0.00 2.98146 11.91
3 1 1 2 o 56461.75 58469.82 0.00 2.98146 5.52
1 1 3 1 o 2445.385 3557.575 0.00 2.96002 0.38
1 1 3 2 o 1121.329 3557.575 0.00 2.96002 0.04
3 2 1 1 o 41197.64 39943.63 180.00 2.77980 7.09
3 2 1 2 o 41201.64 39943.63 180.00 2.77980 3.53
1 2 3 1 o 135092.28 135817.64 0.00 2.76240 22.65
1 2 3 2 o 131105.34 135817.64 0.00 2.76240 10.89
2 4 0 1 o 95483.37 97431.33 180.00 2.74337 8.20
2 4 0 2 o 93309.23 97431.33 180.00 2.74337 3.97
0 4 2 1 o 22555.646 23692.107 0.00 2.73497 2.01
0 4 2 2 o 21546.533 23692.107 0.00 2.73497 0.95
2 3 2 1 o 4653.024 4034.236 180.00 2.70286 0.79
2 3 2 2 o 4960.912 4034.236 180.00 2.70286 0.42
3 0 2 1 o 105937.27 91381.24 0.00 2.67770 8.13
3 0 2 2 o 97064.56 91381.24 0.00 2.67770 3.65
2 4 1 1 o 34626.555 32851.906 0.00 2.63760 5.34
1 4 2 1 o 29299.646 27652.260 180.00 2.63199 4.33
2 4 1 2 o 35076.99 32851.906 0.00 2.63760 2.69
1 4 2 2 o 29698.014 27652.260 180.00 2.63199 2.19
3 1 2 1 o 38556.53 35944.27 180.00 2.62516 5.42
3 1 2 2 o 38061.80 35944.27 180.00 2.62516 2.65
2 1 3 1 o 38528.73 36594.54 0.00 2.61596 5.47
2 1 3 2 o 37117.02 36594.54 0.00 2.61596 2.60
0 3 3 1 o 317.803 327.697 180.00 2.59437 0.02
0 3 3 2 o 471.904 327.697 180.00 2.59437 0.02
0 5 1 1 o 63346.52 55623.56 180.00 2.56645 4.57
0 5 1 2 o 59581.26 55623.56 180.00 2.56645 2.11
3 3 1 1 o 25458.355 24938.148 180.00 2.51895 3.42
3 3 1 2 o 26489.314 24938.148 180.00 2.51895 1.78
1 3 3 1 o 156083.88 154101.19 180.00 2.50598 20.82
1 3 3 2 o 148863.38 154101.19 180.00 2.50598 9.79
3 2 2 1 o 11084.076 10865.146 180.00 2.48436 1.28
1 5 1 1 o 4904.683 4777.414 180.00 2.48079 0.68
3 2 2 2 o 11306.870 10865.146 180.00 2.48436 0.65
2 2 3 1 o 20215.041 19427.027 0.00 2.47656 2.47
1 5 1 2 o 4923.304 4777.414 180.00 2.48079 0.34
2 2 3 2 o 19271.449 19427.027 0.00 2.47656 1.16
4 0 0 1 o 37198.28 41084.85 180.00 2.42075 1.04
4 0 0 2 o 37575.74 41084.85 180.00 2.42075 0.52
0 0 4 1 o 60416.35 54225.21 180.00 2.39788 1.79
0 0 4 2 o 61790.29 54225.21 180.00 2.39788 0.91
4 1 0 1 o 9536.102 8697.514 180.00 2.38172 0.58
2 4 2 1 o 31921.680 29567.084 180.00 2.38128 3.58
4 1 0 2 o 9095.017 8697.514 180.00 2.38172 0.27
2 4 2 2 o 30643.883 29567.084 180.00 2.38128 1.69
2 5 0 1 o 167764.41 157276.25 0.00 2.33371 9.75
2 5 0 2 o 163616.88 157276.25 0.00 2.33371 4.70
1 0 4 1 o 44391.43 42762.78 0.00 2.32757 2.26
1 0 4 2 o 44922.52 42762.78 0.00 2.32757 1.14
4 1 1 1 o 200102.63 190951.02 180.00 2.31153 21.80
4 1 1 2 o 196815.59 190951.02 180.00 2.31153 10.63
3 3 2 1 o 40854.90 37747.76 180.00 2.29288 4.89
1 1 4 1 o 6880.453 6454.755 0.00 2.29282 0.66
3 3 2 2 o 39918.89 37747.76 180.00 2.29288 2.37
1 1 4 2 o 6751.963 6454.755 0.00 2.29282 0.32
2 3 3 1 o 33477.461 31931.125 0.00 2.28674 3.51
2 3 3 2 o 32489.877 31931.125 0.00 2.28674 1.68
4 2 0 1 o 74827.50 73586.37 0.00 2.27508 3.78
4 2 0 2 o 74316.40 73586.37 0.00 2.27508 1.86
2 5 1 1 o 42982.70 43517.21 0.00 2.26756 4.69
1 5 2 1 o 47031.17 48733.64 180.00 2.26399 4.67
2 5 1 2 o 41854.10 43517.21 0.00 2.26756 2.26
1 5 2 2 o 47230.59 48733.64 180.00 2.26399 2.34
0 2 4 1 o 74414.02 77160.09 0.00 2.25606 3.84
1 4 3 1 o 21750.506 22418.789 180.00 2.24335 2.28
3 4 1 1 o 5767.887 5971.316 0.00 2.25264 0.60
0 2 4 2 o 74998.42 77160.09 0.00 2.25606 1.93
3 1 3 1 o 50188.37 51505.52 0.00 2.23911 4.61
1 4 3 2 o 21557.330 22418.789 180.00 2.24335 1.12
3 4 1 2 o 5804.784 5971.316 0.00 2.25264 0.30
3 1 3 2 o 50056.61 51505.52 0.00 2.23911 2.28
0 6 0 1 o 277392.88 265526.97 0.00 2.21964 7.51
0 6 0 2 o 271032.63 265526.97 0.00 2.21964 3.63
4 2 1 1 o 7112.565 6952.789 180.00 2.21366 0.75
4 2 1 2 o 6694.504 6952.789 180.00 2.21366 0.35
1 2 4 1 o 7468.895 7487.871 0.00 2.19721 0.70
1 2 4 2 o 6820.395 7487.871 0.00 2.19721 0.31
4 0 2 1 o -61.255 378.743 180.00 2.16105 0.03
4 0 2 2 o 212.064 378.743 180.00 2.16105 0.02
3 2 3 1 o 9627.147 9258.271 180.00 2.14981 0.62
2 0 4 1 o 9284.207 8848.233 180.00 2.14877 0.32
3 2 3 2 o 10738.961 9258.271 180.00 2.14981 0.37
2 0 4 2 o 10799.534 8848.233 180.00 2.14877 0.20
4 1 2 1 o 6135.098 5800.461 180.00 2.13315 0.67
4 1 2 2 o 6056.360 5800.461 180.00 2.13315 0.33
4 3 0 1 o 396.796 382.496 180.00 2.12530 0.02
2 1 4 1 o 127516.52 119294.75 0.00 2.12134 11.92
4 3 0 2 o 397.971 382.496 180.00 2.12530 0.01
2 1 4 2 o 118992.41 119294.75 0.00 2.12134 5.47
1 6 1 1 o 15.246 27.582 180.00 2.11050 0.01
1 6 1 2 o 65.193 27.582 180.00 2.11050 0.01
2 5 2 1 o 39048.27 34638.898 0.00 2.09844 3.99
2 5 2 2 o 38502.85 34638.898 0.00 2.09844 1.96
3 4 2 1 o 102956.68 102958.45 180.00 2.08660 8.91
2 4 3 1 o 6497.996 6841.355 180.00 2.08198 0.58
3 4 2 2 o 97551.05 102958.45 180.00 2.08660 4.14
2 4 3 2 o 6190.733 6841.355 180.00 2.08198 0.27
4 3 1 1 o 11276.462 13072.768 0.00 2.07497 0.98
4 3 1 2 o 9923.416 13072.768 0.00 2.07497 0.42
1 3 4 1 o 6551.582 7249.133 0.00 2.06141 0.58
1 3 4 2 o 7192.650 7249.133 0.00 2.06141 0.32
4 2 2 1 o 73862.52 73642.54 0.00 2.05551 6.40
4 2 2 2 o 75573.25 73642.54 0.00 2.05551 3.27
0 5 3 1 o 54370.80 54214.93 180.00 2.04644 2.52
2 2 4 1 o 30917.738 30959.615 180.00 2.04494 2.61
0 5 3 2 o 52412.51 54214.93 180.00 2.04644 1.20
2 2 4 2 o 29412.781 30959.615 180.00 2.04494 1.22
3 3 3 1 o 17127.250 16508.885 180.00 2.02212 1.27
2 6 0 1 o 59494.65 58155.34 180.00 2.01770 2.70
3 3 3 2 o 16743.203 16508.885 180.00 2.02212 0.61
0 6 2 1 o 95198.03 94755.62 0.00 2.01435 4.18
2 6 0 2 o 58802.89 58155.34 180.00 2.01770 1.32
0 6 2 2 o 98232.08 94755.62 0.00 2.01435 2.16
3 5 1 1 o 650.558 613.736 180.00 2.00881 0.07
3 5 1 2 o 600.257 613.736 180.00 2.00881 0.03
1 5 3 1 o 21746.840 23061.377 180.00 2.00222 1.77
1 5 3 2 o 20203.705 23061.377 180.00 2.00222 0.81
2 6 1 1 o 98851.82 94509.52 0.00 1.97448 8.48
1 6 2 1 o 92284.47 90859.95 0.00 1.97213 7.80
2 6 1 2 o 94971.88 94509.52 0.00 1.97448 4.03
1 6 2 2 o 92209.98 90859.95 0.00 1.97213 3.88
4 4 0 1 o 362383.2 364443.2 0.00 1.95794 13.99
4 4 0 2 o 370575.3 364443.2 0.00 1.95794 7.15
0 4 4 1 o 193418.16 196448.22 0.00 1.94578 7.07
4 3 2 1 o 6400.124 6605.570 180.00 1.94305 0.60
0 4 4 2 o 193037.69 196448.22 0.00 1.94578 3.51
4 3 2 2 o 6590.177 6605.570 180.00 1.94305 0.31
2 3 4 1 o 46597.43 46597.71 0.00 1.93411 3.72
2 3 4 2 o 44409.53 46597.71 0.00 1.93411 1.75
3 0 4 1 o 497.472 764.788 180.00 1.92483 0.03
3 0 4 2 o 577.854 764.788 180.00 1.92483 0.02
4 4 1 1 o 3235.862 3510.181 0.00 1.91838 0.27
4 4 1 2 o 3200.996 3510.181 0.00 1.91838 0.13
4 1 3 1 o 13335.208 14506.085 180.00 1.91000 0.99
1 4 4 1 o 1221.371 1316.420 0.00 1.90764 0.11
4 1 3 2 o 14188.054 14506.085 180.00 1.91000 0.53
3 1 4 1 o 24084.770 24573.141 180.00 1.90504 1.84
1 4 4 2 o 1300.312 1316.420 0.00 1.90764 0.06
3 1 4 2 o 24966.857 24573.141 180.00 1.90504 0.95
0 1 5 1 o 144012.61 142060.38 180.00 1.89871 5.00
0 1 5 2 o 145669.83 142060.38 180.00 1.89871 2.52
3 5 2 1 o 50395.41 51202.44 0.00 1.88840 3.57
2 5 3 1 o 32431.869 33015.531 0.00 1.88497 2.31
3 5 2 2 o 50344.53 51202.44 0.00 1.88840 1.77
2 5 3 2 o 32024.691 33015.531 0.00 1.88497 1.13
5 1 1 1 o 813.893 821.713 180.00 1.87930 0.02
3 4 3 1 o 22416.455 21978.357 0.00 1.87637 1.67
5 1 1 2 o 833.312 821.713 180.00 1.87930 0.01
3 4 3 2 o 23602.318 21978.357 0.00 1.87637 0.88
0 7 1 1 o 42836.08 39927.05 0.00 1.86619 1.72
1 1 5 1 o 28601.734 27522.094 180.00 1.86322 1.90
0 7 1 2 o 39770.76 39927.05 0.00 1.86619 0.79
2 6 2 1 o 24002.104 24461.889 180.00 1.85980 1.61
1 1 5 2 o 26817.178 27522.094 180.00 1.86322 0.87
2 6 2 2 o 22509.867 24461.889 180.00 1.85980 0.74
4 2 3 1 o 4128.247 4477.272 0.00 1.85367 0.31
3 2 4 1 o 42501.53 41664.59 180.00 1.84913 2.95
4 2 3 2 o 4577.300 4477.272 0.00 1.85367 0.17
3 2 4 2 o 52678.11 41664.59 180.00 1.84913 1.88
1 7 1 1 o 28179.564 29131.691 0.00 1.83247 2.07
1 7 1 2 o 29174.418 29131.691 0.00 1.83247 1.07
5 2 1 1 o 76187.91 74019.78 180.00 1.82556 5.26
5 2 1 2 o 84793.34 74019.78 180.00 1.82556 2.96
4 4 2 1 o 148140.50 138972.53 0.00 1.81269 10.30
1 2 5 1 o 23769.934 22690.410 180.00 1.81082 1.82
4 4 2 2 o 142816.48 138972.53 0.00 1.81269 4.91
1 2 5 2 o 23213.576 22690.410 180.00 1.81082 0.89
2 4 4 1 o 63369.05 62103.01 180.00 1.80543 4.59
2 4 4 2 o 64264.58 62103.01 180.00 1.80543 2.32
3 6 1 1 o 51386.44 48973.63 0.00 1.79654 3.84
5 0 2 1 o 17220.229 16514.301 180.00 1.79572 0.52
3 6 1 2 o 48605.44 48973.63 0.00 1.79654 1.80
1 6 3 1 o 90319.87 90960.84 180.00 1.79182 6.41
4 5 0 1 o 2268.700 2278.796 0.00 1.79144 0.06
5 0 2 2 o 16440.525 16514.301 180.00 1.79572 0.25
1 6 3 2 o 87733.68 90960.84 180.00 1.79182 3.09
4 5 0 2 o 2207.396 2278.796 0.00 1.79144 0.03
5 1 2 1 o 69524.70 68989.09 180.00 1.77961 4.23
5 1 2 2 o 70030.34 68989.09 180.00 1.77961 2.12
2 7 0 1 o 9910.566 10162.355 180.00 1.77073 0.38
4 3 3 1 o 102750.17 105065.63 180.00 1.76993 6.23
2 1 5 1 o 16490.000 16860.730 0.00 1.76764 1.01
2 7 0 2 o 9962.364 10162.355 180.00 1.77073 0.19
3 3 4 1 o 1822.704 1849.089 180.00 1.76597 0.11
4 3 3 2 o 103695.32 105065.63 180.00 1.76993 3.13
2 1 5 2 o 16764.438 16860.730 0.00 1.76764 0.51
3 3 4 2 o 1829.477 1849.089 180.00 1.76597 0.05
4 5 1 1 o 25819.412 26259.754 180.00 1.76098 1.62
0 3 5 1 o 79724.13 81160.36 0.00 1.76093 2.49
4 5 1 2 o 25601.125 26259.754 180.00 1.76098 0.80
0 3 5 2 o 79082.24 81160.36 0.00 1.76093 1.23
1 5 4 1 o 32209.561 35493.97 180.00 1.75267 2.03
1 5 4 2 o 33112.148 35493.97 180.00 1.75267 1.04
5 3 1 1 o 4725.539 4585.534 0.00 1.74541 0.25
2 7 1 1 o 48995.39 53077.10 0.00 1.74131 3.00
5 3 1 2 o 4265.437 4585.534 0.00 1.74541 0.11
1 7 2 1 o 176.228 190.040 0.00 1.73969 0.01
2 7 1 2 o 46988.95 53077.10 0.00 1.74131 1.42
1 7 2 2 o 170.518 190.040 0.00 1.73969 0.00
5 2 2 1 o 13734.053 15636.438 0.00 1.73378 0.78
1 3 5 1 o 8255.856 9477.596 180.00 1.73251 0.45
5 2 2 2 o 13518.613 15636.438 0.00 1.73378 0.38
3 5 3 1 o 7431.861 8520.869 0.00 1.72833 0.50
1 3 5 2 o 8466.943 9477.596 180.00 1.73251 0.23
3 5 3 2 o 7668.493 8520.869 0.00 1.72833 0.26
2 2 5 1 o 174338.27 182925.66 0.00 1.72270 10.03
2 2 5 2 o 178681.78 182925.66 0.00 1.72270 5.14
3 6 2 1 o 11390.582 13092.772 0.00 1.70886 0.60
2 6 3 1 o 11330.662 13285.384 180.00 1.70632 0.64
3 6 2 2 o 12325.869 13092.772 0.00 1.70886 0.33
4 0 4 1 o 386812.0 387719.4 0.00 1.70358 11.20
2 6 3 2 o 13727.210 13285.384 180.00 1.70632 0.40
4 0 4 2 o 415992.4 387719.4 0.00 1.70358 6.06
4 1 4 1 o 17200.143 16849.420 0.00 1.68982 1.09
4 1 4 2 o 19328.521 16849.420 0.00 1.68982 0.62
4 5 2 1 o 6343.040 6174.957 0.00 1.67817 0.43
4 5 2 2 o 6401.008 6174.957 0.00 1.67817 0.21
2 5 4 1 o 120875.09 120010.52 180.00 1.67241 6.69
4 4 3 1 o 185.103 178.526 180.00 1.66972 0.01
2 5 4 2 o 122629.20 120010.52 180.00 1.67241 3.39
3 4 4 1 o 77545.39 76375.13 180.00 1.66640 4.23
4 4 3 2 o 182.067 178.526 180.00 1.66972 0.00
0 8 0 1 o 300365.91 290991.25 0.00 1.66473 4.59
5 3 2 1 o 25532.328 24732.348 180.00 1.66468 1.41
3 4 4 2 o 80172.38 76375.13 180.00 1.66640 2.19
2 7 2 1 o 496.287 465.473 0.00 1.66112 0.04
0 8 0 2 o 306383.53 290991.25 0.00 1.66473 2.33
5 3 2 2 o 26026.061 24732.348 180.00 1.66468 0.72
2 7 2 2 o 478.600 465.473 0.00 1.66112 0.02
2 3 5 1 o 32040.752 33357.855 0.00 1.65487 1.70
2 3 5 2 o 34094.230 33357.855 0.00 1.65487 0.91
4 2 4 1 o 12480.666 12028.482 0.00 1.65043 0.70
5 4 1 1 o 10778.655 10135.933 0.00 1.64909 0.58
4 2 4 2 o 12142.674 12028.482 0.00 1.65043 0.34
5 4 1 2 o 10333.154 10135.933 0.00 1.64909 0.27
5 1 3 1 o 92529.57 87543.35 180.00 1.64376 5.12
5 1 3 2 o 95958.46 87543.35 180.00 1.64376 2.66
1 4 5 1 o 219.461 206.637 0.00 1.63819 0.01
3 1 5 1 o 25797.998 25308.928 0.00 1.63654 1.40
4 6 0 1 o 5463.371 5436.565 180.00 1.63601 0.15
0 7 3 1 o 133332.36 133836.31 180.00 1.63497 3.68
1 4 5 2 o 207.246 206.637 0.00 1.63819 0.00
3 1 5 2 o 25529.779 25308.928 0.00 1.63654 0.69
4 6 0 2 o 5454.453 5436.565 180.00 1.63601 0.07
0 7 3 2 o 133228.20 133836.31 180.00 1.63497 1.83
0 6 4 1 o 9298.369 9463.281 180.00 1.62889 0.26
0 6 4 2 o 8921.565 9463.281 180.00 1.62889 0.12
1 8 1 1 o 29711.479 29882.959 0.00 1.61717 1.66
3 7 1 1 o 67680.20 68616.44 0.00 1.61558 3.68
6 0 0 1 o 68450.32 67957.18 180.00 1.61383 0.81
1 8 1 2 o 30140.088 29882.959 0.00 1.61717 0.84
4 6 1 1 o 926.910 919.563 0.00 1.61272 0.04
1 7 3 1 o 18357.357 18157.604 0.00 1.61215 0.93
3 7 1 2 o 69824.65 68616.44 0.00 1.61558 1.90
6 0 0 2 o 69986.82 67957.18 180.00 1.61383 0.41
4 6 1 2 o 939.666 919.563 0.00 1.61272 0.02
1 7 3 2 o 18493.012 18157.604 0.00 1.61215 0.47
5 2 3 1 o 64196.95 63332.64 180.00 1.60744 2.98
1 6 4 1 o 47240.88 46959.23 0.00 1.60632 2.42
5 2 3 2 o 62676.32 63332.64 180.00 1.60744 1.44
1 6 4 2 o 46763.59 46959.23 0.00 1.60632 1.19
6 1 0 1 o 163381.94 163769.55 0.00 1.60211 4.22
3 2 5 1 o 2937.652 2916.862 180.00 1.60069 0.21
0 0 6 2 o 59166.53 59038.75 180.00 1.59859 0.39
0 0 6 1 o 59893.59 59038.75 180.00 1.59859 0.79
6 1 0 2 o 166658.44 163769.55 0.00 1.60211 2.15
3 2 5 2 o 3020.177 2916.862 180.00 1.60069 0.11
4 3 4 1 o 6969.190 7080.692 0.00 1.59049 0.41
3 6 3 1 o 6741.809 6410.484 0.00 1.58752 0.25
4 3 4 2 o 8160.989 7080.692 0.00 1.59049 0.24
3 6 3 2 o 6728.081 6410.484 0.00 1.58752 0.12
5 4 2 1 o 65471.81 63747.76 0.00 1.58050 3.18
6 1 1 1 o 11494.394 11161.980 0.00 1.58022 0.50
1 0 6 1 o 4824.929 4468.611 180.00 1.57724 0.13
5 4 2 2 o 67662.49 63747.76 0.00 1.58050 1.64
6 1 1 2 o 11730.813 11161.980 0.00 1.58022 0.26
2 8 0 1 o 3454.263 3498.352 180.00 1.57427 0.05
1 0 6 2 o 4208.689 4468.611 180.00 1.57724 0.06
0 8 2 1 o 25832.611 27175.359 0.00 1.57267 0.55
2 4 5 1 o 37891.78 40272.43 180.00 1.57209 1.81
2 8 0 2 o 3391.734 3498.352 180.00 1.57427 0.02
0 8 2 2 o 26216.867 27175.359 0.00 1.57267 0.28
6 2 0 1 o 42046.71 43526.28 180.00 1.56843 1.01
2 4 5 2 o 39135.72 40272.43 180.00 1.57209 0.94
1 1 6 1 o 23209.855 23069.566 180.00 1.56629 1.05
6 2 0 2 o 43183.89 43526.28 180.00 1.56843 0.52
4 5 3 1 o 42525.95 43254.54 180.00 1.56283 2.02
1 1 6 2 o 22744.707 23069.566 180.00 1.56629 0.51
3 5 4 1 o 8632.643 8659.838 0.00 1.56010 0.38
4 5 3 2 o 43685.64 43254.54 180.00 1.56283 1.04
0 5 5 1 o 4601.250 4440.987 180.00 1.55662 0.11
3 5 4 2 o 8928.935 8659.838 0.00 1.56010 0.20
0 2 6 1 o 29231.994 29338.914 0.00 1.55442 0.66
2 8 1 1 o 65828.19 66771.09 180.00 1.55348 3.21
0 5 5 2 o 4385.136 4440.987 180.00 1.55662 0.05
1 8 2 1 o 27963.531 28240.219 0.00 1.55233 1.29
5 3 3 1 o 19434.498 19642.393 0.00 1.55191 0.99
3 7 2 1 o 1.708 1.974 0.00 1.55093 0.00
0 2 6 2 o 28773.277 29338.914 0.00 1.55442 0.32
2 8 1 2 o 65047.43 66771.09 180.00 1.55348 1.57
2 7 3 1 o 31723.807 32470.619 0.00 1.54902 1.55
1 8 2 2 o 27823.178 28240.219 0.00 1.55233 0.64
4 6 2 1 o 20638.270 20936.566 0.00 1.54839 1.01
5 3 3 2 o 19448.457 19642.393 0.00 1.55191 0.49
6 2 1 1 o 96938.00 97472.62 0.00 1.54787 4.44
3 7 2 2 o 2.031 1.974 0.00 1.55093 0.00
5 5 1 1 o 2409.769 2387.879 180.00 1.54587 0.14
3 3 5 1 o 21269.033 21127.254 0.00 1.54583 0.90
2 7 3 2 o 32782.293 32470.619 0.00 1.54902 0.80
4 6 2 2 o 21252.959 20936.566 0.00 1.54839 0.52
6 2 1 2 o 99472.20 97472.62 0.00 1.54787 2.28
2 6 4 1 o 32675.779 31948.758 180.00 1.54386 1.55
5 5 1 2 o 2513.477 2387.879 180.00 1.54587 0.07
3 3 5 2 o 21941.424 21127.254 0.00 1.54583 0.46
2 6 4 2 o 33375.527 31948.758 180.00 1.54386 0.79
1 5 5 1 o 35023.957 36531.38 180.00 1.53689 1.70
1 2 6 1 o 44636.87 45990.83 0.00 1.53477 1.98
1 5 5 2 o 35009.359 36531.38 180.00 1.53689 0.84
1 2 6 2 o 44469.54 45990.83 0.00 1.53477 0.98
6 0 2 1 o 58912.85 60660.78 180.00 1.52955 1.34
6 0 2 2 o 59114.84 60660.78 180.00 1.52955 0.67
6 1 2 1 o 722.164 769.226 0.00 1.51956 0.02
2 0 6 1 o 32857.340 34508.012 180.00 1.51798 0.77
6 3 0 1 o 59574.04 60432.27 0.00 1.51672 1.43
4 4 4 1 o 43484.05 44002.02 180.00 1.51659 2.09
6 1 2 2 o 769.013 769.226 0.00 1.51956 0.01
2 0 6 2 o 35203.88 34508.012 180.00 1.51798 0.42
6 3 0 2 o 62315.24 60432.27 0.00 1.51672 0.75
4 4 4 2 o 45377.22 44002.02 180.00 1.51659 1.09
2 1 6 1 o 39362.64 39712.38 0.00 1.50821 1.63
5 0 4 1 o 244.966 248.888 0.00 1.50661 0.01
2 1 6 2 o 40484.68 39712.38 0.00 1.50821 0.84
5 0 4 2 o 261.686 248.888 0.00 1.50661 0.00
6 3 1 1 o 76347.50 75349.24 0.00 1.49810 3.27
5 1 4 1 o 13566.167 13666.754 180.00 1.49706 0.56
4 7 0 1 o 5524.810 5663.082 180.00 1.49585 0.16
2 8 2 1 o 73361.78 74929.39 180.00 1.49574 3.62
6 3 1 2 o 74362.62 75349.24 0.00 1.49810 1.58
4 1 5 1 o 8485.020 8598.186 0.00 1.49398 0.35
5 1 4 2 o 13444.304 13666.754 180.00 1.49706 0.27
4 7 0 2 o 5514.791 5663.082 180.00 1.49585 0.08
2 8 2 2 o 73266.37 74929.39 180.00 1.49574 1.80
6 2 2 1 o 20626.570 20806.482 180.00 1.49073 0.81
4 1 5 2 o 8558.595 8598.186 0.00 1.49398 0.17
5 5 2 1 o 98267.93 97446.94 0.00 1.48894 4.19
6 2 2 2 o 21216.861 20806.482 180.00 1.49073 0.42
1 3 6 1 o 11835.091 11491.026 180.00 1.48622 0.52
5 5 2 2 o 101733.70 97446.94 0.00 1.48894 2.18
5 4 3 1 o 25747.400 23737.977 0.00 1.48303 1.12
1 3 6 2 o 12533.050 11491.026 180.00 1.48622 0.28
2 5 5 1 o 31375.830 28792.951 0.00 1.48191 1.40
2 2 6 1 o 10534.380 10195.094 180.00 1.48001 0.44
5 4 3 2 o 23854.137 23737.977 0.00 1.48303 0.51
2 5 5 2 o 28185.828 28792.951 0.00 1.48191 0.62
4 7 1 1 o 284212.50 290083.69 180.00 1.47798 12.42
3 4 5 1 o 172.346 175.532 180.00 1.47772 0.01
2 2 6 2 o 10122.367 10195.094 180.00 1.48001 0.21
4 7 1 2 o 290278.66 290083.69 180.00 1.47798 6.34
3 4 5 2 o 176.590 175.532 180.00 1.47772 0.00
1 7 4 1 o 3.001 2.958 0.00 1.47306 0.00
5 2 4 1 o 23051.998 20322.486 0.00 1.46946 0.96
1 7 4 2 o 3.147 2.958 0.00 1.47306 0.00
4 2 5 1 o 4678.198 3809.984 0.00 1.46655 0.19
5 2 4 2 o 24944.238 20322.486 0.00 1.46946 0.52
4 2 5 2 o 4040.710 3809.984 0.00 1.46655 0.08
0 9 1 1 o 92851.15 88502.22 180.00 1.46246 2.06
3 8 1 1 o 12266.795 11757.280 180.00 1.46224 0.51
1 8 3 1 o 37501.32 38305.53 0.00 1.45969 1.54
0 9 1 2 o 85846.48 88502.22 180.00 1.46246 0.93
3 8 1 2 o 11425.603 11757.280 180.00 1.46224 0.23
3 7 3 1 o 104676.38 107622.34 0.00 1.45852 4.18
4 6 3 1 o 34.566 36.978 0.00 1.45641 0.00
1 8 3 2 o 37247.96 38305.53 0.00 1.45969 0.76
3 7 3 2 o 104566.39 107622.34 0.00 1.45852 2.08
3 6 4 1 o 762.046 784.505 180.00 1.45420 0.03
4 6 3 2 o 34.807 36.978 0.00 1.45641 0.00
6 4 0 1 o 16402.152 16733.121 180.00 1.45223 0.35
3 6 4 2 o 803.612 784.505 180.00 1.45420 0.02
6 4 0 2 o 17650.307 16733.121 180.00 1.45223 0.19
6 3 2 1 o 512.792 453.988 180.00 1.44612 0.04
1 9 1 1 o 4261.236 4021.410 180.00 1.44606 0.17
5 6 1 1 o 34960.879 35716.40 0.00 1.44266 1.50
6 3 2 2 o 433.955 453.988 180.00 1.44612 0.02
1 9 1 2 o 3935.123 4021.410 180.00 1.44606 0.08
0 4 6 1 o 235844.14 245221.69 0.00 1.44109 5.01
5 6 1 2 o 34149.555 35716.40 0.00 1.44266 0.73
0 4 6 2 o 234839.70 245221.69 0.00 1.44109 2.48
2 3 6 1 o 3356.662 3449.533 0.00 1.43633 0.10
6 4 1 1 o 29011.277 29977.105 180.00 1.43586 1.18
1 6 5 1 o 13151.976 13566.238 0.00 1.43535 0.65
4 5 4 1 o 12758.934 13084.927 180.00 1.43515 0.57
2 3 6 2 o 3528.629 3449.533 0.00 1.43633 0.05
3 0 6 1 o 141266.92 136796.41 180.00 1.43251 2.71
6 1 3 1 o 44837.33 43324.79 0.00 1.43234 1.76
6 4 1 2 o 31057.680 29977.105 180.00 1.43586 0.64
1 6 5 2 o 14146.378 13566.238 0.00 1.43535 0.35
4 5 4 2 o 13584.927 13084.927 180.00 1.43515 0.30
3 0 6 2 o 138957.58 136796.41 180.00 1.43251 1.32
6 1 3 2 o 43946.27 43324.79 0.00 1.43234 0.85
4 7 2 1 o 5597.975 5612.119 0.00 1.42800 0.29
5 3 4 1 o 139.669 142.180 180.00 1.42668 0.00
1 4 6 1 o 112548.26 116021.15 0.00 1.42539 4.36
4 7 2 2 o 5529.292 5612.119 0.00 1.42800 0.14
2 7 4 1 o 14.681 14.702 0.00 1.42444 0.00
3 1 6 1 o 18072.025 18222.367 0.00 1.42430 0.69
4 3 5 1 o 240195.06 241300.00 180.00 1.42402 9.24
5 3 4 2 o 142.112 142.180 180.00 1.42668 0.00
1 4 6 2 o 116833.32 116021.15 0.00 1.42539 2.27
2 7 4 2 o 14.760 14.702 0.00 1.42444 0.00
3 1 6 2 o 18825.586 18222.367 0.00 1.42430 0.36
4 3 5 2 o 251157.16 241300.00 180.00 1.42402 4.85
2 9 0 1 o 159802.98 155221.67 180.00 1.41514 3.31
3 8 2 1 o 7846.500 7586.507 0.00 1.41378 0.30
2 8 3 1 o 16689.574 16340.436 0.00 1.41234 0.67
2 9 0 2 o 158468.86 155221.67 180.00 1.41514 1.63
3 8 2 2 o 7866.481 7586.507 0.00 1.41378 0.15
2 8 3 2 o 17310.830 16340.436 0.00 1.41234 0.35
6 2 3 1 o 19612.740 18267.336 180.00 1.40812 0.74
5 5 3 1 o 164.941 115.318 0.00 1.40661 0.02
6 2 3 2 o 21594.268 18267.336 180.00 1.40812 0.41
5 5 3 2 o 187.929 115.318 0.00 1.40661 0.01
3 5 5 1 o 12273.927 11119.265 0.00 1.40208 0.42
3 2 6 1 o 12984.321 12708.576 180.00 1.40047 0.48
2 9 1 1 o 41448.77 41122.82 0.00 1.39998 1.69
1 9 2 1 o 66555.12 66104.20 0.00 1.39914 2.63
3 5 5 2 o 11244.278 11119.265 0.00 1.40208 0.19
3 2 6 2 o 12798.068 12708.576 180.00 1.40047 0.24
2 9 1 2 o 41272.32 41122.82 0.00 1.39998 0.84
5 6 2 1 o 4400.088 4375.047 180.00 1.39606 0.16
1 9 2 2 o 66877.06 66104.20 0.00 1.39914 1.32
5 6 2 2 o 4454.413 4375.047 180.00 1.39606 0.08
2 6 5 1 o 97601.44 100701.65 180.00 1.39026 3.72
6 4 2 1 o 17226.178 17687.027 180.00 1.38990 0.59
2 6 5 2 o 99040.16 100701.65 180.00 1.39026 1.89
6 4 2 2 o 17499.768 17687.027 180.00 1.38990 0.30
2 4 6 1 o 401.183 435.610 0.00 1.38120 0.04
6 5 0 1 o 177193.88 181442.69 180.00 1.38025 3.35
2 4 6 2 o 438.853 435.610 0.00 1.38120 0.02
6 5 0 2 o 182537.08 181442.69 180.00 1.38025 1.73
5 4 4 1 o 30805.303 28832.900 0.00 1.37262 1.07
4 8 0 1 o 3230.823 2952.620 0.00 1.37168 0.08
6 3 3 1 o 26954.953 25786.389 0.00 1.37034 1.00
4 4 5 1 o 3444.180 3290.832 180.00 1.37024 0.14
5 4 4 2 o 29526.305 28832.900 0.00 1.37262 0.50
4 8 0 2 o 2992.348 2952.620 0.00 1.37168 0.04
0 8 4 1 o 4428.061 4438.008 0.00 1.36748 0.12
6 3 3 2 o 25692.484 25786.389 0.00 1.37034 0.47
4 4 5 2 o 3278.492 3290.832 180.00 1.37024 0.06
6 5 1 1 o 49571.68 49501.07 0.00 1.36618 1.81
0 8 4 2 o 4606.093 4438.008 0.00 1.36748 0.06
3 3 6 1 o 4146.540 4026.979 0.00 1.36329 0.14
0 1 7 1 o 12600.847 12224.342 180.00 1.36302 0.22
6 5 1 2 o 51055.61 49501.07 0.00 1.36618 0.93
7 1 1 1 o 70.450 69.763 180.00 1.36194 0.00
3 3 6 2 o 4228.358 4026.979 0.00 1.36329 0.07
0 1 7 2 o 12853.844 12224.342 180.00 1.36302 0.11
7 1 1 2 o 70.554 69.763 180.00 1.36194 0.00
4 8 1 1 o 7750.559 7525.192 180.00 1.35787 0.32
2 9 2 1 o 13503.679 13167.397 180.00 1.35728 0.53
1 5 6 1 o 40062.94 39104.89 0.00 1.35715 1.42
5 1 5 1 o 12241.425 11901.085 180.00 1.35579 0.40
4 7 3 1 o 4.294 3.439 0.00 1.35489 0.00
4 8 1 2 o 7712.772 7525.192 180.00 1.35787 0.16
1 8 4 1 o 32165.564 31676.346 0.00 1.35405 1.16
2 9 2 2 o 13361.813 13167.397 180.00 1.35728 0.26
1 5 6 2 o 39568.31 39104.89 0.00 1.35715 0.70
3 7 4 1 o 330.514 330.914 0.00 1.35311 0.02
5 1 5 2 o 11739.680 11901.085 180.00 1.35579 0.19
4 7 3 2 o 2.634 3.439 0.00 1.35489 0.00
4 6 4 1 o 106305.84 108900.84 0.00 1.35143 3.62
0 7 5 1 o 274176.38 280072.41 180.00 1.35084 4.92
1 8 4 2 o 31066.373 31676.346 0.00 1.35405 0.55
3 7 4 2 o 325.807 330.914 0.00 1.35311 0.01
1 1 7 1 o 102344.04 103442.95 180.00 1.34971 3.47
4 6 4 2 o 108032.64 108900.84 0.00 1.35143 1.84
0 7 5 2 o 279683.16 280072.41 180.00 1.35084 2.51
1 1 7 2 o 105499.95 103442.95 180.00 1.34971 1.79
5 7 1 1 o 14089.941 13913.165 180.00 1.34380 0.45
0 9 3 1 o 18282.637 17956.258 180.00 1.34290 0.34
3 8 3 1 o 38025.42 37282.26 180.00 1.34273 1.40
7 2 1 1 o 7615.134 7432.732 0.00 1.34107 0.25
5 7 1 2 o 14120.777 13913.165 180.00 1.34380 0.23
0 9 3 2 o 17836.135 17956.258 180.00 1.34290 0.16
3 8 3 2 o 36852.55 37282.26 180.00 1.34273 0.67
6 0 4 1 o 1917.757 1960.416 180.00 1.33885 0.03
1 7 5 1 o 37470.01 39043.35 180.00 1.33788 1.33
7 2 1 2 o 7148.463 7432.732 0.00 1.34107 0.11
6 0 4 2 o 1889.756 1960.416 180.00 1.33885 0.01
5 2 5 1 o 339.579 346.556 0.00 1.33519 0.01
1 7 5 2 o 38551.07 39043.35 180.00 1.33788 0.69
4 0 6 1 o 115606.59 115251.98 0.00 1.33397 1.87
6 1 4 1 o 48215.66 48220.90 180.00 1.33213 1.53
3 9 1 1 o 1379.911 1380.999 0.00 1.33210 0.08
5 2 5 2 o 346.032 346.556 0.00 1.33519 0.00
0 10 0 1 o 31687.135 31797.840 180.00 1.33178 0.29
4 1 6 1 o 1.344 1.049 0.00 1.32733 0.00
1 9 3 2 o 25687.670 25349.896 180.00 1.33017 0.46
4 0 6 2 o 114926.34 115251.98 0.00 1.33397 0.93
6 5 2 1 o 1906.387 1888.471 180.00 1.32641 0.04
1 2 7 2 o 27345.299 27031.824 180.00 1.32939 0.38
1 9 3 1 o 25453.488 25349.896 180.00 1.33017 0.91
7 0 2 2 o 134538.42 132648.94 180.00 1.32910 1.10
1 2 7 1 o 27374.428 27031.824 180.00 1.32939 0.76
7 0 2 1 o 134952.63 132648.94 180.00 1.32910 2.21
6 1 4 2 o 49071.61 48220.90 180.00 1.33213 0.78
3 9 1 2 o 1420.189 1380.999 0.00 1.33210 0.04
0 10 0 2 o 32384.162 31797.840 180.00 1.33178 0.15
5 6 3 2 o 26895.902 26328.271 0.00 1.32752 0.42
4 1 6 2 o 1.594 1.049 0.00 1.32733 0.00
3 6 5 1 o 83.684 76.921 0.00 1.32371 0.01
5 6 3 1 o 26671.342 26328.271 0.00 1.32752 0.83
6 5 2 2 o 1928.601 1888.471 180.00 1.32641 0.02
7 1 2 1 o 30684.957 29822.639 0.00 1.32253 1.07
6 4 3 1 o 10801.626 10530.250 0.00 1.32222 0.39
3 6 5 2 o 79.341 76.921 0.00 1.32371 0.00
7 1 2 2 o 30276.924 29822.639 0.00 1.32253 0.52
6 4 3 2 o 10693.231 10530.250 0.00 1.32222 0.19
2 5 6 1 o 79870.85 78762.30 180.00 1.31884 2.70
4 8 2 1 o 2483.238 2462.322 0.00 1.31880 0.05
2 8 4 1 o 11273.475 11099.557 180.00 1.31600 0.32
3 4 6 1 o 1357.115 1328.916 0.00 1.31589 0.05
2 5 6 2 o 80640.04 78762.30 180.00 1.31884 1.36
4 8 2 2 o 2498.533 2462.322 0.00 1.31880 0.03
2 8 4 2 o 11391.140 11099.557 180.00 1.31600 0.16
3 4 6 2 o 1373.255 1328.916 0.00 1.31589 0.02
6 2 4 1 o 26643.184 25820.242 180.00 1.31258 0.86
2 1 7 1 o 2529.323 2466.656 0.00 1.31202 0.07
5 5 4 1 o 14026.380 13837.768 0.00 1.31136 0.43
6 2 4 2 o 26030.900 25820.242 180.00 1.31258 0.42
4 5 5 1 o 29910.822 29647.012 180.00 1.30929 0.96
0 3 7 1 o 2326.139 2302.796 180.00 1.30927 0.04
2 1 7 2 o 2498.194 2466.656 0.00 1.31202 0.04
7 3 1 1 o 21310.814 21053.365 0.00 1.30831 0.60
5 5 4 2 o 14000.714 13837.768 0.00 1.31136 0.21
4 2 6 1 o 63.843 63.525 0.00 1.30798 0.00
1 10 1 1 o 595.551 595.672 0.00 1.30706 0.01
4 5 5 2 o 29533.449 29647.012 180.00 1.30929 0.47
0 3 7 2 o 2293.063 2302.796 180.00 1.30927 0.02
5 7 2 1 o 5556.888 5583.786 180.00 1.30590 0.22
6 6 0 1 o 90455.27 91026.55 180.00 1.30529 1.55
7 3 1 2 o 20919.543 21053.365 0.00 1.30831 0.29
4 2 6 2 o 63.241 63.525 0.00 1.30798 0.00
1 10 1 2 o 590.877 595.672 0.00 1.30706 0.01
7 2 2 1 o 63.805 65.202 180.00 1.30339 0.00
5 3 5 1 o 43048.15 43331.11 180.00 1.30285 1.47
5 7 2 2 o 5551.062 5583.786 180.00 1.30590 0.11
6 6 0 2 o 90905.89 91026.55 180.00 1.30529 0.77
2 7 5 1 o 7559.762 7489.446 0.00 1.30114 0.25
7 2 2 2 o 68.785 65.202 180.00 1.30339 0.00
5 3 5 2 o 44773.99 43331.11 180.00 1.30285 0.77
2 7 5 2 o 7637.607 7489.446 0.00 1.30114 0.12
1 3 7 1 o 5525.709 5423.678 0.00 1.29746 0.19
0 6 6 1 o 2591.042 2557.394 180.00 1.29718 0.04
3 9 2 1 o 25747.820 26710.973 180.00 1.29515 0.80
1 3 7 2 o 5212.930 5423.678 0.00 1.29746 0.09
2 9 3 1 o 17307.004 17890.328 0.00 1.29404 0.54
0 6 6 2 o 2480.342 2557.394 180.00 1.29718 0.02
6 6 1 1 o 49974.60 51590.62 180.00 1.29337 1.63
2 2 7 1 o 10018.961 10384.616 0.00 1.29332 0.36
3 9 2 2 o 25721.723 26710.973 180.00 1.29515 0.40
2 9 3 2 o 17375.371 17890.328 0.00 1.29404 0.27
6 6 1 2 o 50911.59 51590.62 180.00 1.29337 0.83
2 2 7 2 o 10246.919 10384.616 0.00 1.29332 0.18
1 6 6 1 o 1047.020 1007.744 0.00 1.28570 0.03
2 10 0 1 o 45105.85 44713.44 180.00 1.28409 0.75
0 10 2 1 o 6431.666 6171.157 0.00 1.28322 0.10
1 6 6 2 o 1095.919 1007.744 0.00 1.28570 0.02
6 3 4 1 o 8527.297 7514.592 180.00 1.28182 0.24
2 10 0 2 o 57879.95 44713.44 180.00 1.28409 0.51
0 10 2 2 o 9032.066 6171.157 0.00 1.28322 0.08
6 3 4 2 o 11999.294 7514.592 180.00 1.28182 0.19
4 3 6 1 o 116.461 32.520 180.00 1.27754 0.01
4 3 6 2 o 76.504 32.520 180.00 1.27754 0.00
7 3 2 1 o 5526.816 4826.370 0.00 1.27326 0.18
2 10 1 1 o 16733.248 15436.848 180.00 1.27273 0.59
1 10 2 1 o 36329.13 34593.809 180.00 1.27210 1.24
7 3 2 2 o 4855.087 4826.370 0.00 1.27326 0.08
2 10 1 2 o 15196.451 15436.848 180.00 1.27273 0.26
4 7 4 1 o 783.477 817.966 180.00 1.26915 0.04
1 10 2 2 o 33373.203 34593.809 180.00 1.27210 0.56
6 5 3 1 o 21766.115 23364.752 0.00 1.26721 0.66
7 4 1 1 o 8285.070 8890.462 180.00 1.26624 0.28
4 7 4 2 o 753.722 817.966 180.00 1.26915 0.02
6 5 3 2 o 23387.537 23364.752 0.00 1.26721 0.36
2 3 7 1 o 10261.231 10205.373 0.00 1.26387 0.33
7 1 3 1 o 13144.771 13061.938 180.00 1.26382 0.42
7 4 1 2 o 9002.960 8890.462 180.00 1.26624 0.15
4 9 0 1 o 2841.715 2820.668 180.00 1.26256 0.04
3 5 6 1 o 13236.317 13256.448 180.00 1.26163 0.37
5 4 5 1 o 2742.910 2756.156 180.00 1.26129 0.10
2 3 7 2 o 10124.670 10205.373 0.00 1.26387 0.16
7 1 3 2 o 12953.133 13061.938 180.00 1.26382 0.21
4 8 3 1 o 2233.573 2256.509 0.00 1.26057 0.08
6 6 2 1 o 30911.078 31237.482 180.00 1.25947 0.93
4 9 0 2 o 2793.159 2820.668 180.00 1.26256 0.02
3 8 4 1 o 2393.683 2412.334 180.00 1.25914 0.08
3 5 6 2 o 13279.420 13256.448 180.00 1.26163 0.19
5 4 5 2 o 2777.232 2756.156 180.00 1.26129 0.05
4 8 3 2 o 2301.182 2256.509 0.00 1.26057 0.04
1 4 7 1 o 19466.775 18767.303 0.00 1.25640 0.60
6 6 2 2 o 32364.721 31237.482 180.00 1.25947 0.49
3 8 4 2 o 2523.426 2412.334 180.00 1.25914 0.04
3 1 7 1 o 210.913 198.761 180.00 1.25565 0.01
1 4 7 2 o 19475.111 18767.303 0.00 1.25640 0.30
2 6 6 1 o 16993.074 16485.105 180.00 1.25299 0.53
3 1 7 2 o 203.978 198.761 180.00 1.25565 0.00
4 9 1 1 o 8272.502 8235.807 180.00 1.25176 0.26
5 8 1 1 o 27020.988 26947.701 180.00 1.25162 0.85
2 6 6 2 o 16272.938 16485.105 180.00 1.25299 0.25
5 7 3 1 o 83354.26 84677.39 180.00 1.24929 2.61
1 9 4 1 o 4853.094 4909.060 0.00 1.24876 0.12
4 9 1 2 o 8124.985 8235.807 180.00 1.25176 0.13
5 8 1 2 o 26600.303 26947.701 180.00 1.25162 0.41
7 2 3 1 o 22599.471 22759.785 0.00 1.24709 0.67
1 8 5 1 o 174.282 174.911 180.00 1.24684 0.00
5 6 4 1 o 479.716 481.117 0.00 1.24657 0.01
5 7 3 2 o 84591.79 84677.39 180.00 1.24929 1.32
3 7 5 1 o 8576.642 8577.769 0.00 1.24611 0.26
1 9 4 2 o 4923.496 4909.060 0.00 1.24876 0.06
4 6 5 1 o 3717.179 3671.462 180.00 1.24479 0.12
7 2 3 2 o 23100.615 22759.785 0.00 1.24709 0.34
1 8 5 2 o 176.454 174.911 180.00 1.24684 0.00
5 6 4 2 o 485.134 481.117 0.00 1.24657 0.01
3 7 5 2 o 8593.969 8577.769 0.00 1.24611 0.13
6 4 4 1 o 51357.08 52657.87 180.00 1.24218 1.54
4 6 5 2 o 3523.998 3671.462 180.00 1.24479 0.06
2 10 2 1 o 34617.695 36394.91 180.00 1.24039 1.10
3 9 3 1 o 358.703 379.882 180.00 1.23987 0.02
3 2 7 1 o 64188.70 66363.27 0.00 1.23924 1.97
6 4 4 2 o 50982.50 52657.87 180.00 1.24218 0.76
4 4 6 1 o 6129.948 6370.301 180.00 1.23828 0.15
2 10 2 2 o 34217.520 36394.91 180.00 1.24039 0.54
3 9 3 2 o 348.919 379.882 180.00 1.23987 0.01
3 2 7 2 o 63186.88 66363.27 0.00 1.23924 0.96
4 4 6 2 o 6211.384 6370.301 180.00 1.23828 0.08
7 4 2 1 o 40534.39 41213.05 0.00 1.23438 1.16
5 0 6 1 o 92696.91 93429.01 0.00 1.23283 1.35
7 4 2 2 o 39960.47 41213.05 0.00 1.23438 0.57
6 7 0 1 o 133.785 141.814 180.00 1.23071 0.01
5 0 6 2 o 93550.60 93429.01 0.00 1.23283 0.68
6 1 5 1 o 33107.824 32993.551 0.00 1.22966 0.95
6 7 0 2 o 139.023 141.814 180.00 1.23071 0.00
5 1 6 1 o 37694.09 38070.49 0.00 1.22758 1.11
6 1 5 2 o 32232.969 32993.551 0.00 1.22966 0.46
2 4 7 1 o 46.740 47.472 180.00 1.22582 0.00
5 1 6 2 o 37179.44 38070.49 0.00 1.22758 0.54
2 4 7 2 o 46.740 47.472 180.00 1.22582 0.00
3 10 1 1 o 10309.705 9990.946 180.00 1.22109 0.37
4 9 2 1 o 754.691 730.043 180.00 1.22095 0.03
5 8 2 1 o 459.703 449.828 180.00 1.22083 0.01
6 7 1 1 o 8201.478 7979.533 0.00 1.22070 0.23
7 3 3 1 o 135319.56 131514.42 0.00 1.22062 3.93
1 10 3 1 o 19181.477 18919.563 0.00 1.21960 0.66
2 9 4 1 o 93621.73 93441.99 0.00 1.21873 2.84
0 5 7 1 o 3550.139 3552.371 180.00 1.21845 0.05
3 10 1 2 o 9931.119 9990.946 180.00 1.22109 0.18
4 9 2 2 o 723.862 730.043 180.00 1.22095 0.01
5 8 2 2 o 446.632 449.828 180.00 1.22083 0.00
6 7 1 2 o 7888.400 7979.533 0.00 1.22070 0.11
7 5 1 1 o -1.068 0.224 180.00 1.21768 0.00
7 3 3 2 o 129710.89 131514.42 0.00 1.22062 1.86
2 8 5 1 o 68938.69 70982.57 0.00 1.21694 1.96
1 10 3 2 o 18123.471 18919.563 0.00 1.21960 0.31
2 9 4 2 o 89093.86 93441.99 0.00 1.21873 1.33
0 5 7 2 o 3398.821 3552.371 180.00 1.21845 0.02
7 5 1 2 o -2.925 0.224 180.00 1.21768 0.00
1 7 6 1 o 263.578 269.122 180.00 1.21424 0.01
6 2 5 1 o 106115.72 108234.52 180.00 1.21424 2.96
2 8 5 2 o 70014.42 70982.57 0.00 1.21694 1.00
5 5 5 1 o 28419.002 28652.318 180.00 1.21327 0.87
3 3 7 1 o 193111.03 194608.92 0.00 1.21325 5.51
5 2 6 1 o 16086.673 16301.557 0.00 1.21223 0.46
1 7 6 2 o 265.236 269.122 180.00 1.21424 0.00
6 2 5 2 o 106739.29 108234.52 180.00 1.21424 1.48
8 0 0 1 o 236257.05 239771.61 0.00 1.21038 1.62
5 5 5 2 o 28172.742 28652.318 180.00 1.21327 0.43
3 3 7 2 o 191483.52 194608.92 0.00 1.21325 2.72
5 2 6 2 o 15788.951 16301.557 0.00 1.21223 0.22
1 5 7 1 o 9454.377 9776.775 180.00 1.20891 0.25
6 6 3 1 o 12530.941 13069.824 0.00 1.20846 0.37
8 0 0 2 o 228711.00 239771.61 0.00 1.21038 0.77
1 5 7 2 o 9452.874 9776.775 180.00 1.20891 0.12
6 6 3 2 o 12772.656 13069.824 0.00 1.20846 0.19
8 1 0 1 o 20858.316 21318.719 0.00 1.20541 0.32
3 6 6 1 o 64809.91 64342.61 180.00 1.20362 1.79
8 1 0 2 o 20643.072 21318.719 0.00 1.20541 0.16
0 11 1 1 o 171094.72 179284.17 180.00 1.20118 2.56
3 6 6 2 o 62055.95 64342.61 180.00 1.20362 0.84
0 0 8 1 o 61063.97 62378.64 0.00 1.19894 0.44
0 11 1 2 o 177208.14 179284.17 180.00 1.20118 1.33
7 0 4 1 o 67453.11 68208.04 180.00 1.19820 0.92
6 5 4 1 o 62273.75 59915.04 0.00 1.19623 1.65
0 0 8 2 o 65386.48 62378.64 0.00 1.19894 0.24
8 1 1 1 o 660.564 627.913 180.00 1.19600 0.02
7 0 4 2 o 71833.13 68208.04 180.00 1.19820 0.49
7 1 4 1 o 2459.692 2398.114 0.00 1.19338 0.06
6 5 4 2 o 61315.77 59915.04 0.00 1.19623 0.80
8 1 1 2 o 640.937 627.913 180.00 1.19600 0.01
4 5 6 1 o 602.860 598.212 180.00 1.19275 0.01
3 10 2 1 o 86717.23 86412.80 180.00 1.19244 2.49
6 7 2 1 o 3377.196 3390.785 0.00 1.19208 0.12
1 11 1 1 o 16993.559 17053.652 180.00 1.19204 0.48
2 10 3 1 o 5895.004 5967.121 0.00 1.19157 0.19
8 2 0 1 o 5449.050 5555.032 0.00 1.19086 0.07
4 8 4 1 o 106196.00 108770.29 0.00 1.19064 3.08
7 1 4 2 o 2342.326 2398.114 0.00 1.19338 0.03
1 0 8 1 o 68.360 75.323 0.00 1.18985 0.00
4 5 6 2 o 584.355 598.212 180.00 1.19275 0.01
6 3 5 1 o 60.394 61.372 0.00 1.18976 0.00
3 10 2 2 o 83599.85 86412.80 180.00 1.19244 1.19
7 5 2 1 o 21369.426 22127.916 180.00 1.18926 0.58
6 7 2 2 o 3234.200 3390.785 0.00 1.19208 0.06
1 11 1 2 o 16472.031 17053.652 180.00 1.19204 0.23
2 10 3 2 o 5726.383 5967.121 0.00 1.19157 0.09
8 2 0 2 o 5377.750 5555.032 0.00 1.19086 0.03
5 3 6 1 o 6380.866 6602.154 0.00 1.18787 0.17
4 8 4 2 o 105080.27 108770.29 0.00 1.19064 1.51
4 1 7 1 o 537.241 551.755 180.00 1.18769 0.01
1 0 8 2 o 69.552 75.323 0.00 1.18985 0.00
6 3 5 2 o 60.617 61.372 0.00 1.18976 0.00
2 7 6 1 o 1882.899 1930.596 0.00 1.18658 0.06
7 5 2 2 o 21740.764 22127.916 180.00 1.18926 0.29
7 4 3 1 o 7110.147 7235.136 180.00 1.18624 0.20
1 1 8 1 o 25154.959 25406.990 180.00 1.18513 0.66
5 3 6 2 o 6535.912 6602.154 0.00 1.18787 0.09
4 1 7 2 o 547.178 551.755 180.00 1.18769 0.01
2 7 6 2 o 1892.785 1930.596 0.00 1.18658 0.03
7 4 3 2 o 7093.214 7235.136 180.00 1.18624 0.10
1 1 8 2 o 24895.529 25406.990 180.00 1.18513 0.32
8 2 1 1 o 7412.493 7558.841 0.00 1.18179 0.19
2 5 7 1 o 4695.588 4783.988 0.00 1.18160 0.13
5 7 4 1 o 160.404 164.132 0.00 1.18112 0.01
0 2 8 1 o 66.948 67.334 0.00 1.17997 0.00
4 7 5 1 o 50053.60 50065.00 0.00 1.17961 1.39
3 4 7 1 o 9424.075 9407.795 180.00 1.17947 0.25
7 2 4 1 o 4529.607 4505.710 180.00 1.17927 0.12
8 2 1 2 o 7658.766 7558.841 0.00 1.18179 0.10
2 5 7 2 o 4868.563 4783.988 0.00 1.18160 0.07
5 7 4 2 o 171.536 164.132 0.00 1.18112 0.00
0 2 8 2 o 70.581 67.334 0.00 1.17997 0.00
4 7 5 2 o 51624.68 50065.00 0.00 1.17961 0.72
3 4 7 2 o 9663.877 9407.795 180.00 1.17947 0.13
7 2 4 2 o 4597.797 4505.710 180.00 1.17927 0.06
2 11 0 1 o 41728.34 43507.72 0.00 1.17454 0.62
4 9 3 1 o 30381.834 31650.434 180.00 1.17431 0.82
5 8 3 1 o 40169.87 41870.32 180.00 1.17419 1.07
4 2 7 1 o 165.986 177.154 180.00 1.17377 0.01
8 0 2 1 o 55710.84 58219.57 0.00 1.17357 0.72
3 9 4 1 o 8990.067 9396.195 180.00 1.17315 0.25
0 9 5 1 o 111.212 114.449 0.00 1.17167 0.00
2 11 0 2 o 42749.79 43507.72 0.00 1.17454 0.32
3 8 5 1 o 293.993 297.914 0.00 1.17156 0.01
4 9 3 2 o 31384.930 31650.434 180.00 1.17431 0.43
1 2 8 1 o 44872.98 45065.51 0.00 1.17130 1.18
5 8 3 2 o 41687.83 41870.32 180.00 1.17419 0.56
4 2 7 2 o 179.851 177.154 180.00 1.17377 0.00
8 0 2 2 o 59183.51 58219.57 0.00 1.17357 0.39
3 9 4 2 o 9659.183 9396.195 180.00 1.17315 0.13
8 1 2 1 o 25.269 20.827 180.00 1.16904 0.00
0 9 5 2 o 121.225 114.449 0.00 1.17167 0.00
3 8 5 2 o 307.773 297.914 0.00 1.17156 0.00
1 2 8 2 o 46253.77 45065.51 0.00 1.17130 0.61
8 3 0 1 o 16057.488 15991.551 0.00 1.16775 0.25
5 9 1 1 o 1847.606 1880.047 0.00 1.16707 0.07
4 10 0 1 o 235609.97 239338.86 0.00 1.16685 3.29
8 1 2 2 o 18.504 20.827 180.00 1.16904 0.00
2 11 1 1 o 17513.473 17948.768 0.00 1.16584 0.48
1 11 2 1 o 14612.881 15115.248 180.00 1.16535 0.40
7 6 1 1 o 5188.235 5377.516 180.00 1.16528 0.14
8 3 0 2 o 15176.323 15991.551 0.00 1.16775 0.12
0 10 4 1 o 185579.97 195095.38 0.00 1.16427 2.61
5 9 1 2 o 1760.331 1880.047 0.00 1.16707 0.03
4 10 0 2 o 227910.92 239338.86 0.00 1.16685 1.57
2 0 8 1 o -1.891 1.031 180.00 1.16379 0.00
1 9 5 1 o 7509.735 7833.617 180.00 1.16319 0.19
2 11 1 2 o 17161.820 17948.768 0.00 1.16584 0.23
2 1 8 1 o 11368.764 11534.293 180.00 1.15937 0.27
1 11 2 2 o 14452.509 15115.248 180.00 1.16535 0.20
7 6 1 2 o 5139.167 5377.516 180.00 1.16528 0.07
8 3 1 1 o 156288.14 158585.59 180.00 1.15919 4.05
6 8 0 1 o 37752.02 38160.13 180.00 1.15873 0.49
5 6 5 2 o 26.937 26.997 180.00 1.16141 0.00
4 10 1 1 o 438.810 442.020 180.00 1.15831 0.01
5 6 5 1 o 26.760 26.997 180.00 1.16141 0.00
0 10 4 2 o 187694.23 195095.38 0.00 1.16427 1.32
6 4 5 1 o 25331.049 25345.066 0.00 1.15786 0.67
2 0 8 2 o -0.874 1.031 180.00 1.16379 0.00
1 6 7 1 o 18156.973 18096.119 0.00 1.15759 0.42
1 9 5 2 o 7668.728 7833.617 180.00 1.16319 0.10
7 3 4 1 o 3978.069 3897.621 0.00 1.15681 0.12
2 1 8 2 o 11784.753 11534.293 180.00 1.15937 0.14
8 3 1 2 o 162797.97 158585.59 180.00 1.15919 2.12
5 4 6 1 o 1004.970 975.129 0.00 1.15612 0.03
1 10 4 1 o 4.779 4.645 180.00 1.15594 0.00
6 8 0 2 o 39348.91 38160.13 180.00 1.15873 0.26
8 2 2 1 o 24129.537 23333.463 0.00 1.15576 0.64
4 10 1 2 o 458.476 442.020 180.00 1.15831 0.01
6 4 5 2 o 26235.373 25345.066 0.00 1.15786 0.35
1 6 7 2 o 18624.918 18096.119 0.00 1.15759 0.22
7 3 4 2 o 4031.351 3897.621 0.00 1.15681 0.06
5 4 6 2 o 1011.174 975.129 0.00 1.15612 0.01
1 10 4 2 o 4.807 4.645 180.00 1.15594 0.00
0 8 6 1 o 14287.008 13633.897 180.00 1.15305 0.23
8 2 2 2 o 24306.656 23333.463 0.00 1.15576 0.32
4 3 7 1 o 12700.267 12258.971 180.00 1.15162 0.33
6 8 1 1 o 49872.86 48623.20 0.00 1.15036 1.35
0 8 6 2 o 14086.521 13633.897 180.00 1.15305 0.12
1 3 8 1 o 6468.248 6241.589 180.00 1.14929 0.16
3 10 3 1 o 724.322 708.905 180.00 1.14887 0.01
4 3 7 2 o 12729.588 12258.971 180.00 1.15162 0.17
6 7 3 1 o 36403.71 35103.46 0.00 1.14855 0.97
6 8 1 2 o 50201.40 48623.20 0.00 1.15036 0.68
1 3 8 2 o 6512.607 6241.589 180.00 1.14929 0.08
6 6 4 1 o 5682.239 5444.043 180.00 1.14644 0.15
2 2 8 1 o 755.381 728.233 180.00 1.14641 0.02
3 10 3 2 o 728.208 708.905 180.00 1.14887 0.01
7 5 3 1 o 25973.910 24702.279 0.00 1.14603 0.73
6 7 3 2 o 36774.43 35103.46 0.00 1.14855 0.49
1 8 6 1 o 4755.268 4566.058 0.00 1.14496 0.14
3 7 6 1 o 8.477 8.316 0.00 1.14439 0.00
6 6 4 2 o 5562.687 5444.043 180.00 1.14644 0.07
2 2 8 2 o 741.316 728.233 180.00 1.14641 0.01
4 6 6 1 o 60915.88 59868.58 0.00 1.14337 1.59
7 5 3 2 o 25073.652 24702.279 0.00 1.14603 0.35
1 8 6 2 o 4533.576 4566.058 0.00 1.14496 0.06
5 9 2 1 o 56129.33 56540.33 180.00 1.14198 1.46
3 7 6 2 o 8.286 8.316 0.00 1.14439 0.00
2 11 2 1 o 1160.590 1157.983 0.00 1.14083 0.03
4 6 6 2 o 60191.77 59868.58 0.00 1.14337 0.78
7 6 2 1 o 44938.67 44628.32 180.00 1.14030 1.11
3 5 7 1 o 55230.11 54736.82 0.00 1.13993 1.49
5 9 2 2 o 57130.02 56540.33 180.00 1.14198 0.74
2 9 5 1 o 15623.768 15388.218 0.00 1.13880 0.42
2 11 2 2 o 1191.496 1157.983 0.00 1.14083 0.01
8 4 0 1 o 9090.779 8730.287 180.00 1.13754 0.11
7 6 2 2 o 46507.00 44628.32 180.00 1.14030 0.58
3 5 7 2 o 57404.39 54736.82 0.00 1.13993 0.78
2 9 5 2 o 15599.841 15388.218 0.00 1.13880 0.21
6 0 6 1 o 2556.406 2560.246 180.00 1.13572 0.04
8 4 0 2 o 8288.421 8730.287 180.00 1.13754 0.05
8 3 2 1 o 845.534 929.740 180.00 1.13460 0.03
4 10 2 1 o 47502.50 51116.27 0.00 1.13378 1.22
2 6 7 1 o 1196.937 1293.325 180.00 1.13354 0.03
6 0 6 2 o 2376.475 2560.246 180.00 1.13572 0.02
0 11 3 1 o 1373.940 1435.217 180.00 1.13225 0.02
2 10 4 1 o 7571.470 7830.235 180.00 1.13199 0.19
8 3 2 2 o 884.038 929.740 180.00 1.13460 0.02
6 1 6 1 o 45349.25 46803.40 180.00 1.13162 1.20
4 10 2 2 o 49537.57 51116.27 0.00 1.13378 0.64
2 6 7 2 o 1248.253 1293.325 180.00 1.13354 0.02
8 4 1 1 o 1951.336 1989.548 180.00 1.12962 0.05
0 11 3 2 o 1415.586 1435.217 180.00 1.13225 0.01
2 10 4 2 o 7795.290 7830.235 180.00 1.13199 0.10
6 1 6 2 o 47178.70 46803.40 180.00 1.13162 0.63
0 4 8 1 o 33789.773 33021.805 180.00 1.12803 0.48
8 1 3 1 o 33600.566 32967.234 180.00 1.12791 0.80
7 4 4 1 o 379.493 374.476 0.00 1.12742 0.01
8 4 1 2 o 1994.409 1989.548 180.00 1.12962 0.03
6 8 2 1 o 38016.87 38393.65 180.00 1.12632 1.02
2 3 8 1 o 3618.013 3682.005 180.00 1.12574 0.08
3 11 1 1 o 14692.867 14978.193 180.00 1.12575 0.41
0 4 8 2 o 32244.502 33021.805 180.00 1.12803 0.23
8 1 3 2 o 32328.600 32967.234 180.00 1.12791 0.38
7 4 4 2 o 368.529 374.476 0.00 1.12742 0.00
1 11 3 1 o 43824.55 44550.04 180.00 1.12459 1.10
3 0 8 1 o 128769.39 130632.04 180.00 1.12391 1.56
6 8 2 2 o 37697.18 38393.65 180.00 1.12632 0.51
2 3 8 2 o 3587.348 3682.005 180.00 1.12574 0.04
3 11 1 2 o 14556.640 14978.193 180.00 1.12575 0.20
4 4 7 1 o 15.266 15.818 180.00 1.12262 0.00
1 11 3 2 o 42991.71 44550.04 180.00 1.12459 0.54
2 8 6 1 o 19401.996 20196.584 180.00 1.12167 0.55
3 0 8 2 o 127387.86 130632.04 180.00 1.12391 0.77
1 4 8 1 o 92299.67 93023.53 0.00 1.12045 2.24
6 5 5 1 o 5783.731 5817.387 0.00 1.12038 0.13
3 1 8 1 o 21552.258 21496.367 0.00 1.11992 0.54
4 4 7 2 o 15.879 15.818 180.00 1.12262 0.00
6 2 6 1 o 18994.803 18831.041 180.00 1.11956 0.50
2 8 6 2 o 20570.678 20196.584 180.00 1.12167 0.29
5 5 6 1 o 37070.92 36419.21 180.00 1.11880 0.92
7 1 5 1 o 36718.13 35869.80 0.00 1.11804 0.98
1 4 8 2 o 94944.47 93023.53 0.00 1.12045 1.16
6 5 5 2 o 5930.274 5817.387 0.00 1.12038 0.07
3 1 8 2 o 21960.404 21496.367 0.00 1.11992 0.28
4 9 4 1 o 5499.874 5372.177 0.00 1.11716 0.16
5 8 4 1 o 1851.613 1814.206 0.00 1.11706 0.04
6 2 6 2 o 19334.162 18831.041 180.00 1.11956 0.25
5 5 6 2 o 38102.81 36419.21 180.00 1.11880 0.48
8 2 3 1 o 1459.743 1392.807 180.00 1.11596 0.04
4 8 5 1 o 3101.823 2928.378 0.00 1.11578 0.08
7 1 5 2 o 38974.01 35869.80 0.00 1.11804 0.52
5 1 7 1 o 5222.659 4628.193 180.00 1.11463 0.15
4 9 4 2 o 6106.252 5372.177 0.00 1.11716 0.09
5 8 4 2 o 2030.507 1814.206 0.00 1.11706 0.03
8 2 3 2 o 1636.750 1392.807 180.00 1.11596 0.02
4 8 5 2 o 3500.054 2928.378 0.00 1.11578 0.05
5 1 7 2 o 5628.192 4628.193 180.00 1.11463 0.08
0 7 7 1 o 12808.475 10799.144 180.00 1.11187 0.17
7 7 1 1 o 14310.266 12547.442 180.00 1.11129 0.34
0 12 0 1 o 8419.791 7654.828 0.00 1.10982 0.05
0 7 7 2 o 12247.553 10799.144 180.00 1.11187 0.08
7 7 1 2 o 14220.317 12547.442 180.00 1.11129 0.17
3 2 8 1 o 9385.897 8162.773 180.00 1.10823 0.23
5 7 5 1 o 2919.328 2613.450 180.00 1.10793 0.06
0 12 0 2 o 8526.189 7654.828 0.00 1.10982 0.02
8 4 2 1 o 6545.154 5843.205 0.00 1.10683 0.16
7 2 5 1 o 1091.073 981.189 180.00 1.10640 0.03
3 2 8 2 o 8541.015 8162.773 180.00 1.10823 0.10
5 7 5 2 o 2678.563 2613.450 180.00 1.10793 0.03
1 7 7 1 o 132757.03 131194.22 180.00 1.10461 3.31
8 4 2 2 o 5857.891 5843.205 0.00 1.10683 0.07
7 2 5 2 o 980.619 981.189 180.00 1.10640 0.01
5 9 3 1 o 8270.206 8282.608 180.00 1.10354 0.26
3 11 2 1 o 8086.693 8112.885 0.00 1.10319 0.20
5 2 7 1 o 82192.30 82541.65 0.00 1.10310 2.05
2 11 3 1 o 29242.961 29569.127 0.00 1.10250 0.78
7 6 3 1 o 12489.188 12695.947 180.00 1.10203 0.32
8 5 0 1 o 23742.309 24180.629 180.00 1.10194 0.32
1 7 7 2 o 128992.66 131194.22 180.00 1.10461 1.59
3 9 5 1 o 19263.875 19650.730 0.00 1.10135 0.50
5 9 3 2 o 8091.247 8282.608 180.00 1.10354 0.13
3 11 2 2 o 7971.935 8112.885 0.00 1.10319 0.10
5 2 7 2 o 81018.22 82541.65 0.00 1.10310 1.00
6 3 6 1 o 16656.174 16994.318 180.00 1.10029 0.45
2 11 3 2 o 29013.322 29569.127 0.00 1.10250 0.39
7 6 3 2 o 12469.209 12695.947 180.00 1.10203 0.16
8 5 0 2 o 23735.762 24180.629 180.00 1.10194 0.16
3 9 5 2 o 19452.686 19650.730 0.00 1.10135 0.25
2 4 8 1 o 16464.730 16648.592 180.00 1.09861 0.48
6 3 6 2 o 17031.037 16994.318 180.00 1.10029 0.23
8 3 3 1 o 593.485 595.293 180.00 1.09687 0.01
3 6 7 1 o 32388.328 32654.898 180.00 1.09660 0.85
4 10 3 1 o 96.849 98.389 0.00 1.09613 0.00
2 4 8 2 o 16300.215 16648.592 180.00 1.09861 0.24
1 12 1 1 o 22688.920 23148.539 180.00 1.09539 0.60
3 10 4 1 o 39093.80 39803.48 180.00 1.09519 0.96
6 7 4 1 o 7259.179 7402.018 180.00 1.09491 0.23
8 5 1 1 o 41872.82 42408.25 180.00 1.09474 1.02
8 3 3 2 o 593.989 595.293 180.00 1.09687 0.01
3 6 7 2 o 32781.738 32654.898 180.00 1.09660 0.43
4 10 3 2 o 100.118 98.389 0.00 1.09613 0.00
7 5 4 1 o 6038.512 5786.831 180.00 1.09273 0.15
1 12 1 2 o 24201.848 23148.539 180.00 1.09539 0.33
3 10 4 2 o 41818.27 39803.48 180.00 1.09519 0.52
4 7 6 1 o 105.571 94.677 0.00 1.09224 0.00
6 7 4 2 o 7985.814 7402.018 180.00 1.09491 0.12
8 5 1 2 o 45320.25 42408.25 180.00 1.09474 0.56
6 9 0 1 o 107195.57 96548.49 0.00 1.09067 1.40
5 10 1 1 o 5974.320 5285.250 180.00 1.09024 0.17
7 5 4 2 o 6500.535 5786.831 180.00 1.09273 0.08
7 7 2 1 o 0.714 0.084 180.00 1.08956 0.00
4 7 6 2 o 116.483 94.677 0.00 1.09224 0.00
3 3 8 1 o 5081.989 4528.225 0.00 1.08953 0.12
6 8 3 1 o 11815.588 10530.301 180.00 1.08939 0.30
4 5 7 1 o 5182.915 4742.903 180.00 1.08836 0.13
6 9 0 2 o 104798.52 96548.49 0.00 1.09067 0.68
7 3 5 1 o 1295.427 1236.862 0.00 1.08779 0.02
5 10 1 2 o 5718.127 5285.250 180.00 1.09024 0.08
1 10 5 1 o 10536.841 9657.714 180.00 1.08707 0.35
7 7 2 2 o 0.438 0.084 180.00 1.08956 0.00
3 3 8 2 o 4839.650 4528.225 0.00 1.08953 0.06
6 8 3 2 o 11262.789 10530.301 180.00 1.08939 0.14
1 5 8 1 o 43771.38 40935.43 0.00 1.08638 1.07
3 8 6 1 o 53688.00 50317.93 180.00 1.08584 1.33
4 5 7 2 o 5055.777 4742.903 180.00 1.08836 0.06
7 3 5 2 o 1281.539 1236.862 0.00 1.08779 0.01
5 3 7 1 o 67196.68 64088.73 180.00 1.08465 1.52
1 10 5 2 o 10237.689 9657.714 180.00 1.08707 0.17
1 5 8 2 o 42032.64 40935.43 0.00 1.08638 0.51
6 9 1 1 o 29507.510 28767.838 0.00 1.08369 0.73
2 7 7 1 o 2891.864 2823.456 0.00 1.08366 0.07
3 8 6 2 o 50822.05 50317.93 180.00 1.08584 0.62
4 11 0 1 o 4054.764 4055.102 0.00 1.08283 0.06
5 3 7 2 o 62753.73 64088.73 180.00 1.08465 0.69
2 12 0 1 o 50319.91 51766.31 180.00 1.08176 0.71
0 12 2 1 o 36892.00 38090.68 0.00 1.08125 0.52
6 9 1 2 o 27952.629 28767.838 0.00 1.08369 0.34
2 7 7 2 o 2745.738 2823.456 0.00 1.08366 0.03
8 0 4 1 o 18152.322 18685.154 180.00 1.08052 0.21
4 11 0 2 o 3917.882 4055.102 0.00 1.08283 0.03
1 9 6 1 o 20204.395 20580.967 180.00 1.07916 0.48
6 6 5 1 o 49313.12 50250.56 0.00 1.07916 1.18
2 12 0 2 o 50769.32 51766.31 180.00 1.08176 0.36
0 12 2 2 o 37903.83 38090.68 0.00 1.08125 0.27
8 0 4 2 o 18995.602 18685.154 180.00 1.08052 0.11
5 6 6 1 o 40727.77 39958.62 0.00 1.07775 0.96
8 1 4 1 o 825.848 811.602 180.00 1.07698 0.01
1 9 6 2 o 21297.238 20580.967 180.00 1.07916 0.26
6 6 5 2 o 52046.46 50250.56 0.00 1.07916 0.63
4 11 1 1 o 4057.459 3916.960 0.00 1.07600 0.11
5 6 6 2 o 41424.00 39958.62 0.00 1.07775 0.49
2 12 1 1 o 56218.82 54145.02 0.00 1.07495 1.42
6 4 6 1 o 13481.245 13003.858 180.00 1.07491 0.30
1 12 2 1 o 1604.222 1533.559 0.00 1.07457 0.04
4 0 8 1 o 6826.570 6578.531 180.00 1.07439 0.07
8 1 4 2 o 830.612 811.602 180.00 1.07698 0.01
1 11 4 1 o 3333.099 3189.977 180.00 1.07409 0.08
8 5 2 1 o 8.990 5.861 0.00 1.07395 0.00
4 11 1 2 o 4088.807 3916.960 0.00 1.07600 0.05
2 12 1 2 o 56239.86 54145.02 0.00 1.07495 0.71
6 4 6 2 o 13482.029 13003.858 180.00 1.07491 0.15
1 12 2 2 o 1599.496 1533.559 0.00 1.07457 0.02
4 0 8 2 o 6799.708 6578.531 180.00 1.07439 0.03
8 4 3 1 o 2.593 2.290 0.00 1.07173 0.00
1 11 4 2 o 3304.796 3189.977 180.00 1.07409 0.04
8 5 2 2 o 8.189 5.861 0.00 1.07395 0.00
4 1 8 1 o 293.284 281.023 0.00 1.07091 0.01
5 10 2 1 o 47039.88 47747.67 0.00 1.06970 1.18
8 4 3 2 o 2.101 2.290 0.00 1.07173 0.00
3 11 3 1 o 7353.684 7548.790 180.00 1.06842 0.16
4 1 8 2 o 265.198 281.023 0.00 1.07091 0.01
2 10 5 1 o 10609.249 10827.032 0.00 1.06708 0.26
5 10 2 2 o 46769.62 47747.67 0.00 1.06970 0.58
8 2 4 1 o 29252.707 29865.268 0.00 1.06657 0.66
2 5 8 1 o 14382.836 14676.208 0.00 1.06643 0.31
3 11 3 2 o 7377.982 7548.790 180.00 1.06842 0.08
9 1 1 1 o 1613.062 1666.656 0.00 1.06575 0.05
3 4 8 1 o 1267.321 1288.387 0.00 1.06487 0.03
2 10 5 2 o 10744.803 10827.032 0.00 1.06708 0.13
8 2 4 2 o 29924.209 29865.268 0.00 1.06657 0.34
2 5 8 2 o 14727.536 14676.208 0.00 1.06643 0.16
6 9 2 1 o 3237.104 3218.019 0.00 1.06352 0.07
7 4 5 1 o 1189.816 1177.095 0.00 1.06325 0.03
9 1 1 2 o 1687.291 1666.656 0.00 1.06575 0.02
8 6 0 1 o 100474.93 99088.73 0.00 1.06265 1.15
0 1 9 1 o 23036.133 22642.498 0.00 1.06233 0.26
3 4 8 2 o 1312.077 1288.387 0.00 1.06487 0.02
6 9 2 2 o 3278.430 3218.019 0.00 1.06352 0.04
4 2 8 1 o 7277.187 7133.557 0.00 1.06067 0.17
7 4 5 2 o 1204.792 1177.095 0.00 1.06325 0.02
5 4 7 1 o 16629.930 16367.219 180.00 1.06031 0.39
8 6 0 2 o 100314.61 99088.73 0.00 1.06265 0.57
0 1 9 2 o 22860.557 22642.498 0.00 1.06233 0.13
2 9 6 1 o 43030.23 42638.55 0.00 1.05960 1.04
4 2 8 2 o 7217.124 7133.557 0.00 1.06067 0.09
5 4 7 2 o 16547.088 16367.219 180.00 1.06031 0.19
7 8 1 1 o 4324.223 4278.699 0.00 1.05744 0.10
2 9 6 2 o 43151.28 42638.55 0.00 1.05960 0.52
4 11 2 1 o 768.944 753.643 180.00 1.05624 0.03
8 6 1 1 o 4241.384 4185.741 180.00 1.05619 0.10
7 7 3 1 o 42111.80 41556.23 180.00 1.05603 1.04
1 1 9 1 o 41842.96 41322.49 180.00 1.05599 0.96
5 9 4 1 o 13690.159 13543.095 180.00 1.05571 0.32
9 2 1 1 o 31204.248 30869.320 0.00 1.05566 0.73
2 12 2 1 o 9397.679 9344.996 180.00 1.05525 0.19
0 6 8 1 o 20522.619 20453.709 0.00 1.05489 0.24
7 8 1 2 o 4290.924 4278.699 0.00 1.05744 0.05
2 11 4 1 o 16381.212 16340.377 180.00 1.05480 0.38
4 9 5 1 o 34668.996 34636.000 180.00 1.05463 0.82
5 8 5 1 o 4731.946 4731.089 0.00 1.05455 0.13
7 6 4 1 o 28253.738 28292.590 180.00 1.05439 0.64
4 11 2 2 o 744.020 753.643 180.00 1.05624 0.01
8 6 1 2 o 4148.640 4185.741 180.00 1.05619 0.05
7 7 3 2 o 41127.09 41556.23 180.00 1.05603 0.51
1 1 9 2 o 40907.70 41322.49 180.00 1.05599 0.47
5 9 4 2 o 13393.658 13543.095 180.00 1.05571 0.16
9 2 1 2 o 30513.816 30869.320 0.00 1.05566 0.36
4 6 7 1 o 44.019 44.221 180.00 1.05045 0.00
2 12 2 2 o 9262.435 9344.996 180.00 1.05525 0.09
8 3 4 1 o 13.396 14.650 0.00 1.04987 0.00
9 0 2 1 o 26541.090 26804.219 0.00 1.04980 0.30
0 6 8 2 o 20285.186 20453.709 0.00 1.05489 0.12
2 11 4 2 o 16223.015 16340.377 180.00 1.05480 0.19
4 9 5 2 o 34437.633 34636.000 180.00 1.05463 0.40
5 8 5 2 o 4703.150 4731.089 0.00 1.05455 0.07
7 6 4 2 o 28198.514 28292.590 180.00 1.05439 0.32
4 10 4 1 o 14586.998 14779.851 180.00 1.04922 0.34
1 8 7 1 o 37438.36 37530.28 180.00 1.05168 0.90
1 8 7 2 o 37000.13 37530.28 180.00 1.05168 0.44
3 7 7 1 o 12683.801 12684.868 180.00 1.05125 0.31
1 6 8 1 o 1015.735 1032.515 0.00 1.04868 0.02
3 7 7 2 o 12474.780 12684.868 180.00 1.05125 0.15
4 6 7 2 o 43.674 44.221 180.00 1.05045 0.00
8 3 4 2 o 14.764 14.650 0.00 1.04987 0.00
9 0 2 2 o 26869.176 26804.219 0.00 1.04980 0.15
4 10 4 2 o 14933.831 14779.851 180.00 1.04922 0.18
9 1 2 1 o 42906.66 42436.95 0.00 1.04655 0.97
1 2 9 1 o 19222.041 18947.318 180.00 1.04617 0.51
1 6 8 2 o 1045.994 1032.515 0.00 1.04868 0.01
7 0 6 1 o 4927.697 4864.472 0.00 1.04603 0.06
6 5 6 1 o 57081.44 55575.45 0.00 1.04472 1.39
4 3 8 1 o 1688.114 1610.175 0.00 1.04424 0.06
9 1 2 2 o 43887.85 42436.95 0.00 1.04655 0.50
1 2 9 2 o 19689.580 18947.318 180.00 1.04617 0.26
7 0 6 2 o 5026.840 4864.472 0.00 1.04603 0.03
6 8 4 1 o 3117.371 3038.056 180.00 1.04330 0.06
3 12 1 1 o 7185.340 6993.199 0.00 1.04328 0.16
7 1 6 1 o 6955.303 6789.720 180.00 1.04282 0.16
1 12 3 1 o 31037.967 30574.574 180.00 1.04236 0.72
6 5 6 2 o 56280.15 55575.45 0.00 1.04472 0.68
8 5 3 1 o 12291.303 12231.645 180.00 1.04180 0.28
4 3 8 2 o 1615.867 1610.175 0.00 1.04424 0.03
6 1 7 1 o 7272.016 7303.400 0.00 1.04132 0.18
4 8 6 1 o 33098.664 33367.922 0.00 1.04099 0.74
6 8 4 2 o 3010.899 3038.056 180.00 1.04330 0.03
3 12 1 2 o 6926.201 6993.199 0.00 1.04328 0.08
7 1 6 2 o 6704.037 6789.720 180.00 1.04282 0.08
1 12 3 2 o 30233.760 30574.574 180.00 1.04236 0.35
9 3 1 1 o 17328.574 17532.736 180.00 1.03946 0.44
8 5 3 2 o 12115.880 12231.645 180.00 1.04180 0.14
6 1 7 2 o 7228.116 7303.400 0.00 1.04132 0.09
7 8 2 1 o 32127.570 32446.527 180.00 1.03867 0.73
4 8 6 2 o 33006.383 33367.922 0.00 1.04099 0.37
5 10 3 1 o 1484.615 1499.075 180.00 1.03791 0.02
2 1 9 1 o 379.553 384.959 0.00 1.03764 0.01
8 6 2 1 o 44111.20 44872.26 0.00 1.03749 1.04
9 2 2 1 o 586.355 597.591 0.00 1.03699 0.01
9 3 1 2 o 17169.859 17532.736 180.00 1.03946 0.22
0 3 9 1 o 72944.28 74456.98 180.00 1.03628 0.83
7 8 2 2 o 31769.215 32446.527 180.00 1.03867 0.36
3 10 5 1 o 805.011 833.161 180.00 1.03609 0.03
6 7 5 1 o 28988.379 29683.227 0.00 1.03585 0.66
3 5 8 1 o 25295.699 26022.688 180.00 1.03550 0.58
5 10 3 2 o 1470.047 1499.075 180.00 1.03791 0.01
2 1 9 2 o 374.550 384.959 0.00 1.03764 0.00
8 6 2 2 o 43472.24 44872.26 0.00 1.03749 0.51
5 7 6 1 o 212.804 218.963 0.00 1.03461 0.01
9 2 2 2 o 582.979 597.591 0.00 1.03699 0.01
7 5 5 1 o 1912.959 1926.279 0.00 1.03401 0.03
0 3 9 2 o 74136.67 74456.98 180.00 1.03628 0.42
2 8 7 1 o 1240.560 1240.937 0.00 1.03355 0.03
3 10 5 2 o 833.087 833.161 180.00 1.03609 0.02
7 2 6 1 o 27954.102 27878.039 180.00 1.03336 0.63
6 7 5 2 o 29780.824 29683.227 0.00 1.03585 0.34
3 5 8 2 o 26137.574 26022.688 180.00 1.03550 0.30
6 9 3 1 o 13026.552 13022.595 0.00 1.03226 0.30
5 7 6 2 o 218.980 218.963 0.00 1.03461 0.00
6 2 7 1 o 1730.949 1729.970 180.00 1.03190 0.04
7 5 5 2 o 1929.797 1926.279 0.00 1.03401 0.01
5 5 7 1 o 13763.033 13716.698 180.00 1.03130 0.27
2 8 7 2 o 1246.164 1240.937 0.00 1.03355 0.02
7 2 6 2 o 27966.668 27878.039 180.00 1.03336 0.31
2 6 8 1 o 1900.261 1894.992 180.00 1.03070 0.05
1 3 9 1 o 12865.362 12857.150 180.00 1.03040 0.32
6 9 3 2 o 13073.338 13022.595 0.00 1.03226 0.15
6 2 7 2 o 1752.523 1729.970 180.00 1.03190 0.02
3 9 6 1 o 17498.096 17215.674 0.00 1.02924 0.42
5 5 7 2 o 14119.187 13716.698 180.00 1.03130 0.14
2 2 9 1 o 69303.64 66033.38 180.00 1.02832 1.56
2 6 8 2 o 2009.475 1894.992 180.00 1.03070 0.03
1 3 9 2 o 13668.265 12857.150 180.00 1.03040 0.17
8 4 4 1 o 117114.22 110713.59 0.00 1.02776 2.70
6 10 0 1 o 3548.667 3397.669 180.00 1.02719 0.04
3 9 6 2 o 17879.234 17215.674 0.00 1.02924 0.22
2 2 9 2 o 68385.45 66033.38 180.00 1.02832 0.77
4 11 3 1 o 46973.84 45287.32 180.00 1.02561 1.11
3 12 2 1 o 6656.503 6388.933 180.00 1.02525 0.17
8 4 4 2 o 115219.24 110713.59 0.00 1.02776 1.32
3 11 4 1 o 2354.341 2266.995 0.00 1.02484 0.06
2 12 3 1 o 9174.913 8871.958 180.00 1.02470 0.21
6 10 0 2 o 3507.155 3397.669 180.00 1.02719 0.02
0 11 5 1 o 23160.654 22924.629 0.00 1.02385 0.28
0 10 6 1 o 58831.21 59215.39 0.00 1.02322 0.66
4 11 3 2 o 44889.77 45287.32 180.00 1.02561 0.52
3 12 2 2 o 6313.823 6388.933 180.00 1.02525 0.08
4 4 8 1 o 10682.352 10770.958 0.00 1.02247 0.19
3 11 4 2 o 2248.017 2266.995 0.00 1.02484 0.03
2 12 3 2 o 8822.421 8871.958 180.00 1.02470 0.10
9 3 2 1 o 7310.501 7241.002 0.00 1.02162 0.15
6 10 1 1 o 5780.120 5663.673 0.00 1.02135 0.14
0 11 5 2 o 23417.248 22924.629 0.00 1.02385 0.14
8 7 0 1 o 3194.700 3083.038 180.00 1.02123 0.05
5 11 1 1 o 464.141 455.026 0.00 1.02077 0.01
0 10 6 2 o 61516.98 59215.39 0.00 1.02322 0.35
8 1 5 1 o 81742.42 78422.55 180.00 1.02063 1.87
4 4 8 2 o 11129.068 10770.958 0.00 1.02247 0.10
5 0 8 1 o 75468.83 73216.78 0.00 1.01939 0.84
9 3 2 2 o 7407.312 7241.002 0.00 1.02162 0.08
6 10 1 2 o 5770.522 5663.673 0.00 1.02135 0.07
8 7 0 2 o 3156.761 3083.038 180.00 1.02123 0.03
0 13 1 1 o 1032.989 1016.068 0.00 1.01866 0.01
5 11 1 2 o 457.087 455.026 0.00 1.02077 0.00
1 11 5 1 o 8023.914 7961.611 180.00 1.01817 0.19
7 3 6 1 o 3376.385 3349.294 180.00 1.01815 0.08
8 1 5 2 o 78979.84 78422.55 180.00 1.02063 0.89
9 4 1 1 o 6652.317 6616.718 180.00 1.01798 0.15
1 10 6 1 o 71367.23 71335.05 0.00 1.01756 1.70
5 0 8 2 o 72424.01 73216.78 0.00 1.01939 0.40
6 3 7 1 o 1201.683 1217.075 0.00 1.01675 0.02
9 1 3 1 o 2218.762 2264.827 180.00 1.01673 0.07
5 1 8 1 o 22329.828 22866.635 0.00 1.01642 0.48
0 13 1 2 o 979.674 1016.068 0.00 1.01866 0.01
1 11 5 2 o 7585.405 7961.611 180.00 1.01817 0.09
7 3 6 2 o 3176.757 3349.294 180.00 1.01815 0.04
8 7 1 1 o 5327.701 5607.250 0.00 1.01549 0.12
9 4 1 2 o 6284.695 6616.718 180.00 1.01798 0.07
1 10 6 2 o 67520.59 71335.05 0.00 1.01756 0.79
6 3 7 2 o 1164.939 1217.075 0.00 1.01675 0.01
9 1 3 2 o 2116.148 2264.827 180.00 1.01673 0.03
5 1 8 2 o 21855.613 22866.635 0.00 1.01642 0.23
7 7 4 1 o 233.652 247.363 0.00 1.01389 0.01
2 3 9 1 o 184.514 193.430 180.00 1.01333 0.00
1 13 1 1 o 2352.763 2445.904 0.00 1.01307 0.05
8 7 1 2 o 5365.603 5607.250 0.00 1.01549 0.06
8 2 5 1 o 8671.552 9359.634 180.00 1.01176 0.19
7 7 4 2 o 223.635 247.363 0.00 1.01389 0.00
6 6 6 1 o 1300.575 1400.880 180.00 1.01106 0.03
2 3 9 2 o 178.308 193.430 180.00 1.01333 0.00
1 13 1 2 o 2313.705 2445.904 0.00 1.01307 0.02
4 7 7 1 o 344.254 361.329 180.00 1.01039 0.01
7 8 3 1 o 14883.401 15070.604 0.00 1.00950 0.36
1 4 9 1 o 598.889 604.326 0.00 1.00946 0.01
8 2 5 2 o 9312.709 9359.634 180.00 1.01176 0.10
3 1 9 1 o 10682.855 10678.545 0.00 1.00908 0.25
4 12 0 1 o 23563.277 23422.305 0.00 1.00885 0.27
1 7 8 1 o 87.901 87.327 180.00 1.00881 0.00
6 6 6 2 o 1417.449 1400.880 180.00 1.01106 0.02
8 6 3 1 o 670.925 661.335 0.00 1.00841 0.01
9 2 3 1 o 51657.13 50923.20 0.00 1.00795 1.13
4 7 7 2 o 366.104 361.329 180.00 1.01039 0.00
5 2 8 1 o 11150.437 11042.777 0.00 1.00766 0.25
0 12 4 1 o 5635.792 5633.886 0.00 1.00717 0.05
7 8 3 2 o 15047.268 15070.604 0.00 1.00950 0.18
1 4 9 2 o 603.452 604.326 0.00 1.00946 0.01
3 1 9 2 o 10659.749 10678.545 0.00 1.00908 0.12
4 12 0 2 o 23439.723 23422.305 0.00 1.00885 0.13
1 7 8 2 o 87.431 87.327 180.00 1.00881 0.00
8 6 3 2 o 666.666 661.335 0.00 1.00841 0.01
9 2 3 2 o 51713.80 50923.20 0.00 1.00795 0.56
0 9 7 1 o 1763.026 1734.886 180.00 1.00539 0.02
3 8 7 1 o 18078.953 17777.463 0.00 1.00532 0.40
5 2 8 2 o 11243.921 11042.777 0.00 1.00766 0.12
7 9 1 1 o 14097.098 13802.726 0.00 1.00495 0.38
0 12 4 2 o 5703.359 5633.886 0.00 1.00717 0.02
6 10 2 1 o 11547.702 11375.998 180.00 1.00441 0.26
5 11 2 1 o 17660.797 17435.447 0.00 1.00386 0.42
4 12 1 1 o 2697.281 2672.375 0.00 1.00332 0.07
0 9 7 2 o 1737.325 1734.886 180.00 1.00539 0.01
3 8 7 2 o 17772.029 17777.463 0.00 1.00532 0.20
3 6 8 1 o 76834.90 77171.75 180.00 1.00269 1.74
7 9 1 2 o 13632.404 13802.726 0.00 1.00495 0.18
5 9 5 1 o 4659.725 4699.437 180.00 1.00247 0.08
2 13 0 1 o 50473.36 51404.66 0.00 1.00226 0.63
6 10 2 2 o 11090.187 11375.998 180.00 1.00441 0.12
1 12 4 1 o 5260.486 5412.581 0.00 1.00177 0.12
2 11 5 1 o 11647.393 11992.877 0.00 1.00169 0.26
5 11 2 2 o 16895.736 17435.447 0.00 1.00386 0.20
7 6 5 1 o 1019.162 1057.778 0.00 1.00134 0.03
8 5 4 1 o 2678.034 2741.185 0.00 1.00127 0.05
9 4 2 1 o 2363.145 2435.099 180.00 1.00121 0.05
2 10 6 1 o 5194.702 5352.454 180.00 1.00111 0.13
4 12 1 2 o 2607.199 2672.375 0.00 1.00332 0.03
3 2 9 1 o 243.322 243.952 0.00 1.00050 0.00
3 6 8 2 o 76620.62 77171.75 180.00 1.00269 0.87
1 9 7 1 o 7294.108 7303.376 180.00 1.00001 0.18
5 9 5 2 o 4695.528 4699.437 180.00 1.00247 0.04
2 13 0 2 o 51678.57 51404.66 0.00 1.00226 0.32
1 12 4 2 o 5517.054 5412.581 0.00 1.00177 0.06
2 11 5 2 o 12248.505 11992.877 0.00 1.00169 0.14
5 6 7 1 o 45287.31 43848.62 180.00 0.99889 1.08
7 6 5 2 o 1097.721 1057.778 0.00 1.00134 0.01
8 7 2 1 o 1567.911 1498.799 0.00 0.99883 0.05
8 5 4 2 o 2810.827 2741.185 0.00 1.00127 0.02
9 4 2 2 o 2519.614 2435.099 180.00 1.00121 0.03
2 10 6 2 o 5556.481 5352.454 180.00 1.00111 0.07
3 2 9 2 o 245.685 243.952 0.00 1.00050 0.00
7 4 6 1 o 81034.02 77993.52 180.00 0.99794 1.82
5 10 4 1 o 31410.170 30225.045 0.00 0.99782 0.75
1 9 7 2 o 7581.937 7303.376 180.00 1.00001 0.09
8 3 5 1 o 20232.729 19553.027 0.00 0.99747 0.45
3 12 3 1 o 34725.613 33577.984 0.00 0.99716 0.87
4 10 5 1 o 49.639 48.602 0.00 0.99691 0.00
2 13 1 1 o 26260.449 25471.621 0.00 0.99683 0.64
6 4 7 1 o 43.028 39.944 180.00 0.99662 0.00
1 13 2 1 o 17092.004 16623.293 180.00 0.99653 0.40
5 6 7 2 o 45156.24 43848.62 180.00 0.99889 0.54
4 5 8 1 o 260.865 255.483 0.00 0.99638 0.00
8 7 2 2 o 1558.494 1498.799 0.00 0.99883 0.03
7 4 6 2 o 78768.13 77993.52 180.00 0.99794 0.88
5 10 4 2 o 30416.465 30225.045 0.00 0.99782 0.36
8 3 5 2 o 19436.166 19553.027 0.00 0.99747 0.21
3 12 3 2 o 33016.383 33577.984 0.00 0.99716 0.41
4 10 5 2 o 47.859 48.602 0.00 0.99691 0.00
2 13 1 2 o 24855.699 25471.621 0.00 0.99683 0.30
6 4 7 2 o 37.094 39.944 180.00 0.99662 0.00
1 13 2 2 o 16163.596 16623.293 180.00 0.99653 0.19
4 5 8 2 o 249.748 255.483 0.00 0.99638 0.00
9 3 3 1 o 15994.528 16448.215 180.00 0.99382 0.32
5 3 8 1 o 4686.759 4830.349 0.00 0.99354 0.10
2 4 9 1 o 17492.748 18085.781 0.00 0.99340 0.39
6 9 4 1 o 38595.06 39839.90 180.00 0.99280 0.83
2 7 8 1 o 191.249 199.429 180.00 0.99278 0.01
9 5 1 1 o 7157.552 7455.005 180.00 0.99223 0.20
6 8 5 1 o 55548.60 57474.54 180.00 0.99183 1.27
9 3 3 2 o 15925.293 16448.215 180.00 0.99382 0.16
5 3 8 2 o 4668.200 4830.349 0.00 0.99354 0.05
2 4 9 2 o 17429.734 18085.781 0.00 0.99340 0.20
4 9 6 1 o -1.279 0.003 180.00 0.99080 0.00
5 8 6 1 o 29990.279 31042.547 0.00 0.99073 0.67
6 9 4 2 o 38753.82 39839.90 180.00 0.99280 0.42
2 7 8 2 o 192.381 199.429 180.00 0.99278 0.00
9 5 1 2 o 7286.373 7455.005 180.00 0.99223 0.10
0 5 9 1 o 5364.016 5451.394 180.00 0.98946 0.06
6 8 5 2 o 56613.67 57474.54 180.00 0.99183 0.65
7 9 2 1 o 12384.482 12604.258 0.00 0.98880 0.28
4 9 6 2 o -0.893 0.003 180.00 0.99080 0.00
5 8 6 2 o 30259.143 31042.547 0.00 0.99073 0.34
4 12 2 1 o 28779.959 30136.580 0.00 0.98724 0.73
0 5 9 2 o 5190.796 5451.394 180.00 0.98946 0.03
4 11 4 1 o 62.073 72.518 0.00 0.98688 0.00
3 3 9 1 o 33454.656 35120.16 0.00 0.98667 0.69
7 9 2 2 o 11904.343 12604.258 0.00 0.98880 0.13
2 12 4 1 o 20422.998 21975.605 180.00 0.98606 0.53
4 12 2 2 o 28214.504 30136.580 0.00 0.98724 0.35
4 11 4 2 o 62.505 72.518 0.00 0.98688 0.00
2 9 7 1 o 3746.639 3916.464 0.00 0.98439 0.09
1 5 9 1 o 14605.318 15216.596 180.00 0.98434 0.32
3 3 9 2 o 33901.863 35120.16 0.00 0.98667 0.35
2 12 4 2 o 21536.666 21975.605 180.00 0.98606 0.28
2 9 7 2 o 3850.185 3916.464 0.00 0.98439 0.04
1 5 9 2 o 14958.308 15216.596 180.00 0.98434 0.17
9 0 4 1 o 22910.135 23388.912 0.00 0.98161 0.26
2 13 2 1 o 5446.740 5596.906 0.00 0.98106 0.14
9 0 4 2 o 23338.916 23388.912 0.00 0.98161 0.13
8 8 0 1 o 84630.73 84344.81 0.00 0.97897 0.96
9 1 4 1 o 6292.105 6270.732 0.00 0.97895 0.13
2 13 2 2 o 5655.558 5596.906 0.00 0.98106 0.08
8 4 5 1 o 3146.167 3105.637 0.00 0.97844 0.07
8 4 5 2 o 3152.487 3105.637 0.00 0.97844 0.04
3 11 5 1 o 16570.672 16375.769 0.00 0.97593 0.38
6 10 3 1 o 594.217 584.474 180.00 0.97795 0.01
0 13 3 1 o 43569.98 43307.96 180.00 0.97559 0.53
6 10 3 2 o 587.168 584.474 180.00 0.97795 0.01
3 10 6 1 o 1293.777 1290.157 0.00 0.97538 0.03
5 11 3 1 o 3934.329 3824.100 0.00 0.97745 0.10
6 7 6 1 o 1261.486 1261.783 0.00 0.97519 0.05
5 11 3 2 o 3815.594 3824.100 0.00 0.97745 0.05
9 4 3 1 o 10363.542 10390.126 180.00 0.97500 0.22
5 4 8 1 o 1031.049 1037.740 0.00 0.97473 0.03
9 5 2 1 o 54674.45 53297.33 180.00 0.97667 1.20
8 8 0 2 o 86431.58 84344.81 0.00 0.97897 0.50
9 1 4 2 o 6411.555 6270.732 0.00 0.97895 0.07
9 5 2 2 o 52787.26 53297.33 180.00 0.97667 0.58
8 8 1 1 o 6535.883 6612.741 0.00 0.97391 0.16
7 5 6 1 o 8285.880 8371.515 0.00 0.97364 0.19
3 11 5 2 o 16221.965 16375.769 0.00 0.97593 0.19
0 13 3 2 o 43011.04 43307.96 180.00 0.97559 0.26
3 10 6 2 o 1283.285 1290.157 0.00 0.97538 0.02
0 8 8 1 o 17540.754 17627.061 0.00 0.97289 0.22
8 7 3 1 o 49146.25 49347.29 180.00 0.97281 1.11
4 1 9 1 o 28620.018 28733.322 180.00 0.97278 0.63
6 7 6 2 o 1253.787 1261.783 0.00 0.97519 0.02
9 4 3 2 o 10357.224 10390.126 180.00 0.97500 0.11
7 8 4 1 o 23779.932 23851.701 180.00 0.97250 0.54
6 5 7 1 o 1793.991 1798.682 0.00 0.97242 0.04
5 4 8 2 o 1034.631 1037.740 0.00 0.97473 0.01
8 6 4 1 o 627.383 626.148 180.00 0.97152 0.01
8 8 1 2 o 6630.691 6612.741 0.00 0.97391 0.08
3 13 1 1 o 6566.843 6548.664 0.00 0.97142 0.13
7 5 6 2 o 8410.247 8371.515 0.00 0.97364 0.09
9 2 4 1 o 6519.332 6486.130 0.00 0.97111 0.15
7 1 7 1 o 57215.30 57008.72 0.00 0.97089 1.18
1 13 3 1 o 4532.594 4529.948 0.00 0.97068 0.11
0 8 8 2 o 17548.152 17627.061 0.00 0.97289 0.11
8 7 3 2 o 49019.48 49347.29 180.00 0.97281 0.55
4 1 9 2 o 28514.531 28733.322 180.00 0.97278 0.31
7 8 4 2 o 23408.578 23851.701 180.00 0.97250 0.26
6 5 7 2 o 1762.734 1798.682 0.00 0.97242 0.02
2 5 9 1 o 12.151 12.502 0.00 0.96942 0.00
4 8 7 1 o 118.354 124.769 0.00 0.96941 0.00
8 6 4 2 o 602.509 626.148 180.00 0.97152 0.01
3 13 1 2 o 6298.402 6548.664 0.00 0.97142 0.06
9 2 4 2 o 6211.304 6486.130 0.00 0.97111 0.07
7 1 7 2 o 55129.84 57008.72 0.00 0.97089 0.56
6 11 0 1 o 15855.080 16384.133 180.00 0.96847 0.17
10 0 0 1 o 583.817 604.987 180.00 0.96830 0.00
1 13 3 2 o 4389.413 4529.948 0.00 0.97068 0.05
3 4 9 1 o 1452.710 1499.062 180.00 0.96825 0.03
1 8 8 1 o 1561.734 1597.822 0.00 0.96801 0.03
3 7 8 1 o 35.607 36.118 0.00 0.96767 0.00
4 6 8 1 o 1893.893 1909.469 180.00 0.96706 0.04
2 5 9 2 o 12.433 12.502 0.00 0.96942 0.00
4 8 7 2 o 123.539 124.769 0.00 0.96941 0.00
7 7 5 1 o 30882.041 30924.512 0.00 0.96646 0.76
6 11 0 2 o 16392.510 16384.133 180.00 0.96847 0.09
10 0 0 2 o 605.524 604.987 180.00 0.96830 0.00
3 4 9 2 o 1500.225 1499.062 180.00 0.96825 0.02
10 1 0 1 o 32487.912 32475.014 180.00 0.96575 0.34
1 8 8 2 o 1597.522 1597.822 0.00 0.96801 0.02
3 7 8 2 o 36.009 36.118 0.00 0.96767 0.00
4 2 9 1 o 1601.970 1613.063 180.00 0.96509 0.03
8 0 6 1 o 10834.913 10931.054 180.00 0.96498 0.12
4 6 8 2 o 1886.573 1909.469 180.00 0.96706 0.02
5 7 7 1 o 1.417 1.975 180.00 0.96425 0.00
7 7 5 2 o 30417.779 30924.512 0.00 0.96646 0.37
6 11 1 1 o 33953.770 34389.211 0.00 0.96357 0.79
7 9 3 1 o 8148.721 8232.606 0.00 0.96353 0.15
10 1 0 2 o 32087.135 32475.014 180.00 0.96575 0.17
9 6 1 1 o 18252.754 18504.355 180.00 0.96326 0.43
7 2 7 1 o 13508.557 13682.566 180.00 0.96324 0.29
4 2 9 2 o 1585.417 1613.063 180.00 0.96509 0.02
8 0 6 2 o 10730.000 10931.054 180.00 0.96498 0.06
8 1 6 1 o 12881.453 13188.637 180.00 0.96245 0.34
6 0 8 1 o 2825.250 2874.179 180.00 0.96241 0.03
4 12 3 1 o 62.601 63.399 180.00 0.96209 0.00
5 7 7 2 o 1.410 1.975 180.00 0.96425 0.00
3 12 4 1 o 7206.988 7255.532 180.00 0.96145 0.16
6 11 1 2 o 34358.676 34389.211 0.00 0.96357 0.40
7 9 3 2 o 8232.730 8232.606 0.00 0.96353 0.08
10 1 1 1 o 46178.46 45906.39 0.00 0.96089 1.05
9 6 1 2 o 18618.807 18504.355 180.00 0.96326 0.22
7 2 7 2 o 13765.587 13682.566 180.00 0.96324 0.15
1 11 6 1 o 7176.926 7099.465 0.00 0.96039 0.17
8 1 6 2 o 13337.030 13188.637 180.00 0.96245 0.18
6 0 8 2 o 2896.816 2874.179 180.00 0.96241 0.01
6 1 8 1 o 24305.563 24101.320 0.00 0.95991 0.60
3 9 7 1 o 28807.207 28607.441 0.00 0.95990 0.62
4 12 3 2 o 63.621 63.399 180.00 0.96209 0.00
8 8 2 1 o 28988.754 29080.381 0.00 0.95919 0.66
0 0 10 1 o 39382.63 39513.06 0.00 0.95915 0.19
3 12 4 2 o 7222.441 7255.532 180.00 0.96145 0.08
10 1 1 2 o 45293.23 45906.39 0.00 0.96089 0.51
9 3 4 1 o 2468.212 2502.591 0.00 0.95846 0.05
10 2 0 1 o 39524.14 40223.18 180.00 0.95822 0.46
5 12 1 1 o 10522.028 10690.527 0.00 0.95809 0.22
1 11 6 2 o 6965.188 7099.465 0.00 0.96039 0.08
6 1 8 2 o 23495.297 24101.320 0.00 0.95991 0.29
3 9 7 2 o 27999.348 28607.441 0.00 0.95990 0.30
8 8 2 2 o 28338.348 29080.381 0.00 0.95919 0.32
3 13 2 1 o 15226.058 15635.362 0.00 0.95681 0.37
0 0 10 2 o 38617.29 39513.06 0.00 0.95915 0.09
2 13 3 1 o 12565.129 12909.727 0.00 0.95637 0.30
9 3 4 2 o 2432.230 2502.591 0.00 0.95846 0.03
1 6 9 1 o 6221.480 6436.858 0.00 0.95603 0.16
1 12 5 1 o 15.676 15.687 0.00 0.95594 0.00
10 2 0 2 o 38958.77 40223.18 180.00 0.95822 0.23
5 12 1 2 o 10401.612 10690.527 0.00 0.95809 0.11
8 5 5 1 o 2216.123 2286.843 180.00 0.95551 0.05
8 2 6 1 o 11967.465 12342.961 0.00 0.95500 0.26
7 10 1 1 o 239.404 244.883 0.00 0.95464 0.00
1 0 10 1 o 45030.91 46333.77 0.00 0.95448 0.52
3 13 2 2 o 15204.524 15635.362 0.00 0.95681 0.19
2 13 3 2 o 12718.179 12909.727 0.00 0.95637 0.15
2 8 8 1 o 153.636 156.752 0.00 0.95382 0.01
1 6 9 2 o 6432.063 6436.858 0.00 0.95603 0.08
1 12 5 2 o 15.688 15.687 0.00 0.95594 0.00
10 2 1 1 o 31666.951 31401.180 180.00 0.95348 0.69
8 5 5 2 o 2335.970 2286.843 180.00 0.95551 0.03
4 3 9 1 o 50847.45 49286.34 0.00 0.95266 1.15
8 2 6 2 o 12723.019 12342.961 0.00 0.95500 0.14
6 2 8 1 o 58.936 57.978 180.00 0.95252 0.00
5 10 5 1 o 337.247 320.077 180.00 0.95251 0.01
9 5 3 1 o 1996.115 1957.774 180.00 0.95230 0.03
7 10 1 2 o 250.218 244.883 0.00 0.95464 0.00
1 0 10 2 o 47534.02 46333.77 0.00 0.95448 0.28
5 5 8 1 o 35750.33 34961.816 180.00 0.95205 0.80
1 1 10 1 o 1232.935 1207.638 0.00 0.95204 0.03
2 8 8 2 o 160.237 156.752 0.00 0.95382 0.01
0 14 0 1 o 148405.05 147844.80 0.00 0.95127 0.88
10 2 1 2 o 31451.557 31401.180 180.00 0.95348 0.34
7 3 7 1 o 3439.386 3442.026 180.00 0.95088 0.06
1 10 7 1 o 3.864 4.584 0.00 0.95040 0.01
4 3 9 2 o 49126.08 49286.34 0.00 0.95266 0.55
6 2 8 2 o 57.878 57.978 180.00 0.95252 0.00
5 10 5 2 o 318.292 320.077 180.00 0.95251 0.01
9 5 3 2 o 1953.982 1957.774 180.00 0.95230 0.02
5 5 8 2 o 34907.871 34961.816 180.00 0.95205 0.39
1 1 10 2 o 1205.983 1207.638 0.00 0.95204 0.01
0 2 10 1 o 6724.646 6713.646 180.00 0.94935 0.08
6 11 2 1 o 5899.928 5885.091 180.00 0.94931 0.17
10 0 2 1 o 6480.598 6458.113 180.00 0.94915 0.07
9 6 2 1 o 8410.035 8367.331 0.00 0.94901 0.18
0 14 0 2 o 148743.78 147844.80 0.00 0.95127 0.44
7 3 7 2 o 3466.251 3442.026 180.00 0.95088 0.03
6 9 5 1 o 7137.129 7068.387 0.00 0.94814 0.17
1 10 7 2 o 6.660 4.584 0.00 0.95040 0.00
5 9 6 1 o 25036.760 24878.449 0.00 0.94718 0.58
0 2 10 2 o 6769.651 6713.646 180.00 0.94935 0.04
6 11 2 2 o 5948.294 5885.091 180.00 0.94931 0.09
10 0 2 2 o 6527.395 6458.113 180.00 0.94915 0.03
10 1 2 1 o 7142.560 7032.254 180.00 0.94675 0.19
9 6 2 2 o 8487.642 8367.331 0.00 0.94901 0.09
2 11 6 1 o 18805.074 18408.879 180.00 0.94652 0.48
7 6 6 1 o 39.768 38.082 180.00 0.94622 0.00
10 3 0 1 o 5754.704 5579.348 180.00 0.94606 0.06
3 5 9 1 o 14117.216 13645.100 0.00 0.94601 0.29
6 9 5 2 o 7415.844 7068.387 0.00 0.94814 0.09
6 6 7 1 o 616.593 575.772 0.00 0.94510 0.01
5 9 6 2 o 26730.701 24878.449 0.00 0.94718 0.32
1 2 10 1 o 16779.867 15615.152 0.00 0.94482 0.38
10 1 2 2 o 7628.689 7032.254 180.00 0.94675 0.10
6 10 4 1 o 29712.672 27794.256 180.00 0.94420 0.71
2 11 6 2 o 19794.010 18408.879 180.00 0.94652 0.26
5 12 2 1 o 4156.272 3893.676 0.00 0.94407 0.10
7 6 6 2 o 41.534 38.082 180.00 0.94622 0.00
5 11 4 1 o 4983.270 4701.333 0.00 0.94375 0.12
10 3 0 2 o 5854.203 5579.348 180.00 0.94606 0.03
3 5 9 2 o 14332.952 13645.100 0.00 0.94601 0.15
4 13 0 1 o 115.888 99.998 180.00 0.94344 0.00
4 11 5 1 o 120473.51 115299.77 180.00 0.94297 2.93
8 3 6 1 o 6758.181 6402.547 180.00 0.94296 0.19
6 6 7 2 o 600.857 575.772 0.00 0.94510 0.01
1 2 10 2 o 16308.954 15615.152 0.00 0.94482 0.19
4 10 6 1 o 14833.293 14171.957 180.00 0.94249 0.37
2 6 9 1 o 37997.83 36343.70 0.00 0.94235 0.88
2 12 5 1 o 77902.96 74470.04 180.00 0.94227 1.89
1 14 1 1 o 7655.264 7212.402 0.00 0.94214 0.25
6 10 4 2 o 29124.156 27794.256 180.00 0.94420 0.34
5 12 2 2 o 4084.828 3893.676 0.00 0.94407 0.05
9 4 4 1 o 1167.749 1116.400 0.00 0.94154 0.03
10 3 1 1 o 932.199 897.192 0.00 0.94149 0.02
5 11 4 2 o 4932.994 4701.333 0.00 0.94375 0.06
4 13 0 2 o 114.533 99.998 180.00 0.94344 0.00
2 0 10 1 o 10.457 8.911 0.00 0.94087 0.00
7 10 2 1 o 27064.883 25923.869 0.00 0.94076 0.62
4 11 5 2 o 120618.98 115299.77 180.00 0.94297 1.47
8 3 6 2 o 6769.027 6402.547 180.00 0.94296 0.10
6 3 8 1 o 10487.210 9953.865 0.00 0.94057 0.28
4 10 6 2 o 14856.360 14171.957 180.00 0.94249 0.18
2 6 9 2 o 38023.13 36343.70 0.00 0.94235 0.44
2 12 5 2 o 77902.00 74470.04 180.00 0.94227 0.95
1 14 1 2 o 7643.194 7212.402 0.00 0.94214 0.12
10 2 2 1 o 16726.961 16032.459 180.00 0.93965 0.37
8 7 4 1 o 1637.636 1543.186 180.00 0.93957 0.05
9 4 4 2 o 1158.460 1116.400 0.00 0.94154 0.01
10 3 1 2 o 925.308 897.192 0.00 0.94149 0.01
4 13 1 1 o 84193.25 81468.14 180.00 0.93891 2.05
2 0 10 2 o 9.760 8.911 0.00 0.94087 0.00
2 1 10 1 o 52277.30 50994.91 180.00 0.93853 1.22
7 10 2 2 o 26486.313 25923.869 0.00 0.94076 0.30
6 3 8 2 o 10154.424 9953.865 0.00 0.94057 0.14
6 8 6 1 o 3230.917 3178.024 180.00 0.93819 0.08
1 13 4 1 o 4444.766 4422.683 180.00 0.93765 0.11
10 2 2 2 o 16099.049 16032.459 180.00 0.93965 0.18
8 7 4 2 o 1553.638 1543.186 180.00 0.93957 0.02
2 10 7 1 o 1.344 1.319 0.00 0.93696 0.00
8 9 0 1 o 15302.971 15110.581 0.00 0.93688 0.20
4 13 1 2 o 83081.21 81468.14 180.00 0.93891 1.01
2 1 10 2 o 52667.63 50994.91 180.00 0.93853 0.62
8 8 3 1 o 841.829 813.721 180.00 0.93607 0.02
9 1 5 1 o 2420.610 2369.690 180.00 0.93606 0.03
4 4 9 1 o 467.794 451.606 0.00 0.93604 0.01
6 8 6 2 o 3307.843 3178.024 180.00 0.93819 0.04
4 7 8 1 o 1619.662 1540.056 180.00 0.93552 0.05
1 13 4 2 o 4571.571 4422.683 180.00 0.93765 0.06
2 10 7 2 o 1.364 1.319 0.00 0.93696 0.00
8 9 0 2 o 15370.019 15110.581 0.00 0.93688 0.10
7 4 7 1 o 2808.569 2780.760 0.00 0.93436 0.06
3 13 3 1 o 52862.12 52706.68 0.00 0.93386 1.34
8 8 3 2 o 815.595 813.721 180.00 0.93607 0.01
9 1 5 2 o 2372.994 2369.690 180.00 0.93606 0.02
4 4 9 2 o 452.646 451.606 0.00 0.93604 0.01
2 14 0 1 o 16541.072 16488.611 180.00 0.93343 0.21
4 7 8 2 o 1550.378 1540.056 180.00 0.93552 0.03
1 3 10 1 o 927.578 922.063 0.00 0.93315 0.02
0 14 2 1 o 53074.80 52731.86 0.00 0.93309 0.69
8 9 1 1 o 32279.893 31900.387 180.00 0.93245 0.74
9 7 1 1 o 5002.326 4922.876 0.00 0.93208 0.14
7 4 7 2 o 2818.081 2780.760 0.00 0.93436 0.03
2 2 10 1 o 39.976 38.881 180.00 0.93161 0.00
3 13 3 2 o 53627.64 52706.68 0.00 0.93386 0.68
3 8 8 1 o 53696.02 52779.49 180.00 0.93149 1.25
5 1 9 1 o 3422.371 3376.399 180.00 0.93140 0.06
7 9 4 1 o 4027.482 3945.118 0.00 0.93121 0.10
2 14 0 2 o 16858.063 16488.611 180.00 0.93343 0.11
1 3 10 2 o 945.940 922.063 0.00 0.93315 0.01
0 14 2 2 o 54077.11 52731.86 0.00 0.93309 0.35
7 8 5 1 o 12.885 12.749 180.00 0.93041 0.00
8 9 1 2 o 32608.477 31900.387 180.00 0.93245 0.37
4 12 4 1 o 2013.570 1987.773 0.00 0.92990 0.03
0 7 9 1 o 56267.10 55361.12 0.00 0.92979 0.65
9 7 1 2 o 5018.052 4922.876 0.00 0.93208 0.07
10 4 0 1 o 48430.07 47686.24 180.00 0.92978 0.54
8 6 5 1 o 5209.394 5153.402 0.00 0.92956 0.12
2 2 10 2 o 39.206 38.881 180.00 0.93161 0.00
3 8 8 2 o 52893.63 52779.49 180.00 0.93149 0.61
9 2 5 1 o 86.073 86.017 180.00 0.92920 0.00
5 1 9 2 o 3377.147 3376.399 180.00 0.93140 0.03
2 14 1 1 o 1753.219 1754.802 180.00 0.92904 0.05
7 9 4 2 o 3934.960 3945.118 0.00 0.93121 0.05
1 14 2 1 o 45812.63 45975.16 0.00 0.92879 1.12
4 9 7 1 o 7659.833 7686.497 180.00 0.92849 0.19
5 8 7 1 o 27170.352 27239.283 0.00 0.92844 0.60
10 3 2 1 o 5174.321 5163.629 180.00 0.92817 0.15
7 8 5 2 o 12.764 12.749 180.00 0.93041 0.00
4 12 4 2 o 2010.847 1987.773 0.00 0.92990 0.02
0 7 9 2 o 56483.67 55361.12 0.00 0.92979 0.33
10 4 0 2 o 48638.18 47686.24 180.00 0.92978 0.27
1 9 8 1 o 22572.707 21980.850 180.00 0.92727 0.52
8 6 5 2 o 5298.443 5153.402 0.00 0.92956 0.06
9 2 5 2 o 87.022 86.017 180.00 0.92920 0.00
6 11 3 1 o 10259.588 9874.342 0.00 0.92688 0.25
8 4 6 1 o 55487.05 53372.73 0.00 0.92683 1.28
2 14 1 2 o 1833.537 1754.802 180.00 0.92904 0.02
2 13 4 1 o 38148.43 37042.88 180.00 0.92473 0.99
9 6 3 1 o 25880.467 24829.779 180.00 0.92660 0.59
3 11 6 1 o 4809.212 4675.493 180.00 0.92469 0.12
5 2 9 1 o 1914.276 1878.951 0.00 0.92464 0.03
1 14 2 2 o 48026.20 45975.16 0.00 0.92879 0.60
6 11 3 2 o 10139.870 9874.342 0.00 0.92688 0.12
6 4 8 1 o 566.614 546.943 180.00 0.92456 0.02
8 4 6 2 o 54754.80 53372.73 0.00 0.92683 0.63
10 1 3 1 o 7900.132 7709.210 0.00 0.92449 0.18
5 6 8 1 o 53915.77 51515.34 0.00 0.92637 1.28
4 9 7 2 o 8069.598 7686.497 180.00 0.92849 0.10
9 6 3 2 o 25363.391 24829.779 180.00 0.92660 0.29
5 8 7 2 o 28432.186 27239.283 0.00 0.92844 0.32
5 6 8 2 o 52444.25 51515.34 0.00 0.92637 0.62
10 3 2 2 o 5448.676 5163.629 180.00 0.92817 0.08
4 13 2 1 o 1004.508 953.485 0.00 0.92570 0.03
1 7 9 1 o 31240.418 30125.975 180.00 0.92553 0.70
10 4 1 1 o 11921.450 11469.233 0.00 0.92544 0.29
4 13 2 2 o 958.962 953.485 0.00 0.92570 0.02
1 7 9 2 o 30217.068 30125.975 180.00 0.92553 0.33
10 4 1 2 o 11508.010 11469.233 0.00 0.92544 0.14
1 9 8 2 o 22649.393 21980.850 180.00 0.92727 0.26
2 13 4 2 o 37887.47 37042.88 180.00 0.92473 0.49
3 11 6 2 o 4787.696 4675.493 180.00 0.92469 0.06
5 2 9 2 o 1912.537 1878.951 0.00 0.92464 0.02
6 4 8 2 o 568.984 546.943 180.00 0.92456 0.01
10 1 3 2 o 7956.084 7709.210 0.00 0.92449 0.09
5 12 3 1 o 42555.23 40842.70 0.00 0.92200 1.04
0 4 10 1 o 32931.531 31492.941 180.00 0.92167 0.34
9 5 4 1 o 15314.953 14662.863 180.00 0.92105 0.36
3 6 9 1 o 42.103 34.233 0.00 0.92080 0.01
3 12 5 1 o 452.073 439.047 180.00 0.92072 0.01
2 3 10 1 o 12951.161 12803.858 180.00 0.92042 0.31
5 12 3 2 o 40462.81 40842.70 0.00 0.92200 0.49
8 9 2 1 o 6.350 6.930 180.00 0.91950 0.00
3 0 10 1 o 5526.413 5576.624 180.00 0.91941 0.06
0 4 10 2 o 31246.623 31492.941 180.00 0.92167 0.16
9 7 2 1 o 141.479 142.284 0.00 0.91915 0.00
7 10 3 1 o 2362.390 2372.517 0.00 0.91892 0.06
9 5 4 2 o 14619.530 14662.863 180.00 0.92105 0.17
3 6 9 2 o 33.396 34.233 0.00 0.92080 0.00
3 12 5 2 o 436.996 439.047 180.00 0.92072 0.01
2 3 10 2 o 12640.248 12803.858 180.00 0.92042 0.15
9 3 5 1 o 15083.337 15339.928 180.00 0.91809 0.39
10 2 3 1 o 6398.916 6555.184 0.00 0.91788 0.14
1 4 10 1 o 4610.895 4812.505 0.00 0.91752 0.10
3 1 10 1 o 1514.772 1623.900 180.00 0.91723 0.04
8 9 2 2 o 3.066 6.930 180.00 0.91950 0.00
3 0 10 2 o 5194.201 5576.624 180.00 0.91941 0.03
9 7 2 2 o 131.853 142.284 0.00 0.91915 0.00
7 10 3 2 o 2128.460 2372.517 0.00 0.91892 0.03
7 7 6 1 o 755.913 862.045 180.00 0.91662 0.02
2 14 2 1 o 7780.205 8611.782 180.00 0.91623 0.17
4 5 9 1 o 729.844 817.535 0.00 0.91591 0.02
9 3 5 2 o 13465.893 15339.928 180.00 0.91809 0.17
3 10 7 1 o 10322.938 11851.327 0.00 0.91577 0.29
10 2 3 2 o 5896.505 6555.184 0.00 0.91788 0.06
6 7 7 1 o 4557.590 5106.842 0.00 0.91560 0.11
1 4 10 2 o 4426.781 4812.505 0.00 0.91752 0.05
3 1 10 2 o 1508.798 1623.900 180.00 0.91723 0.02
2 9 8 1 o 8118.624 8494.967 180.00 0.91477 0.17
6 12 0 1 o 13988.012 14314.126 180.00 0.91446 0.17
7 7 6 2 o 845.068 862.045 180.00 0.91662 0.01
7 5 7 1 o 16220.026 16444.471 0.00 0.91433 0.43
2 14 2 2 o 8697.102 8611.782 180.00 0.91623 0.10
5 3 9 1 o 46972.79 45950.65 180.00 0.91369 1.16
4 5 9 2 o 834.871 817.535 0.00 0.91591 0.01
3 10 7 2 o 12172.780 11851.327 0.00 0.91577 0.18
6 7 7 2 o 5220.973 5106.842 0.00 0.91560 0.06
2 7 9 1 o 1302.268 1281.001 0.00 0.91310 0.03
10 4 2 1 o 33099.258 32897.102 180.00 0.91278 0.82
2 9 8 2 o 8469.299 8494.967 180.00 0.91477 0.09
6 12 0 2 o 14121.021 14314.126 180.00 0.91446 0.09
7 5 7 2 o 16119.432 16444.471 0.00 0.91433 0.22
0 12 6 1 o 20698.309 21355.598 0.00 0.91166 0.29
5 3 9 2 o 44476.71 45950.65 180.00 0.91369 0.55
2 7 9 2 o 1234.489 1281.001 0.00 0.91310 0.01
3 2 10 1 o 22068.387 22896.238 180.00 0.91077 0.51
10 4 2 2 o 31609.693 32897.102 180.00 0.91278 0.39
6 12 1 1 o 38420.11 39944.98 180.00 0.91033 0.93
10 5 0 1 o 38399.73 39982.52 0.00 0.91003 0.41
0 12 6 2 o 19931.262 21355.598 0.00 0.91166 0.14
3 2 10 2 o 21265.748 22896.238 180.00 0.91077 0.25
3 14 1 1 o 1489.980 1671.916 0.00 0.90837 0.06
6 12 1 2 o 37350.84 39944.98 180.00 0.91033 0.45
10 5 0 2 o 37773.70 39982.52 0.00 0.91003 0.20
1 14 3 1 o 622.308 701.495 180.00 0.90776 0.03
1 12 6 1 o 12052.173 12749.234 0.00 0.90764 0.28
0 11 7 1 o 70.712 82.995 0.00 0.90728 0.00
8 5 6 1 o 10439.185 11083.705 0.00 0.90727 0.28
10 3 3 1 o 27387.637 28835.326 0.00 0.90717 0.65
7 11 1 1 o 13078.168 13657.638 0.00 0.90696 0.29
8 8 4 1 o 175.615 182.412 180.00 0.90634 0.00
3 14 1 2 o 1581.176 1671.916 0.00 0.90837 0.03
7 0 8 1 o 5300.079 5475.638 0.00 0.90600 0.06
10 5 1 1 o 11619.527 11992.375 0.00 0.90596 0.27
6 10 5 1 o 8766.629 8998.760 180.00 0.90554 0.22
1 14 3 2 o 667.844 701.495 180.00 0.90776 0.02
2 4 10 1 o 1561.568 1621.394 0.00 0.90541 0.06
1 12 6 2 o 12454.900 12749.234 0.00 0.90764 0.15
6 5 8 1 o 19797.119 20285.115 180.00 0.90514 0.49
5 11 5 1 o 17356.566 17788.211 180.00 0.90514 0.45
0 11 7 2 o 77.364 82.995 0.00 0.90728 0.00
8 1 7 1 o 8282.672 8492.580 180.00 0.90504 0.21
8 5 6 2 o 10787.034 11083.705 0.00 0.90727 0.15
10 3 3 2 o 28136.508 28835.326 0.00 0.90717 0.34
4 13 3 1 o 3436.773 3529.131 180.00 0.90487 0.09
7 11 1 2 o 13341.300 13657.638 0.00 0.90696 0.15
5 10 6 1 o 112.549 115.117 0.00 0.90470 0.00
3 13 4 1 o 733.826 749.697 0.00 0.90434 0.01
8 8 4 2 o 177.144 182.412 180.00 0.90634 0.00
7 1 8 1 o 5705.895 5870.477 180.00 0.90391 0.13
7 0 8 2 o 5326.794 5475.638 0.00 0.90600 0.03
10 5 1 2 o 11675.845 11992.375 0.00 0.90596 0.14
0 13 5 1 o 75800.92 77795.30 180.00 0.90366 0.95
1 11 7 1 o 692.821 705.038 0.00 0.90332 0.02
6 10 5 2 o 8840.478 8998.760 180.00 0.90554 0.11
9 4 5 1 o 890.734 904.770 0.00 0.90319 0.02
2 4 10 2 o 1588.654 1621.394 0.00 0.90541 0.03
6 5 8 2 o 20201.488 20285.115 180.00 0.90514 0.25
5 11 5 2 o 17716.732 17788.211 180.00 0.90514 0.23
8 1 7 2 o 8488.531 8492.580 180.00 0.90504 0.11
4 8 8 1 o 2.673 2.560 180.00 0.90271 0.00
4 13 3 2 o 3549.959 3529.131 180.00 0.90487 0.05
5 10 6 2 o 116.232 115.117 0.00 0.90470 0.00
3 13 4 2 o 762.398 749.697 0.00 0.90434 0.01
7 1 8 2 o 6064.875 5870.477 180.00 0.90391 0.07
5 13 1 1 o 15737.466 15122.376 180.00 0.90154 0.45
8 7 5 1 o 123707.11 119288.51 180.00 0.90145 3.04
0 13 5 2 o 80654.20 77795.30 180.00 0.90366 0.52
1 11 7 2 o 729.961 705.038 0.00 0.90332 0.01
9 4 5 2 o 940.491 904.770 0.00 0.90319 0.01
6 9 6 1 o 45484.61 43901.68 180.00 0.90095 1.20
4 8 8 2 o 3.468 2.560 180.00 0.90271 0.00
3 3 10 1 o 45.820 45.184 180.00 0.90031 0.00
1 13 5 1 o 15967.906 15693.144 180.00 0.89975 0.42
9 8 1 1 o 9191.443 9049.129 0.00 0.89962 0.20
5 13 1 2 o 15463.832 15122.376 180.00 0.90154 0.22
8 7 5 2 o 121842.97 119288.51 180.00 0.90145 1.50
8 9 3 1 o 11962.618 11669.894 180.00 0.89908 0.31
5 4 9 1 o 149.132 146.894 180.00 0.89900 0.00
8 2 7 1 o 288.847 280.120 180.00 0.89884 0.01
9 7 3 1 o 172.350 169.678 0.00 0.89875 0.00
6 9 6 2 o 45297.84 43901.68 180.00 0.90095 0.60
5 7 8 1 o 14.903 14.654 0.00 0.89854 0.00
1 5 10 1 o 4996.022 4821.475 180.00 0.89853 0.13
6 12 2 1 o 11982.237 11574.340 180.00 0.89827 0.29
3 3 10 2 o 46.338 45.184 180.00 0.90031 0.00
6 11 4 1 o 33416.086 31985.590 0.00 0.89800 0.95
10 0 4 1 o 56082.63 53850.52 180.00 0.89786 0.71
9 6 4 1 o 18139.041 17432.590 0.00 0.89774 0.46
7 2 8 1 o 32352.840 31146.434 180.00 0.89772 0.78
1 13 5 2 o 16290.370 15693.144 180.00 0.89975 0.22
9 8 1 2 o 9337.227 9049.129 0.00 0.89962 0.11
8 9 3 2 o 12034.648 11669.894 180.00 0.89908 0.16
5 4 9 2 o 149.532 146.894 180.00 0.89900 0.00
8 2 7 2 o 289.468 280.120 180.00 0.89884 0.00
9 7 3 2 o 172.449 169.678 0.00 0.89875 0.00
4 11 6 1 o 2833.633 2726.114 180.00 0.89652 0.09
3 14 2 1 o 23180.990 22469.121 0.00 0.89639 0.60
5 7 8 2 o 14.901 14.654 0.00 0.89854 0.00
1 5 10 2 o 4994.009 4821.475 180.00 0.89853 0.07
6 12 2 2 o 11970.198 11574.340 180.00 0.89827 0.14
2 14 3 1 o 566.851 544.412 0.00 0.89602 0.02
2 12 6 1 o 659.457 649.370 180.00 0.89591 0.01
10 1 4 1 o 40453.02 38899.45 0.00 0.89582 1.05
6 11 4 2 o 33332.945 31985.590 0.00 0.89800 0.48
8 10 0 1 o 14693.023 14148.573 180.00 0.89572 0.19
10 0 4 2 o 55875.79 53850.52 180.00 0.89786 0.35
9 6 4 2 o 18040.766 17432.590 0.00 0.89774 0.23
7 2 8 2 o 32176.119 31146.434 180.00 0.89772 0.39
7 11 2 1 o 8260.344 8145.356 180.00 0.89504 0.23
3 9 8 1 o 16099.736 15914.083 0.00 0.89502 0.40
4 11 6 2 o 2631.723 2726.114 180.00 0.89652 0.04
3 14 2 2 o 21749.947 22469.121 0.00 0.89639 0.28
10 5 2 1 o 7011.032 7310.926 0.00 0.89408 0.19
7 9 5 1 o 19286.357 20151.977 0.00 0.89405 0.55
2 14 3 2 o 517.740 544.412 0.00 0.89602 0.01
1 8 9 1 o 2538.833 2650.048 180.00 0.89372 0.06
2 12 6 2 o 637.080 649.370 180.00 0.89591 0.00
10 1 4 2 o 36968.97 38899.45 0.00 0.89582 0.47
5 12 4 1 o 8449.505 8873.984 0.00 0.89356 0.22
8 10 0 2 o 13452.541 14148.573 180.00 0.89572 0.09
3 7 9 1 o 6125.962 6468.067 0.00 0.89346 0.17
4 6 9 1 o 1397.401 1456.317 0.00 0.89297 0.04
4 12 5 1 o 3766.668 3920.793 180.00 0.89290 0.10
7 11 2 2 o 7842.698 8145.356 180.00 0.89504 0.11
3 9 8 2 o 15393.889 15914.083 0.00 0.89502 0.19
10 4 3 1 o 3250.636 3367.609 180.00 0.89279 0.08
9 0 6 1 o 1438.667 1471.888 0.00 0.89257 0.02
5 9 7 1 o 36608.93 37041.69 180.00 0.89231 0.97
10 5 2 2 o 7358.147 7310.926 0.00 0.89408 0.10
7 9 5 2 o 20301.160 20151.977 0.00 0.89405 0.29
8 10 1 1 o 1208.060 1198.960 0.00 0.89184 0.03
2 11 7 1 o 2504.566 2482.675 0.00 0.89176 0.06
4 0 10 1 o 81383.16 80515.73 180.00 0.89171 1.02
1 8 9 2 o 2684.274 2650.048 180.00 0.89372 0.03
7 6 7 1 o 6208.657 6125.853 0.00 0.89151 0.15
5 12 4 2 o 9019.639 8873.984 0.00 0.89356 0.12
3 7 9 2 o 6591.196 6468.067 0.00 0.89346 0.09
0 10 8 1 o 6612.986 6503.782 180.00 0.89105 0.08
4 6 9 2 o 1485.004 1456.317 0.00 0.89297 0.02
7 10 4 1 o 178.751 176.393 0.00 0.89075 0.00
4 12 5 2 o 4001.776 3920.793 180.00 0.89290 0.06
10 4 3 2 o 3438.599 3367.609 180.00 0.89279 0.05
9 1 6 1 o 17303.963 16975.510 180.00 0.89057 0.42
9 0 6 2 o 1503.032 1471.888 0.00 0.89257 0.01
5 9 7 2 o 38001.16 37041.69 180.00 0.89231 0.51
5 13 2 1 o 19484.035 18957.088 0.00 0.88983 0.50
10 2 4 1 o 4907.735 4776.577 180.00 0.88981 0.12
4 1 10 1 o 3147.708 3041.078 180.00 0.88971 0.09
8 10 1 2 o 1239.885 1198.960 0.00 0.89184 0.02
2 11 7 2 o 2559.857 2482.675 0.00 0.89176 0.03
4 0 10 2 o 83259.40 80515.73 180.00 0.89171 0.53
