#------------------------------------------------------------------------------
#$Date: 2016-03-21 01:21:50 +0200 (Mon, 21 Mar 2016) $
#$Revision: 178377 $
#$URL: svn://www.crystallography.net/cod/cif/4/00/21/4002144.cif $
#------------------------------------------------------------------------------
#
# This file is available in the Crystallography Open Database (COD),
# http://www.crystallography.net/
#
# All data on this site have been placed in the public domain by the
# contributors.
#
data_4002144
loop_
_publ_author_name
'Doverbratt, Isa'
'Ponou, Sim\'eon'
'Zhang, Yuemei'
'Lidin, Sven'
'Miller, Gordon J.'
_publ_section_title
;
 Linear Metal Chains in Ca2M2X (M = Pd, Pt; X = Al, Ge): Origin of the
 Pairwise Distortion and Its Role in the Structure Stability
;
_journal_issue                   1
_journal_name_full               'Chemistry of Materials'
_journal_page_first              304
_journal_paper_doi               10.1021/cm503985h
_journal_volume                  27
_journal_year                    2015
_chemical_formula_sum            'Ca2 Ge Pd2'
_chemical_formula_weight         365.55
_space_group_crystal_system      orthorhombic
_space_group_IT_number           43
_space_group_name_Hall           'F 2 -2d'
_space_group_name_H-M_alt        'F d d 2'
_symmetry_space_group_name_Hall  'F 2 -2d'
_symmetry_space_group_name_H-M   'F d d 2'
_audit_creation_method           SHELXL-2014/7
_cell_angle_alpha                90
_cell_angle_beta                 90
_cell_angle_gamma                90
_cell_formula_units_Z            8
_cell_length_a                   10.0421(3)
_cell_length_b                   15.3656(4)
_cell_length_c                   5.5778(2)
_cell_measurement_temperature    293(2)
_cell_volume                     860.67(5)
_computing_structure_refinement  'SHELXL-2014/7 (Sheldrick, 2014)'
_diffrn_ambient_temperature      293(2)
_diffrn_measured_fraction_theta_full 1.000
_diffrn_measured_fraction_theta_max 0.964
_diffrn_radiation_type           MoK\a
_diffrn_radiation_wavelength     0.71073
_diffrn_reflns_av_R_equivalents  0.0218
_diffrn_reflns_av_unetI/netI     0.0261
_diffrn_reflns_Laue_measured_fraction_full 1.000
_diffrn_reflns_Laue_measured_fraction_max 0.964
_diffrn_reflns_limit_h_max       14
_diffrn_reflns_limit_h_min       -14
_diffrn_reflns_limit_k_max       23
_diffrn_reflns_limit_k_min       -18
_diffrn_reflns_limit_l_max       8
_diffrn_reflns_limit_l_min       -8
_diffrn_reflns_number            1836
_diffrn_reflns_point_group_measured_fraction_full 0.995
_diffrn_reflns_point_group_measured_fraction_max 0.930
_diffrn_reflns_theta_full        25.242
_diffrn_reflns_theta_max         32.981
_diffrn_reflns_theta_min         4.385
_exptl_absorpt_coefficient_mu    17.363
_exptl_crystal_colour            'dark reflexive'
_exptl_crystal_density_diffrn    5.642
_exptl_crystal_description       block
_exptl_crystal_F_000             1312
_refine_diff_density_max         0.662
_refine_diff_density_min         -0.654
_refine_diff_density_rms         0.176
_refine_ls_abs_structure_details
;
 Flack x determined using 301 quotients [(I+)-(I-)]/[(I+)+(I-)]
 (Parsons, Flack and Wagner, Acta Cryst. B69 (2013) 249-259).
;
_refine_ls_abs_structure_Flack   0.046(17)
_refine_ls_extinction_coef       0.00087(7)
_refine_ls_extinction_expression Fc^*^=kFc[1+0.001xFc^2^\l^3^/sin(2\q)]^-1/4^
_refine_ls_extinction_method     'SHELXL-2014/7 (Sheldrick 2014'
_refine_ls_goodness_of_fit_ref   1.200
_refine_ls_hydrogen_treatment    undef
_refine_ls_matrix_type           full
_refine_ls_number_parameters     25
_refine_ls_number_reflns         760
_refine_ls_number_restraints     1
_refine_ls_restrained_S_all      1.200
_refine_ls_R_factor_all          0.0207
_refine_ls_R_factor_gt           0.0175
_refine_ls_shift/su_max          0.000
_refine_ls_shift/su_mean         0.000
_refine_ls_structure_factor_coef Fsqd
_refine_ls_weighting_details
'w=1/[\s^2^(Fo^2^)+(0.0128P)^2^] where P=(Fo^2^+2Fc^2^)/3'
_refine_ls_weighting_scheme      calc
_refine_ls_wR_factor_gt          0.0378
_refine_ls_wR_factor_ref         0.0384
_reflns_Friedel_coverage         0.780
_reflns_Friedel_fraction_full    0.988
_reflns_Friedel_fraction_max     0.890
_reflns_number_gt                709
_reflns_number_total             760
_reflns_threshold_expression     'I > 2\s(I)'
_cod_data_source_file            cm503985h_si_002.cif
_cod_data_source_block           Ca2Pd2Ge_Fdd2_I
_cod_depositor_comments
'Adding full bibliography for 4002144--4002147.cif.'
_cod_database_code               4002144
#BEGIN Tags that were not found in dictionaries:
_shelx_shelxl_version_number     2014/7
_shelx_space_group_comment
;
The symmetry employed for this shelxl refinement is uniquely defined
by the following loop, which should always be used as a source of
symmetry information in preference to the above space-group names.
They are only intended as comments.
;
_shelx_res_file
;

    shelx.res created by SHELXL-2014/7

TITL Fdd2 in Fdd2
CELL 0.71073  10.0421  15.3656   5.5778  90.000  90.000  90.000
ZERR    8.00   0.0003   0.0004   0.0002   0.000   0.000   0.000
LATT -4
SYMM -X, -Y, Z
SYMM 0.25+X, 0.25-Y, 0.25+Z
SYMM 0.25-X, 0.25+Y, 0.25+Z
SFAC CA GE PD
UNIT 16 8 16

L.S. 14
BOND
acta
FMAP 2
PLAN 20
WGHT    0.012800
EXTI    0.000869
FVAR       0.04759
PD1   3    0.089415    0.126357    0.597373    11.00000    0.00781    0.01067 =
         0.00981   -0.00029   -0.00056   -0.00144
GE    2    0.000000    0.000000    0.357396    10.50000    0.00914    0.00789 =
         0.01165    0.00000    0.00000    0.00144
CA1   1    0.084318    0.203031    0.098453    11.00000    0.01033    0.01301 =
         0.00953    0.00064    0.00044    0.00014

HKLF 4

REM  Fdd2 in Fdd2
REM R1 =  0.0175 for     709 Fo > 4sig(Fo)  and  0.0207 for all     760 data
REM     25 parameters refined using      1 restraints

END

WGHT      0.0132      0.0000

REM Highest difference peak  0.662,  deepest hole -0.654,  1-sigma level  0.176
Q1    1   0.1551  0.0899  0.5742  11.00000  0.05    0.66
Q2    1   0.0372  0.1773  0.6873  11.00000  0.05    0.62
Q3    1   0.0524  0.2163 -0.1426  11.00000  0.05    0.57
Q4    1  -0.0035  0.1853  0.1044  11.00000  0.05    0.57
Q5    1   0.0569  0.1860 -0.0101  11.00000  0.05    0.56
Q6    1   0.1567  0.1524  0.6079  11.00000  0.05    0.54
Q7    1  -0.0009  0.0881  0.6079  11.00000  0.05    0.54
Q8    1   0.1436  0.1807  0.1056  11.00000  0.05    0.52
Q9    1  -0.0103  0.2806  0.2015  11.00000  0.05    0.52
Q10   1   0.1491  0.1101 -0.0023  11.00000  0.05    0.52
Q11   1   0.0028 -0.0993  0.3432  11.00000  0.05    0.51
Q12   1   0.0929  0.0795  0.6446  11.00000  0.05    0.50
Q13   1   0.0529  0.2783 -0.1383  11.00000  0.05    0.50
Q14   1   0.0464  0.1777  0.5246  11.00000  0.05    0.49
Q15   1   0.0916 -0.0422  0.2602  11.00000  0.05    0.49
Q16   1  -0.0028  0.1869  0.6142  11.00000  0.05    0.49
Q17   1   0.0371  0.0815  0.4953  11.00000  0.05    0.49
Q18   1   0.0798  0.1593  0.1202  11.00000  0.05    0.48
Q19   1   0.1450  0.1702  0.5387  11.00000  0.05    0.47
Q20   1   0.1476  0.1117  0.1848  11.00000  0.05    0.47
;
_shelx_res_checksum              23049
_shelx_hkl_file
;
   0   2   0    1.91    0.18
   0   2   0    0.42    0.11
   0   3   0   -0.01    0.08
   0   3   0    0.01    0.15
   0   3   0    0.01    0.11
   0   4   0  219.71    1.54
   0   4   0  211.34    2.28
   0   4   0  224.93    2.18
   0   5   0    0.00    0.20
   0   5   0    0.01    0.16
   0   5   0   -0.02    0.11
   0   6   0    0.50    0.15
   0   6   0    0.11    0.18
   0   6   0    0.04    0.22
   0   7   0    0.09    0.20
   0   7   0    0.02    0.12
   0   7   0    0.00    0.24
   0   8   0  571.15    4.98
   0   8   0  580.37    3.49
   0   9   0    0.12    0.23
   0   9   0    0.04    0.16
   0   9   0    0.36    0.29
   0  10   0    0.24    0.31
   0  10   0    0.14    0.27
   0  10   0    0.16    0.18
   0  11   0    0.22    0.36
   0  11   0   -0.09    0.21
   0  12   0  259.56    2.73
   0  12   0  269.79    4.72
   0  13   0    1.70    0.46
   0  14   0    0.06    0.45
   0  15   0    1.03    0.51
   0  16   0  312.02    6.17
   0  17   0    3.03    0.79
   0  18   0    0.84    0.79
   0  19   0    0.15    0.92
   0  20   0   11.53    1.54
   0  21   0    0.49    1.21
   0  22   0   -0.10    1.49
   1   1   0    0.06    0.07
   1   1   0    0.09    0.09
   1   2   0    0.10    0.11
   1   2   0    0.16    0.11
   1   2   0    0.10    0.09
   1   2   0    0.16    0.09
  -1   2   0    0.08    0.12
   1   3   0    0.14    0.11
   1   3   0    0.34    0.16
   1   3   0    0.03    0.15
   1   3   0    0.09    0.14
  -1   3   0    0.12    0.15
   1   4   0    0.07    0.17
   1   4   0    0.03    0.15
  -1   4   0    0.13    0.19
   1   4   0    0.03    0.17
  -1   4   0    0.02    0.11
   1   4   0   -0.01    0.12
   1   5   0    0.00    0.14
   1   5   0    0.02    0.17
  -1   5   0    0.04    0.19
   1   5   0   -0.06    0.20
  -1   5   0    0.01    0.11
  -1   6   0    0.09    0.22
  -1   6   0    0.01    0.10
   1   6   0    0.02    0.22
   1   6   0    0.00    0.13
   1   6   0   -0.04    0.17
  -1   7   0    0.00    0.13
  -1   7   0    0.13    0.25
   1   7   0    0.26    0.24
   1   7   0    0.07    0.21
   1   7   0    0.01    0.15
   1   8   0    0.01    0.22
  -1   8   0   -0.14    0.14
  -1   8   0    0.10    0.26
   1   8   0    0.01    0.27
   1   8   0   -0.01    0.17
  -1   9   0   -0.17    0.16
   1   9   0    0.04    0.18
  -1   9   0    0.01    0.29
   1   9   0    0.04    0.28
   1   9   0    0.44    0.24
   1  10   0   -0.01    0.33
   1  10   0   -0.04    0.20
  -1  10   0    0.16    0.31
  -1  10   0   -0.02    0.18
   1  10   0    0.02    0.26
   1  11   0    0.10    0.34
  -1  11   0    0.05    0.20
  -1  11   0    0.02    0.34
   1  11   0    0.05    0.23
   1  11   0   -0.14    0.28
  -1  12   0   -0.17    0.40
   1  12   0   -0.03    0.26
   1  12   0    0.08    0.36
  -1  12   0    0.16    0.23
   1  12   0    0.04    0.32
  -1  13   0    0.01    0.42
   1  13   0    0.10    0.30
   1  13   0    0.00    0.41
  -1  14   0    0.47    0.51
   1  14   0   -0.39    0.49
   1  15   0   -0.18    0.51
  -1  15   0    0.14    0.53
   1  16   0    0.26    0.62
  -1  16   0   -0.31    0.60
   1  17   0   -0.23    0.68
  -1  17   0   -0.40    0.75
  -1  18   0   -0.19    0.83
   1  18   0    0.34    0.78
   1  19   0   -0.48    0.93
  -1  19   0    0.01    0.93
   1  20   0   -0.26    1.08
  -1  20   0    0.02    1.10
   1  21   0   -0.43    1.24
  -1  21   0   -0.87    1.28
  -1  22   0    0.49    1.45
   1  22   0   -1.08    1.47
   2   0   0    0.26    0.14
   2   1   0    0.44    0.15
   2   1   0    0.53    0.10
   2  -1   0    0.56    0.17
   2   1   0    0.64    0.16
   2   2   0   34.31    0.64
   2   2   0   34.33    0.81
   2   2   0   34.91    0.89
  -2   3   0    0.09    0.19
   2   3   0    0.34    0.19
   2   3   0    0.40    0.17
   2   3   0    0.05    0.12
   2   3   0    0.03    0.14
  -2   4   0  101.42    1.83
   2   4   0  102.70    1.65
   2   4   0  106.63    1.58
   2   4   0  102.79    1.74
   2   4   0  106.29    1.53
  -2   5   0    0.10    0.21
   2   5   0    0.03    0.18
   2   5   0    0.15    0.19
   2   5   0    0.08    0.15
   2   5   0    0.02    0.18
   2   6   0  119.06    1.84
   2   6   0  120.09    2.16
   2   6   0  118.18    1.98
   2   6   0  112.05    2.10
  -2   6   0  124.86    2.36
   2   7   0    0.07    0.21
  -2   7   0    0.08    0.15
   2   7   0    0.03    0.24
  -2   7   0    0.39    0.24
   2   7   0    0.12    0.16
   2   7   0    0.03    0.19
  -2   8   0   18.10    0.58
   2   8   0   17.36    0.78
   2   8   0   15.68    0.86
  -2   8   0   17.71    1.02
   2   8   0   15.42    0.91
   2   9   0    0.06    0.24
  -2   9   0   -0.03    0.28
  -2   9   0    0.00    0.16
   2   9   0    0.04    0.19
   2   9   0    0.05    0.27
  -2  10   0  100.59    2.69
   2  10   0   99.39    2.56
   2  10   0  105.55    2.03
  -2  10   0   97.49    1.34
   2  10   0  102.60    2.41
  -2  11   0    0.03    0.38
   2  11   0    0.17    0.35
   2  11   0   -0.07    0.30
  -2  11   0   -0.12    0.19
   2  11   0    0.16    0.26
   2  12   0    5.02    0.64
   2  12   0    6.67    0.58
   2  12   0    6.49    0.82
   2  13   0   -0.01    0.34
  -2  13   0    0.12    0.45
   2  13   0   -0.03    0.44
   2  13   0   -0.02    0.33
   2  14   0   66.52    2.58
   2  14   0   64.11    1.78
  -2  14   0   64.61    2.69
   2  15   0   -0.14    0.55
  -2  15   0   -0.17    0.56
   2  16   0   34.07    2.04
  -2  16   0   33.22    2.15
  -2  17   0    0.59    0.78
   2  17   0    0.26    0.71
   2  18   0    5.55    1.05
  -2  18   0    5.54    1.10
   2  19   0    0.23    0.93
  -2  19   0   -0.18    1.00
   2  20   0   -0.10    1.09
  -2  20   0    0.86    1.11
   2  21   0    0.43    1.29
  -2  21   0   -0.65    1.31
   2  22   0    6.76    1.56
  -2  22   0    8.66    1.56
   2  23   0   -0.98    1.91
   3   0   0    0.04    0.18
   3   1   0    0.06    0.16
   3  -1   0    0.31    0.18
   3   1   0    0.11    0.10
   3   1   0    0.18    0.18
   3  -2   0    0.01    0.18
   3   2   0    0.04    0.19
   3   2   0   -0.10    0.16
   3   2   0    0.05    0.11
   3   3   0    0.04    0.19
   3   3   0    0.09    0.12
   3   3   0    0.09    0.17
   3   4   0    0.03    0.16
   3   4   0   -0.01    0.19
   3   4   0   -0.02    0.16
  -3   4   0    0.00    0.24
   3   4   0    0.00    0.20
  -3   5   0    0.12    0.24
   3   5   0    0.03    0.20
   3   5   0   -0.01    0.22
   3   5   0    0.15    0.19
   3   5   0    0.06    0.16
   3   6   0    0.00    0.20
   3   6   0   -0.05    0.18
   3   6   0    0.00    0.24
   3   6   0   -0.02    0.21
  -3   6   0   -0.02    0.25
   3   7   0    0.03    0.25
   3   7   0    0.01    0.22
   3   7   0   -0.05    0.25
  -3   7   0    0.12    0.27
   3   7   0    0.04    0.19
   3   8   0   -0.01    0.25
  -3   8   0   -0.01    0.31
   3   8   0    0.02    0.26
   3   8   0   -0.04    0.21
   3   8   0    0.10    0.26
   3   9   0   -0.17    0.22
   3   9   0    0.09    0.26
  -3   9   0    0.00    0.28
   3   9   0    0.09    0.29
   3   9   0    0.07    0.30
  -3   9   0    0.00    0.22
   3  10   0   -0.03    0.28
   3  10   0    0.02    0.25
  -3  10   0   -0.02    0.21
   3  10   0    0.20    0.33
  -3  10   0    0.15    0.33
  -3  11   0    0.08    0.37
   3  11   0   -0.05    0.29
   3  11   0    0.10    0.33
   3  11   0   -0.12    0.37
   3  12   0    0.03    0.43
   3  12   0    0.07    0.34
  -3  12   0    0.19    0.40
   3  12   0   -0.03    0.31
   3  13   0    0.19    0.46
  -3  13   0    0.34    0.47
   3  13   0    0.01    0.40
   3  13   0    0.19    0.35
  -3  14   0    0.07    0.55
   3  14   0    0.14    0.53
   3  14   0    0.28    0.42
   3  14   0   -0.02    0.42
  -3  15   0    0.26    0.62
   3  15   0   -0.04    0.58
  -3  16   0    0.12    0.66
   3  16   0    0.11    0.66
   3  17   0    0.16    0.76
  -3  17   0   -0.07    0.74
  -3  18   0   -0.35    0.90
   3  18   0    0.13    0.87
   3  19   0   -0.33    1.00
  -3  19   0   -0.39    1.04
   3  20   0    0.02    1.18
  -3  20   0   -0.03    1.16
   3  21   0    0.26    1.38
  -3  21   0   -0.11    1.39
   3  22   0   -0.95    1.63
  -3  22   0    0.46    1.55
   4   0   0  157.86    2.48
   4   0   0  159.03    1.64
   4   1   0    0.27    0.13
   4  -1   0    0.30    0.23
   4   1   0    0.17    0.21
   4   2   0  586.83    4.54
   4   2   0  586.36    4.91
   4  -2   0  571.35    4.84
   4   3   0   -0.06    0.22
   4  -3   0    0.18    0.21
   4   3   0    0.13    0.20
   4   3   0   -0.06    0.12
   4   4   0  479.83    4.33
   4   4   0  480.50    4.78
   4   4   0  476.80    3.46
   4   5   0    0.12    0.17
  -4   5   0    0.09    0.27
   4   5   0    0.09    0.22
   4   5   0    0.25    0.26
   4   6   0  100.88    2.11
  -4   6   0   98.68    2.38
   4   6   0   99.47    2.35
   4   6   0  102.99    2.16
   4   6   0  101.99    1.90
   4   7   0    0.00    0.27
   4   7   0    0.15    0.23
   4   7   0   -0.01    0.27
   4   7   0    0.20    0.25
  -4   7   0    0.13    0.33
   4   8   0    6.28    0.61
  -4   8   0    6.49    0.71
   4   8   0    5.17    0.59
   4   8   0    5.28    0.62
   4   8   0    5.50    0.55
   4   9   0    0.02    0.27
   4   9   0    0.00    0.34
   4   9   0    0.02    0.27
  -4   9   0    0.07    0.38
   4   9   0    0.00    0.34
   4  10   0  227.47    3.57
   4  10   0  221.28    4.07
  -4  10   0  217.24    2.66
   4  10   0  228.93    3.69
   4  10   0  227.24    4.00
  -4  10   0  225.70    4.32
   4  11   0    0.07    0.32
   4  11   0   -0.04    0.32
   4  11   0   -0.06    0.37
  -4  11   0    0.04    0.41
   4  11   0   -0.01    0.41
   4  12   0  334.46    4.95
  -4  12   0  349.37    5.85
   4  12   0  337.02    4.59
   4  12   0  339.16    5.40
   4  13   0   -0.13    0.40
   4  13   0    0.24    0.41
   4  13   0   -0.07    0.52
  -4  13   0   -0.25    0.51
   4  14   0  203.28    4.60
   4  14   0  202.06    3.71
   4  14   0  203.53    4.24
  -4  14   0  204.01    4.94
  -4  15   0   -0.02    0.61
   4  15   0    0.39    0.51
   4  15   0    0.24    0.65
   4  16   0    8.63    1.13
  -4  16   0   11.15    1.32
   4  17   0   -0.34    0.83
  -4  17   0   -0.33    0.83
   4  18   0   33.25    2.23
  -4  18   0   34.77    2.53
  -4  19   0   -0.26    1.10
   4  19   0   -0.55    1.06
  -4  20   0   62.05    3.56
   4  20   0   61.06    3.24
   4  21   0    0.27    1.49
  -4  21   0    0.10    1.42
   4  22   0   36.15    2.77
   5   0   0   -0.29    0.25
   5   0   0    0.20    0.15
   5   1   0    0.02    0.14
   5   1   0   -0.04    0.22
   5  -1   0    0.00    0.25
   5  -2   0    0.03    0.24
   5   2   0    0.13    0.14
   5   2   0   -0.19    0.23
   5   3   0    0.04    0.15
   5  -3   0    0.08    0.27
   5   3   0    0.12    0.26
   5   4   0   -0.01    0.27
   5   4   0   -0.14    0.17
   5   4   0    0.01    0.24
   5  -4   0    0.21    0.25
   5   5   0    0.03    0.19
   5  -5   0   -0.04    0.29
   5   5   0    0.05    0.23
   5   5   0    0.11    0.29
   5   6   0    0.00    0.22
  -5   6   0    0.16    0.34
   5   6   0    0.11    0.26
   5   6   0   -0.23    0.29
   5   7   0    0.14    0.32
   5   7   0    0.13    0.24
   5   7   0    0.10    0.27
  -5   7   0   -0.17    0.36
   5   8   0    0.04    0.33
   5   8   0   -0.08    0.29
   5   8   0    0.03    0.27
  -5   8   0    0.15    0.40
   5   9   0   -0.01    0.36
  -5   9   0   -0.40    0.40
   5   9   0    0.02    0.32
   5   9   0   -0.09    0.29
   5   9   0   -0.10    0.38
   5  10   0   -0.16    0.31
   5  10   0   -0.19    0.40
   5  10   0   -0.17    0.41
   5  10   0   -0.02    0.33
  -5  10   0   -0.04    0.43
   5  11   0    0.18    0.37
   5  11   0   -0.35    0.36
  -5  11   0    0.03    0.46
   5  11   0   -0.15    0.46
   5  11   0    0.05    0.42
  -5  12   0   -0.28    0.51
   5  12   0    0.09    0.52
   5  12   0   -0.19    0.51
   5  12   0    0.20    0.40
   5  12   0   -0.17    0.38
   5  13   0    0.21    0.54
   5  13   0    0.02    0.46
  -5  13   0    0.20    0.51
   5  13   0    0.00    0.44
   5  14   0    0.07    0.49
  -5  14   0   -0.01    0.63
   5  14   0    0.06    0.63
  -5  15   0   -0.36    0.70
   5  15   0   -0.19    0.55
   5  15   0    0.12    0.69
   5  16   0   -0.08    0.78
  -5  16   0   -0.27    0.78
  -5  17   0    0.67    0.87
   5  17   0    0.29    0.88
  -5  18   0    0.59    0.99
   5  18   0   -0.17    1.03
  -5  19   0   -0.82    1.19
   5  19   0    0.03    1.22
  -5  20   0   -0.39    1.42
   5  20   0   -0.45    1.39
  -5  21   0   -0.06    1.57
   5  21   0   -0.02    1.71
   6   0   0    0.23    0.29
   6   0   0    0.42    0.19
   6   1   0    0.12    0.30
   6   1   0   -0.18    0.17
   6  -1   0    0.18    0.22
   6  -1   0    0.08    0.29
   6  -2   0  223.21    3.74
   6   2   0  224.99    2.23
   6   2   0  216.52    3.69
   6   3   0    0.06    0.18
   6   3   0   -0.03    0.31
   6  -3   0    0.01    0.30
   6   4   0    0.38    0.34
   6  -4   0    0.01    0.28
   6   4   0    0.27    0.20
   6   5   0    0.12    0.22
   6   5   0    0.18    0.35
   6  -5   0    0.00    0.30
   6   6   0   23.64    1.38
   6  -6   0   22.31    1.29
  -6   6   0   21.91    1.28
   6   6   0   22.74    0.96
   6   7   0    0.12    0.37
   6   7   0   -0.03    0.26
  -6   7   0   -0.03    0.36
   6   7   0    0.18    0.32
   6  -7   0   -0.01    0.35
   6   8   0    0.10    0.38
  -6   8   0    0.15    0.41
   6   8   0    0.55    0.34
   6   8   0    1.38    0.35
   6   9   0    0.09    0.34
   6   9   0   -0.19    0.34
  -6   9   0    0.00    0.44
   6   9   0   -0.11    0.42
  -6  10   0    4.27    0.74
   6  10   0    5.15    0.79
   6  10   0    4.10    0.57
   6  10   0    2.98    0.56
   6  11   0    0.02    0.40
   6  11   0   -0.04    0.49
  -6  11   0    0.42    0.53
  -6  12   0   -0.38    0.57
   6  12   0    0.05    0.45
   6  12   0    0.26    0.55
   6  13   0   -0.05    0.60
   6  13   0   -0.06    0.51
  -6  13   0    0.32    0.58
   6  13   0   -0.28    0.63
   6  14   0    0.84    0.56
   6  14   0    0.78    0.71
  -6  14   0    1.26    0.68
   6  15   0   -0.48    0.62
  -6  15   0   -0.01    0.74
   6  15   0   -0.29    0.80
  -6  16   0    0.86    0.80
   6  16   0    1.05    0.88
  -6  17   0    0.20    0.95
   6  17   0    1.60    1.00
  -6  18   0   54.27    3.21
   6  18   0   56.40    2.97
   6  19   0   -0.69    1.33
  -6  19   0    0.10    1.27
  -6  20   0    0.09    1.43
   7   0   0   -0.01    0.23
   7   0   0    0.08    0.32
   7   1   0   -0.16    0.21
   7  -1   0    0.00    0.27
   7   1   0   -0.16    0.28
   7  -1   0    0.32    0.32
   7   2   0    0.11    0.21
   7   2   0   -0.04    0.31
   7  -2   0   -0.36    0.33
   7  -3   0    0.14    0.35
   7   3   0   -0.18    0.31
   7   3   0   -0.16    0.22
   7   4   0    0.26    0.33
   7  -4   0    0.11    0.34
   7   4   0    0.07    0.24
   7   5   0    0.23    0.35
   7  -5   0    0.19    0.37
   7   5   0    0.02    0.26
   7   6   0   -0.07    0.29
   7   6   0    0.12    0.38
  -7   6   0    0.00    0.39
   7  -6   0   -0.10    0.36
  -7   7   0    0.07    0.43
   7   7   0    0.04    0.31
   7  -7   0    0.28    0.37
   7   7   0   -0.26    0.42
  -7   8   0   -0.21    0.46
   7   8   0   -0.23    0.35
   7   8   0   -0.27    0.45
   7  -8   0    0.01    0.39
   7   9   0   -0.18    0.39
  -7   9   0   -0.08    0.50
   7   9   0   -0.04    0.48
   7  -9   0    0.14    0.44
   7  10   0    0.26    0.50
  -7  10   0    0.19    0.52
   7 -10   0   -0.31    0.47
   7  10   0    0.12    0.43
   7  11   0    0.38    0.58
  -7  11   0   -0.11    0.58
   7  11   0    0.07    0.48
   7  12   0   -0.45    0.54
  -7  12   0   -0.08    0.59
   7  12   0   -0.16    0.63
   7  13   0   -0.28    0.56
   7  13   0   -0.07    0.71
  -7  13   0   -0.20    0.65
   7  14   0   -0.10    0.63
  -7  14   0    0.25    0.74
   7  14   0   -0.36    0.80
  -7  15   0    0.44    0.83
  -7  16   0    0.34    0.94
  -7  17   0   -0.54    1.04
  -7  18   0   -0.30    1.17
  -7  19   0    0.33    1.36
   8   0   0    0.67    0.34
   8  -1   0    0.31    0.35
   8   1   0    0.34    0.35
   8   2   0  380.09    3.09
   8   2   0  385.42    5.85
   8  -2   0  391.68    5.89
   8  -2   0  377.97    3.67
   8   3   0   -0.04    0.28
   8  -3   0    0.26    0.41
   8   3   0    0.06    0.41
   8  -4   0   77.20    2.68
   8   4   0   76.40    1.60
   8   4   0   78.86    2.75
   8   5   0    0.24    0.42
   8  -5   0   -0.01    0.39
   8   5   0   -0.11    0.32
   8   6   0  113.19    2.24
   8   6   0  115.99    3.47
   8  -6   0  118.24    3.38
  -8   6   0  123.93    3.31
   8   7   0   -0.01    0.38
   8   7   0    0.21    0.48
  -8   7   0   -0.29    0.50
   8  -7   0    0.06    0.43
   8   8   0   15.17    0.96
   8  -8   0   15.45    1.29
   8   8   0   16.98    1.44
  -8   8   0   16.37    1.33
   8   9   0    0.04    0.45
   8   9   0    0.48    0.53
   8  -9   0    0.44    0.48
  -8   9   0    0.27    0.55
   8 -10   0  195.58    4.55
   8  10   0  197.83    4.99
  -8  10   0  206.00    4.83
   8  10   0  202.15    3.69
   8 -11   0    0.22    0.59
   8  11   0    0.31    0.53
   8  11   0   -0.47    0.67
  -8  11   0    0.07    0.62
   8  12   0   86.20    2.67
   8  12   0   88.67    3.54
  -8  12   0   87.71    3.39
   8 -12   0   86.34    3.14
   8  13   0   -0.16    0.68
   8 -13   0    0.41    0.67
  -8  13   0   -0.52    0.73
   8  13   0   -0.04    0.83
   8  14   0  206.00    4.50
   8 -14   0  211.57    5.12
  -8  14   0  199.04    5.35
   8  14   0  206.22    5.67
   8  15   0    0.16    1.01
   8 -15   0    0.15    0.83
  -8  15   0    0.12    0.90
  -8  16   0    2.99    1.04
   8 -16   0    1.01    0.97
  -8  17   0    0.11    1.21
  -8  18   0   42.50    2.94
  -8  19   0    0.21    1.55
   9   0   0    0.06    0.47
   9   1   0    0.24    0.43
   9  -1   0   -0.07    0.40
   9   2   0   -0.04    0.45
   9  -2   0    0.21    0.42
   9   3   0    0.07    0.44
   9  -3   0    0.23    0.43
   9   4   0   -0.10    0.47
   9  -4   0    0.60    0.47
   9   5   0    0.32    0.49
   9  -5   0    0.30    0.47
  -9   6   0    0.16    0.53
   9   6   0    0.22    0.51
   9  -6   0    0.07    0.52
  -9   7   0    0.26    0.57
   9   7   0   -0.05    0.55
   9  -7   0   -0.24    0.51
  -9   8   0    0.50    0.59
   9  -8   0   -0.03    0.55
   9   8   0    0.09    0.59
  -9   9   0    0.06    0.61
   9   9   0   -0.11    0.64
   9  -9   0   -0.20    0.58
  -9  10   0    0.49    0.66
   9 -10   0    0.85    0.62
   9  10   0   -0.18    0.71
  -9  11   0    0.03    0.72
   9 -11   0   -0.33    0.67
   9  11   0   -0.27    0.79
   9  12   0    0.10    0.86
   9 -12   0    0.08    0.73
  -9  12   0    0.11    0.84
  -9  13   0    0.39    0.86
   9 -13   0    0.37    0.80
   9  13   0    0.14    0.93
   9  14   0    0.53    1.07
   9 -14   0    0.17    0.86
  -9  14   0   -0.51    0.96
   9  15   0   -0.29    1.18
  -9  15   0   -0.07    1.01
   9 -15   0   -0.34    0.94
  -9  16   0   -0.01    1.15
   9 -16   0   -0.13    1.07
  -9  17   0   -1.00    1.34
  -9  18   0    0.00    1.52
  10   0   0    3.83    0.72
  10  -1   0   -0.03    0.50
  10   1   0    0.17    0.50
  10  -2   0    6.30    0.94
  10   2   0    8.58    1.06
  10  -3   0    0.09    0.54
  10   3   0    0.08    0.53
  10  -4   0   17.96    1.50
  10   4   0   21.70    1.70
  10  -5   0    0.01    0.55
  10   5   0    0.11    0.58
  10  -6   0   31.80    2.04
 -10   6   0   32.94    1.88
  10   6   0   32.11    2.12
  10  -7   0   -0.02    0.62
 -10   7   0   -0.09    0.66
  10   7   0    0.29    0.64
  10  -8   0    3.73    0.85
 -10   8   0    5.13    0.83
  10   8   0    3.08    0.85
  10   9   0   -0.30    0.78
 -10   9   0    0.09    0.74
  10  -9   0   -0.30    0.68
  10 -10   0   33.20    2.15
 -10  10   0   35.63    2.20
  10  10   0   34.55    2.37
  10  11   0    0.54    0.91
 -10  11   0    0.19    0.87
  10 -11   0   -0.17    0.80
  10 -12   0    0.59    0.86
  10  12   0    0.70    0.99
 -10  12   0   -0.01    0.92
  10  13   0    0.52    1.10
 -10  13   0   -0.40    1.02
  10 -13   0   -0.39    0.94
 -10  14   0   31.67    2.34
  10  14   0   28.13    2.40
  10 -15   0    0.52    1.14
  10  15   0   -0.98    1.44
 -10  15   0    0.82    1.21
  10  16   0   12.59    1.79
 -10  16   0   15.28    1.82
  11   0   0    0.15    0.62
  11  -1   0    0.82    0.65
  11   1   0   -0.11    0.65
  11   2   0   -0.27    0.62
  11  -2   0    0.18    0.62
  11   3   0    0.17    0.64
  11  -3   0   -0.28    0.66
  11  -4   0    0.35    0.65
  11   4   0    0.21    0.67
  11  -5   0    0.31    0.69
  11   5   0    0.28    0.68
  11  -6   0    0.13    0.70
 -11   6   0   -0.30    0.75
  11   6   0   -0.24    0.75
 -11   7   0   -0.53    0.78
  11   7   0    0.32    0.80
  11  -7   0   -0.19    0.73
  11   8   0   -0.40    0.88
 -11   8   0    0.07    0.82
  11  -8   0    0.31    0.76
  11   9   0    0.23    0.94
  11  -9   0   -0.12    0.84
 -11   9   0   -0.41    0.86
 -11  10   0    0.21    0.93
  11 -10   0   -0.12    0.90
  11  10   0    0.67    1.02
  11  11   0    0.28    1.09
 -11  11   0   -0.30    1.00
  11 -11   0   -0.14    0.94
 -11  12   0   -0.05    1.10
  11 -12   0   -0.32    1.00
  11  12   0    0.17    1.19
  11 -13   0    0.36    1.10
  11  13   0   -0.53    1.33
 -11  13   0   -0.07    1.16
  11 -14   0    0.17    1.24
  11  14   0   -0.21    1.52
 -11  14   0   -0.82    1.29
 -11  15   0    0.92    1.44
  11  15   0   -0.31    1.74
  11 -15   0    0.10    1.45
  11  16   0    0.57    1.98
  12   0   0  382.54    7.69
  12  -1   0    0.02    0.79
  12   1   0    0.16    0.76
  12   2   0   31.26    2.29
  12  -2   0   28.22    2.13
  12  -3   0    0.07    0.76
  12   3   0    0.05    0.79
  12  -4   0   27.73    2.15
  12   4   0   31.27    2.33
 -12   5   0    0.27    0.86
  12  -5   0    0.09    0.84
  12   5   0   -0.01    0.88
  12   6   0   28.32    2.28
  12  -6   0   25.60    2.07
  12   7   0    0.20    0.98
  12  -7   0   -0.26    0.91
 -12   7   0    0.18    0.92
  12  -8   0  126.96    4.59
  12   8   0  115.67    4.65
 -12   8   0  116.33    3.96
  12  -9   0    0.45    1.02
 -12   9   0   -0.34    1.05
  12   9   0    0.50    1.11
  12  10   0   25.02    2.28
  12 -10   0   23.84    2.11
 -12  10   0   22.48    1.91
 -12  11   0   -0.37    1.25
  12 -11   0   -0.54    1.15
  12  11   0    0.05    1.36
  12 -12   0   74.37    3.68
  12  12   0   72.25    3.99
 -12  12   0   71.19    3.48
  12 -13   0   -0.16    1.41
 -12  13   0    0.08    1.45
  12  13   0   -1.09    1.69
  12  14   0   15.09    1.92
 -12  14   0   17.09    1.85
  12 -14   0   12.29    1.57
  13   0   0    1.40    0.93
  13  -1   0    0.76    0.96
  13   1   0    0.39    0.98
  13   2   0    0.28    0.98
  13  -2   0    0.35    0.97
  13  -3   0    0.10    1.01
  13   3   0    0.54    1.02
  13   4   0    0.17    1.05
  13  -4   0    0.31    1.00
  13   5   0    0.02    1.09
  13  -5   0    0.09    1.02
  13  -6   0    0.31    1.07
  13   6   0    0.13    1.13
  13   7   0    0.47    1.20
  13  -7   0   -0.32    1.08
  13  -8   0    1.48    1.14
  13   8   0   -0.34    1.25
  13  -9   0    0.34    1.19
  13   9   0    0.76    1.33
  13  10   0    0.68    1.49
 -13  10   0    0.91    1.36
  13 -10   0    0.28    1.33
  13 -11   0    0.03    1.46
 -13  11   0    0.37    1.54
  13  11   0    1.11    1.68
 -13  12   0    0.32    1.73
  13 -12   0   -1.14    1.56
  14   0   0    0.23    1.19
  14   1   0    0.38    1.22
  14  -1   0   -0.39    1.18
  14  -2   0    3.14    1.21
  14   2   0    2.75    1.25
  14   3   0    0.34    1.29
  14  -3   0    0.19    1.24
  14  -4   0   11.61    1.64
  14   4   0    9.19    1.61
  14   5   0    0.57    1.36
  14  -5   0   -0.27    1.28
  14   6   0   14.58    1.90
  14  -6   0   15.07    1.81
  14   7   0    0.60    1.48
  14  -7   0   -0.05    1.37
  14  -8   0    3.52    1.41
   0   1   1    0.28    0.12
   0   1  -1    0.30    0.15
   0   2  -1    0.00    0.14
   0   2   1    0.01    0.18
   0   2   1    0.02    0.15
   0   3   1    0.02    0.16
   0   3   1   -0.02    0.20
   0   3  -1    0.03    0.14
   0   3  -1    0.15    0.15
   0   4  -1    0.00    0.18
   0   4   1   -0.25    0.19
   0   4  -1   -0.05    0.15
   0   4   1    0.05    0.19
   0   5  -1    0.04    0.16
   0   5   1   -0.03    0.20
   0   5  -1   -0.04    0.19
   0   5   1    0.03    0.22
   0   6   1    0.03    0.18
   0   6  -1    0.00    0.22
   0   6  -1    0.00    0.20
   0   6   1    0.02    0.24
   0   7  -1    0.08    0.23
   0   7   1   -0.03    0.21
   0   7   1    0.08    0.25
   0   7  -1    0.00    0.20
   0   8   1   -0.14    0.19
   0   8   1    0.16    0.27
   0   8  -1    0.07    0.24
   0   8  -1    0.10    0.22
   0   9  -1    0.11    0.27
   0   9   1    0.07    0.21
   0   9   1    0.10    0.31
   0   9  -1    0.02    0.25
   0  10   1   -0.02    0.31
   0  10   1    0.08    0.23
   0  10  -1   -0.06    0.28
   0  10  -1   -0.03    0.31
   0  11   1    0.34    0.37
   0  11  -1    0.03    0.36
   0  11  -1   -0.03    0.28
   0  11   1    0.05    0.26
   0  12  -1    0.05    0.41
   0  12  -1    0.20    0.31
   0  12   1    0.03    0.31
   0  12   1   -0.18    0.38
   0  13  -1    0.15    0.46
   0  13   1    0.10    0.36
   0  13  -1   -0.12    0.36
   0  13   1   -0.35    0.43
   0  14  -1    0.10    0.39
   0  14   1    0.11    0.49
   0  14   1   -0.01    0.38
   0  14  -1    0.43    0.52
   0  15   1    0.32    0.53
   0  15  -1    0.32    0.46
   0  15  -1   -0.09    0.60
   0  16   1    0.47    0.57
   0  16  -1    0.24    0.49
   0  16  -1    0.08    0.65
   0  17  -1    0.09    0.78
   0  17   1    0.49    0.70
   0  18  -1   -0.08    0.89
   0  18   1   -0.04    0.75
   0  19  -1    0.33    1.02
   0  19   1    0.16    0.86
   0  20  -1    0.19    1.19
   0  20   1    0.99    1.08
   0  21  -1   -0.44    1.37
   0  21   1    0.15    1.16
   0  22  -1    0.07    1.64
   0  22   1    0.30    1.36
   0  23  -1    0.61    2.00
   1   0  -1    0.12    0.11
   1   0   1    0.04    0.12
   1  -1   1  256.01    1.92
   1   1  -1  256.69    2.44
   1  -1  -1  251.59    6.54
   1   1   1  268.68    2.30
  -1   1  -1  252.06    1.83
   1   1  -1  261.95    2.24
  -1   1   1  267.55    6.92
   1   2  -1    0.13    0.09
  -1   2  -1    0.12    0.10
   1  -2  -1    0.18    0.09
   1   2   1    0.23    0.10
   1   2  -1    0.73    0.21
   1   2  -1    0.25    0.18
   1   2   1   -0.01    0.16
   1   2   1    0.52    0.20
   1  -2   1    0.20    0.11
  -1   2   1    0.53    0.16
  -1   3  -1   59.51    1.04
   1   3   1   53.55    1.17
  -1   3   1   51.87    1.11
   1   3  -1   61.19    1.22
   1  -3   1   52.64    0.67
   1   3  -1   58.27    0.90
   1   3   1   50.64    1.17
   1   3   1   52.45    0.77
   1   4   1    0.01    0.20
   1   4   1   -0.02    0.11
   1   4   1   -0.05    0.18
   1   4  -1    0.03    0.15
  -1   4  -1    0.03    0.14
  -1   4   1    0.00    0.19
   1   4  -1   -0.02    0.16
  -1   5   1  261.74    3.09
   1   5   1  274.70    2.91
   1   5  -1  289.81    2.99
  -1   5   1  269.53    3.12
  -1   5  -1  279.21    2.78
   1   5   1  277.37    2.28
   1   5   1  274.77    3.22
   1   5  -1  282.66    2.73
  -1   5  -1  282.62    3.30
  -1   6  -1    0.14    0.25
   1   6  -1    0.12    0.19
  -1   6   1    0.29    0.25
   1   6   1    0.01    0.24
   1   6   1    0.07    0.19
   1   6  -1    0.22    0.18
  -1   6  -1    0.19    0.19
  -1   6   1    0.11    0.22
   1   7  -1  407.30    4.12
  -1   7  -1  406.53    3.94
  -1   7   1  416.01    4.52
   1   7   1  420.72    3.91
   1   7  -1  404.91    4.07
  -1   7   1  417.99    3.98
   1   7   1  428.01    4.59
  -1   7  -1  395.41    4.47
   1   8  -1    0.06    0.26
  -1   8   1    0.05    0.25
   1   8  -1    0.01    0.22
  -1   8  -1    0.09    0.24
   1   8   1    0.14    0.28
  -1   8  -1    0.08    0.26
  -1   8   1    0.02    0.24
   1   8   1   -0.17    0.23
   1   9  -1  220.36    3.52
   1   9   1  226.22    3.79
  -1   9   1  234.05    3.83
  -1   9   1  220.55    2.98
  -1   9  -1  225.61    3.76
   1   9  -1  225.49    3.45
  -1   9  -1  230.28    3.39
   1   9   1  230.33    3.11
  -1  10   1    0.06    0.33
   1  10  -1   -0.26    0.32
  -1  10   1    0.18    0.25
   1  10   1   -0.11    0.29
  -1  10  -1    0.01    0.27
  -1  10  -1    0.13    0.31
   1  10  -1    0.02    0.27
   1  10   1    0.02    0.25
  -1  11   1   76.04    1.81
   1  11  -1   85.78    2.50
   1  11   1   81.73    2.53
  -1  11   1   77.83    2.47
  -1  11  -1   84.78    2.58
  -1  11  -1   88.17    2.35
   1  11   1   78.51    1.95
   1  11  -1   88.26    2.40
   1  12   1    0.12    0.35
  -1  12   1    0.02    0.32
  -1  12  -1   -0.06    0.41
   1  12   1   -0.10    0.31
   1  12  -1   -0.10    0.40
   1  12  -1    0.19    0.34
  -1  12   1   -0.08    0.39
  -1  12  -1   -0.01    0.34
  -1  13  -1   14.62    1.08
   1  13   1   12.90    0.85
  -1  13  -1   14.47    1.23
   1  13   1   11.78    1.10
  -1  13   1   12.06    1.12
   1  13  -1   14.25    1.17
   1  13  -1   13.89    1.07
  -1  13   1   11.45    0.74
   1  14  -1   -0.07    0.52
   1  14  -1    0.10    0.38
  -1  14  -1    0.13    0.52
   1  14   1    0.11    0.40
  -1  14   1    0.02    0.48
  -1  14  -1    0.07    0.40
   1  14   1   -0.01    0.49
  -1  15  -1   70.75    2.55
  -1  15   1   73.59    2.91
   1  15  -1   69.67    2.56
  -1  15  -1   73.86    3.00
   1  15  -1   72.83    2.82
   1  15   1   71.40    2.82
  -1  16   1    0.76    0.66
  -1  16  -1   -0.04    0.68
   1  16  -1    0.56    0.67
   1  16  -1    0.56    0.50
   1  16   1    0.53    0.62
   1  17  -1   87.57    3.40
   1  17  -1   85.37    3.10
  -1  17   1   92.20    3.52
   1  17   1   94.41    3.54
  -1  17  -1   86.25    3.55
   1  18  -1    0.63    0.87
  -1  18   1    1.58    0.77
   1  18   1    1.75    0.82
  -1  18  -1    1.40    0.89
   1  19  -1   45.48    2.70
   1  19   1   41.38    2.57
  -1  19  -1   48.58    2.92
  -1  19   1   38.39    2.49
   1  20  -1   -0.85    1.18
   1  20   1    1.16    1.08
  -1  20   1    0.13    1.03
  -1  20  -1    0.48    1.21
   1  21  -1   14.01    1.73
  -1  21   1    8.52    1.47
  -1  21  -1   11.40    1.71
   1  21   1   11.34    1.52
   1  22   1    2.21    1.47
   1  22  -1    0.34    1.64
  -1  22   1    1.39    1.38
  -1  22  -1    2.02    1.62
   1  23  -1   35.02    2.82
  -2   0  -1    0.01    0.08
   2   0  -1    0.00    0.14
   2   0   1   -0.04    0.13
  -2   1   1    0.05    0.09
   2   1  -1    0.02    0.20
   2   1   1    0.08    0.15
  -2   1  -1    0.09    0.08
   2  -1   1    0.13    0.13
   2   1   1    0.09    0.15
   2  -1  -1    0.07    0.13
   2   1  -1    0.05    0.15
   2   2   1    0.09    0.14
   2  -2  -1    0.05    0.10
   2   2  -1   -0.02    0.19
   2   2  -1    0.04    0.18
  -2   2   1    0.15    0.13
   2   2   1    0.13    0.18
   2  -2   1    0.03    0.10
  -2   2  -1    0.03    0.09
   2   3  -1    0.25    0.18
   2   3   1    0.12    0.17
   2   3  -1    0.09    0.18
   2   3  -1    0.06    0.11
   2  -3  -1    0.09    0.11
   2  -3   1    0.02    0.09
   2   3   1    0.06    0.15
  -2   3  -1    0.09    0.11
  -2   3   1    0.03    0.16
   2   4  -1    0.01    0.14
  -2   4  -1    0.00    0.14
   2   4  -1    0.04    0.17
  -2   4   1    0.00    0.18
   2   4   1    0.11    0.20
   2   4   1    0.07    0.19
   2   4  -1    0.04    0.21
   2   4   1    0.02    0.16
   2  -4   1   -0.01    0.06
   2  -4  -1    0.17    0.12
   2   5  -1    0.28    0.24
   2   5  -1    0.00    0.18
   2   5   1    0.03    0.21
   2   5   1    0.21    0.21
  -2   5  -1    0.11    0.16
  -2   5   1    0.13    0.20
   2   5  -1    0.03    0.16
   2   5   1   -0.03    0.15
   2   6   1    0.13    0.22
  -2   6  -1    0.07    0.26
  -2   6   1    0.06    0.22
   2   6  -1    0.01    0.19
   2   6   1    0.11    0.15
  -2   6  -1    0.04    0.18
   2   6   1   -0.03    0.21
   2   6  -1   -0.01    0.19
   2   7  -1    0.02    0.22
   2   7  -1    0.40    0.23
   2   7   1    0.00    0.27
  -2   7  -1    0.07    0.26
   2   7   1   -0.02    0.18
  -2   7   1    0.16    0.24
   2   7   1    0.00    0.22
  -2   7  -1    0.02    0.21
  -2   7   1   -0.11    0.28
  -2   8   1    0.05    0.26
  -2   8   1    0.02    0.27
   2   8  -1    0.14    0.26
  -2   8  -1    0.19    0.29
   2   8  -1    0.10    0.25
  -2   8  -1   -0.18    0.22
   2   8   1    0.13    0.32
   2   8   1   -0.18    0.21
   2   8   1    0.11    0.21
   2   9   1   -0.06    0.25
   2   9   1    0.10    0.30
   2   9  -1    0.00    0.28
  -2   9   1    0.07    0.30
  -2   9  -1   -0.07    0.33
  -2   9  -1    0.08    0.22
   2   9  -1    0.02    0.25
  -2   9   1   -0.17    0.30
  -2  10  -1   -0.04    0.37
  -2  10   1   -0.03    0.35
   2  10  -1    0.17    0.29
  -2  10  -1    0.07    0.28
   2  10  -1    0.04    0.32
   2  10   1   -0.03    0.36
   2  10   1   -0.01    0.25
  -2  10   1    0.15    0.29
  -2  11   1    0.42    0.40
   2  11   1   -0.21    0.29
   2  11  -1    0.08    0.36
   2  11   1   -0.08    0.40
   2  11  -1    0.22    0.32
  -2  11  -1   -0.17    0.41
  -2  11   1   -0.19    0.31
  -2  11  -1    0.03    0.29
   2  12  -1    0.15    0.36
   2  12  -1    0.15    0.41
   2  12   1   -0.05    0.33
  -2  12  -1    0.00    0.33
  -2  12  -1    0.44    0.44
   2  12   1    0.24    0.44
  -2  12   1    0.26    0.41
  -2  12   1   -0.07    0.35
  -2  13  -1   -0.23    0.49
  -2  13   1    0.25    0.48
   2  13   1   -0.13    0.34
  -2  13   1   -0.30    0.38
   2  13  -1    0.14    0.47
  -2  13  -1    0.05    0.36
   2  13  -1   -0.06    0.39
   2  13   1    0.22    0.47
   2  14   1    0.28    0.53
  -2  14   1    0.11    0.52
   2  14   1    0.01    0.40
   2  14  -1    0.04    0.42
  -2  14  -1    0.04    0.54
   2  14  -1   -0.24    0.53
   2  15  -1    0.00    0.59
   2  15   1   -0.27    0.53
  -2  15  -1    0.05    0.59
  -2  15   1   -0.19    0.60
   2  15   1   -0.06    0.47
   2  15  -1    0.16    0.45
   2  16   1    0.06    0.64
   2  16  -1   -0.08    0.68
   2  16  -1   -0.15    0.52
  -2  16   1    0.25    0.66
  -2  16  -1   -0.14    0.69
   2  17  -1    0.16    0.77
   2  17   1    0.10    0.76
  -2  17   1    0.57    0.77
   2  17  -1    0.13    0.57
  -2  17  -1   -0.36    0.81
   2  18  -1    0.23    0.90
  -2  18  -1   -0.07    0.95
  -2  18   1    0.32    0.85
   2  18   1   -0.04    0.86
   2  18  -1    0.26    0.68
   2  19   1    0.05    0.98
   2  19  -1   -0.03    1.03
  -2  19  -1    0.11    1.06
  -2  19   1    0.37    0.98
   2  20  -1   -0.24    1.16
  -2  20   1   -0.83    1.11
  -2  20  -1   -0.59    1.23
   2  20   1    0.25    1.11
  -2  21   1   -0.61    1.24
   2  21  -1   -0.44    1.42
   2  21   1   -0.16    1.25
  -2  21  -1    0.06    1.41
  -2  22   1    0.15    1.44
   2  22  -1    0.11    1.71
  -2  22  -1   -1.87    1.71
   2  22   1    1.99    1.53
   2  23  -1    0.05    2.06
   3   0   1    0.79    0.25
   3   0   1    0.74    0.20
   3   0  -1    0.76    0.22
   3  -1  -1    2.05    0.27
   3   1   1    1.44    0.25
   3   1   1    2.27    0.31
   3   1  -1    2.55    0.33
  -3   1   1    1.93    0.22
   3  -1   1    1.76    0.24
   3   1  -1    2.41    0.34
   3   2  -1    0.12    0.20
   3   2   1    0.04    0.18
  -3   2   1    0.11    0.14
  -3   2  -1    0.01    0.08
   3   2   1   -0.02    0.17
   3   2  -1    0.11    0.21
   3  -2   1    0.15    0.12
   3  -2  -1    0.08    0.16
   3   3  -1  541.21    4.70
   3  -3  -1  516.47   14.97
   3   3  -1  564.11    4.23
   3  -3   1  540.40   12.02
  -3   3   1  534.97    3.87
   3   3   1  548.44    4.34
   3   3   1  540.79    4.13
  -3   3  -1  503.31   11.12
   3  -4   1    0.21    0.11
   3  -4  -1    0.34    0.16
   3   4   1    0.07    0.18
   3   4   1    0.27    0.22
   3   4  -1    0.11    0.14
  -3   4   1    0.34    0.20
   3   4  -1    0.10    0.21
   3   4  -1    0.25    0.22
  -3   4  -1    0.14    0.14
   3   5  -1  364.48    4.23
   3   5   1  352.60    3.77
   3   5  -1  365.12    3.69
   3   5  -1  358.31    3.05
   3  -5  -1  358.53    3.33
  -3   5   1  362.95    3.75
   3   5   1  363.02    3.62
   3   5   1  358.43    4.02
  -3   5  -1  353.25    3.05
   3   6   1    0.18    0.25
   3   6  -1    0.10    0.20
   3   6  -1    0.08    0.27
  -3   6  -1    0.18    0.17
   3   6   1    0.07    0.18
   3   6  -1    0.12    0.24
   3   6   1    0.25    0.28
  -3   6   1    0.25    0.23
   3   7   1   58.82    1.83
   3   7   1   57.35    1.55
   3   7   1   56.06    1.63
  -3   7  -1   58.04    1.96
   3   7  -1   56.59    1.61
   3   7  -1   55.76    1.49
  -3   7   1   59.37    1.77
   3   7  -1   62.29    1.96
  -3   7  -1   58.59    1.49
   3   8  -1    0.31    0.26
   3   8   1    0.04    0.23
   3   8  -1    0.21    0.24
  -3   8  -1    0.32    0.35
  -3   8   1   -0.02    0.30
   3   8  -1   -0.15    0.32
  -3   8  -1    0.13    0.24
   3   8   1   -0.15    0.26
   3   8   1   -0.12    0.31
  -3   9  -1  102.43    2.83
   3   9  -1   97.00    2.28
  -3   9   1  104.64    2.65
   3   9   1   97.79    2.26
  -3   9   1   97.63    2.34
   3   9   1   97.76    2.29
   3   9  -1  103.61    2.43
  -3   9  -1  100.21    2.21
   3   9   1  101.84    2.66
   3  10   1    0.25    0.34
   3  10   1    0.02    0.31
  -3  10   1   -0.08    0.32
   3  10  -1    0.04    0.32
   3  10  -1   -0.20    0.32
  -3  10  -1    0.21    0.41
  -3  10  -1   -0.07    0.27
  -3  10   1   -0.02    0.36
   3  11   1   61.53    1.92
  -3  11   1   62.85    2.31
   3  11   1   61.50    2.29
  -3  11  -1   64.17    2.45
   3  11  -1   63.93    2.10
   3  11  -1   61.42    2.08
  -3  11   1   60.84    1.77
  -3  12   1    0.11    0.40
   3  12  -1   -0.07    0.38
   3  12  -1    0.33    0.41
  -3  12  -1   -0.16    0.45
   3  12   1    0.30    0.34
  -3  12   1    0.22    0.42
   3  12   1    0.13    0.42
  -3  13  -1   90.22    3.13
   3  13  -1   91.05    2.79
  -3  13   1   89.35    3.04
   3  13  -1   88.53    2.72
   3  13   1   91.86    3.06
   3  13   1   91.28    2.44
  -3  14   1    0.21    0.55
   3  14   1    0.13    0.51
  -3  14  -1    0.37    0.57
   3  14  -1    0.12    0.53
   3  14  -1    0.19    0.42
   3  14   1   -0.04    0.41
  -3  15  -1   11.00    1.25
   3  15  -1    9.54    1.08
  -3  15   1    9.59    1.17
   3  15   1   11.08    0.95
   3  15  -1   11.57    1.12
   3  15   1   10.63    1.18
   3  16  -1    0.30    0.72
  -3  16  -1    0.37    0.75
   3  16  -1    0.08    0.52
  -3  16   1    0.01    0.63
   3  16   1    0.44    0.69
  -3  17   1    8.46    1.17
   3  17  -1    6.21    0.95
   3  17   1    7.69    1.13
   3  17  -1    7.83    1.05
  -3  18  -1    0.17    0.94
  -3  18   1   -0.19    0.92
   3  18  -1    0.02    0.72
   3  18  -1    0.53    0.89
   3  18   1    0.39    0.89
   3  19   1   81.74    3.65
  -3  19   1   85.22    3.84
  -3  19  -1   81.90    3.94
   3  19  -1   79.56    3.45
  -3  20   1   -0.16    1.12
  -3  20  -1    2.25    1.27
   3  20  -1    0.08    1.25
   3  20   1    2.14    1.16
  -3  21  -1  104.35    4.72
   3  21   1  100.19    4.35
  -3  21   1   91.33    4.29
   3  21  -1   97.49    4.18
   3  22   1    0.33    1.54
  -3  22  -1    0.45    1.73
   4   0   1    0.01    0.22
   4   0   1    0.05    0.18
   4   0  -1   -0.01    0.21
   4   1   1    0.10    0.22
   4  -1   1    0.04    0.24
   4  -1   1    0.00    0.16
   4   1   1    0.14    0.18
   4   1  -1    0.02    0.20
   4   1  -1   -0.05    0.22
   4  -1  -1    0.02    0.18
   4   2   1    0.03    0.21
   4   2  -1   -0.05    0.23
   4   2   1    0.03    0.21
   4   2  -1    0.03    0.21
  -4   2   1    0.06    0.17
   4  -2   1    0.14    0.16
   4  -2  -1   -0.19    0.21
   4  -3  -1    0.17    0.19
   4   3   1    0.01    0.21
   4   3   1    0.12    0.20
   4   3  -1   -0.01    0.24
   4  -3   1   -0.01    0.14
  -4   3   1    0.01    0.19
   4   3  -1   -0.16    0.20
   4   4   1    0.10    0.21
   4   4  -1    0.00    0.21
   4   4   1   -0.03    0.22
   4  -4  -1    0.00    0.21
  -4   4   1   -0.03    0.24
   4   4  -1   -0.08    0.24
   4   5   1    0.01    0.23
   4  -5  -1    0.07    0.19
  -4   5   1    0.05    0.22
   4   5   1    0.00    0.23
   4   5  -1    0.07    0.21
   4   5  -1    0.01    0.26
   4  -6  -1    0.16    0.21
   4   6  -1   -0.05    0.21
  -4   6   1    0.09    0.25
   4   6  -1    0.00    0.21
   4   6   1    0.05    0.23
   4   6   1    0.08    0.25
   4   6  -1    0.04    0.27
   4   7  -1   -0.01    0.24
  -4   7  -1   -0.10    0.34
   4   7  -1    0.02    0.23
   4   7  -1   -0.09    0.34
   4  -7  -1    0.02    0.23
   4   7   1   -0.13    0.26
   4   7   1   -0.01    0.27
  -4   7   1    0.04    0.27
  -4   8  -1    0.00    0.34
   4   8  -1    0.12    0.29
   4   8   1    0.03    0.30
   4   8   1    0.08    0.29
  -4   8   1   -0.19    0.29
   4   8  -1    0.07    0.32
   4   8   1    0.08    0.34
   4   8  -1   -0.04    0.29
   4   9  -1    0.07    0.28
   4   9  -1    0.09    0.37
   4   9  -1   -0.18    0.31
  -4   9   1    0.16    0.35
  -4   9  -1    0.22    0.42
   4   9   1   -0.06    0.30
   4   9   1    0.10    0.32
   4   9   1    0.07    0.36
   4  10  -1    0.15    0.32
  -4  10   1    0.05    0.37
   4  10   1   -0.06    0.31
   4  10   1    0.05    0.33
   4  10  -1    0.13    0.36
   4  10   1   -0.06    0.39
  -4  10  -1    0.25    0.42
   4  10  -1    0.12    0.38
  -4  11   1   -0.68    0.47
  -4  11   1    0.02    0.40
  -4  11  -1    0.04    0.48
   4  11   1    0.11    0.40
   4  11   1    0.00    0.34
   4  11   1    0.15    0.40
   4  11  -1    0.03    0.44
   4  11  -1   -0.11    0.33
   4  12  -1   -0.43    0.48
   4  12   1   -0.03    0.37
   4  12  -1   -0.18    0.38
  -4  12   1   -0.03    0.47
  -4  12  -1    0.69    0.51
   4  12   1    0.43    0.48
  -4  13   1   -0.10    0.55
   4  13   1    0.02    0.53
   4  13  -1   -0.16    0.42
   4  13   1   -0.24    0.40
  -4  13  -1    0.26    0.56
   4  13  -1   -0.56    0.52
   4  14  -1   -0.11    0.45
  -4  14  -1   -0.33    0.62
   4  14   1   -0.06    0.57
  -4  14   1    0.28    0.55
   4  14   1    0.05    0.45
   4  14  -1   -0.10    0.58
  -4  15  -1    0.19    0.64
   4  15  -1   -0.26    0.51
   4  15   1   -0.42    0.52
   4  15   1    0.17    0.65
   4  15  -1    0.30    0.68
  -4  15   1    0.22    0.66
  -4  16  -1   -0.17    0.81
   4  16   1   -0.02    0.74
   4  16  -1   -0.25    0.58
  -4  16   1   -0.07    0.72
   4  16  -1    0.32    0.75
   4  16   1    0.38    0.61
   4  17   1   -0.19    0.81
   4  17  -1   -0.63    0.88
  -4  17  -1   -0.07    0.85
  -4  17   1    0.52    0.83
   4  17  -1   -0.35    0.66
   4  18  -1   -0.05    0.75
   4  18  -1   -0.10    1.01
  -4  18   1   -0.01    0.91
   4  18   1   -0.70    0.93
  -4  18  -1   -0.03    1.04
   4  19   1    0.72    1.03
  -4  19   1    0.78    1.04
   4  19  -1    0.01    1.14
  -4  19  -1   -0.34    1.25
   4  19  -1   -0.04    0.87
   4  20   1   -0.10    1.26
  -4  20  -1   -1.26    1.41
  -4  20   1   -0.42    1.27
  -4  21  -1    0.30    1.61
  -4  21   1   -0.41    1.34
   4  21   1   -0.55    1.45
   4  22   1   -0.39    1.72
   5   0   1    0.17    0.20
   5   0   1    0.33    0.29
   5   0  -1    0.13    0.24
   5   0  -1   -0.09    0.25
   5   1   1  122.62    2.26
   5  -1   1  124.44    2.13
   5   1  -1  128.48    2.32
   5   1  -1  134.53    2.64
   5  -1  -1  127.50    2.46
   5   1   1  118.97    2.55
   5  -1   1  111.59    2.52
   5  -2  -1    0.05    0.21
   5   2  -1    0.04    0.21
   5   2   1    0.53    0.25
   5   2  -1    0.18    0.27
   5  -2   1    0.03    0.18
   5  -2   1    0.11    0.28
   5   2   1    0.01    0.22
   5   3   1   54.34    1.61
   5   3  -1   49.52    1.71
   5   3   1   53.77    1.70
  -5   3   1   55.51    1.50
   5  -3  -1   45.92    1.49
   5   4   1    0.06    0.25
   5  -4  -1   -0.06    0.25
  -5   4   1    0.04    0.23
   5   4   1   -0.12    0.27
   5   4  -1   -0.03    0.29
   5   4  -1   -0.01    0.24
   5   5   1  228.22    3.66
  -5   5   1  238.54    3.48
   5   5  -1  220.19    3.85
   5  -5  -1  222.81    3.34
   5   5   1  235.98    3.55
   5   6   1   -0.17    0.29
   5  -6  -1    0.45    0.27
  -5   6   1   -0.18    0.29
   5   6  -1   -0.13    0.25
   5   6  -1    0.09    0.34
   5   6   1   -0.03    0.29
  -5   7   1  254.29    3.98
   5   7   1  244.63    3.83
   5  -7  -1  264.98    3.79
   5   7  -1  258.68    3.65
   5   7   1  241.71    3.97
   5   7  -1  257.64    4.45
  -5   8  -1    0.21    0.41
   5   8   1   -0.04    0.33
  -5   8   1   -0.18    0.32
   5  -8  -1    0.18    0.30
   5   8  -1    0.06    0.39
   5   8  -1   -0.11    0.31
   5   8  -1   -0.14    0.32
   5   8   1   -0.48    0.35
   5   9   1  123.08    2.98
   5   9  -1  126.79    2.85
   5   9  -1  126.78    2.68
   5   9   1  124.15    2.90
  -5   9  -1  131.19    3.50
   5   9  -1  122.66    3.31
   5  -9  -1  129.55    2.81
  -5   9   1  129.76    3.13
   5  10   1   -0.14    0.34
  -5  10   1    0.13    0.42
   5  10   1   -0.23    0.40
   5  10  -1    0.14    0.36
  -5  10  -1    0.23    0.43
   5  10  -1    0.23    0.44
   5  10  -1    0.49    0.42
   5  11   1   93.43    2.76
   5  11  -1   94.02    2.69
   5  11   1   96.42    2.69
  -5  11  -1   89.86    3.14
  -5  11   1   92.88    2.95
   5  11  -1   88.89    2.54
   5  11   1   95.64    2.99
   5  11  -1   87.19    3.00
   5  12   1    0.38    0.50
   5  12   1    0.01    0.43
  -5  12   1    0.02    0.50
   5  12  -1    0.04    0.52
   5  12   1    0.19    0.51
   5  12  -1    0.02    0.42
  -5  12  -1   -0.05    0.51
   5  13  -1   18.55    1.34
   5  13  -1   19.14    1.35
   5  13   1   23.65    1.44
   5  13   1   24.60    1.70
  -5  13   1   25.47    1.75
  -5  13  -1   20.39    1.64
   5  14   1   -0.23    0.50
   5  14   1    0.05    0.64
  -5  14  -1    0.39    0.62
  -5  14   1   -0.08    0.62
   5  14  -1   -0.29    0.50
   5  14  -1    0.22    0.66
   5  15   1   40.15    2.30
  -5  15   1   41.95    2.42
  -5  15  -1   40.82    2.46
   5  15  -1   47.80    2.27
   5  15   1   39.82    1.93
   5  15  -1   43.75    2.18
  -5  16   1    0.23    0.81
   5  16   1    0.40    0.81
   5  16  -1    0.06    0.67
   5  16   1    0.06    0.69
   5  16  -1    0.10    0.85
  -5  16  -1   -0.01    0.83
  -5  17  -1   71.01    3.48
   5  17  -1   70.00    3.00
   5  17  -1   74.89    3.08
  -5  17   1   70.87    3.40
   5  17   1   64.70    3.12
  -5  18   1    1.34    1.04
   5  18   1   -0.48    1.02
   5  18  -1   -0.10    0.85
  -5  18  -1   -0.40    1.06
   5  19   1   51.33    2.98
   5  19  -1   43.17    2.55
  -5  19  -1   43.37    3.03
  -5  19   1   53.36    3.16
   5  20   1   -0.33    1.34
  -5  20   1    0.89    1.31
  -5  20  -1   -0.11    1.47
   5  21   1   14.23    1.78
  -5  21   1   14.29    1.88
   6   0  -1   -0.04    0.26
   6   0  -1    0.00    0.30
   6   0   1   -0.16    0.31
   6   0   1    0.02    0.24
   6  -1   1    0.13    0.22
   6   1   1    0.21    0.32
   6  -1  -1    0.09    0.24
   6   1  -1    0.10    0.28
   6  -1   1    0.03    0.28
   6   1  -1   -0.09    0.28
   6   1   1    0.08    0.23
   6  -2  -1    0.16    0.28
   6   2   1    0.10    0.30
   6   2   1    0.15    0.24
   6   2  -1    0.00    0.27
   6   2  -1    0.22    0.25
   6  -2   1    0.24    0.28
  -6   3   1    0.17    0.27
   6   3   1    0.04    0.28
   6   3   1    0.07    0.27
   6  -3  -1   -0.12    0.27
   6  -3   1    0.35    0.33
   6   3  -1   -0.13    0.25
   6   3  -1   -0.18    0.28
   6   4   1    0.10    0.27
  -6   4   1   -0.05    0.30
   6   4  -1   -0.04    0.32
   6  -4  -1    0.07    0.30
   6  -4   1   -0.04    0.33
   6   4  -1   -0.17    0.26
   6   4   1    0.01    0.30
   6   5  -1   -0.03    0.27
   6  -5  -1   -0.06    0.28
   6   5   1   -0.01    0.29
   6   5   1    0.02    0.32
   6   5  -1   -0.05    0.32
  -6   5   1    0.02    0.30
   6  -6  -1   -0.07    0.30
   6   6   1    0.15    0.33
   6   6   1    0.03    0.29
  -6   6   1    0.10    0.33
   6   6  -1    0.07    0.32
   6   6  -1   -0.03    0.26
   6   7   1    0.00    0.32
   6  -7  -1   -0.20    0.32
  -6   7   1   -0.10    0.34
   6   7  -1    0.03    0.30
   6   7  -1    0.04    0.36
   6   7   1    0.22    0.38
  -6   8  -1   -0.34    0.46
   6   8   1    0.03    0.39
   6   8  -1    0.23    0.40
   6   8   1   -0.04    0.38
  -6   8   1   -0.14    0.36
   6  -8  -1    0.15    0.35
   6   8  -1   -0.10    0.32
   6  -9  -1   -0.09    0.38
   6   9   1    0.04    0.42
  -6   9  -1    0.28    0.48
   6   9   1   -0.24    0.35
   6   9  -1   -0.03    0.45
   6   9  -1   -0.12    0.34
  -6   9   1    0.37    0.42
   6  10   1   -0.54    0.47
   6  10   1    0.25    0.39
   6  10  -1   -0.06    0.44
   6  10  -1    0.05    0.39
   6 -10  -1    0.23    0.39
  -6  10   1   -0.08    0.43
  -6  10  -1    0.13    0.52
   6 -11  -1   -0.03    0.45
   6  11  -1   -0.03    0.49
   6  11   1    0.17    0.42
   6  11   1   -0.16    0.48
  -6  11   1    0.17    0.48
   6  11  -1   -0.02    0.42
  -6  11  -1   -0.23    0.54
   6  12  -1    0.51    0.55
   6  12   1   -0.29    0.56
  -6  12   1   -0.14    0.56
   6  12  -1   -0.12    0.59
   6  12  -1   -0.27    0.47
   6 -12  -1   -0.18    0.48
   6  12   1   -0.25    0.46
  -6  12  -1    0.22    0.62
   6 -13  -1    0.54    0.54
   6  13  -1    0.21    0.54
  -6  13   1   -0.50    0.61
   6  13   1    0.43    0.60
   6  13  -1    0.11    0.68
  -6  13  -1    0.52    0.69
   6  13   1    0.05    0.50
   6  14  -1    0.40    0.56
   6  14  -1    0.02    0.72
   6  14   1    0.23    0.57
  -6  14   1    0.32    0.67
  -6  14  -1    0.32    0.74
  -6  15   1    0.78    0.75
   6  15  -1   -0.11    0.66
   6  15   1   -0.13    0.65
  -6  15  -1    0.40    0.77
   6  16   1   -0.33    0.75
   6  16  -1   -0.02    0.75
  -6  16  -1    0.19    0.90
  -6  16   1    0.71    0.87
   6  17   1   -0.04    0.82
   6  17  -1   -0.09    0.84
  -6  17  -1   -0.20    0.99
  -6  17   1    0.50    1.02
  -6  18   1   -0.26    1.11
  -6  18  -1    0.42    1.20
   6  18  -1   -0.18    0.97
  -6  19  -1    0.00    1.29
  -6  19   1   -0.48    1.23
   6  19  -1    0.44    1.07
  -6  20   1    0.21    1.41
  -6  20  -1    0.05    1.53
   7   0   1   -0.02    0.34
   7   0   1   -0.05    0.28
   7   0  -1   -0.16    0.35
   7   0  -1   -0.01    0.29
   7   1  -1  112.52    2.89
   7   1   1  108.91    2.55
   7  -1   1  111.62    3.02
   7  -1  -1  109.01    2.79
   7   1   1  106.08    2.90
   7   1  -1  110.25    2.35
   7  -1  -1  111.50    2.55
   7  -2  -1    0.03    0.32
   7   2  -1   -0.04    0.32
   7   2  -1   -0.23    0.30
   7  -2   1   -0.08    0.35
   7   2   1    0.09    0.31
   7   2   1    0.02    0.34
   7   3   1   27.69    1.50
   7   3  -1   25.88    1.48
   7   3  -1   22.47    1.04
   7  -3   1   31.58    1.67
  -7   3   1   32.05    1.34
   7   3   1   28.20    1.38
   7  -3  -1   26.61    1.39
   7   4  -1    0.11    0.38
  -7   4   1    0.33    0.33
   7  -4   1    0.14    0.39
   7   4  -1    0.07    0.29
   7   4   1   -0.05    0.30
   7  -4  -1   -0.02    0.32
   7   4   1    0.14    0.35
   7  -5  -1  107.98    2.83
   7   5   1  114.28    2.89
   7   5  -1  104.36    2.31
  -7   5   1  114.28    2.72
   7   5  -1  105.16    3.09
   7  -5   1  110.10    3.17
   7   5   1  103.55    2.97
   7   6   1    0.09    0.42
   7  -6   1   -0.21    0.39
   7  -6  -1    0.13    0.36
   7   6  -1    0.14    0.42
   7   6  -1   -0.15    0.33
   7   6   1    0.13    0.32
  -7   6   1   -0.08    0.38
   7   7   1  207.26    4.38
   7   7  -1  218.19    4.65
  -7   7   1  206.67    3.99
   7  -7  -1  221.14    4.16
   7   7   1  204.19    4.05
   7   7  -1  216.11    3.55
   7   8   1   -0.06    0.48
   7   8  -1    0.15    0.47
  -7   8   1    0.21    0.44
   7   8   1    0.03    0.39
  -7   8  -1   -0.31    0.49
   7  -8  -1   -0.01    0.39
   7   8  -1    0.10    0.37
   7  -9  -1  148.69    3.51
   7   9  -1  139.73    3.16
  -7   9  -1  144.09    3.98
   7   9  -1  144.39    4.01
   7   9   1  142.20    3.54
  -7   9   1  145.48    3.63
   7   9   1  140.85    3.76
   7  10   1   -0.03    0.45
   7 -10  -1   -0.14    0.49
   7  10  -1   -0.18    0.52
  -7  10  -1    0.21    0.56
   7  10  -1   -0.01    0.45
  -7  10   1    0.17    0.49
   7  10   1    0.12    0.53
   7  11  -1   33.83    2.09
  -7  11   1   41.28    2.10
   7 -11  -1   38.26    1.88
  -7  11  -1   32.23    2.05
   7  11   1   39.09    1.97
   7  11  -1   35.35    1.76
   7  11   1   37.85    2.06
   7  12  -1   -0.28    0.61
  -7  12   1   -0.01    0.60
   7  12   1   -0.21    0.64
   7  12   1   -0.49    0.53
  -7  12  -1    0.33    0.69
   7  12  -1    0.11    0.56
   7 -12  -1   -0.07    0.53
   7 -13  -1    4.93    0.75
   7  13   1    7.94    0.96
  -7  13   1    9.05    1.15
   7  13  -1    4.24    0.72
   7  13  -1    4.15    0.89
  -7  13  -1    5.93    1.07
   7  13   1    9.10    1.10
   7  14   1    0.16    0.79
   7  14   1    0.05    0.64
   7  14  -1    0.06    0.68
  -7  14   1   -0.02    0.75
  -7  14  -1   -0.25    0.81
  -7  15  -1   54.18    2.99
  -7  15   1   57.79    2.93
   7  15  -1   51.97    2.46
   7  15   1   54.51    2.52
   7  16  -1    0.59    0.79
   7  16   1   -0.15    0.85
  -7  16   1   -0.19    1.00
  -7  16  -1   -0.03    0.98
   7  17   1   60.54    2.77
  -7  17  -1   65.75    3.49
  -7  17   1   59.73    3.25
   7  17  -1   58.36    2.83
   7  18  -1   -0.08    1.03
  -7  18   1   -0.24    1.21
  -7  18  -1    0.12    1.32
  -7  19   1   31.87    2.65
   7  19  -1   25.41    2.06
  -7  19  -1   26.16    2.45
   8   0  -1    0.18    0.37
   8   0   1    0.07    0.41
   8   0  -1   -0.01    0.41
   8   1   1    0.20    0.42
   8  -1   1    0.17    0.41
   8   1  -1    0.07    0.40
   8   1  -1   -0.19    0.38
   8  -1  -1    0.03    0.44
   8  -1  -1    0.21    0.36
   8   2  -1   -0.17    0.40
   8  -2   1    0.05    0.44
   8   2  -1   -0.01    0.35
   8   2   1   -0.06    0.37
   8  -2  -1   -0.01    0.35
   8   2   1    0.11    0.33
   8  -3  -1    0.09    0.38
   8  -3   1    0.09    0.42
   8   3   1    0.15    0.40
   8   3  -1   -0.06    0.36
   8   3  -1   -0.11    0.39
   8   3   1    0.09    0.36
  -8   4   1    0.13    0.40
   8  -4  -1    0.03    0.38
   8   4  -1    0.16    0.36
   8   4  -1   -0.02    0.39
   8   4   1    0.39    0.41
   8   4   1   -0.24    0.33
   8  -4   1   -0.17    0.40
  -8   5   1    0.45    0.42
   8   5  -1    0.17    0.43
   8   5   1   -0.16    0.44
   8  -5   1    0.11    0.46
   8   5  -1    0.16    0.37
   8   5   1    0.23    0.36
   8  -5  -1    0.08    0.38
   8   6  -1    0.00    0.47
   8  -6  -1    0.23    0.42
   8   6  -1    0.07    0.38
   8  -6   1    0.21    0.48
   8   6   1    0.10    0.48
   8   6   1    0.29    0.38
  -8   6   1    0.04    0.44
   8   7  -1    0.28    0.43
   8   7  -1    0.14    0.48
   8   7   1    0.18    0.39
   8  -7  -1   -0.16    0.44
   8  -7   1    0.12    0.48
  -8   7   1   -0.13    0.48
   8   7   1   -0.23    0.50
  -8   8  -1   -0.30    0.56
   8   8   1    0.60    0.44
   8   8  -1    0.10    0.54
   8  -8  -1   -0.38    0.47
   8  -8   1    0.10    0.48
   8   8   1   -0.07    0.53
  -8   8   1    0.12    0.52
   8   8  -1   -0.04    0.47
   8   9   1    0.27    0.60
  -8   9  -1    0.11    0.61
   8  -9   1    0.00    0.55
   8  -9  -1    0.02    0.51
   8   9  -1    0.03    0.54
   8   9   1   -0.15    0.46
   8   9  -1    0.01    0.49
  -8   9   1   -0.16    0.54
   8 -10  -1    0.43    0.58
   8  10   1    0.25    0.65
   8  10  -1    0.29    0.62
   8  10   1   -0.18    0.49
  -8  10   1    0.72    0.57
  -8  10  -1    0.16    0.63
   8  10  -1    0.31    0.54
   8  11   1   -0.54    0.67
   8  11   1    0.10    0.55
   8 -11  -1    0.10    0.59
  -8  11  -1   -0.09    0.65
  -8  11   1   -0.41    0.63
   8  11  -1   -0.22    0.56
   8  11  -1    0.35    0.64
   8  12  -1    0.22    0.66
   8 -12  -1   -0.05    0.60
   8  12   1   -0.22    0.77
   8  12   1    0.00    0.61
   8  12  -1    0.44    0.74
  -8  12   1    0.17    0.69
  -8  12  -1   -0.49    0.75
   8  13  -1   -0.01    0.84
   8 -13  -1   -0.24    0.70
   8  13   1    0.56    0.66
   8  13  -1   -0.39    0.69
   8  13   1    0.33    0.82
  -8  13  -1    0.18    0.78
  -8  13   1    0.28    0.76
   8  14   1   -0.26    0.96
   8  14  -1    0.23    0.81
   8  14  -1    0.17    0.93
   8  14   1    0.16    0.73
  -8  14   1   -0.47    0.85
  -8  14  -1    0.13    0.88
   8  15   1   -0.44    1.10
   8  15  -1    0.24    0.86
  -8  15   1    0.20    0.95
   8  15   1    0.01    0.84
  -8  15  -1    0.69    1.00
  -8  16   1   -0.32    1.06
   8  16  -1    0.01    0.95
  -8  16  -1   -1.14    1.13
   8  17  -1    0.21    1.07
  -8  17   1    0.14    1.23
  -8  17  -1    0.38    1.20
  -8  18   1   -0.63    1.40
   8  18  -1    1.06    1.22
  -8  18  -1   -0.57    1.35
  -8  19   1   -1.02    1.54
   9   0  -1    0.13    0.45
   9   0   1    0.41    0.49
   9  -1  -1    8.64    0.97
   9   1  -1    6.64    0.86
   9   1   1   10.38    1.11
   9  -1   1   10.57    1.14
   9  -2  -1    0.32    0.43
   9   2   1    0.06    0.47
   9   2  -1    0.31    0.43
   9   2  -1   -0.19    0.44
   9  -2   1    0.15    0.48
   9  -3   1  190.04    4.68
   9   3  -1  176.87    3.07
   9   3  -1  187.03    4.49
   9   3   1  183.24    4.48
   9  -3  -1  185.20    4.25
  -9   4   1   -0.14    0.51
   9   4  -1    0.15    0.49
   9  -4   1    0.44    0.49
   9   4   1    0.16    0.49
   9  -4  -1    0.24    0.45
   9   4  -1    0.11    0.44
   9   5  -1  133.18    2.76
   9  -5   1  138.24    4.06
   9   5   1  133.91    3.94
   9  -5  -1  140.29    3.76
  -9   5   1  140.88    3.33
   9   5  -1  140.69    4.07
   9   6   1   -0.30    0.55
   9  -6  -1    0.00    0.51
   9  -6   1   -0.20    0.54
   9   6   1    0.21    0.44
   9   6  -1   -0.10    0.46
   9   6  -1    0.11    0.51
  -9   6   1    0.21    0.53
   9   7   1   26.08    1.82
   9   7  -1   24.43    1.80
   9  -7  -1   28.04    1.75
   9  -7   1   29.48    1.93
   9   7   1   27.13    1.70
  -9   7   1   29.36    1.67
   9   7  -1   24.82    1.34
   9   8  -1    0.31    0.58
   9  -8   1   -0.06    0.56
   9   8   1    0.15    0.51
   9  -8  -1    0.04    0.56
  -9   8   1    0.12    0.61
   9   8  -1    0.10    0.53
   9   8   1   -0.34    0.62
  -9   8  -1   -0.04    0.63
   9  -9  -1   45.85    2.27
   9   9  -1   46.54    2.58
  -9   9  -1   46.09    2.48
  -9   9   1   49.18    2.31
   9   9   1   47.03    2.53
   9   9  -1   43.89    1.86
   9   9   1   51.99    2.42
   9  -9   1   42.07    2.37
  -9  10   1   -0.51    0.69
   9  10   1    0.14    0.57
  -9  10  -1    0.31    0.73
   9 -10  -1   -0.49    0.62
   9 -10   1   -0.08    0.65
   9  10  -1    0.06    0.73
   9  10   1   -0.08    0.73
  -9  11   1   28.86    1.89
   9 -11  -1   35.10    2.04
  -9  11  -1   34.63    2.27
   9  11   1   29.12    1.91
   9  11  -1   30.90    2.22
   9 -11   1   28.10    2.01
   9  11   1   27.52    2.02
   9 -12  -1   -0.41    0.74
   9 -12   1    0.28    0.75
   9  12  -1   -0.15    0.86
   9  12   1    1.18    0.91
  -9  12   1    0.22    0.79
  -9  12  -1   -0.12    0.90
   9 -13  -1   48.07    2.45
  -9  13  -1   51.87    2.92
   9  13  -1   41.98    2.73
   9  13   1   41.59    2.60
  -9  13   1   46.95    2.57
   9 -13   1   42.47    2.54
   9  14   1    0.32    1.18
   9 -14   1    0.13    0.91
   9  14  -1    0.41    1.06
  -9  14   1    0.06    0.96
  -9  14  -1   -0.32    1.01
   9 -15   1   11.08    1.39
  -9  15   1    9.13    1.26
  -9  15  -1    6.90    1.22
  -9  16  -1   -0.42    1.25
  -9  16   1   -0.17    1.21
   9 -16   1    0.28    1.14
  -9  17  -1    7.23    1.40
   9 -17   1    9.04    1.32
  -9  17   1    9.59    1.45
   9 -18   1    0.00    1.50
  -9  18   1   -0.30    1.57
  10   0  -1    0.49    0.51
  10   0   1    0.07    0.54
  10   1  -1    0.24    0.53
  10  -1   1    0.16    0.53
  10   1   1   -0.13    0.54
  10  -1  -1    0.32    0.50
  10  -2  -1    0.09    0.50
  10  -2   1   -0.17    0.58
  10   2   1   -0.07    0.58
  10   2  -1    0.11    0.52
 -10   3   1    0.38    0.58
  10  -3   1   -0.11    0.56
  10   3   1   -0.14    0.57
  10  -3  -1    0.08    0.54
  10   3  -1    0.19    0.53
 -10   4   1   -0.15    0.56
  10  -4  -1   -0.11    0.55
  10  -4   1    0.27    0.58
  10   4  -1    0.27    0.55
  10   4   1   -0.06    0.59
  10  -5   1   -0.39    0.59
  10  -5  -1    0.32    0.57
  10   5   1   -0.07    0.63
  10   5  -1    0.56    0.58
 -10   5   1    0.02    0.60
  10  -6   1   -0.09    0.61
  10  -6  -1    0.15    0.58
  10   6  -1   -0.04    0.61
  10   6   1   -0.15    0.65
 -10   6   1   -0.07    0.62
  10  -7   1   -0.06    0.67
  10   7   1   -0.46    0.71
 -10   7   1    0.53    0.68
  10   7  -1   -0.28    0.66
  10  -7  -1   -0.54    0.61
 -10   8  -1    0.17    0.77
  10  -8  -1    0.44    0.65
  10  -8   1   -0.45    0.67
  10   8   1   -0.51    0.76
  10   8  -1   -0.07    0.68
 -10   8   1    0.48    0.68
  10   9   1   -0.34    0.84
 -10   9  -1   -0.02    0.80
  10  -9   1    0.41    0.68
  10  -9  -1   -0.22    0.71
 -10   9   1    0.06    0.76
  10   9  -1    0.53    0.74
  10 -10   1   -0.33    0.74
  10 -10  -1    0.05    0.75
  10  10  -1   -1.01    0.84
  10  10   1    0.23    0.89
 -10  10   1    0.24    0.77
 -10  10  -1    0.30    0.84
  10 -11  -1    0.22    0.83
  10  11   1   -0.19    0.97
  10  11  -1   -0.20    0.92
  10 -11   1    0.11    0.81
 -10  11   1    0.48    0.85
 -10  11  -1   -0.08    0.93
  10  12   1    1.20    1.02
 -10  12  -1    0.33    1.02
  10 -12   1    0.55    0.87
 -10  12   1    0.30    0.91
  10  12  -1    0.64    1.01
  10 -12  -1   -0.29    0.86
  10  13  -1    1.60    1.13
  10 -13   1   -0.09    0.95
  10  13   1   -0.19    1.16
 -10  13   1    0.27    1.00
 -10  13  -1   -0.17    1.06
  10 -14   1    0.20    1.02
  10  14   1    0.06    1.35
  10  14  -1   -0.36    1.24
 -10  14   1   -0.23    1.09
 -10  14  -1    0.21    1.16
  10 -15   1    0.45    1.16
 -10  15   1    0.21    1.26
 -10  15  -1    0.23    1.33
  10  15  -1    0.43    1.43
  10 -16   1    0.34    1.33
 -10  16   1   -0.20    1.44
 -10  16  -1   -0.29    1.37
  10 -17   1   -0.84    1.54
 -10  17   1   -0.54    1.64
  11   0  -1   -0.27    0.65
  11   0   1    0.06    0.66
  11  -1  -1   39.48    2.31
  11  -1   1   41.57    2.50
  11   1   1   46.59    2.62
  11   1  -1   38.33    2.29
  11   2  -1    0.18    0.65
  11   2   1    0.30    0.69
  11  -2  -1    0.16    0.62
  11  -2   1   -0.70    0.68
  11  -3   1   17.55    1.66
  11   3   1   20.07    1.74
  11   3  -1   21.72    1.76
  11  -4  -1    0.15    0.65
  11   4   1    0.19    0.75
  11  -4   1   -0.11    0.73
  11   4  -1    0.30    0.69
  11  -5   1   80.18    3.52
  11   5  -1   78.37    3.46
  11   5   1   73.88    3.38
  11  -6   1    0.67    0.76
  11   6  -1   -0.03    0.76
  11  -6  -1    0.20    0.73
  11   6   1   -0.11    0.81
  11   7  -1   92.28    3.85
  11   7   1  100.27    4.03
  11  -7  -1   94.62    3.61
  11  -7   1  100.32    3.99
 -11   7   1   97.20    3.24
 -11   8  -1    0.73    0.91
  11  -8  -1    0.95    0.80
  11   8  -1    0.07    0.86
  11  -8   1    0.01    0.79
 -11   8   1   -0.20    0.86
  11   8   1   -0.04    0.93
 -11   9  -1   41.02    2.54
  11  -9  -1   45.28    2.53
  11  -9   1   45.21    2.74
 -11   9   1   45.31    2.39
  11   9   1   40.76    2.65
  11 -10   1    0.54    0.92
  11 -10  -1    1.58    0.91
 -11  10   1    0.00    0.95
  11  10   1    0.24    1.05
  11  10  -1   -0.15    1.01
 -11  10  -1   -0.81    1.01
  11  11  -1   44.42    2.95
  11  11   1   47.79    2.99
  11 -11   1   44.28    2.76
  11 -11  -1   50.32    2.73
 -11  11  -1   47.49    2.77
 -11  11   1   42.42    2.42
  11  12  -1   -0.01    1.23
  11  12   1    0.08    1.31
  11 -12  -1   -0.68    1.08
  11 -12   1   -0.72    1.04
 -11  12   1   -0.13    1.10
 -11  12  -1   -0.01    1.12
  11  13  -1   12.89    1.71
  11  13   1   12.42    1.75
 -11  13  -1   15.82    1.78
  11 -13   1   11.53    1.53
 -11  13   1   11.60    1.41
 -11  14  -1    0.93    1.33
  11 -14   1    0.02    1.27
  11  14  -1   -1.36    1.50
 -11  14   1    0.99    1.36
  11  14   1    0.03    1.69
 -11  15   1   16.33    1.85
  11 -15   1   18.12    1.99
  11  15  -1   14.06    1.95
 -11  15  -1   16.67    2.00
  12   0  -1   -0.34    0.75
  12   0   1    0.40    0.80
  12   1  -1    0.40    0.75
  12  -1  -1   -0.33    0.78
  12   1   1   -0.26    0.86
  12  -1   1   -0.16    0.80
  12  -2   1    0.69    0.82
  12   2  -1   -0.86    0.80
  12   2   1   -0.03    0.85
  12  -2  -1    0.03    0.78
  12   3   1   -0.21    0.88
  12  -3   1    0.50    0.84
  12   3  -1   -0.17    0.80
  12  -3  -1    0.27    0.80
  12  -4   1   -0.13    0.88
  12   4   1   -0.07    0.91
  12  -4  -1   -0.60    0.83
  12   4  -1    0.17    0.82
  12   5  -1   -0.30    0.84
  12   5   1    0.01    0.94
  12  -5   1    0.58    0.87
  12  -5  -1   -0.01    0.85
  12  -6  -1   -0.40    0.88
  12   6   1   -0.21    1.00
  12   6  -1   -0.19    0.90
  12  -6   1   -0.35    0.94
  12   7  -1    0.29    0.98
  12   7   1   -0.08    1.06
  12  -7  -1   -0.39    0.92
  12  -7   1    0.18    0.97
 -12   8  -1   -0.07    1.02
  12  -8   1   -0.63    0.98
  12   8   1    0.15    1.12
  12  -8  -1    0.40    0.97
  12   8  -1    0.40    1.03
  12  -9  -1   -0.35    1.04
  12  -9   1   -0.12    1.04
 -12   9  -1   -0.28    1.09
  12   9   1    0.29    1.19
  12   9  -1    0.81    1.12
  12 -10   1   -0.26    1.07
  12  10  -1    0.64    1.19
  12 -10  -1    0.25    1.14
  12  10   1   -0.20    1.34
 -12  10  -1    0.55    1.17
  12 -11   1    0.46    1.15
  12  11   1    0.71    1.45
  12 -11  -1    1.31    1.20
  12  11  -1   -0.44    1.27
 -12  11  -1    0.54    1.26
  12 -12   1    0.51    1.27
  12  12   1   -1.07    1.57
 -12  12  -1    0.10    1.38
  12  12  -1    0.05    1.44
  12  13  -1    0.19    1.67
  12  13   1    0.82    1.83
  12 -13   1    0.56    1.37
 -12  13  -1   -0.96    1.49
  13   0   1    0.26    1.02
  13   0  -1    0.12    0.98
  13   1  -1   37.69    2.61
  13  -1   1   41.12    2.83
  13  -1  -1   39.86    2.65
  13   1   1   41.68    2.85
  13   2  -1   -0.52    0.96
  13  -2   1   -0.19    1.04
  13  -2  -1    0.56    0.96
  13   2   1   -0.52    1.05
  13  -3   1   10.45    1.50
  13   3   1    9.63    1.47
  13  -3  -1   10.67    1.45
  13   3  -1   13.12    1.64
  13   4  -1   -0.51    1.03
  13   4   1   -0.01    1.13
  13  -4  -1    0.34    0.97
  13  -4   1   -0.13    1.05
  13   5  -1   32.25    2.55
  13   5   1   26.02    2.33
  13  -5   1   26.31    2.29
  13  -5  -1   30.35    2.32
  13   6   1   -0.45    1.23
  13   6  -1    0.14    1.11
  13  -6   1    0.10    1.11
  13  -6  -1    0.88    1.05
  13   7  -1   78.79    4.00
  13  -7  -1   79.52    3.73
 -13   7  -1   77.40    3.57
  13  -7   1   80.00    3.95
  13   7   1   73.44    3.94
 -13   8  -1    0.02    1.30
  13  -8  -1    0.21    1.21
  13  -8   1    0.78    1.22
  13   8  -1    0.56    1.26
  13   8   1   -0.05    1.41
  13   9  -1   59.24    3.64
  13  -9  -1   61.33    3.31
  13   9   1   61.98    3.73
  13  -9   1   65.20    3.64
 -13   9  -1   58.88    3.21
  13  10  -1    0.67    1.47
  13 -10   1    0.63    1.32
  13  10   1    0.43    1.64
 -13  10  -1   -0.87    1.45
  13 -10  -1   -0.20    1.42
  13  11   1    7.19    1.81
  13 -11  -1   10.46    1.59
 -13  11  -1    7.44    1.59
  13  12   1   -1.06    2.07
  14   0  -1   -0.35    1.21
  14   0   1    0.13    1.28
  14  -1   1   -0.32    1.30
  14   1  -1   -0.24    1.25
  14  -1  -1   -0.03    1.20
  14   1   1   -0.24    1.28
  14   2   1   -0.50    1.35
  14   2  -1   -0.28    1.22
  14  -2  -1   -1.28    1.23
  14  -2   1   -0.49    1.29
  14  -3   1   -0.29    1.30
  14  -3  -1    0.42    1.22
  14   3  -1   -0.72    1.24
  14   3   1   -0.01    1.39
  14   4  -1    0.26    1.26
  14  -4   1   -0.14    1.28
  14  -4  -1   -0.26    1.22
  14   4   1    0.01    1.42
  14   5   1    0.10    1.50
  14  -5  -1   -0.24    1.31
  14  -5   1    1.23    1.38
  14   5  -1   -0.13    1.33
  14   6  -1   -0.16    1.38
 -14   6  -1    0.59    1.51
  14   6   1    1.40    1.58
  14  -6  -1    0.33    1.34
  14  -6   1   -0.63    1.42
 -14   7  -1   -1.23    1.59
  14   7   1   -0.77    1.69
  14  -7  -1   -0.03    1.44
 -14   8  -1    1.13    1.68
  14  -8  -1   -0.81    1.52
 -14   9  -1   -0.03    1.73
   0   1  -2    0.02    0.22
   0   2   2  341.75    3.94
   0   2  -2  347.45    3.56
   0   3   2   -0.02    0.19
   0   3  -2    0.05    0.20
   0   3   2    0.07    0.26
   0   4   2    0.15    0.23
   0   4  -2    0.14    0.19
   0   5  -2    0.01    0.24
   0   5   2    0.04    0.22
   0   5  -2    0.03    0.21
   0   5   2    0.10    0.27
   0   6  -2   29.79    1.17
   0   6   2   32.40    1.35
   0   6   2   29.85    1.23
   0   6  -2   28.34    1.13
   0   7   2   -0.09    0.24
   0   7  -2   -0.01    0.27
   0   7   2    0.43    0.29
   0   7  -2    0.02    0.24
   0   8  -2    0.47    0.26
   0   8  -2    0.10    0.31
   0   8   2    0.08    0.30
   0   9   2    0.12    0.29
   0   9  -2   -0.01    0.32
   0   9   2   -0.07    0.31
   0   9  -2   -0.16    0.28
   0  10   2    4.92    0.62
   0  10  -2    4.11    0.58
   0  10  -2    3.23    0.53
   0  10   2    4.91    0.65
   0  11   2    0.31    0.36
   0  11  -2   -0.03    0.41
   0  11  -2    0.24    0.35
   0  11   2    0.18    0.36
   0  12   2    0.08    0.41
   0  12  -2    1.32    0.50
   0  12  -2    0.10    0.36
   0  12   2    0.68    0.39
   0  13  -2    0.36    0.41
   0  13  -2    0.01    0.51
   0  13   2   -0.20    0.43
   0  13   2    0.28    0.46
   0  14  -2    0.89    0.43
   0  14  -2    0.98    0.60
   0  14   2    1.80    0.50
   0  14   2    1.21    0.52
   0  15   2    0.00    0.54
   0  15   2   -0.16    0.55
   0  15  -2    0.06    0.48
   0  15  -2   -0.13    0.70
   0  16   2    2.44    0.66
   0  16  -2    0.82    0.80
   0  16  -2    0.18    0.54
   0  17   2   -0.21    0.68
   0  17  -2    0.10    0.60
   0  17  -2    0.00    0.90
   0  18   2   63.59    3.09
   0  18  -2   64.00    2.87
   0  18  -2   67.37    3.27
   0  19  -2    0.38    1.19
   0  19   2   -0.19    0.95
   0  19  -2   -0.46    0.79
   0  20   2    0.59    1.14
   0  20  -2    0.06    1.40
   0  21  -2   -0.86    1.65
   0  21   2   -0.46    1.21
   0  22  -2   18.25    2.01
   1   0   2   -0.15    0.20
   1  -1   2    0.15    0.20
   1   1  -2    0.02    0.25
  -1   1  -2    0.20    0.20
   1   1   2    0.10    0.22
   1  -2   2    0.01    0.19
  -1   2   2    0.07    0.16
   1   2  -2    0.23    0.24
  -1   2  -2    0.05    0.18
   1   2   2    0.17    0.22
   1  -3   2    0.16    0.17
   1   3  -2    0.06    0.23
   1   3   2   -0.02    0.09
  -1   3   2    0.09    0.17
  -1   3  -2   -0.01    0.18
   1   3   2   -0.05    0.23
   1   4  -2    0.02    0.17
   1  -4   2   -0.02    0.16
   1   4   2    0.02    0.23
  -1   4   2    0.07    0.20
  -1   4  -2   -0.04    0.18
   1   4   2    0.18    0.23
   1   4  -2   -0.03    0.22
   1   4   2    0.02    0.07
   1  -5   2    0.14    0.16
  -1   5   2    0.02    0.33
  -1   5   2    0.24    0.22
   1   5   2    0.03    0.08
  -1   5  -2    0.21    0.20
   1   5  -2    0.10    0.22
   1   5   2    0.02    0.25
   1   5  -2    0.06    0.19
   1   5   2    0.20    0.25
   1  -6   2   -0.01    0.15
  -1   6  -2   -0.03    0.20
  -1   6  -2    0.02    0.29
  -1   6   2    0.18    0.28
   1   6   2    0.21    0.27
   1   6  -2   -0.08    0.23
  -1   6   2   -0.07    0.24
   1   6  -2   -0.17    0.21
   1   6   2   -0.03    0.27
  -1   7  -2    0.10    0.31
  -1   7   2    0.10    0.31
   1  -7   2    0.01    0.14
  -1   7  -2    0.10    0.24
   1   7  -2   -0.01    0.23
   1   7   2    0.02    0.27
  -1   7   2    0.23    0.25
   1  -7  -2    0.03    0.08
   1   7  -2    0.05    0.23
   1   7   2    0.04    0.25
   1   8   2   -0.14    0.29
   1   8  -2    0.05    0.27
  -1   8   2   -0.21    0.29
   1   8  -2    0.03    0.26
  -1   8  -2    0.09    0.34
  -1   8  -2   -0.16    0.25
   1  -8   2    0.09    0.11
  -1   8   2   -0.16    0.34
   1   8   2   -0.23    0.29
  -1   9   2    0.04    0.33
   1   9  -2    0.05    0.30
   1   9  -2    0.17    0.28
  -1   9  -2    0.10    0.35
   1   9   2    0.05    0.36
  -1   9  -2   -0.08    0.29
   1   9   2    0.04    0.31
  -1   9   2   -0.22    0.35
   1  10   2    0.00    0.36
  -1  10  -2   -0.10    0.40
  -1  10   2    0.15    0.35
   1  10  -2    0.16    0.35
   1  10   2    0.28    0.34
  -1  10  -2    0.12    0.29
   1  10  -2    0.00    0.30
  -1  10   2   -0.29    0.38
   1  11   2   -0.20    0.37
  -1  11   2    0.19    0.38
  -1  11  -2    0.06    0.32
  -1  11  -2    0.01    0.44
   1  11   2   -0.07    0.34
   1  11  -2   -0.02    0.35
  -1  11   2   -0.13    0.39
   1  11  -2    0.29    0.42
   1  12  -2    0.44    0.48
   1  12   2    0.11    0.43
  -1  12   2    0.13    0.41
   1  12  -2    0.09    0.34
  -1  12  -2   -0.17    0.45
   1  12   2    0.27    0.38
  -1  12   2    0.10    0.41
  -1  12  -2    0.08    0.35
  -1  13   2    0.17    0.42
   1  13  -2    0.07    0.39
   1  13  -2    0.10    0.55
   1  13   2   -0.07    0.48
  -1  13  -2    0.02    0.39
  -1  13  -2    0.02    0.52
   1  13   2   -0.13    0.43
  -1  13   2   -0.38    0.44
   1  14  -2   -0.08    0.43
  -1  14   2    0.53    0.51
  -1  14  -2    0.03    0.43
   1  14  -2    0.31    0.61
  -1  14  -2   -0.14    0.61
   1  14   2   -0.12    0.50
   1  14   2    0.26    0.54
  -1  14   2   -0.01    0.49
   1  15  -2   -0.20    0.68
  -1  15   2   -0.10    0.57
   1  15  -2    0.29    0.49
  -1  15  -2    0.03    0.68
  -1  15  -2    0.15    0.49
   1  15   2    0.19    0.53
   1  15   2   -0.04    0.55
  -1  16   2   -0.08    0.62
  -1  16  -2   -0.33    0.81
  -1  16  -2    0.29    0.54
   1  16  -2   -0.06    0.55
   1  16  -2    0.15    0.75
   1  16   2   -0.88    0.67
   1  17   2    0.32    0.74
   1  17  -2   -0.01    0.64
  -1  17  -2   -0.08    0.92
   1  17  -2   -0.35    0.88
  -1  17   2   -0.21    0.71
  -1  17  -2   -0.39    0.64
   1  18  -2   -0.10    0.72
   1  18   2   -0.59    0.79
  -1  18  -2    0.05    0.70
   1  18  -2   -1.06    1.01
  -1  18  -2    0.02    1.08
  -1  18   2   -0.37    0.85
   1  19   2    0.54    0.94
   1  19  -2   -0.26    0.80
  -1  19   2   -0.38    0.95
   1  19  -2    1.17    1.21
  -1  19  -2   -0.44    1.23
  -1  20   2   -0.31    1.09
   1  20  -2   -0.02    1.34
   1  20  -2    0.29    0.91
   1  20   2   -0.35    1.09
  -1  20  -2    0.01    1.38
  -1  21   2    0.05    1.21
   1  21  -2   -0.13    1.63
  -1  21  -2    0.17    1.66
   1  21   2    0.92    1.31
  -1  22  -2   -0.72    1.97
   2   0  -2   54.93    1.27
   2   0   2   55.71    1.40
  -2   1  -2    0.19    0.15
   2  -1  -2    0.15    0.15
   2   1  -2    0.14    0.19
   2   1  -2    0.16    0.27
  -2   1   2    0.03    0.11
   2   1   2    0.18    0.22
   2  -1   2    0.15    0.18
   2   2  -2  718.28   21.22
  -2   2   2  679.31   15.31
   2  -2  -2  681.41   15.13
   2  -2   2  671.29   17.39
   2   2   2  709.42   17.15
  -2   2  -2  668.11   16.43
   2   2   2  712.94    5.35
   2   2  -2  704.67    5.77
   2   3  -2    0.08    0.23
   2  -3  -2    0.06    0.12
  -2   3   2    0.05    0.15
   2   3   2   -0.06    0.15
   2   3  -2    0.17    0.27
   2   3  -2    0.01    0.08
  -2   3  -2   -0.03    0.15
   2   3   2   -0.02    0.22
   2  -3   2    0.12    0.15
   2  -4  -2  283.21    2.12
   2   4   2  290.48    2.50
  -2   4   2  289.31    3.14
   2   4  -2  284.08    2.13
   2   4  -2  288.54    3.69
   2   4   2  289.98    3.67
   2  -4   2  286.44    2.50
  -2   4  -2  281.27    2.90
  -2   5  -2    0.06    0.17
   2   5   2    0.03    0.15
   2   5  -2   -0.09    0.17
   2   5   2    0.11    0.26
  -2   5   2    0.12    0.20
   2   5  -2   -0.01    0.24
   2  -5   2    0.18    0.14
   2  -5  -2    0.11    0.11
   2   5   2    0.18    0.27
   2  -6  -2  151.62    1.54
   2   6  -2  155.35    2.15
   2   6   2  160.53    1.87
  -2   6  -2  152.92    2.43
   2   6  -2  152.18    2.79
   2   6   2  150.78    2.84
   2  -6   2  152.73    1.47
  -2   6   2  156.77    2.72
   2   6   2  156.83    2.99
  -2   7  -2    0.21    0.33
  -2   7   2    0.31    0.34
   2   7  -2    0.05    0.27
  -2   7   2    0.02    0.27
   2  -7  -2    0.16    0.14
   2   7  -2    0.13    0.24
   2  -7   2    0.06    0.08
   2   7   2    0.19    0.27
  -2   7  -2   -0.02    0.21
   2   7   2    0.23    0.32
   2   7   2   -0.05    0.19
  -2   8  -2    4.13    0.62
   2   8  -2    5.67    0.53
  -2   8   2    4.36    0.65
  -2   8   2    5.01    0.58
   2   8   2    3.28    0.54
   2  -8  -2    3.66    0.30
  -2   8  -2    2.86    0.40
   2   8   2    2.70    0.47
   2   8  -2    2.17    0.40
  -2   9   2    0.29    0.37
   2   9   2    0.49    0.31
  -2   9   2   -0.03    0.33
   2   9  -2    0.17    0.30
  -2   9  -2    0.12    0.25
   2   9   2    0.05    0.31
   2   9  -2    0.15    0.31
  -2   9  -2    0.00    0.39
   2  10   2  277.87    4.28
  -2  10  -2  273.44    4.93
   2  10   2  283.41    4.84
  -2  10   2  271.06    4.53
  -2  10  -2  280.60    4.13
   2  10  -2  279.48    4.08
   2  10  -2  277.89    4.42
  -2  10   2  275.90    4.54
  -2  11   2    0.02    0.40
   2  11  -2    0.16    0.41
  -2  11  -2    0.00    0.33
   2  11   2    0.17    0.36
   2  11   2    0.15    0.39
  -2  11  -2   -0.10    0.49
   2  11  -2   -0.10    0.37
  -2  11   2    0.22    0.45
   2  12   2  226.84    4.71
   2  12   2  229.22    4.10
   2  12  -2  235.98    4.22
  -2  12  -2  230.66    4.12
  -2  12   2  224.47    4.12
  -2  12   2  229.57    4.57
  -2  12  -2  217.68    4.73
   2  12  -2  224.68    4.32
  -2  13  -2    0.53    0.39
   2  13   2   -0.16    0.50
  -2  13   2    0.30    0.49
   2  13   2   -0.25    0.44
   2  13  -2    0.13    0.54
   2  13  -2    0.13    0.44
  -2  13  -2   -0.03    0.56
  -2  13   2    0.14    0.52
   2  14   2  256.14    5.42
  -2  14   2  264.15    5.35
   2  14  -2  260.32    5.05
   2  14  -2  260.27    4.99
   2  14   2  258.43    4.53
  -2  14   2  257.45    4.43
  -2  14  -2  256.89    4.77
  -2  14  -2  253.02    5.51
   2  15   2   -0.23    0.58
  -2  15   2    0.32    0.60
   2  15  -2   -0.29    0.65
   2  15  -2   -0.10    0.52
  -2  15  -2   -0.12    0.50
  -2  15  -2    0.09    0.70
   2  15   2   -0.03    0.51
  -2  16   2    2.29    0.64
  -2  16  -2    0.73    0.56
   2  16  -2    0.26    0.75
   2  16  -2    2.55    0.68
   2  16   2    2.46    0.73
  -2  16  -2    0.82    0.80
   2  16   2    1.54    0.63
  -2  17  -2   -0.43    0.97
  -2  17   2   -0.54    0.78
   2  17   2    0.47    0.75
   2  17  -2   -0.01    0.87
   2  17  -2    0.13    0.64
  -2  17  -2   -0.20    0.64
   2  18   2   47.17    2.69
  -2  18   2   50.08    2.78
   2  18  -2   51.55    2.69
  -2  18  -2   46.73    2.96
   2  18  -2   43.57    2.44
  -2  19   2    0.31    1.02
   2  19  -2    0.05    1.20
   2  19  -2   -0.36    0.85
  -2  19  -2    0.79    1.22
   2  19   2    0.21    0.97
  -2  20   2   34.01    2.53
   2  20  -2   33.48    2.31
   2  20   2   36.39    2.58
  -2  20  -2   40.63    2.95
  -2  21   2    0.08    1.24
   2  21   2    0.72    1.27
   2  21  -2    0.47    1.08
  -2  21  -2    2.94    1.70
  -2  22  -2   52.83    3.58
  -3   0  -2    0.04    0.15
  -3   0   2    0.05    0.07
   3   0   2    0.02    0.20
   3   0  -2   -0.08    0.18
  -3   1  -2    0.05    0.14
   3   1  -2    0.02    0.20
  -3   1   2    0.06    0.12
   3  -1   2    0.04    0.19
   3   1   2    0.01    0.21
   3   1  -2    0.16    0.24
   3  -1  -2    0.29    0.16
   3  -2  -2   -0.02    0.16
   3   2  -2    0.04    0.23
   3   2  -2    0.07    0.23
  -3   2   2    0.13    0.15
  -3   2  -2    0.03    0.14
   3   2   2    0.07    0.19
   3  -2   2   -0.10    0.16
   3   2   2   -0.07    0.23
   3   3  -2    0.19    0.21
   3  -3  -2    0.06    0.16
  -3   3  -2    0.04    0.15
   3   3   2    0.06    0.19
  -3   3   2    0.02    0.17
   3   3  -2    0.00    0.29
   3  -3   2    0.08    0.16
   3   3   2   -0.01    0.24
   3   4  -2   -0.04    0.26
   3   4  -2   -0.09    0.09
   3   4   2   -0.06    0.20
   3  -4  -2    0.02    0.15
  -3   4   2    0.05    0.21
   3  -4   2   -0.12    0.15
   3   4   2    0.01    0.22
   3   4  -2   -0.12    0.26
  -3   4  -2    0.03    0.16
  -3   5   2    0.14    0.23
   3  -5   2    0.01    0.15
   3   5  -2   -0.01    0.15
   3   5   2   -0.13    0.20
   3  -5  -2   -0.04    0.16
   3   5  -2   -0.11    0.27
   3   5  -2    0.07    0.25
   3   5   2    0.08    0.25
  -3   5  -2    0.06    0.17
   3  -6  -2    0.03    0.17
   3   6  -2   -0.06    0.27
   3   6  -2    0.05    0.20
   3   6   2    0.07    0.21
  -3   6   2   -0.06    0.25
   3  -6   2    0.04    0.13
   3   6   2    0.06    0.25
  -3   6  -2   -0.13    0.20
   3   6  -2    0.01    0.29
   3  -7  -2    0.00    0.19
   3   7   2    0.04    0.23
   3   7   2    0.11    0.31
   3   7  -2    0.04    0.25
   3   7  -2    0.03    0.24
  -3   7   2   -0.04    0.27
   3  -7   2    0.04    0.09
  -3   7  -2    0.09    0.21
   3   7   2   -0.01    0.27
  -3   8  -2    0.02    0.39
   3   8   2   -0.04    0.37
   3   8  -2    0.02    0.30
   3  -8  -2   -0.14    0.21
   3   8  -2   -0.18    0.29
  -3   8   2   -0.04    0.29
  -3   8  -2    0.12    0.26
   3   8   2    0.34    0.28
   3   8   2    0.10    0.24
  -3   9  -2    0.08    0.47
  -3   9   2    0.15    0.46
   3   9  -2   -0.12    0.30
   3   9  -2    0.11    0.32
   3   9   2   -0.10    0.28
   3   9   2    0.07    0.40
   3  -9  -2    0.01    0.24
  -3   9   2    0.00    0.34
   3   9   2    0.05    0.31
  -3   9  -2   -0.14    0.27
   3  10  -2    0.13    0.31
  -3  10   2    0.15    0.49
   3 -10  -2   -0.13    0.27
   3  10  -2   -0.20    0.36
  -3  10   2    0.09    0.36
  -3  10  -2    0.00    0.30
   3  10   2   -0.04    0.41
   3  10   2   -0.21    0.34
  -3  10  -2    0.05    0.45
  -3  11   2    0.00    0.50
  -3  11   2   -0.23    0.42
   3  11  -2   -0.04    0.42
  -3  11  -2    0.13    0.31
   3  11   2   -0.35    0.44
   3  11   2   -0.14    0.38
  -3  11  -2   -0.30    0.48
   3  11  -2    0.26    0.40
   3  12  -2    0.10    0.39
  -3  12  -2    0.08    0.51
   3  12  -2   -0.25    0.47
  -3  12  -2    0.18    0.37
  -3  12   2   -0.01    0.47
   3  12   2   -0.04    0.41
   3  12   2    0.08    0.45
  -3  12   2    0.38    0.52
   3  13   2   -0.28    0.53
  -3  13  -2   -0.04    0.41
   3  13  -2   -0.17    0.54
   3  13   2    0.28    0.46
   3  13  -2   -0.19    0.47
  -3  13  -2   -0.01    0.64
  -3  13   2    0.26    0.48
  -3  13   2    0.04    0.60
   3  14   2   -0.07    0.58
  -3  14  -2    0.25    0.47
   3  14  -2   -0.26    0.58
  -3  14   2    0.19    0.58
   3  14   2   -0.02    0.50
   3  14  -2    0.29    0.49
  -3  14  -2    0.27    0.66
   3  15  -2    0.11    0.54
  -3  15  -2    0.09    0.52
   3  15  -2   -0.23    0.72
  -3  15   2   -0.40    0.59
   3  15   2   -0.11    0.54
  -3  15  -2    0.03    0.74
   3  15   2   -0.29    0.68
   3  16  -2    0.36    0.60
   3  16  -2    0.25    0.77
   3  16   2    0.14    0.64
  -3  16  -2    0.00    0.88
   3  16   2    0.23    0.73
  -3  16   2   -0.20    0.71
   3  17  -2    0.18    0.91
  -3  17   2    0.55    0.79
   3  17  -2   -0.35    0.68
  -3  17  -2   -0.23    0.91
   3  17   2   -0.66    0.80
   3  18   2    0.24    0.88
  -3  18   2    0.29    0.86
   3  18  -2    0.27    0.77
  -3  18  -2   -0.10    1.16
   3  19   2    0.79    1.05
  -3  19   2    0.38    1.02
   3  19  -2   -0.26    0.89
  -3  19  -2   -0.18    1.24
   3  20   2   -0.31    1.18
  -3  20   2   -0.15    1.17
   3  20  -2   -0.30    1.00
  -3  20  -2   -0.08    1.51
   3  21   2    0.15    1.38
  -3  21   2   -1.18    1.40
  -3  21  -2   -0.03    1.84
   3  21  -2    0.26    1.19
  -4   0  -2    0.21    0.12
  -4   0   2    0.54    0.10
   4   0  -2   -0.10    0.21
   4   0   2    0.07    0.20
   4   1  -2    0.09    0.23
  -4   1  -2    0.22    0.11
   4   1   2    0.07    0.22
   4   1   2    0.36    0.26
   4  -1  -2    0.34    0.22
  -4   1   2    0.09    0.14
   4   1  -2    0.42    0.32
   4  -1   2    0.23    0.19
   4  -2  -2   17.87    0.84
  -4   2   2   20.35    0.71
  -4   2  -2   18.13    0.53
   4   2  -2   17.93    1.05
   4   2   2   18.30    0.95
   4   2   2   19.20    0.97
   4   2  -2   19.23    1.02
   4  -3  -2    0.06    0.19
   4   3  -2    0.12    0.29
   4   3   2   -0.01    0.26
  -4   3   2    0.10    0.19
   4  -3   2    0.15    0.18
   4   3  -2    0.08    0.27
   4   3   2    0.04    0.24
  -4   3  -2   -0.05    0.15
   4   4   2   54.85    1.74
   4   4   2   54.83    1.58
   4   4  -2   59.83    1.86
   4  -4   2   57.79    1.26
   4  -4  -2   54.37    1.39
  -4   4  -2   56.52    1.16
  -4   4   2   57.81    1.47
   4   4  -2   56.45    1.87
   4   5  -2    0.33    0.31
   4   5   2    0.21    0.24
   4  -5  -2    0.04    0.20
  -4   5   2    0.08    0.24
   4  -5   2   -0.04    0.17
  -4   5  -2   -0.03    0.18
   4   5   2    0.04    0.28
   4   5  -2    0.09    0.30
   4   6  -2   76.57    1.31
  -4   6  -2   75.50    1.63
  -4   6   2   76.48    1.97
   4  -6  -2   76.98    1.67
   4   6  -2   77.00    2.17
   4   6  -2   77.84    2.40
   4  -6   2   74.66    1.21
   4   6   2   75.19    2.15
   4   6   2   77.72    1.93
   4   7  -2   -0.17    0.36
  -4   7   2    0.20    0.30
   4   7  -2    0.16    0.26
   4  -7  -2    0.17    0.24
   4   7   2   -0.10    0.28
  -4   7  -2    0.08    0.23
   4   7   2    0.34    0.32
   4   7  -2    0.35    0.29
   4   8  -2    7.95    0.76
  -4   8  -2    9.11    0.67
   4   8  -2   10.09    0.66
   4  -8  -2    9.57    0.65
  -4   8   2   11.83    0.91
   4   8  -2   11.03    0.99
   4   8   2   10.35    0.88
   4   8   2   14.03    0.87
   4   9   2    0.24    0.33
  -4   9  -2    0.19    0.48
   4   9  -2    0.13    0.34
   4   9  -2    0.20    0.35
   4  -9  -2    0.01    0.28
  -4   9  -2    0.04    0.29
  -4   9   2   -0.03    0.36
   4   9   2    0.04    0.34
   4  10   2   74.68    2.65
  -4  10  -2   72.35    2.06
   4  10  -2   75.52    2.02
   4  10  -2   71.80    2.36
  -4  10   2   73.03    2.45
   4  10   2   71.37    2.01
   4  10   2   75.57    2.40
  -4  10  -2   80.48    2.92
   4 -10  -2   72.89    1.82
  -4  11   2   -0.60    0.59
   4  11  -2    0.09    0.43
   4  11   2    0.05    0.47
   4  11  -2    0.08    0.46
  -4  11  -2    0.01    0.35
  -4  11   2    0.21    0.42
   4  11   2    0.08    0.40
   4  11   2    0.16    0.41
  -4  11  -2   -0.03    0.50
  -4  12   2    0.05    0.64
   4  12  -2   -0.16    0.50
  -4  12  -2    0.14    0.42
  -4  12   2    1.04    0.46
   4  12   2    0.23    0.43
   4  12  -2    0.28    0.43
  -4  12  -2    0.22    0.56
   4  12   2    1.06    0.53
   4  13   2   -0.28    0.61
   4  13  -2   -0.30    0.55
  -4  13  -2    0.05    0.68
  -4  13   2   -0.10    0.55
   4  13   2    0.00    0.47
   4  13  -2    0.14    0.47
  -4  13  -2    0.23    0.43
  -4  13   2   -0.45    0.66
  -4  14   2   52.62    2.49
  -4  14  -2   51.07    2.70
   4  14   2   48.92    2.15
   4  14  -2   52.06    2.37
   4  14  -2   54.15    2.20
   4  14   2   57.06    2.71
  -4  15   2   -0.65    0.63
   4  15  -2   -0.47    0.58
   4  15   2    0.22    0.58
   4  15   2   -0.19    0.68
  -4  15  -2   -0.39    0.78
   4  16   2   24.67    1.96
  -4  16   2   25.66    1.95
   4  16  -2   24.13    1.78
   4  16   2   22.73    1.54
  -4  16  -2   23.17    1.99
  -4  17  -2    0.03    1.03
  -4  17   2    0.08    0.86
   4  17  -2   -0.14    0.75
   4  17   2    0.55    0.79
   4  17   2    0.57    0.89
   4  18   2    3.86    0.99
  -4  18   2    6.26    1.08
   4  18  -2    4.04    0.95
  -4  18  -2    2.89    1.14
  -4  19  -2    0.18    1.37
   4  19   2   -0.08    1.11
   4  19  -2   -0.32    0.96
  -4  19   2   -0.94    1.15
   4  20   2    0.46    1.28
   4  20  -2    0.44    1.09
  -4  20   2    1.77    1.28
  -4  20  -2   -0.25    1.54
   4  21   2    1.12    1.54
   4  21  -2   -0.26    1.27
  -4  21   2   -0.62    1.49
  -4  21  -2   -0.28    1.82
   5   0   2    0.13    0.29
   5   0  -2   -0.04    0.24
   5   0   2    0.04    0.26
  -5   0   2    0.06    0.14
   5   1  -2    0.09    0.33
   5   1  -2   -0.12    0.27
   5   1   2    0.00    0.31
   5  -1   2    0.08    0.31
   5  -1   2    0.04    0.23
   5   1   2   -0.06    0.25
  -5   1   2    0.00    0.17
  -5  -1   2    0.10    0.10
   5  -1  -2    0.03    0.23
  -5   2   2    0.01    0.20
   5   2  -2    0.04    0.30
   5  -2  -2   -0.02    0.22
  -5   2  -2    0.07    0.10
   5   2  -2   -0.01    0.26
   5   2   2    0.04    0.26
   5   2   2   -0.09    0.29
   5  -2   2   -0.08    0.20
   5   3  -2    0.11    0.32
   5   3  -2    0.12    0.32
   5   3   2    0.07    0.28
  -5   3  -2    0.03    0.14
   5  -3   2   -0.11    0.21
   5   3   2    0.00    0.25
   5  -3  -2    0.11    0.22
  -5   3   2    0.05    0.22
   5   4  -2    0.02    0.31
   5   4   2   -0.11    0.27
  -5   4  -2    0.01    0.18
   5  -4  -2    0.02    0.22
   5  -4   2    0.04    0.19
  -5   4   2   -0.13    0.25
   5   4   2   -0.07    0.29
   5   4  -2    0.04    0.32
   5   5  -2    0.11    0.31
   5   5   2    0.05    0.30
   5  -5  -2    0.06    0.24
  -5   5  -2    0.07    0.21
   5  -5   2    0.09    0.21
  -5   5   2    0.03    0.28
   5   5  -2   -0.05    0.31
   5   5   2    0.00    0.29
  -5   6   2    0.28    0.31
   5  -6  -2    0.12    0.26
   5   6  -2   -0.29    0.38
  -5   6  -2    0.30    0.22
   5   6  -2   -0.05    0.33
   5  -6   2    0.13    0.20
   5   6   2   -0.05    0.28
   5   6   2   -0.01    0.32
   5   7   2   -0.07    0.33
   5   7  -2    0.09    0.38
   5  -7  -2   -0.04    0.29
   5   7  -2    0.42    0.34
  -5   7  -2    0.07    0.25
   5   7   2    0.06    0.33
  -5   7   2    0.18    0.33
   5   8  -2    0.35    0.34
   5  -8  -2    0.09    0.29
  -5   8  -2   -0.02    0.28
  -5   8   2   -0.15    0.36
   5   8   2   -0.15    0.33
   5   8  -2    0.21    0.37
   5   8   2    0.26    0.35
  -5   9  -2   -0.04    0.31
  -5   9  -2    0.15    0.49
   5   9  -2   -0.04    0.38
   5   9  -2   -0.09    0.45
   5   9  -2   -0.04    0.37
   5   9   2    0.02    0.37
   5  -9  -2    0.04    0.34
   5   9   2   -0.06    0.38
  -5   9   2    0.05    0.39
  -5  10  -2    0.07    0.51
   5  10  -2    0.03    0.40
   5  10  -2   -0.11    0.43
   5 -10  -2   -0.12    0.36
  -5  10   2   -0.01    0.45
   5  10   2   -0.02    0.39
   5  10   2    0.39    0.44
   5  11   2   -0.08    0.48
  -5  11   2    0.14    0.50
   5  11   2   -0.01    0.41
   5  11  -2    0.19    0.45
  -5  11  -2    0.19    0.55
  -5  12   2   -0.37    0.73
  -5  12   2   -0.12    0.54
   5  12   2    0.32    0.46
   5  12   2    0.05    0.52
   5  12  -2    0.50    0.47
  -5  12  -2    0.02    0.62
   5  13   2   -0.21    0.50
  -5  13   2   -0.62    0.62
   5  13  -2    0.17    0.51
  -5  13  -2    0.29    0.67
   5  14   2    0.14    0.73
  -5  14   2    0.51    0.67
   5  14   2   -0.41    0.56
   5  14  -2    0.12    0.58
  -5  14  -2    0.18    0.80
  -5  15   2    0.49    0.76
   5  15   2   -0.27    0.64
   5  15  -2    0.48    0.63
  -5  15  -2   -0.42    0.86
   5  15   2   -0.43    0.79
   5  16   2    0.20    0.72
   5  16   2   -0.39    0.84
  -5  16   2    0.15    0.86
   5  16  -2   -0.17    0.72
  -5  16  -2   -0.22    0.98
   5  17   2    0.08    0.97
  -5  17   2    0.03    0.97
   5  17  -2    0.32    0.82
   5  17   2    0.57    0.82
  -5  17  -2    0.39    1.01
  -5  18   2    0.70    1.08
   5  18  -2   -0.38    0.94
   5  18   2    0.23    1.07
  -5  18  -2   -0.99    1.18
   5  19  -2    0.28    1.02
  -5  19   2   -0.34    1.20
  -5  19  -2   -0.33    1.41
   5  19   2   -0.08    1.20
  -5  20  -2   -0.03    1.64
   5  20   2    0.23    1.43
   5  20  -2   -0.23    1.16
  -5  20   2   -0.83    1.32
   6   0  -2  994.48    7.93
   6   0  -2  965.64    8.49
   6   0   2  988.43    7.25
   6   0   2 1000.00    8.74
  -6   0   2  976.61    4.66
   6   1   2   -0.23    0.37
   6  -1   2    0.01    0.34
   6   1  -2   -0.06    0.39
   6  -1   2    0.27    0.25
   6   1   2    0.25    0.27
  -6   1   2   -0.05    0.22
   6  -1  -2    0.06    0.28
  -6  -1   2   -0.03    0.18
   6   1  -2    0.10    0.30
   6   2  -2   21.36    1.26
   6   2  -2   19.81    1.21
   6  -2   2   21.86    1.02
   6  -2   2   21.82    1.37
   6   2   2   21.29    1.14
  -6   2   2   21.48    0.85
   6  -2  -2   20.30    1.10
   6   2   2   23.60    1.33
   6  -3  -2    0.00    0.28
   6   3  -2   -0.31    0.35
   6  -3   2    0.18    0.25
   6   3   2   -0.17    0.31
   6   3   2    0.31    0.33
  -6   3   2   -0.08    0.27
   6   3  -2   -0.09    0.31
  -6   4   2   79.86    1.87
   6   4   2   78.06    2.36
   6   4  -2   82.21    2.57
   6   4   2   78.44    2.28
   6  -4  -2   79.01    2.11
   6   4  -2   72.73    2.22
   6  -4   2   78.10    1.78
   6   5  -2   -0.28    0.35
   6  -5  -2   -0.01    0.29
   6  -5   2   -0.04    0.24
   6   5   2   -0.05    0.33
  -6   5   2    0.03    0.31
   6   5  -2   -0.33    0.34
   6   5   2    0.02    0.37
   6   6  -2   13.63    1.01
   6   6  -2   16.05    1.23
   6   6   2   12.23    0.97
   6  -6  -2   13.72    0.91
   6   6   2   15.37    1.09
  -6   6   2   14.24    0.94
   6  -7  -2    0.16    0.33
   6   7  -2    0.04    0.39
   6   7   2    0.05    0.35
  -6   7   2   -0.03    0.39
   6   7   2    0.03    0.38
   6   7  -2   -0.05    0.41
   6   8  -2  304.71    5.60
   6  -8  -2  309.37    4.37
   6   8   2  309.44    5.01
   6   8  -2  301.20    4.77
  -6   8   2  315.40    4.75
   6   9  -2    0.23    0.48
  -6   9   2    0.35    0.45
   6   9   2    0.03    0.37
   6  -9  -2    0.18    0.40
   6   9  -2    0.07    0.44
   6   9   2    0.16    0.45
   6  10  -2   12.21    1.26
  -6  10   2   14.85    1.21
   6 -10  -2   13.72    0.98
   6  10   2   13.96    1.12
   6  10   2   11.88    1.08
   6  10  -2   12.55    1.08
  -6  10  -2   11.30    1.25
   6  11   2    0.22    0.52
   6  11  -2   -0.07    0.55
   6  11   2    0.20    0.45
   6  11  -2    0.04    0.48
  -6  11  -2    0.44    0.59
  -6  11   2    0.24    0.55
   6  12  -2  151.48    3.92
  -6  12  -2  153.74    4.62
   6  12   2  158.80    3.96
  -6  12   2  168.26    4.28
   6  12   2  155.08    3.75
  -6  13   2   -0.60    0.66
   6  13  -2    0.17    0.61
   6  13   2   -0.02    0.55
  -6  13  -2    0.07    0.75
   6  14   2    8.12    1.03
  -6  14   2    9.54    1.17
   6  14  -2    7.58    0.98
  -6  14  -2    7.62    1.19
  -6  15   2    0.24    0.82
   6  15   2    0.04    0.71
   6  15  -2    0.40    0.72
  -6  15  -2   -0.08    0.88
  -6  16  -2  213.92    6.15
   6  16   2  204.31    4.92
  -6  16   2  216.16    5.65
   6  16  -2  210.10    5.31
  -6  17   2   -0.42    1.00
   6  17  -2   -0.08    0.90
   6  17   2    0.07    0.89
  -6  17  -2    1.24    1.13
   6  18   2    3.52    1.07
  -6  18  -2    5.30    1.35
   6  18  -2    4.35    1.06
  -6  18   2    7.02    1.20
   6  19  -2    0.44    1.13
  -6  19   2   -1.01    1.32
  -6  19  -2   -0.06    1.42
   6  20  -2    5.85    1.32
  -6  20   2    7.72    1.57
   7   0  -2    0.20    0.45
   7   0  -2   -0.09    0.36
   7   0   2   -0.03    0.42
   7   0   2    0.05    0.29
  -7   0   2    0.18    0.27
   7   1  -2    0.10    0.34
   7   1  -2    0.00    0.41
   7   1   2    0.03    0.31
   7  -1  -2    0.08    0.33
   7   1   2   -0.08    0.40
   7  -1   2   -0.14    0.42
   7  -1   2    0.09    0.30
  -7   1   2    0.01    0.29
   7   2  -2   -0.07    0.36
   7  -2  -2    0.10    0.32
   7   2   2   -0.04    0.41
   7  -2   2    0.08    0.39
   7  -2   2    0.02    0.29
   7   2  -2    0.19    0.40
   7   2   2    0.07    0.33
  -7   2   2   -0.15    0.31
   7  -3  -2   -0.09    0.31
   7  -3   2    0.37    0.39
   7  -3   2    0.04    0.29
   7   3   2    0.07    0.34
  -7   3   2    0.02    0.32
   7   3  -2    0.20    0.42
   7   3  -2    0.03    0.36
   7   3   2    0.23    0.40
   7  -4   2    0.04    0.28
   7  -4  -2    0.12    0.35
   7   4   2    0.08    0.39
   7  -4   2    0.21    0.44
   7   4  -2    0.14    0.39
   7   4   2    0.11    0.32
  -7   4   2    0.58    0.35
   7   4  -2   -0.15    0.38
   7   5   2   -0.05    0.36
   7   5   2    0.49    0.42
   7  -5  -2    0.00    0.36
   7   5  -2   -0.04    0.39
  -7   5   2    0.31    0.36
   7   5  -2    0.07    0.38
   7  -6  -2    0.18    0.38
   7   6  -2    0.00    0.41
   7   6   2    0.03    0.37
   7   6  -2    0.12    0.45
  -7   6   2   -0.11    0.39
   7   6   2    0.18    0.46
  -7   7   2   -0.03    0.44
   7   7   2    0.31    0.50
   7  -7  -2   -0.03    0.37
   7   7  -2   -0.28    0.43
   7   7   2    0.01    0.40
   7   7  -2    0.05    0.45
   7  -8  -2   -0.19    0.42
   7   8  -2    0.34    0.49
   7   8   2   -0.02    0.51
   7   8   2    0.21    0.41
  -7   8   2   -0.11    0.45
   7   8  -2    0.13    0.47
   7   9  -2    0.01    0.47
   7   9   2    0.01    0.56
   7   9  -2   -0.41    0.57
   7  -9  -2   -0.23    0.46
   7   9   2   -0.11    0.43
  -7   9   2    0.32    0.51
   7  10  -2   -0.19    0.52
  -7  10  -2   -0.36    0.66
   7  10   2    0.24    0.59
   7 -10  -2    0.22    0.50
  -7  10   2    0.51    0.55
   7  10  -2   -0.17    0.58
   7  10   2   -0.34    0.46
  -7  11  -2   -0.02    0.71
   7  11  -2   -0.40    0.62
   7  11   2    0.50    0.67
   7  11   2    0.01    0.50
  -7  11   2   -0.45    0.61
   7  11  -2    0.74    0.56
   7  12  -2    0.02    0.67
   7  12   2    0.01    0.73
   7  12   2    0.17    0.57
  -7  12   2   -0.11    0.68
   7  12  -2   -0.01    0.62
  -7  12  -2   -0.41    0.71
  -7  13   2   -0.04    0.75
   7  13   2    0.06    0.64
   7  13  -2    0.83    0.66
  -7  13  -2   -0.02    0.78
   7  14   2    0.05    0.71
   7  14  -2   -0.02    0.74
  -7  14  -2    0.03    0.92
  -7  14   2   -0.09    0.82
  -7  15   2    0.69    0.92
   7  15  -2    0.10    0.87
   7  15   2    0.60    0.79
  -7  15  -2    0.28    0.99
   7  16   2   -0.43    0.90
  -7  16   2   -0.02    1.07
   7  16  -2   -0.45    0.92
  -7  16  -2    0.02    1.11
  -7  17   2    0.23    1.10
   7  17  -2   -0.05    1.03
   7  17   2   -0.23    1.03
  -7  17  -2    0.32    1.21
   7  18  -2    0.26    1.14
  -7  18   2   -0.12    1.27
   7  18   2    0.31    1.23
  -7  18  -2    0.09    1.43
  -7  19   2    0.23    1.49
   7  19  -2   -0.50    1.37
  -7  19  -2    0.70    1.54
   8   0   2   -0.29    0.48
   8   0  -2    0.34    0.39
   8   0  -2    0.11    0.53
   8   0   2    0.09    0.36
   8  -1  -2   -0.03    0.38
   8   1   2    0.04    0.52
   8  -1   2   -0.17    0.45
   8   1  -2    0.16    0.40
   8   1   2   -0.08    0.36
   8  -1   2   -0.04    0.35
   8   1  -2   -0.17    0.52
   8  -1  -2    0.00    0.54
   8  -2  -2   17.24    1.23
   8   2  -2   12.59    1.12
   8   2   2   11.63    1.14
   8  -2   2   14.37    1.30
   8   2  -2   12.63    1.06
   8  -2   2   18.30    1.11
   8   2   2   12.87    1.04
   8   3   2    0.16    0.38
   8   3  -2    0.15    0.43
   8  -3  -2   -0.08    0.37
   8   3   2    0.24    0.47
   8  -3   2    0.13    0.49
   8  -3   2   -0.05    0.34
   8   3  -2   -0.16    0.45
  -8   3   2    0.08    0.38
   8   4  -2   28.39    1.74
   8  -4  -2   25.79    1.46
   8   4   2   25.70    1.63
   8   4  -2   24.64    1.41
   8   4   2   28.11    1.57
   8  -4   2   28.40    1.81
  -8   4   2   27.19    1.26
   8   5  -2   -0.04    0.46
   8  -5  -2    0.44    0.42
   8  -5   2   -0.06    0.51
  -8   5   2   -0.04    0.44
   8   5   2    0.02    0.52
   8   5   2   -0.01    0.38
   8   5  -2   -0.17    0.47
   8   6  -2   42.52    2.22
   8   6   2   39.81    2.04
   8  -6  -2   46.39    1.98
   8  -6   2   37.66    2.16
  -8   6   2   40.06    1.66
   8   6  -2   37.76    1.77
   8   6   2   39.96    1.95
   8   7  -2    0.17    0.51
   8  -7  -2    0.09    0.46
   8   7  -2   -0.20    0.49
   8   7   2   -0.01    0.45
   8   7   2   -0.41    0.56
  -8   7   2    0.08    0.49
   8   8  -2    6.25    0.97
  -8   8   2    4.46    0.68
   8   8   2    5.15    0.82
   8  -8  -2    4.89    0.70
   8   8   2    5.29    0.80
   8   8  -2    5.44    0.77
   8   9  -2    0.22    0.62
   8   9   2   -0.34    0.61
   8  -9  -2    0.52    0.55
   8   9   2    0.18    0.49
  -8   9   2   -0.07    0.57
   8   9  -2    0.17    0.57
   8  10   2   38.81    2.15
   8 -10  -2   39.59    1.91
   8  10  -2   37.27    1.93
  -8  10  -2   37.82    2.37
  -8  10   2   39.77    2.01
   8  10   2   36.27    2.03
   8  10  -2   37.90    2.37
  -8  11  -2    0.04    0.79
   8  11  -2    0.00    0.69
   8  11   2    0.16    0.78
   8  11   2   -0.11    0.61
  -8  11   2    0.00    0.70
   8  11  -2    0.27    0.69
   8  12  -2    0.52    0.76
  -8  12   2    0.68    0.76
   8  12   2    0.91    0.81
   8  12  -2    0.02    0.68
   8  12   2   -0.20    0.68
  -8  12  -2    1.35    0.78
   8  13  -2    0.17    0.85
   8  13   2   -0.83    0.72
   8  13  -2    0.04    0.74
  -8  13  -2    0.00    0.89
  -8  13   2    0.26    0.83
   8  14  -2   30.31    2.04
  -8  14   2   30.00    2.11
   8  14   2   30.79    2.04
  -8  14  -2   29.32    2.34
  -8  15   2   -0.86    1.04
   8  15  -2    0.11    0.99
   8  15   2    0.41    0.89
  -8  15  -2   -0.08    1.08
   8  16   2   21.59    1.82
  -8  16   2   22.68    2.02
  -8  16  -2   25.74    2.32
  -8  17   2   -0.20    1.31
   8  17  -2    0.76    1.24
   8  17   2   -1.23    1.17
  -8  17  -2   -1.73    1.45
   8  18  -2    4.20    1.38
  -8  18   2    3.06    1.48
   8  18   2    2.91    1.37
  -8  18  -2    3.53    1.53
   8  19  -2    0.58    1.61
   9   0   2    0.01    0.41
   9   0   2   -0.22    0.57
   9   0  -2    0.01    0.60
   9   0  -2    0.00    0.48
   9   1   2    0.07    0.53
   9  -1   2    0.37    0.57
   9  -1   2    0.13    0.41
   9   1   2   -0.18    0.41
   9  -1  -2   -0.08    0.63
   9   1  -2   -0.26    0.60
   9  -1  -2    0.41    0.46
   9   1  -2    0.14    0.46
   9  -2  -2   -0.14    0.65
   9   2  -2    0.10    0.57
   9   2  -2   -0.07    0.47
   9   2   2   -0.10    0.56
   9  -2   2    0.22    0.55
   9   2   2    0.20    0.43
   9  -2  -2    0.05    0.45
   9   3   2   -0.45    0.54
   9  -3   2    0.44    0.63
   9  -3  -2   -0.43    0.48
   9   3   2    0.17    0.45
   9   3  -2    0.27    0.49
   9   3  -2    0.06    0.53
   9   4  -2   -0.03    0.52
   9  -4  -2    0.44    0.48
   9   4   2   -0.10    0.58
   9   4   2    0.27    0.45
   9  -4   2   -0.17    0.56
   9   4  -2   -0.21    0.56
   9   5  -2   -0.27    0.55
   9   5   2    0.21    0.59
   9  -5  -2   -0.03    0.50
   9  -5   2   -0.16    0.61
   9   5  -2    0.10    0.52
   9   5   2    0.16    0.46
   9   6   2   -0.04    0.62
   9   6  -2    0.47    0.54
   9  -6  -2    0.03    0.50
   9   6  -2    0.29    0.56
   9  -6   2   -0.32    0.62
   9   6   2    0.27    0.50
   9   7  -2   -0.52    0.61
   9   7  -2    0.26    0.60
   9  -7  -2    0.36    0.56
   9   7   2   -0.44    0.68
   9  -7   2    0.18    0.59
   9   7   2    0.39    0.53
  -9   7   2   -0.37    0.54
   9   8  -2   -0.44    0.62
   9   8   2   -0.31    0.73
   9  -8  -2    0.00    0.59
   9   8  -2    0.57    0.63
   9  -8   2    0.24    0.62
   9   8   2    0.01    0.57
  -9   8   2    0.09    0.60
   9   9  -2   -0.37    0.69
   9   9   2   -0.06    0.77
   9  -9  -2    0.07    0.68
   9  -9   2    0.18    0.66
   9   9   2   -0.03    0.59
  -9   9   2   -0.18    0.68
   9   9  -2    0.26    0.72
   9  10   2   -0.28    0.82
  -9  10  -2    0.12    0.78
   9  10  -2   -0.35    0.73
   9 -10  -2    0.44    0.66
   9 -10   2   -0.29    0.73
   9  10   2   -0.08    0.62
  -9  10   2   -0.26    0.72
   9  10  -2    0.46    0.72
  -9  11  -2    0.02    0.92
   9  11  -2   -0.15    0.82
   9  11   2    0.18    0.89
   9  11   2    0.25    0.67
  -9  11   2   -0.55    0.78
   9  11  -2    0.28    0.82
   9  12   2    0.16    0.78
  -9  12   2   -0.14    0.88
   9  12  -2    0.07    0.88
   9  12  -2    0.04    0.86
  -9  12  -2    0.03    0.97
   9  13  -2   -1.23    1.01
   9  13   2   -0.07    0.85
  -9  13   2    0.66    0.97
   9  13  -2    0.37    0.96
  -9  13  -2   -0.52    1.06
   9  14   2   -0.12    0.96
  -9  14   2   -0.07    1.08
   9  14  -2    0.24    1.10
  -9  14  -2    0.25    1.18
   9  15   2   -0.57    1.06
  -9  15   2   -0.16    1.24
   9  15  -2    0.37    1.11
  -9  15  -2   -0.42    1.31
   9  16  -2   -0.28    1.35
   9  16   2   -0.14    1.14
  -9  16   2   -0.78    1.35
  -9  16  -2    0.32    1.35
   9  17  -2    0.05    1.41
  -9  17   2    0.54    1.54
   9  17   2    0.61    1.35
  -9  17  -2   -0.68    1.60
   9  18   2   -0.01    1.62
  10   0   2   80.41    3.38
  10   0  -2   76.76    3.01
  10   1  -2    0.09    0.57
  10  -1  -2    0.23    0.57
  10   1   2    0.24    0.64
  10  -1   2   -0.08    0.66
  10   2   2  114.19    3.97
  10  -2   2  117.83    4.13
  10   2   2  115.49    3.41
  10   2  -2  116.78    3.79
  10  -2  -2  113.20    3.60
  10   3  -2    0.72    0.59
  10  -3  -2    0.05    0.56
  10   3   2    0.11    0.68
  10  -3   2   -0.02    0.65
  10   3   2   -0.09    0.53
  10   4  -2  195.08    5.06
  10  -4  -2  199.28    4.70
  10   4   2  195.21    5.17
  10  -4   2  187.32    5.25
  10   4   2  190.46    4.56
  10   5  -2    0.06    0.63
  10   5   2   -0.19    0.72
  10  -5  -2    0.28    0.61
  10  -5   2    0.04    0.67
  10   5   2   -0.01    0.55
  10  -6  -2   18.52    1.47
  10   6  -2   16.81    1.60
  10   6   2   18.89    1.66
  10  -6   2   18.09    1.70
  10   6   2   14.71    1.38
  10   7  -2   -0.04    0.69
  10   7   2   -0.42    0.83
  10  -7  -2    0.11    0.68
  10  -7   2    0.25    0.72
  10   7   2   -0.01    0.62
  10   8  -2   14.15    1.57
  10  -8  -2   14.04    1.33
  10   8   2   13.92    1.52
  10   8   2   17.29    1.53
  10  -8   2   15.02    1.63
  10   9  -2    0.42    0.78
  10   9   2    0.09    0.91
  10  -9   2    0.21    0.77
  10   9   2   -0.53    0.69
  10  -9  -2   -0.19    0.74
  10  10   2   63.04    3.16
  10 -10   2   64.40    3.26
 -10  10  -2   61.65    3.24
  10  10   2   60.35    2.88
  10  10  -2   62.51    3.30
 -10  11  -2    0.34    1.02
  10  11  -2   -0.42    0.95
  10  11   2   -0.20    1.09
  10 -11   2    0.53    0.90
  10  11   2   -0.24    0.78
 -10  12  -2  202.74    6.00
  10  12  -2  190.35    6.04
  10 -12   2  192.77    5.74
  10  12   2  200.26    5.44
  10  13  -2   -0.03    1.20
  10 -13   2    0.06    1.05
 -10  13   2   -0.60    1.07
  10  13   2    1.25    0.96
 -10  13  -2    0.91    1.22
  10  14  -2   67.52    3.87
  10 -14   2   63.36    3.45
 -10  14  -2   71.64    3.78
 -10  14   2   66.75    3.23
  10  14   2   67.05    3.31
  10 -15   2    0.26    1.22
  10  15   2    0.57    1.24
 -10  15   2   -0.97    1.43
 -10  15  -2   -0.02    1.38
 -10  16   2   15.40    1.70
  10 -16   2   18.33    2.04
  11   0  -2   -0.02    0.68
  11   0   2   -0.72    0.81
  11   1  -2   -0.44    0.68
  11  -1  -2    0.12    0.67
  11  -1   2    0.23    0.78
  11   1   2   -0.46    0.80
  11   2  -2    0.55    0.68
  11  -2  -2    0.23    0.69
  11   2   2    0.11    0.81
  11  -2   2    0.40    0.78
  11   3  -2    0.19    0.71
  11  -3  -2   -0.25    0.69
  11   3   2    0.07    0.83
  11  -3   2    0.11    0.77
  11   4  -2   -0.09    0.69
  11  -4  -2    0.15    0.73
  11  -4   2   -0.36    0.79
  11   4   2   -0.09    0.84
  11  -5   2   -0.47    0.86
  11   5  -2   -0.33    0.76
  11   5   2    0.77    0.92
  11  -5  -2   -0.24    0.72
  11   6   2    0.32    0.92
  11  -6  -2    0.63    0.78
  11  -6   2   -0.51    0.85
  11   6   2    0.35    0.73
  11   6  -2   -0.11    0.79
  11   7  -2   -0.10    0.84
  11  -7  -2    0.37    0.83
  11   7   2    0.08    0.96
  11  -7   2   -0.45    0.86
  11   7   2    0.20    0.75
  11   8  -2    0.15    0.87
  11   8   2   -0.22    1.08
  11  -8   2    0.61    0.91
  11   8   2    0.23    0.78
  11  -8  -2    0.00    0.88
  11  -9  -2   -0.11    0.92
  11  -9   2   -0.24    0.95
  11   9   2   -0.32    0.81
  11   9   2    0.90    1.15
  11   9  -2    0.39    0.96
 -11   9  -2   -0.19    1.06
 -11  10  -2    0.58    1.16
  11  10  -2    0.15    1.03
  11  10   2    0.18    1.24
  11 -10   2   -0.24    1.01
  11  10   2    0.36    0.88
 -11  11  -2   -0.08    1.22
  11  11  -2    0.18    1.12
  11  11   2   -0.16    0.98
  11  11   2   -0.24    1.35
  11 -11   2   -0.28    1.08
  11 -12   2    0.47    1.14
  11  12  -2    0.02    1.22
 -11  12  -2   -0.40    1.23
  11 -13   2   -0.39    1.21
  11  13  -2   -0.80    1.39
 -11  13  -2   -0.55    1.32
  11  14  -2    0.10    1.54
  11 -14   2    0.27    1.35
 -11  14  -2   -0.58    1.52
  12   0  -2    0.21    0.82
  12   0   2    0.57    0.97
  12  -1  -2    0.12    0.84
  12  -1   2    0.42    0.96
  12   1   2   -0.05    0.98
  12   1  -2    0.16    0.81
  12   2  -2   57.82    3.07
  12  -2   2   53.25    3.14
  12   2   2   61.37    3.36
  12  -2  -2   55.93    2.93
  12  -3  -2    0.05    0.87
  12  -3   2   -0.09    0.97
  12   3  -2   -0.61    0.84
  12   3   2    0.24    1.04
  12   4  -2   -0.18    0.87
  12  -4  -2   -0.37    0.88
  12   4   2    0.14    1.05
  12  -4   2    1.00    0.99
  12   5   2    0.58    1.05
  12  -5  -2   -0.16    0.90
  12  -5   2   -0.91    0.99
  12   5  -2    0.22    0.91
  12  -6  -2    4.91    1.02
  12   6  -2    4.47    1.02
  12  -6   2    6.49    1.26
  12   6   2    5.78    1.18
  12   7   2    0.22    1.20
  12   7  -2    0.13    1.03
  12  -7  -2   -0.13    1.03
  12  -7   2   -0.02    1.05
  12   8  -2    0.84    1.08
  12  -8  -2    1.67    1.04
  12  -8   2   -0.04    1.12
  12   8   2    0.77    1.30
  12   9   2    0.11    1.44
 -12   9  -2    0.29    1.22
  12  -9   2    0.48    1.13
  12   9  -2    0.26    1.13
 -12  10  -2    0.58    1.31
  12  10  -2   -0.39    1.24
  12 -10   2    1.44    1.20
  12  10   2    1.84    1.53
  12  11  -2   -0.62    1.33
  12 -11   2   -0.01    1.26
 -12  11  -2    0.24    1.41
  12  12  -2   -0.58    1.53
  12 -12   2   -0.10    1.36
 -12  12  -2    1.08    1.45
  13   0   2   -0.01    1.17
  13   0  -2   -0.84    1.00
  13  -1  -2    0.14    1.03
  13   1   2    0.06    1.22
  13   1  -2    0.02    1.02
  13  -1   2   -0.80    1.17
  13   2  -2    1.45    1.04
  13  -2   2   -0.31    1.19
  13  -2  -2   -0.37    1.01
  13   2   2    1.40    1.19
  13   3  -2    0.41    1.05
  13   3   2   -0.71    1.23
  13  -3   2    0.07    1.20
  13  -3  -2   -0.23    1.07
  13   4  -2    0.74    1.08
  13  -4  -2   -0.16    1.10
  13   4   2   -0.99    1.26
  13  -4   2    0.46    1.20
  13   5  -2   -0.05    1.12
  13   5   2   -0.34    1.34
  13  -5  -2   -0.11    1.16
  13  -5   2   -0.72    1.23
  13   6  -2    0.33    1.16
  13  -6  -2   -0.11    1.20
  13  -6   2   -0.05    1.28
  13   6   2    0.62    1.44
  13   7  -2    0.72    1.22
  13  -7  -2   -0.74    1.24
  13   7   2   -1.00    1.55
  13  -7   2    0.41    1.30
  13   8  -2    0.89    1.25
  13   8   2   -0.13    1.66
  13  -8  -2   -0.21    1.39
  13  -8   2   -0.42    1.35
  13   9   2    0.49    1.74
 -13   9  -2    0.64    1.51
  13   9  -2    0.19    1.40
  13  -9   2    0.90    1.38
  13  10   2   -0.42    2.00
  14   0  -2    2.76    1.24
  14   0   2    2.31    1.45
  14  -1  -2    0.55    1.27
  14   1   2    0.47    1.50
  14  -1   2   -0.96    1.45
  14   1  -2    0.52    1.30
  14  -2   2  132.03    5.53
  14   2  -2  131.47    5.14
  14  -2  -2  134.90    5.10
  14   2   2  135.38    5.62
  14   3  -2   -0.97    1.35
  14  -3  -2    0.84    1.35
  14   3   2    0.50    1.59
  14  -3   2    0.15    1.46
  14   4  -2    5.91    1.45
  14  -4  -2    7.41    1.43
  14   4   2    7.52    1.67
  14  -4   2    7.48    1.49
  14   5   2   -0.54    1.77
  14  -5  -2   -0.10    1.48
  14  -6  -2   42.34    2.90
  14   6   2   42.81    3.27
  14   7   2    0.79    2.00
  14  -7  -2   -1.18    1.66
   0   0   3    0.23    0.28
   0   1   3    0.10    0.32
   0   1  -3   -0.11    0.27
   0   2   3   -0.01    0.31
   0   2  -3    0.05    0.26
   0   3   3    0.00    0.32
   0   3  -3   -0.12    0.28
   0   4   3    0.18    0.32
   0   4  -3   -0.15    0.26
   0   5   3   -0.09    0.36
   0   5   3    0.07    0.25
   0   5  -3   -0.08    0.27
   0   6   3    0.02    0.30
   0   6  -3    0.04    0.28
   0   6   3    0.23    0.38
   0   7  -3    0.29    0.39
   0   7   3   -0.05    0.31
   0   7  -3    0.06    0.27
   0   7   3    0.09    0.38
   0   8   3    0.09    0.34
   0   8  -3    0.06    0.33
   0   8  -3   -0.03    0.38
   0   8   3    0.02    0.39
   0   9  -3   -0.04    0.32
   0   9   3   -0.15    0.40
   0   9  -3    0.22    0.43
   0   9   3    0.07    0.43
   0  10  -3    0.27    0.35
   0  10   3    0.08    0.37
   0  10  -3   -0.11    0.45
   0  10   3   -0.17    0.44
   0  11   3    0.01    0.43
   0  11  -3    0.05    0.50
   0  11   3    0.00    0.49
   0  11  -3   -0.26    0.39
   0  12   3    0.04    0.49
   0  12  -3   -0.12    0.57
   0  12  -3    0.07    0.42
   0  12   3   -0.40    0.53
   0  13   3    0.34    0.51
   0  13  -3    0.35    0.62
   0  13  -3   -0.24    0.46
   0  13   3   -0.28    0.56
   0  14   3    0.13    0.57
   0  14  -3   -0.06    0.74
   0  14  -3   -0.12    0.51
   0  14   3    0.51    0.62
   0  15   3    0.46    0.62
   0  15  -3    0.31    0.85
   0  15  -3    0.21    0.58
   0  15   3    0.29    0.68
   0  16  -3   -0.15    0.65
   0  16  -3    0.00    0.94
   0  16   3   -0.02    0.78
   0  16   3   -0.62    0.73
   0  17  -3   -0.05    0.74
   0  17   3    0.91    0.81
   0  17  -3    1.00    1.13
   0  18   3    0.06    1.00
   0  18  -3    0.18    0.83
   0  18  -3   -0.71    1.29
   0  19   3   -0.37    1.07
   0  19  -3   -0.44    0.92
   0  19  -3    0.44    1.44
   0  20   3   -0.23    1.19
   0  20  -3    0.62    1.07
   0  21   3    0.03    1.39
   0  21  -3    0.43    1.21
   1   0   3    0.09    0.27
  -1   1  -3  128.27    2.56
   1   1  -3  123.89    2.82
   1   1   3  121.85    2.67
   1  -1   3  118.24    2.50
   1  -2   3    0.05    0.25
   1   2  -3    0.15    0.29
  -1   2  -3    0.11    0.25
   1   2   3    0.02    0.27
  -1   3  -3   43.07    1.48
   1   3  -3   44.59    1.69
  -1   3   3   51.97    1.42
   1   3   3   49.09    1.80
   1  -3   3   50.38    1.55
   1  -4   3    0.02    0.24
  -1   4   3    0.13    0.39
   1   4  -3    0.03    0.32
  -1   4   3    0.08    0.24
   1   4   3    0.02    0.12
  -1   4  -3    0.08    0.27
   1   4   3   -0.19    0.33
  -1   5   3  205.57    3.19
   1   5  -3  182.45    2.77
  -1   5  -3  192.53    3.17
   1   5  -3  184.04    3.39
   1   5   3  198.01    3.76
   1  -5   3  208.73    2.94
  -1   5   3  198.95    4.01
   1  -6   3    0.02    0.27
  -1   6   3    0.41    0.37
   1   6   3    0.18    0.30
  -1   6   3   -0.02    0.28
  -1   6  -3    0.06    0.27
   1   6  -3    0.04    0.29
   1   6   3    0.21    0.34
   1   6  -3    0.15    0.30
   1   7   3  243.46    4.09
  -1   7   3  236.21    3.83
   1   7  -3  248.55    3.48
  -1   7  -3  241.59    3.74
   1   7  -3  257.25    4.13
  -1   7   3  234.15    4.53
   1  -7   3  244.34    2.92
   1   7   3  235.08    4.27
   1  -8   3    0.04    0.28
  -1   8  -3    0.33    0.42
   1   8   3    0.13    0.35
   1   8  -3    0.05    0.33
  -1   8   3    0.13    0.35
   1   8  -3    0.10    0.34
   1   8   3    0.17    0.36
  -1   8  -3    0.09    0.34
  -1   8   3    0.09    0.41
   1   9   3  146.54    3.46
  -1   9   3  150.65    3.37
   1   9  -3  144.08    2.93
  -1   9  -3  143.99    3.47
   1   9   3  136.32    3.41
   1   9  -3  140.38    3.22
  -1   9   3  145.52    3.69
  -1   9  -3  149.13    3.17
   1  10  -3   -0.09    0.37
   1  10   3    0.16    0.44
  -1  10   3    0.02    0.41
   1  10  -3    0.11    0.45
   1  10   3    0.05    0.43
  -1  10  -3    0.00    0.51
  -1  10   3   -0.08    0.51
  -1  10  -3    0.21    0.34
  -1  11  -3   69.36    2.64
   1  11   3   78.05    2.75
  -1  11   3   76.97    2.63
   1  11  -3   70.47    2.31
  -1  11  -3   72.23    2.43
   1  11  -3   67.82    2.43
   1  11   3   84.91    2.82
  -1  11   3   80.56    2.85
   1  12   3    0.09    0.50
  -1  12   3   -0.19    0.50
   1  12  -3   -0.49    0.55
  -1  12  -3    0.20    0.41
  -1  12  -3    0.10    0.58
   1  12   3   -0.09    0.50
  -1  12   3    0.12    0.56
   1  12  -3   -0.23    0.43
   1  13   3   19.80    1.52
  -1  13   3   18.23    1.46
   1  13  -3   14.54    1.23
   1  13  -3   15.78    1.31
  -1  13  -3   14.93    1.23
   1  13   3   20.03    1.46
  -1  13   3   17.44    1.41
  -1  13  -3   15.35    1.37
   1  14   3    0.16    0.62
  -1  14   3    0.26    0.59
   1  14  -3    0.08    0.74
  -1  14  -3    0.37    0.52
  -1  14  -3    0.26    0.75
   1  14  -3    0.21    0.54
   1  14   3    0.72    0.60
  -1  14   3   -0.18    0.65
   1  15   3   50.71    2.59
  -1  15   3   48.80    2.48
   1  15  -3   49.16    2.43
   1  15  -3   49.00    2.42
  -1  15  -3   48.42    2.58
   1  15   3   46.53    2.25
  -1  15   3   45.55    2.25
  -1  15  -3   54.79    2.49
   1  16   3    0.31    0.73
  -1  16   3    0.03    0.77
  -1  16  -3   -0.05    0.64
   1  16  -3    0.67    0.95
   1  16  -3   -0.16    0.65
  -1  16  -3    0.06    0.97
   1  16   3    0.21    0.79
  -1  17   3   64.27    3.08
  -1  17  -3   69.58    3.40
  -1  17  -3   70.42    3.03
   1  17  -3   73.06    3.17
   1  18   3    0.80    0.90
  -1  18   3    0.21    0.90
  -1  18  -3   -0.05    0.82
   1  18  -3    0.37    0.86
  -1  18  -3    1.24    1.29
  -1  19  -3   41.23    2.51
  -1  19   3   48.03    2.87
  -1  19  -3   42.28    2.92
   1  19  -3   41.95    2.59
   1  20   3    0.01    1.28
  -1  20   3    0.97    1.21
  -1  20  -3   -0.24    1.06
   1  20  -3   -0.14    1.06
  -1  20  -3    1.22    1.76
   1  21  -3    9.02    1.43
  -2   0  -3    0.02    0.24
   2   0   3    0.04    0.28
   2   1  -3    0.11    0.35
  -2   1  -3    0.14    0.23
   2   1   3    0.00    0.27
   2  -1   3   -0.18    0.24
   2   2  -3    0.15    0.33
  -2   2  -3   -0.15    0.25
   2   2   3    0.05    0.27
   2  -2   3   -0.10    0.25
  -2   3  -3    0.01    0.23
  -2   3   3    0.20    0.21
   2   3   3    0.27    0.21
   2   3  -3    0.00    0.35
   2   3   3    0.13    0.28
   2  -3   3    0.13    0.25
  -2   4   3   -0.10    0.24
  -2   4  -3    0.40    0.24
   2   4  -3   -0.14    0.31
   2   4   3   -0.11    0.19
   2   4   3    0.09    0.31
   2  -4   3   -0.07    0.24
   2   4  -3   -0.01    0.19
   2   5  -3   -0.18    0.31
   2   5   3    0.00    0.18
  -2   5   3    0.20    0.28
  -2   5  -3    0.17    0.24
   2   5  -3    0.18    0.23
   2   5   3    0.01    0.36
   2  -5   3    0.02    0.24
   2   6   3    0.02    0.16
  -2   6  -3    0.22    0.27
  -2   6   3   -0.02    0.29
   2   6  -3    0.07    0.35
   2   6  -3   -0.11    0.25
   2   6   3    0.01    0.35
   2  -6   3   -0.16    0.24
  -2   7   3    0.12    0.46
   2   7   3   -0.02    0.14
  -2   7  -3    0.04    0.28
  -2   7   3    0.14    0.31
   2   7  -3    0.30    0.33
   2   7  -3    0.03    0.29
   2   7   3    0.03    0.37
   2  -7   3   -0.06    0.24
  -2   8   3   -0.53    0.48
  -2   8  -3    0.01    0.30
   2   8   3    0.10    0.40
  -2   8   3    0.02    0.34
   2   8  -3    0.37    0.33
   2   8  -3    0.10    0.32
   2   8   3   -0.08    0.40
  -2   9   3   -0.49    0.50
  -2   9  -3   -0.17    0.50
   2   9  -3    0.01    0.35
   2   9   3    0.06    0.39
  -2   9   3    0.05    0.36
   2   9  -3   -0.24    0.38
   2   9   3   -0.17    0.41
  -2   9  -3   -0.01    0.34
   2  10   3    0.01    0.46
  -2  10   3   -0.16    0.41
   2  10  -3    0.05    0.37
   2  10  -3   -0.08    0.44
   2  10   3    0.08    0.41
  -2  10  -3    0.09    0.37
  -2  10  -3   -0.01    0.53
  -2  10   3   -0.16    0.51
   2  11  -3    0.07    0.47
   2  11   3   -0.23    0.46
  -2  11   3    0.20    0.42
   2  11  -3    0.11    0.51
  -2  11  -3   -0.28    0.39
   2  11   3   -0.16    0.47
  -2  11  -3   -0.42    0.57
  -2  11   3    0.46    0.56
   2  12   3    0.24    0.52
  -2  12   3   -0.34    0.46
   2  12  -3   -0.24    0.58
  -2  12  -3    0.30    0.42
   2  12   3   -0.13    0.51
  -2  12  -3    0.14    0.66
  -2  12   3   -0.48    0.64
   2  12  -3    0.00    0.44
   2  13   3    0.22    0.59
  -2  13   3   -0.29    0.56
   2  13  -3   -0.01    0.68
  -2  13  -3    0.08    0.47
   2  13   3   -0.34    0.56
  -2  13  -3   -0.58    0.70
   2  13  -3   -0.16    0.49
  -2  13   3   -0.03    0.65
   2  14   3    0.31    0.59
  -2  14   3   -0.01    0.57
   2  14  -3    0.15    0.69
  -2  14  -3    0.12    0.55
   2  14   3    0.45    0.62
  -2  14  -3    0.10    0.76
   2  14  -3   -0.13    0.54
  -2  14   3    0.40    0.69
   2  15   3   -0.23    0.73
  -2  15   3   -0.06    0.68
  -2  15  -3   -0.22    0.57
   2  15  -3    0.01    0.61
  -2  15  -3   -0.22    0.87
   2  15   3   -0.06    0.68
  -2  15   3    0.18    0.79
   2  16   3    0.76    0.79
  -2  16   3    0.31    0.73
  -2  16  -3    0.00    0.65
   2  16  -3    0.34    0.68
  -2  16  -3   -0.68    0.98
   2  16   3   -0.52    0.76
   2  17   3    0.58    0.91
  -2  17   3    0.04    0.82
  -2  17  -3   -0.22    0.77
   2  17  -3   -0.26    0.78
  -2  17  -3   -1.02    1.13
   2  17   3   -0.17    0.87
   2  18   3    0.45    0.96
  -2  18   3    0.80    0.94
  -2  18  -3    0.18    0.89
   2  18  -3   -0.11    0.87
  -2  18  -3   -0.22    1.30
   2  19   3    0.14    1.13
  -2  19   3    1.01    1.10
  -2  19  -3   -0.55    0.98
   2  19  -3    0.47    0.98
  -2  19  -3   -0.39    1.56
   2  20   3   -0.04    1.21
  -2  20   3    0.05    1.27
   2  20  -3   -0.26    1.12
  -2  20  -3   -0.92    1.80
  -2  21  -3    0.77    2.12
   3   0  -3   -0.07    0.23
  -3   0  -3    0.18    0.24
   3   0   3    0.55    0.28
   3   1  -3    4.52    0.65
   3  -1  -3    4.38    0.45
  -3   1  -3    5.81    0.50
   3   1   3    6.52    0.65
   3  -1   3    6.58    0.60
   3   1  -3    4.39    0.51
  -3   2  -3    0.03    0.23
   3  -2  -3    0.22    0.21
  -3   2   3    0.00    0.20
   3   2  -3   -0.30    0.37
   3  -2   3    0.14    0.24
   3   2   3   -0.08    0.28
   3   2  -3    0.03    0.26
   3  -3  -3  331.86    3.21
  -3   3   3  323.53    3.27
   3   3   3  324.51    3.65
  -3   3  -3  337.77    3.54
   3   3  -3  337.17    5.03
   3  -3   3  325.49    3.77
   3   3   3  332.93    4.60
   3  -4  -3   -0.04    0.20
  -3   4   3   -0.05    0.24
   3   4  -3    0.37    0.36
   3   4   3    0.02    0.25
  -3   4  -3   -0.09    0.23
   3  -4   3    0.08    0.24
   3   4   3    0.10    0.32
   3  -5  -3  224.97    2.32
   3   5   3  223.13    2.73
  -3   5   3  226.60    3.19
   3   5  -3  238.00    4.21
   3  -5   3  237.05    2.90
   3   5   3  225.35    3.97
  -3   5  -3  234.49    3.16
   3  -6  -3    0.20    0.19
   3   6   3   -0.18    0.26
  -3   6  -3    0.07    0.26
  -3   6   3   -0.10    0.29
   3   6  -3   -0.01    0.21
   3  -6   3    0.01    0.24
   3   6  -3    0.12    0.36
   3   6   3   -0.03    0.32
  -3   7   3   44.38    1.61
   3   7  -3   43.06    1.12
  -3   7  -3   40.46    1.45
   3  -7   3   42.95    1.06
   3   7   3   40.07    1.78
   3   7  -3   39.13    1.77
   3   7   3   41.69    1.13
  -3   8   3    0.17    0.35
   3   8  -3    0.05    0.40
   3   8  -3    0.15    0.34
   3   8   3   -0.06    0.36
  -3   8  -3    0.38    0.31
  -3   9   3   70.78    2.27
   3   9  -3   72.30    1.80
  -3   9  -3   67.09    2.08
  -3   9  -3   72.69    2.78
   3   9   3   73.66    2.52
   3   9  -3   68.13    2.41
  -3   9   3   77.90    2.91
  -3  10  -3   -0.12    0.57
  -3  10   3    0.05    0.58
   3  10  -3    0.45    0.44
  -3  10   3    0.11    0.42
  -3  10  -3   -0.09    0.39
   3  10   3    0.49    0.43
   3  10   3    0.19    0.46
   3  11   3   43.48    2.17
  -3  11   3   43.28    1.97
  -3  11  -3   51.76    2.00
   3  11  -3   45.75    2.10
   3  11   3   42.61    2.01
  -3  11   3   38.19    2.12
  -3  11  -3   47.66    2.41
   3  12  -3   -0.37    0.49
   3  12   3    0.02    0.54
  -3  12   3    0.03    0.50
  -3  12  -3   -0.01    0.47
   3  12   3    0.21    0.51
  -3  12  -3   -0.20    0.68
  -3  12   3   -0.32    0.65
   3  13   3   67.87    2.89
  -3  13   3   67.30    2.67
  -3  13  -3   67.21    2.47
   3  13  -3   70.97    2.81
  -3  13  -3   70.94    3.14
   3  13   3   63.98    2.60
  -3  13   3   61.64    2.69
   3  14   3    0.07    0.65
  -3  14   3    0.43    0.63
  -3  14  -3    0.13    0.56
   3  14   3    0.08    0.61
  -3  14  -3    0.22    0.84
   3  14  -3    0.23    0.59
  -3  14   3    0.55    0.80
   3  15   3   10.51    1.31
  -3  15  -3    8.61    1.04
  -3  15   3   11.17    1.26
   3  15  -3    9.28    1.15
   3  15   3   11.99    1.25
  -3  15  -3   10.09    1.34
   3  16   3    0.12    0.79
  -3  16   3   -0.18    0.78
  -3  16  -3    0.33    0.72
   3  16  -3   -0.07    0.71
   3  16   3    0.12    0.77
  -3  16  -3   -0.06    1.04
   3  17   3    7.94    1.25
  -3  17   3    8.09    1.24
  -3  17  -3    7.58    1.11
   3  17  -3    7.48    1.09
   3  17   3    8.28    1.13
  -3  17  -3    6.79    1.21
   3  18   3   -0.12    0.98
  -3  18  -3    0.01    0.92
  -3  18   3    0.00    1.02
   3  18  -3   -0.32    0.92
  -3  18  -3   -0.23    1.33
   3  19   3   67.09    3.52
  -3  19   3   64.01    3.33
   3  19  -3   71.28    3.45
  -3  19  -3   66.14    3.77
   3  20   3    0.25    1.35
  -3  20   3    0.30    1.30
   3  20  -3   -0.19    1.19
  -3  20  -3    0.20    1.82
  -3  21  -3   81.89    4.57
   4   0  -3    0.11    0.26
   4   0   3    0.02    0.27
  -4   0  -3    0.11    0.24
   4   1  -3    0.05    0.28
  -4   1  -3    0.21    0.22
  -4   1   3    0.02    0.16
   4   1  -3    0.10    0.41
  -4  -1  -3   -0.05    0.26
   4  -1   3   -0.01    0.25
   4   1   3    0.11    0.28
   4  -1  -3    0.03    0.25
   4  -2  -3    0.34    0.26
  -4   2   3   -0.12    0.21
   4   2  -3    0.12    0.38
   4   2   3    0.16    0.29
  -4   2  -3    0.03    0.21
   4  -2   3    0.07    0.26
   4   2   3    0.00    0.30
   4   2  -3   -0.12    0.28
   4   3  -3    0.05    0.33
   4  -3  -3    0.06    0.24
  -4   3   3    0.08    0.23
   4   3   3   -0.09    0.29
  -4   3  -3    0.02    0.22
   4   3  -3   -0.13    0.40
   4  -3   3    0.12    0.25
   4   3   3   -0.11    0.31
   4   4  -3    0.42    0.31
  -4   4  -3    0.02    0.23
   4  -4  -3    0.23    0.24
   4   4  -3   -0.10    0.36
   4   4   3   -0.11    0.30
  -4   4   3    0.01    0.25
   4  -4   3    0.05    0.25
   4   4   3   -0.28    0.30
   4   5  -3   -0.07    0.39
  -4   5  -3    0.07    0.26
   4   5  -3    0.14    0.33
   4  -5  -3    0.07    0.24
   4   5   3   -0.07    0.31
  -4   5   3    0.13    0.29
   4  -5   3   -0.17    0.25
   4   5   3    0.59    0.33
   4  -6  -3   -0.06    0.25
   4   6   3   -0.03    0.31
  -4   6   3   -0.06    0.31
   4  -6   3    0.05    0.26
   4   6   3   -0.04    0.35
   4   6  -3    0.12    0.37
  -4   6  -3    0.05    0.27
   4   7   3   -0.05    0.34
  -4   7   3   -0.19    0.33
   4   7  -3    0.00    0.38
   4   7   3   -0.16    0.37
  -4   7  -3    0.23    0.30
   4   8  -3    0.15    0.38
  -4   8   3   -0.01    0.38
  -4   8  -3    0.05    0.33
   4   8   3    0.02    0.39
   4   8   3    0.04    0.36
   4   9  -3    0.11    0.41
  -4   9   3   -0.08    0.41
  -4   9  -3    0.07    0.36
   4   9   3    0.20    0.40
  -4  10  -3   -0.08    0.57
  -4  10   3   -0.10    0.65
   4  10  -3    0.02    0.43
  -4  10   3    0.01    0.44
  -4  10  -3    0.17    0.39
   4  10   3   -0.20    0.46
  -4  11  -3   -0.24    0.65
  -4  11   3    0.24    0.67
  -4  11  -3    0.06    0.45
  -4  11   3   -0.20    0.50
   4  11   3   -0.06    0.49
   4  11  -3   -0.49    0.50
  -4  12   3    0.28    0.71
   4  12  -3    0.24    0.52
  -4  12   3    0.72    0.55
  -4  12  -3    0.32    0.49
   4  12   3   -0.03    0.53
  -4  12  -3   -0.26    0.73
  -4  13   3   -0.10    0.62
  -4  13  -3   -0.37    0.51
   4  13   3    0.05    0.56
  -4  13  -3    0.10    0.75
   4  13  -3    0.11    0.56
  -4  13   3    0.08    0.84
  -4  14   3    0.33    0.67
  -4  14  -3    0.06    0.56
   4  14   3    0.19    0.66
   4  14  -3   -0.14    0.63
  -4  14  -3    0.22    0.86
   4  14   3   -0.33    0.72
  -4  14   3   -0.14    0.92
  -4  15  -3    0.01    0.64
  -4  15   3    0.67    0.77
   4  15   3   -0.02    0.72
   4  15  -3   -0.02    0.69
  -4  15  -3    0.11    0.95
   4  15   3    0.30    0.76
   4  16   3   -0.64    0.90
  -4  16  -3   -0.14    0.74
  -4  16   3    0.20    0.83
   4  16   3    0.64    0.81
   4  16  -3    0.03    0.77
  -4  16  -3   -0.29    1.06
   4  17   3   -0.07    0.95
   4  17   3    0.67    0.98
  -4  17   3    0.55    0.91
   4  17  -3    0.36    0.89
  -4  17  -3   -0.18    1.17
  -4  18   3   -0.68    1.07
   4  18  -3   -0.34    0.98
   4  18   3   -0.06    1.09
  -4  18  -3    0.13    1.36
   4  18   3    0.08    1.10
   4  19   3   -0.86    1.27
  -4  19   3    0.30    1.17
   4  19  -3    0.66    1.11
  -4  19  -3    1.71    1.60
  -4  20   3   -0.77    1.42
   4  20  -3    0.22    1.28
  -4  20  -3   -0.14    1.90
   4  20   3    0.67    1.45
  -5   0  -3   -0.30    0.21
   5   0  -3    0.16    0.29
   5   0   3   -0.01    0.36
   5   0  -3   -0.05    0.44
   5   0   3    0.03    0.31
   5  -1  -3   95.35    2.32
  -5   1  -3   93.15    1.43
   5   1   3  101.39    2.71
  -5  -1  -3   96.87    1.55
   5   1  -3   97.29    2.96
   5   1  -3   99.58    2.54
   5  -1   3  107.20    2.46
   5   1   3  106.82    2.61
   5   2  -3    0.11    0.32
   5  -2  -3    0.18    0.27
   5   2  -3    0.07    0.45
  -5   2   3   -0.04    0.23
   5   2   3    0.02    0.35
   5  -2   3    0.14    0.29
   5   2   3    0.23    0.30
  -5   2  -3    0.03    0.22
   5   3  -3   26.06    1.41
   5  -3  -3   26.52    1.16
  -5   3   3   21.45    0.84
   5   3   3   19.54    1.16
  -5   3  -3   26.25    0.84
   5   3  -3   22.87    1.45
   5  -3   3   22.01    1.06
   5   3   3   19.16    1.18
   5   4  -3    0.02    0.35
   5  -4  -3   -0.10    0.28
   5   4  -3    0.18    0.44
   5   4   3    0.22    0.35
  -5   4   3   -0.09    0.29
   5  -4   3    0.09    0.28
   5   4   3    0.00    0.35
  -5   4  -3   -0.01    0.25
   5   5  -3  133.26    3.40
   5  -5  -3  132.45    2.46
   5   5   3  118.81    2.69
  -5   5   3  120.85    2.37
  -5   5  -3  131.35    2.15
   5   5  -3  124.88    3.29
   5  -5   3  123.18    2.24
   5   5   3  119.25    3.07
   5   6  -3    0.14    0.37
   5  -6  -3    0.04    0.31
   5   6   3    0.28    0.38
  -5   6   3   -0.03    0.36
   5  -6   3    0.02    0.27
  -5   6  -3    0.10    0.29
   5   6   3   -0.10    0.35
   5   6  -3   -0.04    0.43
   5   7  -3  192.25    4.39
   5   7   3  205.93    3.53
  -5   7   3  215.00    3.64
  -5   7  -3  197.49    3.02
   5   7  -3  189.86    4.15
   5   7   3  202.58    4.16
   5   8   3   -0.26    0.42
   5   8  -3    0.07    0.44
  -5   8   3    0.07    0.42
  -5   8  -3    0.27    0.35
   5   8   3    0.05    0.42
  -5   9  -3   96.35    2.37
  -5   9   3  107.44    2.89
   5   9  -3  100.43    3.13
   5   9   3  103.43    3.13
  -5  10  -3    0.17    0.67
   5  10  -3    0.41    0.47
  -5  10   3    0.26    0.51
  -5  10  -3   -0.11    0.44
   5  10   3    0.23    0.45
  -5  11  -3   59.71    2.07
  -5  11   3   65.24    2.48
   5  11  -3   55.49    2.44
  -5  11  -3   63.19    2.97
   5  11   3   52.91    2.36
  -5  11   3   57.28    2.75
   5  12  -3    0.03    0.58
  -5  12   3   -0.54    0.86
  -5  12  -3    0.06    0.50
  -5  12   3    0.03    0.59
   5  12   3    0.12    0.56
  -5  12  -3   -0.28    0.79
  -5  13   3    9.61    1.25
  -5  13  -3   13.45    1.12
  -5  13   3   10.85    1.17
   5  13  -3   12.69    1.29
  -5  13  -3   12.49    1.44
   5  13   3    9.80    1.14
  -5  14  -3   -0.35    0.68
  -5  14   3    0.02    0.72
   5  14   3    0.07    0.69
   5  14  -3   -0.19    0.68
  -5  14  -3   -0.13    0.95
  -5  15   3   42.51    2.40
   5  15  -3   37.08    2.32
  -5  15  -3   35.45    2.54
   5  15   3   37.13    2.19
  -5  16   3    0.47    0.92
   5  16   3   -0.39    0.86
   5  16  -3    0.55    0.85
  -5  16  -3    0.67    1.13
  -5  17   3   67.65    3.25
  -5  17  -3   60.52    3.46
   5  17  -3   64.76    3.23
   5  17   3   59.96    2.85
  -5  18   3    0.61    1.17
   5  18  -3   -0.21    1.09
   5  18   3    0.50    1.13
  -5  18  -3    1.00    1.40
  -5  19   3   32.37    2.48
   5  19  -3   35.25    2.55
  -5  19  -3   37.97    3.06
  -5  20  -3   -0.46    1.99
   6   0  -3   -0.03    0.33
   6   0  -3    0.24    0.48
   6   0   3   -0.12    0.41
   6   0   3   -0.11    0.31
   6   1  -3    0.04    0.34
   6  -1  -3    0.13    0.33
   6   1   3    0.33    0.43
   6  -1   3    0.37    0.43
   6  -1   3   -0.17    0.32
   6   1   3    0.14    0.34
   6   1  -3   -0.24    0.45
   6   2  -3    0.12    0.47
   6   2  -3   -0.07    0.35
   6  -2  -3   -0.12    0.34
   6   2   3    0.24    0.42
   6  -2   3   -0.12    0.32
   6   2   3   -0.01    0.38
   6   3  -3   -0.23    0.38
   6  -3  -3    0.05    0.35
   6   3   3   -0.17    0.42
   6   3  -3    0.13    0.46
   6  -3   3   -0.08    0.33
   6   3   3   -0.24    0.38
   6   4  -3   -0.18    0.44
   6  -4  -3    0.09    0.35
   6   4   3    0.30    0.43
  -6   4   3   -0.04    0.33
   6  -4   3   -0.30    0.31
   6   4   3   -0.04    0.38
   6   4  -3    0.24    0.39
   6   5  -3    0.08    0.45
   6   5  -3   -0.08    0.40
   6  -5  -3    0.27    0.36
   6   5   3   -0.11    0.40
  -6   5   3   -0.02    0.37
   6  -5   3    0.00    0.30
   6   5   3    0.07    0.40
   6   6  -3    0.02    0.49
   6   6   3   -0.09    0.44
   6  -6  -3   -0.13    0.36
  -6   6   3    0.02    0.38
   6   6   3    0.24    0.41
   6   6  -3    0.06    0.46
   6   7  -3    0.17    0.44
   6   7   3   -0.01    0.49
   6  -7  -3    0.08    0.35
  -6   7   3   -0.14    0.42
   6   7  -3    0.13    0.50
   6   7   3    0.02    0.42
   6   8  -3    0.38    0.53
   6   8   3   -0.12    0.51
   6   8  -3    0.32    0.49
  -6   8   3    0.27    0.46
   6   8   3   -0.05    0.43
   6   9  -3   -0.24    0.57
   6   9  -3    0.15    0.53
  -6   9   3   -0.21    0.50
   6   9   3    0.14    0.46
   6  10  -3    0.01    0.55
  -6  10   3   -0.72    0.57
   6  10   3   -0.05    0.49
  -6  11  -3    0.92    0.73
   6  11  -3    0.02    0.58
  -6  11   3   -0.09    0.62
   6  11   3    0.16    0.57
   6  12  -3   -0.03    0.61
  -6  12   3    0.75    0.96
  -6  12   3   -0.75    0.66
   6  12   3    0.46    0.61
  -6  12  -3   -0.10    0.85
  -6  13   3    0.30    0.74
   6  13   3    0.20    0.67
   6  13  -3   -0.12    0.71
  -6  13  -3    0.45    0.88
  -6  14   3   -0.17    0.84
   6  14   3   -0.58    0.75
   6  14  -3    0.05    0.78
  -6  14  -3    0.09    1.05
  -6  15   3    1.20    0.89
   6  15   3   -0.01    0.85
   6  15  -3    0.35    0.86
  -6  15  -3    0.76    1.14
  -6  16   3    0.05    1.02
   6  16   3    0.32    0.90
   6  16  -3   -0.09    0.93
  -6  16  -3    0.30    1.23
  -6  17   3    0.08    1.17
   6  17   3   -0.32    1.06
   6  17  -3   -0.09    1.05
  -6  17  -3    0.17    1.36
  -6  18   3    0.86    1.29
   6  18  -3   -1.04    1.25
   6  18   3   -0.46    1.20
  -6  18  -3    0.46    1.57
  -6  19   3    1.77    1.46
   6  19  -3   -0.02    1.35
  -6  19  -3    1.90    1.75
   7   0  -3    0.30    0.38
   7   0  -3   -0.08    0.57
   7   0   3    0.30    0.50
   7   0   3    0.10    0.35
   7   1  -3   83.36    2.65
   7  -1  -3   85.21    2.57
   7   1   3   80.58    2.85
   7  -1   3   82.11    2.95
   7  -1  -3   78.94    2.94
   7   1  -3   78.63    2.88
   7  -1   3   84.00    2.39
   7   1   3   90.12    2.61
   7   2  -3   -0.15    0.41
   7  -2  -3    0.03    0.39
   7   2   3   -0.09    0.48
   7  -2   3    0.23    0.51
   7  -2   3   -0.14    0.36
   7   2   3    0.27    0.38
   7   2  -3   -0.07    0.55
   7   3  -3   16.79    1.28
   7  -3  -3   17.51    1.15
   7   3   3   13.19    1.13
   7   3  -3   14.22    1.27
   7  -3   3   13.22    0.93
   7   3   3   14.08    1.12
   7  -3   3   14.14    1.31
   7   4  -3    0.08    0.49
   7   4  -3    0.17    0.43
   7  -4  -3   -0.10    0.41
   7   4   3   -0.19    0.52
   7  -4   3    0.11    0.35
   7   4   3   -0.16    0.38
   7   5  -3   68.21    2.68
   7   5  -3   62.92    2.51
   7  -5   3   55.31    1.71
   7   5   3   56.48    2.28
   7  -5  -3   63.61    2.11
   7   5   3   57.65    2.30
   7  -6  -3   -0.05    0.42
   7   6  -3   -0.20    0.48
   7   6   3    0.04    0.55
   7   6   3    0.19    0.42
   7   6  -3   -0.32    0.52
   7   7  -3  170.44    4.48
   7   7   3  162.36    3.84
  -7   7   3  176.65    3.45
   7   7  -3  166.10    4.15
   7   7   3  174.55    4.15
   7   8  -3   -0.27    0.57
   7   8   3   -0.12    0.60
   7   8  -3    0.57    0.55
  -7   8   3   -0.10    0.56
   7   8   3    0.43    0.49
   7   9  -3  109.25    3.45
   7   9   3  110.98    3.47
  -7   9   3  116.46    3.12
   7   9  -3  112.42    3.90
   7  10  -3    0.24    0.63
   7  10  -3   -0.16    0.62
  -7  10   3    0.11    0.65
   7  10   3   -0.10    0.57
  -7  11   3   16.24    1.36
   7  11   3   18.00    1.50
   7  11  -3   20.32    1.64
  -7  11  -3   21.12    1.91
  -7  12  -3    0.31    0.87
   7  12  -3   -0.07    0.75
  -7  12   3    0.25    0.75
   7  12   3   -0.03    0.67
  -7  13   3    2.01    0.86
   7  13   3    0.66    0.74
   7  13  -3    2.92    0.86
  -7  13  -3    2.68    1.01
  -7  14   3   -0.07    0.92
   7  14   3    0.01    0.78
   7  14  -3    0.06    0.86
  -7  14  -3   -0.65    1.07
  -7  15   3   45.65    2.59
   7  15  -3   46.62    2.68
  -7  15  -3   49.77    3.18
   7  15   3   40.80    2.41
  -7  16   3   -0.62    1.14
   7  16   3   -0.08    1.00
   7  16  -3   -0.12    1.09
  -7  17   3   56.86    3.10
   7  17  -3   56.20    3.14
  -7  17  -3   52.16    3.39
   7  17   3   52.74    2.87
  -7  18   3    0.55    1.49
   7  18  -3   -0.51    1.36
   7  18   3    0.19    1.39
  -7  18  -3   -0.66    1.68
   8   0  -3   -0.09    0.44
   8   0   3    0.36    0.56
   8   0  -3   -0.26    0.66
   8   0   3    0.04    0.40
   8   1  -3    0.10    0.66
   8   1  -3    0.08    0.45
   8   1   3    0.18    0.56
   8  -1   3   -0.03    0.60
   8  -1   3    0.02    0.42
   8  -1  -3   -0.18    0.47
   8   1   3   -0.12    0.43
   8  -1  -3    0.94    0.69
   8   2  -3    0.02    0.48
   8  -2  -3   -0.22    0.45
   8   2   3    0.06    0.58
   8  -2   3    0.32    0.55
   8  -2   3   -0.09    0.41
   8   2  -3   -0.28    0.63
   8   2   3    0.03    0.42
   8  -3  -3   -0.02    0.44
   8   3  -3   -0.21    0.61
   8   3   3    0.29    0.59
   8   3  -3   -0.09    0.49
   8  -3   3   -0.01    0.55
   8  -3   3    0.04    0.43
   8   3   3    0.08    0.42
   8   4  -3   -0.13    0.59
   8   4  -3    0.13    0.50
   8  -4  -3    0.28    0.45
   8   4   3    0.11    0.61
   8  -4   3    0.29    0.56
   8  -4   3    0.07    0.41
   8   4   3    0.07    0.44
   8   5  -3    0.23    0.52
   8  -5  -3   -0.12    0.48
   8   5   3    0.11    0.59
   8  -5   3    0.38    0.59
   8   5   3    0.27    0.46
   8   5  -3   -0.47    0.61
   8   6  -3   -0.19    0.54
   8  -6  -3    0.31    0.49
   8   6   3    0.34    0.66
   8   6   3    0.23    0.48
   8   6  -3    0.26    0.61
   8   7  -3    0.12    0.59
   8   7   3    0.13    0.64
   8   7  -3    0.12    0.64
   8   7   3   -0.35    0.51
   8   8  -3    0.06    0.64
   8   8   3   -0.30    0.70
   8   8  -3   -0.10    0.63
   8   8   3   -0.50    0.53
   8   9  -3   -0.04    0.65
   8   9  -3   -0.31    0.66
   8   9   3    0.15    0.57
   8  10  -3   -0.05    0.71
   8  10  -3   -0.09    0.72
   8  10   3   -0.13    0.63
  -8  11  -3    0.49    0.90
   8  11  -3    0.53    0.80
   8  11  -3   -0.36    0.77
   8  11   3   -0.69    0.69
   8  12  -3    0.07    0.88
  -8  12  -3   -0.16    1.07
   8  12   3   -0.04    0.76
  -8  13   3    0.00    0.97
   8  13   3   -0.16    0.82
   8  13  -3    0.72    0.93
  -8  13  -3   -0.01    1.06
  -8  14   3   -0.06    1.05
   8  14   3   -0.06    0.91
   8  14  -3   -0.07    1.04
  -8  14  -3   -1.15    1.15
  -8  15   3   -0.22    1.23
   8  15   3   -0.02    1.02
   8  15  -3    0.58    1.16
  -8  15  -3   -0.21    1.29
  -8  16   3    0.80    1.33
   8  16   3   -0.42    1.16
   8  16  -3    0.05    1.32
  -8  16  -3    0.43    1.44
  -8  17   3   -0.59    1.54
   8  17   3   -0.09    1.35
   8  17  -3   -0.49    1.45
  -8  17  -3   -0.91    1.66
  -8  18   3   -0.03    1.74
   8  18   3   -1.00    1.56
   9   0  -3   -0.63    0.74
   9   0  -3    0.22    0.54
   9   0   3   -0.06    0.69
   9   0   3    0.06    0.51
   9  -1  -3    4.36    0.74
   9   1   3    2.44    0.70
   9  -1   3    3.93    0.87
   9  -1   3    2.64    0.63
   9   1   3    2.13    0.56
   9   1  -3    2.13    0.76
   9  -1  -3    3.73    0.82
   9   1  -3    3.12    0.68
   9  -2  -3    0.17    0.81
   9   2  -3    0.02    0.53
   9  -2  -3    0.09    0.54
   9   2   3   -0.53    0.67
   9  -2   3    0.00    0.65
   9   2  -3   -0.61    0.75
   9  -2   3   -0.01    0.50
   9   2   3   -0.10    0.49
   9   3  -3  153.71    4.25
   9  -3  -3  151.56    3.86
   9   3   3  144.09    4.33
   9  -3   3  152.91    4.69
   9   3  -3  153.02    4.19
   9  -3   3  147.51    3.40
   9   3   3  144.07    3.83
   9   4  -3   -0.30    0.59
   9  -4  -3   -0.35    0.54
   9   4   3    0.18    0.71
   9  -4   3    0.52    0.68
   9  -4   3    0.36    0.51
   9   4   3    0.11    0.54
   9   4  -3   -0.30    0.65
   9   5  -3  105.30    3.70
   9  -5  -3  113.80    3.34
   9   5   3  110.70    3.75
   9  -5   3  106.81    3.97
   9   5  -3  109.08    3.50
   9   5   3  108.75    3.45
   9   6   3   -0.16    0.72
   9   6  -3    0.13    0.62
   9  -6  -3   -0.06    0.62
   9  -6   3    0.33    0.71
   9   6  -3    0.10    0.68
   9   6   3    0.02    0.56
   9   7  -3   20.80    1.78
   9   7   3   17.20    1.55
   9  -7   3   19.01    1.79
   9   7  -3   20.84    1.62
   9   7   3   19.14    1.55
   9   8   3    0.52    0.85
   9   8  -3    0.10    0.76
   9  -8   3   -0.39    0.74
   9   8   3    0.15    0.63
   9   8  -3   -0.24    0.70
   9   9  -3   35.97    2.43
   9   9   3   34.72    2.14
   9   9  -3   34.58    2.11
   9  10  -3   -0.57    0.88
   9  10  -3    0.02    0.86
   9  10   3   -0.46    0.73
   9  11  -3   23.40    2.12
   9  11  -3   23.05    1.82
  -9  11  -3   23.59    2.19
   9  11   3   26.59    1.95
  -9  12  -3    1.30    1.17
   9  12   3    0.38    0.85
   9  12  -3   -0.01    1.02
   9  13  -3   39.94    2.53
  -9  13  -3   39.47    2.83
   9  13   3   39.54    2.50
   9  14   3    0.54    1.05
   9  14  -3   -0.39    1.23
  -9  14  -3    0.29    1.36
   9  15   3    6.59    1.16
   9  15  -3    7.40    1.36
  -9  15  -3    8.73    1.54
   9  16   3   -0.75    1.33
   9  16  -3    0.83    1.51
   9  17  -3    6.16    1.81
  10   0  -3   -0.42    0.65
  10   0   3   -0.43    0.77
  10   0   3   -0.24    0.59
  10   0  -3    0.14    0.91
  10   1  -3    0.12    0.65
  10  -1  -3    0.23    0.65
  10  -1  -3    0.48    0.89
  10   1   3   -0.10    0.81
  10  -1   3   -0.22    0.80
  10   1  -3    0.31    0.87
  10  -1   3    0.17    0.61
  10   1   3    0.06    0.60
  10   2  -3    0.11    0.66
  10  -2  -3    0.08    0.62
  10   2   3   -0.66    0.82
  10   2  -3    0.11    0.86
  10  -2   3    0.04    0.81
  10  -2   3   -0.11    0.58
  10   2   3    0.46    0.59
  10  -2  -3   -0.16    0.96
  10   3  -3    0.47    0.84
  10   3  -3   -0.36    0.67
  10  -3  -3   -0.44    0.66
  10   3   3    0.08    0.84
  10  -3   3    0.38    0.79
  10   3   3   -0.27    0.63
  10  -3  -3   -0.11    1.02
  10   4  -3    0.21    0.68
  10  -4  -3    0.36    0.67
  10   4   3   -0.39    0.85
  10  -4   3    0.01    0.78
  10   4   3    0.08    0.63
  10   4  -3   -0.25    0.85
  10   5  -3   -0.08    0.69
  10  -5  -3    0.01    0.72
  10   5   3    0.28    0.89
  10  -5   3    0.56    0.82
  10   5   3    0.67    0.65
  10   5  -3    0.37    0.81
  10   6  -3   -0.53    0.75
  10  -6  -3   -0.14    0.70
  10   6   3    0.23    0.89
  10  -6   3    0.74    0.83
  10   6  -3   -0.12    0.85
  10   6   3   -0.31    0.68
  10   7  -3    0.01    0.82
  10   7   3   -0.43    1.00
  10   7  -3    0.17    0.87
  10  -7   3   -0.23    0.85
  10   7   3   -0.17    0.72
  10   8  -3    0.07    0.87
  10   8  -3   -0.26    0.88
  10   8   3   -0.12    1.01
  10  -8   3    0.42    0.88
  10   8   3    0.16    0.76
  10   9  -3   -0.13    0.91
  10   9  -3   -0.10    1.03
  10  -9   3   -0.02    0.89
  10   9   3    0.32    0.82
  10  10  -3   -0.58    1.02
  10  10  -3    0.16    0.95
  10 -10   3    0.44    0.96
  10  10   3    0.53    0.86
  10  11  -3    0.26    1.14
 -10  11  -3   -0.07    1.26
  10  11  -3    0.44    1.09
  10 -11   3   -0.03    1.01
  10  11   3   -0.82    0.94
 -10  12  -3    0.92    1.35
  10  12  -3   -0.10    1.19
  10 -12   3   -0.04    1.12
  10  12   3    0.40    0.99
  10  12  -3   -0.33    1.29
  10 -13   3   -0.47    1.23
  10  13   3    0.25    1.08
 -10  13  -3   -0.01    1.44
  10  14   3    0.14    1.21
 -10  14  -3   -0.46    1.54
  11   0  -3    0.17    0.76
  11   0   3    0.13    0.97
  11   0   3    0.58    0.73
  11   1  -3   27.25    1.97
  11  -1  -3   25.95    1.90
  11   1   3   24.54    2.12
  11  -1   3   21.52    2.05
  11   1   3   21.37    1.64
  11   2  -3   -0.50    0.77
  11  -2  -3   -0.40    0.79
  11   2   3   -0.14    1.02
  11  -2   3   -0.50    0.94
  11   2   3   -0.46    0.75
  11   3  -3   24.24    1.93
  11  -3  -3   19.38    1.66
  11   3   3   20.30    1.91
  11  -3   3   22.66    2.11
  11   3   3   21.63    1.69
  11   4  -3    1.49    0.82
  11  -4  -3    0.00    0.81
  11   4   3   -0.05    1.05
  11  -4   3    0.09    0.97
  11   4   3   -0.34    0.77
  11  -5  -3   71.02    3.04
  11   5   3   76.45    3.61
  11  -5   3   79.54    3.86
  11   5   3   79.93    3.32
  11   6  -3   -0.25    0.89
  11   6   3    0.06    1.10
  11  -6   3    0.19    1.02
  11   6   3    0.58    0.77
  11   7   3   54.38    3.09
  11  -7   3   61.51    3.40
  11   7   3   60.20    2.98
  11   8  -3    0.01    0.98
  11   8   3   -0.15    1.24
  11  -8   3    0.03    1.08
  11   8   3    0.19    0.91
  11  -9   3   25.34    2.28
  11   9   3   27.91    2.14
  11   9  -3   27.28    2.38
 -11  10  -3   -0.18    1.34
  11  10  -3    0.27    1.16
  11 -10   3    0.39    1.21
  11  10   3   -0.22    1.01
  11  11  -3   48.02    3.24
  11 -11   3   45.72    3.10
 -11  11  -3   42.34    3.07
  11  11   3   45.77    2.80
 -11  12  -3    0.79    1.53
  11  12  -3    0.73    1.38
  11 -12   3    0.60    1.31
  11  12   3   -0.22    1.19
  12   0  -3    0.32    0.95
  12   0   3    1.44    1.18
  12   1  -3    0.24    0.93
  12  -1  -3    0.09    0.92
  12   1   3    0.61    1.20
  12  -1   3   -0.60    1.18
  12   2  -3    0.24    0.94
  12  -2  -3   -0.56    0.94
  12   2   3    0.52    1.22
  12  -2   3    0.08    1.18
  12   3  -3   -0.03    0.97
  12  -3  -3   -0.21    1.03
  12   3   3    0.96    1.25
  12  -3   3   -0.72    1.18
  12   4  -3   -0.23    0.96
  12  -4  -3   -0.65    1.05
  12   4   3    0.45    1.25
  12  -4   3    0.17    1.21
  12   4   3    0.37    0.94
  12   5  -3   -0.04    1.03
  12  -5  -3   -0.47    1.09
  12   5   3    0.93    1.33
  12  -5   3    0.13    1.19
  12   5   3   -0.44    0.95
  12   6  -3   -0.20    1.08
  12   6   3    0.22    1.38
  12  -6   3    0.14    1.20
  12   6   3    0.65    1.01
  12   7  -3   -0.16    1.11
  12   7   3   -0.53    1.48
  12  -7   3   -0.34    1.22
  12   7   3    0.37    1.07
  12   8  -3   -0.47    1.19
  12  -8   3    0.12    1.24
  12   8   3    0.13    1.05
  12   9  -3   -0.90    1.27
  12  -9   3    0.03    1.36
  12   9   3    0.11    1.14
 -12  10  -3    0.63    1.49
  12  10  -3    0.24    1.36
  12 -10   3    0.04    1.34
  12  10   3    0.94    1.20
  13   0  -3    0.14    1.17
  13   0   3   -0.19    1.42
  13   1  -3   27.31    2.26
  13  -1  -3   31.40    2.41
  13   1   3   30.59    2.71
  13  -1   3   31.90    2.77
  13   2  -3   -0.56    1.18
  13  -2  -3    0.77    1.23
  13   2   3   -0.62    1.48
  13  -2   3    0.50    1.37
  13   3  -3   10.65    1.55
  13  -3  -3    9.31    1.33
  13   3   3   12.30    1.85
  13   4  -3   -0.16    1.20
  13  -4  -3    0.53    1.33
  13   4   3    0.45    1.65
  13  -4   3   -1.00    1.46
  13   5  -3   26.72    2.39
  13   5   3   32.87    2.77
  13  -5   3   30.77    2.68
  13   6  -3   -0.04    1.34
  13   6   3   -0.08    1.84
  13  -6   3    0.83    1.44
  13   7   3   58.50    3.68
  14   0  -3   -0.80    1.49
  14   1  -3   -1.53    1.45
  14  -1  -3    0.84    1.50
  14   1   3    0.06    1.88
  14  -2  -3   -1.15    1.53
  14   2   3   -0.74    1.92
  14  -3  -3    0.15    1.64
  14   3   3   -0.61    1.92
  14  -4  -3    1.14    1.71
  14   4   3   -1.50    2.08
   0   0  -4  964.26    8.67
   0   0   4  949.87    8.69
   0   1   4   -0.14    0.38
   0  -1   4    0.23    0.38
   0   1  -4    0.20    0.38
   0  -2   4    0.00    0.36
   0   2  -4    0.32    0.37
   0   3   4    0.17    0.39
   0  -3   4   -0.03    0.35
   0   3  -4   -0.12    0.42
   0   4   4   87.42    2.88
   0  -4   4   90.08    2.51
   0   5  -4   -0.48    0.35
   0   5   4   -0.05    0.42
   0   6  -4    0.17    0.37
   0   6   4    4.46    0.74
   0   7  -4    0.03    0.52
   0   7   4    0.07    0.38
   0   7  -4    0.09    0.38
   0   7   4   -0.03    0.51
   0   8   4  293.36    4.93
   0   8  -4  295.22    4.98
   0   8   4  288.54    5.66
   0   9   4    0.05    0.45
   0   9  -4    0.27    0.42
   0   9  -4   -0.29    0.60
   0   9   4    0.27    0.52
   0  10  -4    2.02    0.56
   0  10   4    0.01    0.49
   0  10  -4   -0.07    0.63
   0  10   4    0.34    0.58
   0  11  -4   -0.33    0.49
   0  11   4    0.01    0.54
   0  11  -4   -0.04    0.68
   0  11   4    0.30    0.62
   0  12  -4  161.11    4.07
   0  12  -4  164.06    4.19
   0  12   4  160.73    4.57
   0  13   4    0.33    0.62
   0  13  -4   -0.03    0.79
   0  13   4    0.15    0.79
   0  13  -4    0.40    0.58
   0  14   4    0.38    0.70
   0  14  -4    0.36    0.67
   0  14   4   -0.09    0.83
   0  15   4    0.78    0.77
   0  15  -4    0.51    0.73
   0  15   4    0.18    0.93
   0  16   4  206.25    5.49
   0  16  -4  202.94    5.34
   0  16   4  190.64    5.28
   0  17   4   -0.31    0.96
   0  17  -4    0.42    0.90
   0  17   4   -0.17    1.16
   0  18   4    0.02    1.11
   0  18  -4   -0.13    1.03
   0  19   4   -0.52    1.22
   0  19  -4    0.41    1.14
   1   0  -4    0.05    0.40
  -1   0  -4   -0.06    0.35
   1   0   4   -0.19    0.38
   1  -1   4    0.22    0.35
   1   1  -4    0.40    0.40
  -1   1  -4    0.03    0.34
   1   1   4    0.18    0.36
   1  -2   4    0.15    0.36
   1   2  -4   -0.16    0.40
  -1   2   4   -0.26    0.44
  -1   2  -4    0.09    0.33
   1   2   4    0.07    0.36
   1  -3   4    0.11    0.35
  -1   3   4    0.38    0.39
  -1   3  -4   -0.14    0.35
   1   3  -4    0.20    0.38
   1   3   4    0.06    0.39
   1  -4   4   -0.03    0.37
  -1   4   4    0.15    0.46
  -1   4  -4   -0.23    0.36
   1   4  -4    0.00    0.38
   1   4   4    0.13    0.39
   1  -5   4    0.19    0.38
  -1   5   4    0.11    0.46
   1   5  -4   -0.19    0.41
  -1   5  -4   -0.03    0.35
   1   5   4    0.21    0.40
   1  -6   4    0.19    0.38
  -1   6   4   -0.16    0.47
   1   6  -4    0.14    0.45
  -1   6   4   -0.07    0.38
  -1   6  -4    0.25    0.35
   1   6  -4    0.13    0.39
   1   6   4    0.16    0.44
   1  -7   4   -0.03    0.39
  -1   7   4   -0.01    0.52
  -1   7   4    0.00    0.40
  -1   7  -4    0.09    0.38
   1   7  -4   -0.30    0.41
   1   7   4    0.32    0.42
   1   7  -4   -0.06    0.48
  -1   8  -4    0.16    0.57
  -1   8   4    0.18    0.41
  -1   8  -4    0.14    0.40
   1   8  -4    0.40    0.40
   1   8  -4    0.16    0.50
   1   8   4    0.15    0.46
  -1   8   4   -0.02    0.55
  -1   9  -4   -0.17    0.62
   1   9   4    0.13    0.47
  -1   9  -4    0.19    0.40
  -1   9   4   -0.17    0.46
   1   9  -4    0.16    0.42
   1   9  -4   -0.04    0.56
   1   9   4    0.15    0.53
  -1   9   4    0.32    0.54
  -1  10  -4   -0.25    0.45
   1  10   4   -0.09    0.50
   1  10  -4   -0.22    0.49
  -1  10   4   -0.23    0.49
   1  10   4   -0.24    0.56
  -1  10  -4    0.19    0.66
  -1  10   4   -0.45    0.63
  -1  11  -4   -0.04    0.50
   1  11  -4    0.16    0.49
   1  11   4    0.56    0.56
  -1  11   4   -0.41    0.54
   1  11   4   -0.18    0.61
  -1  11  -4   -0.11    0.74
  -1  11   4   -0.10    0.67
   1  12  -4    0.14    0.55
   1  12   4   -0.20    0.58
  -1  12   4    0.17    0.56
  -1  12  -4   -0.67    0.80
   1  12   4    0.02    0.67
  -1  12   4    0.04    0.74
  -1  12  -4   -0.21    0.53
   1  13   4    0.19    0.64
  -1  13   4   -0.13    0.64
  -1  13  -4   -0.52    0.90
   1  13   4   -0.07    0.74
  -1  13  -4    0.24    0.62
  -1  13   4   -0.15    0.79
   1  13  -4   -0.30    0.62
   1  14   4   -0.43    0.72
  -1  14   4   -0.01    0.69
  -1  14  -4   -0.12    0.93
  -1  14  -4   -0.30    0.66
   1  14   4    0.28    0.84
   1  14  -4   -0.04    0.66
  -1  14   4   -0.04    0.85
   1  15   4   -0.29    0.84
  -1  15   4   -0.12    0.81
  -1  15  -4   -0.03    0.75
  -1  15  -4   -0.36    1.14
   1  15  -4    0.37    0.72
   1  15   4   -0.06    0.93
  -1  15   4   -0.41    0.99
   1  16   4   -0.62    0.93
  -1  16   4   -0.14    0.87
  -1  16  -4    0.62    0.81
   1  16  -4   -0.14    0.84
   1  16   4   -0.03    1.01
  -1  16   4   -0.40    1.10
   1  17   4    0.27    1.04
  -1  17   4    0.16    0.96
  -1  17  -4   -0.37    0.92
   1  17  -4    0.39    0.92
   1  17   4   -0.72    1.16
   1  18   4   -0.30    1.16
  -1  18   4    0.60    1.12
  -1  18  -4   -0.29    1.03
   1  18  -4    0.57    1.04
   1  19   4    0.50    1.24
  -1  19   4    0.67    1.24
  -1  19  -4    1.06    1.18
   1  19  -4    0.03    1.19
   2   0  -4   -0.28    0.40
   2   0   4    0.12    0.38
  -2   1  -4   -0.10    0.36
   2   1  -4    0.24    0.39
   2   1   4    0.00    0.39
   2  -1   4   -0.13    0.35
  -2   2  -4   14.77    0.99
   2   2  -4   13.86    1.14
   2   2   4   14.72    1.11
  -2   3  -4    0.16    0.33
   2   3  -4    0.15    0.42
   2   3   4    0.04    0.40
   2  -3   4    0.07    0.36
   2   4   4   31.77    1.02
  -2   4  -4   37.37    1.54
   2   4  -4   32.32    1.74
   2   4   4   35.21    1.78
   2  -4   4   35.31    1.49
  -2   5   4   -0.44    0.52
   2   5  -4   -0.31    0.45
  -2   5   4   -0.10    0.35
  -2   5  -4   -0.28    0.34
   2   5   4    0.16    0.43
   2  -5   4    0.03    0.35
  -2   6   4   49.92    1.78
  -2   6  -4   51.96    1.88
   2   6  -4   50.84    2.18
   2   6   4   50.01    2.22
   2  -6   4   52.39    1.68
  -2   6   4   51.97    2.43
  -2   7   4    0.56    0.54
  -2   7   4   -0.29    0.41
  -2   7  -4    0.02    0.37
   2   7  -4    0.00    0.45
   2   7   4    0.13    0.48
  -2   8   4    7.19    1.01
  -2   8  -4    7.16    0.77
  -2   8   4    7.06    0.76
   2   8  -4    6.00    0.83
   2   8   4    6.63    0.90
  -2   9   4   -0.40    0.60
  -2   9  -4   -0.10    0.65
  -2   9  -4    0.06    0.43
  -2   9   4   -0.14    0.47
   2   9  -4    0.39    0.46
   2   9   4    0.07    0.51
  -2  10   4   50.40    2.14
  -2  10  -4   51.92    2.12
  -2  10  -4   52.18    2.50
   2  10  -4   48.33    2.25
   2  10   4   45.86    2.32
  -2  10   4   48.44    2.54
   2  11  -4    0.39    0.52
  -2  11   4   -0.12    0.56
   2  11   4    0.63    0.61
  -2  11  -4   -0.07    0.50
  -2  11  -4    0.47    0.77
  -2  11   4   -0.33    0.72
   2  12   4    2.97    0.79
   2  12  -4    3.45    0.73
  -2  12   4    5.09    0.82
   2  12   4    4.10    0.83
  -2  12  -4    0.72    0.58
  -2  12  -4    0.55    0.84
  -2  12   4    1.62    0.77
   2  13  -4   -0.12    0.64
   2  13   4   -0.17    0.67
  -2  13   4    0.05    0.66
  -2  13  -4    0.14    0.64
   2  13   4    0.46    0.73
  -2  13  -4   -0.17    0.95
  -2  13   4   -0.47    0.85
   2  14   4   35.93    2.29
  -2  14   4   38.10    2.22
  -2  14  -4   38.31    2.12
   2  14  -4   40.02    2.34
  -2  14  -4   35.72    2.43
   2  14   4   37.68    2.30
  -2  14   4   37.08    2.34
   2  15   4    0.76    0.87
  -2  15   4   -0.33    0.82
  -2  15  -4    0.04    0.75
  -2  15  -4   -0.38    1.11
   2  15   4    0.65    0.91
   2  15  -4    0.18    0.76
  -2  15   4    0.00    1.00
   2  16   4   21.84    1.92
  -2  16   4   24.60    1.94
  -2  16  -4   21.04    1.73
  -2  16  -4   20.40    1.94
   2  16   4   23.76    1.96
  -2  16   4   19.81    1.82
   2  16  -4   20.53    1.82
   2  17   4    0.28    1.03
  -2  17   4   -0.60    1.02
  -2  17  -4    0.55    0.95
  -2  17  -4   -0.57    1.43
   2  17  -4    0.45    0.97
   2  17   4    0.41    1.13
   2  18   4    2.10    1.13
  -2  18   4    4.02    1.11
  -2  18  -4    2.98    1.06
   2  18  -4    2.54    1.06
  -2  18  -4    2.91    1.65
   2  19   4   -0.39    1.29
  -2  19   4   -0.73    1.29
  -2  19  -4   -1.15    1.18
   2  19  -4   -0.18    1.22
  -2  20  -4    0.12    1.41
   3   0  -4    0.19    0.46
  -3   0  -4    0.03    0.37
   3   0   4    0.26    0.37
   3   1  -4    0.17    0.43
  -3  -1  -4   -0.16    0.38
  -3   1  -4   -0.18    0.34
   3   1   4   -0.02    0.37
   3  -1   4    0.10    0.36
  -3   2  -4    0.04    0.34
   3   2  -4    0.31    0.41
   3   2   4   -0.03    0.35
   3  -2   4   -0.17    0.36
   3   3   4   -0.05    0.36
   3   3  -4   -0.33    0.45
   3   3   4   -0.12    0.38
   3  -3   4    0.06    0.35
  -3   3  -4    0.04    0.33
  -3   4   4    0.14    0.32
   3   4   4   -0.02    0.34
   3   4  -4   -0.07    0.42
  -3   4  -4   -0.06    0.33
   3   4   4    0.06    0.40
   3  -4   4   -0.18    0.37
   3   5  -4    0.14    0.44
  -3   5   4    0.09    0.36
  -3   5  -4    0.10    0.38
   3   5   4    0.08    0.39
   3  -5   4   -0.42    0.37
  -3   6   4    0.01    0.39
  -3   6  -4   -0.10    0.37
   3  -6   4   -0.17    0.37
   3   6   4    0.32    0.45
   3   6  -4    0.03    0.44
  -3   7   4    0.20    0.58
  -3   7  -4   -0.02    0.38
  -3   7   4   -0.12    0.40
   3   7  -4    0.10    0.46
   3   7   4    0.31    0.44
  -3   8   4   -0.08    0.59
  -3   8  -4   -0.12    0.38
  -3   8   4   -0.19    0.45
   3   8  -4    0.09    0.46
   3   8   4   -0.03    0.45
  -3   9  -4   -0.03    0.43
  -3   9   4   -0.33    0.66
  -3   9   4    0.23    0.50
   3   9  -4    0.22    0.49
   3   9   4    0.03    0.48
  -3  10   4   -0.18    0.71
  -3  10  -4   -0.09    0.74
   3  10  -4    0.55    0.52
  -3  10   4   -0.11    0.52
   3  10   4   -0.30    0.55
  -3  10  -4   -0.16    0.46
  -3  11   4    0.73    0.79
   3  11  -4   -0.27    0.53
  -3  11   4    0.17    0.58
   3  11   4    0.29    0.62
  -3  11  -4   -0.30    0.54
  -3  11  -4    0.13    0.78
   3  12  -4   -0.03    0.59
  -3  12   4    0.13    0.63
  -3  12  -4    0.41    0.60
   3  12   4   -0.13    0.66
  -3  12  -4   -0.21    0.90
  -3  12   4   -0.21    0.86
   3  13  -4    0.24    0.65
  -3  13   4   -0.06    0.68
  -3  13  -4    0.21    0.66
   3  13   4   -0.04    0.73
  -3  13  -4   -0.54    0.94
  -3  13   4   -0.28    0.90
  -3  14   4   -0.35    0.75
  -3  14  -4   -0.10    0.69
   3  14   4    0.01    0.82
  -3  14  -4   -0.27    1.03
  -3  14   4   -0.56    1.01
   3  14  -4   -0.35    0.72
  -3  15   4   -0.09    0.84
  -3  15  -4   -0.33    0.78
   3  15   4    0.22    0.91
  -3  15  -4    1.19    1.17
   3  15  -4   -0.20    0.80
  -3  15   4    1.03    1.18
  -3  16   4   -0.19    0.95
  -3  16  -4    0.17    0.87
   3  16   4    0.20    1.00
  -3  16  -4    0.63    1.30
   3  16  -4    0.09    0.89
  -3  17   4    0.28    1.07
  -3  17  -4   -0.73    1.02
   3  17   4   -0.12    1.13
   3  17  -4    0.23    1.02
  -3  17  -4   -0.12    1.44
  -3  18   4   -0.18    1.21
  -3  18  -4    0.03    1.15
   3  18  -4    0.58    1.14
  -3  18  -4   -0.23    1.70
   3  18   4   -0.45    1.35
  -3  19   4   -0.56    1.41
  -3  19  -4   -0.10    1.29
   3  19  -4   -0.50    1.28
  -3  19  -4   -0.57    2.04
  -3  20  -4    0.32    1.48
  -4   0  -4   66.78    1.83
   4   0   4   70.52    2.29
   4  -1  -4    0.16    0.35
   4   1  -4   -0.02    0.52
  -4  -1  -4   -0.03    0.36
  -4   1  -4    0.04    0.34
   4  -1   4    0.31    0.35
   4   1   4    0.61    0.35
   4  -2  -4  254.15    3.60
   4   2   4  243.23    4.05
  -4   2  -4  249.82    3.45
   4   2  -4  253.90    5.16
   4  -2   4  251.75    4.09
   4   2   4  251.21    4.51
   4  -3  -4   -0.30    0.34
   4   3   4    0.20    0.41
  -4   3  -4    0.01    0.34
   4   3  -4    0.21    0.47
   4  -3   4   -0.04    0.37
   4   3   4    0.14    0.38
  -4   4   4  198.52    2.95
   4   4   4  205.22    3.42
  -4   4  -4  221.36    3.31
   4   4  -4  217.11    4.84
   4  -4   4  210.51    3.53
   4   4   4  207.68    4.29
   4   5  -4    0.39    0.49
  -4   5  -4    0.05    0.36
  -4   5   4    0.06    0.37
   4  -5   4    0.00    0.37
   4   5   4    0.15    0.43
  -4   6   4   53.50    1.75
  -4   6  -4   53.14    1.75
   4   6  -4   52.11    2.35
   4   6   4   54.35    2.32
  -4   7  -4    0.11    0.40
  -4   7   4    0.27    0.44
   4   7  -4   -0.21    0.49
   4   7   4    0.15    0.45
  -4   8   4    7.45    0.77
   4   8   4    7.20    0.93
   4   8  -4    4.95    0.83
  -4   8  -4    5.01    0.63
  -4   9   4   -0.23    0.72
  -4   9   4    0.15    0.51
   4   9  -4    0.14    0.53
   4   9   4    0.58    0.55
  -4   9  -4   -0.14    0.45
  -4  10   4  129.02    3.34
  -4  10  -4  129.68    3.19
  -4  10  -4  132.24    4.31
   4  10  -4  124.52    3.85
   4  10   4  125.15    3.83
  -4  10   4  137.18    4.43
  -4  11  -4    0.07    0.83
  -4  11   4   -0.03    0.85
   4  11  -4   -0.21    0.60
  -4  11   4    0.57    0.58
  -4  11  -4    0.13    0.56
   4  11   4    0.21    0.63
  -4  12   4  196.98    4.52
  -4  12  -4  204.60    4.33
   4  12  -4  194.10    4.98
  -4  12  -4  198.77    5.53
   4  12   4  199.30    5.08
  -4  12   4  197.47    5.47
   4  13  -4    0.45    0.70
  -4  13   4    0.23    0.73
  -4  13  -4    0.30    0.65
   4  13   4    0.26    0.74
  -4  13  -4   -0.69    1.01
  -4  13   4    0.27    1.02
  -4  14   4  126.00    3.93
  -4  14  -4  134.85    3.82
   4  14  -4  134.79    4.44
  -4  14  -4  135.60    4.87
   4  14   4  130.10    4.29
  -4  14   4  131.92    4.58
  -4  15   4    0.19    0.89
  -4  15  -4    0.25    0.81
   4  15   4   -0.14    0.97
  -4  15  -4   -0.37    1.22
   4  15  -4   -0.45    0.90
  -4  16   4   11.57    1.44
  -4  16  -4    9.49    1.21
   4  16   4   10.37    1.36
  -4  16  -4   10.04    1.55
   4  16  -4    6.93    1.22
  -4  17   4    0.72    1.15
  -4  17  -4   -0.02    1.09
   4  17   4   -0.24    1.21
   4  17  -4    0.65    1.09
  -4  17  -4    0.43    1.52
  -4  18  -4   21.67    1.91
  -4  18   4   22.41    2.05
  -4  18  -4   21.90    2.28
   4  18   4   26.88    2.18
   4  18  -4   22.69    2.11
  -4  19   4   -0.59    1.47
  -4  19  -4   -1.05    2.08
   5   0  -4   -0.28    0.40
   5   0  -4   -0.38    0.53
   5   0   4   -0.43    0.38
   5   1  -4   -0.19    0.38
   5  -1  -4   -0.02    0.38
   5   1   4    0.01    0.49
   5  -1   4   -0.24    0.37
   5   1   4    0.00    0.38
   5   1  -4    0.19    0.55
   5   2  -4    0.12    0.41
   5  -2  -4   -0.07    0.36
   5   2  -4    0.30    0.51
   5   2   4   -0.12    0.49
   5  -2   4    0.29    0.40
   5   2   4   -0.12    0.43
   5   3  -4   -0.03    0.42
   5   3   4   -0.22    0.48
   5  -3  -4    0.11    0.36
   5   3  -4   -0.11    0.51
   5  -3   4   -0.29    0.40
   5   3   4   -0.06    0.40
   5   4   4   -0.22    0.47
   5   4  -4   -0.29    0.51
   5  -4   4    0.27    0.39
   5   4   4   -0.29    0.43
   5   5  -4   -0.39    0.54
   5   5   4   -0.04    0.48
   5  -5   4    0.00    0.39
   5   5   4   -0.02    0.44
   5   6   4    0.50    0.45
   5   6  -4    0.22    0.52
   5   7  -4    0.23    0.54
   5   7   4   -0.33    0.47
  -5   8   4    0.00    0.50
   5   8  -4    0.18    0.56
   5   8   4   -0.33    0.54
  -5   9   4   -0.07    0.56
   5   9  -4   -0.22    0.58
   5   9   4   -0.03    0.55
  -5  10   4    0.45    0.82
   5  10  -4    0.26    0.62
  -5  10   4    0.15    0.60
   5  10   4    0.14    0.60
  -5  11  -4   -0.06    0.90
  -5  11   4   -0.13    0.92
   5  11  -4    0.09    0.66
  -5  11   4    0.00    0.63
   5  11   4    0.13    0.62
  -5  12  -4    0.44    0.99
  -5  12   4   -0.34    1.03
   5  12  -4    0.06    0.71
  -5  12   4    0.23    0.70
   5  12   4    0.11    0.72
  -5  13   4    0.44    1.09
   5  13  -4   -0.26    0.82
  -5  13   4    0.25    0.76
   5  13   4    0.25    0.79
  -5  13  -4    0.51    1.04
  -5  14   4   -0.03    0.86
   5  14   4   -0.16    0.86
  -5  14  -4    0.45    1.16
   5  14  -4   -0.48    0.89
  -5  14   4   -0.30    1.24
  -5  15   4    0.19    0.97
   5  15   4    0.67    1.01
  -5  15  -4    0.27    1.26
   5  15  -4    0.00    0.95
  -5  16   4   -0.05    1.09
   5  16   4    0.38    1.08
   5  16  -4   -0.20    1.05
  -5  16  -4    0.25    1.42
  -5  17   4    0.53    1.23
   5  17   4    0.38    1.26
   5  17  -4   -0.32    1.18
  -5  17  -4   -0.81    1.63
  -5  18   4    0.66    1.44
   5  18   4    0.04    1.44
   5  18  -4    0.71    1.32
  -5  18  -4   -0.84    1.87
  -5  19  -4   -0.20    2.17
   6   0  -4    0.35    0.44
   6   0   4    1.31    0.55
   6   0  -4    0.35    0.58
   6   0   4    0.28    0.42
   6   1  -4   -0.06    0.41
   6  -1  -4   -0.02    0.41
   6  -1  -4   -0.03    0.55
   6   1   4    0.02    0.52
   6   1  -4    0.20    0.55
   6  -1   4   -0.31    0.42
   6   1   4    0.01    0.45
   6   2  -4  112.47    3.16
   6  -2  -4  104.85    2.68
   6   2   4  104.57    3.12
   6   2  -4  102.92    3.53
   6  -2   4  109.58    2.86
   6   2   4  106.92    3.10
   6   3  -4   -0.18    0.46
   6   3   4   -0.14    0.54
   6  -3  -4    0.18    0.41
   6   3  -4   -0.04    0.57
   6  -3   4   -0.10    0.42
   6   3   4   -0.18    0.45
   6   4  -4    0.49    0.48
   6   4  -4   -0.14    0.57
   6   4   4   -0.09    0.57
   6  -4   4    0.43    0.42
   6   4   4    0.37    0.46
   6   5  -4    0.08    0.61
   6   5  -4    0.25    0.51
   6   5   4    0.07    0.58
   6   5   4    0.20    0.47
   6   6  -4   10.53    1.21
   6   6   4   13.96    1.26
   6   7  -4   -0.03    0.60
   6   7   4    0.07    0.53
   6   8  -4    1.06    0.64
   6   8   4    0.82    0.56
   6   9  -4   -0.43    0.66
   6   9   4   -0.10    0.60
   6  10  -4    2.14    0.71
   6  10   4    1.75    0.63
  -6  11  -4   -0.58    0.96
   6  11  -4   -0.36    0.73
   6  11   4   -0.17    0.72
  -6  12  -4    1.20    1.06
  -6  12   4    0.65    1.05
   6  12  -4   -0.07    0.81
   6  12   4    0.23    0.77
  -6  13   4   -0.61    1.27
   6  13  -4    0.27    0.90
  -6  13   4    0.59    0.85
   6  13   4    0.32    0.83
  -6  13  -4    0.51    1.11
  -6  14   4    2.20    0.93
   6  14   4    1.56    0.94
  -6  14  -4   -0.67    1.26
   6  14  -4    0.92    0.97
  -6  15   4    0.15    1.10
   6  15   4    0.00    1.04
  -6  15  -4    0.05    1.39
   6  15  -4   -0.42    1.07
  -6  16   4    0.48    1.24
   6  16   4    0.71    1.18
   6  16  -4    0.07    1.18
  -6  16  -4    0.91    1.50
  -6  17   4   -0.21    1.41
   6  17   4   -0.25    1.35
   6  17  -4    0.77    1.37
  -6  17  -4   -0.63    1.76
  -6  18   4   29.73    2.35
   6  18   4   30.25    2.37
   7   0  -4   -0.30    0.47
   7   0   4    0.29    0.65
   7   0   4    0.10    0.45
   7   0  -4    0.82    0.66
   7   1  -4   -0.11    0.51
   7  -1  -4    0.48    0.48
   7  -1  -4   -0.27    0.64
   7   1  -4   -0.25    0.65
   7   1   4   -0.03    0.61
   7  -1   4   -0.01    0.62
   7  -1   4    0.01    0.49
   7   1   4    0.06    0.46
   7   2  -4   -0.26    0.50
   7  -2  -4    0.09    0.48
   7   2   4   -0.02    0.62
   7  -2   4    0.28    0.63
   7  -2   4    0.09    0.49
   7   2   4    0.04    0.49
   7   2  -4   -0.05    0.64
   7   3  -4    0.51    0.51
   7  -3  -4    0.10    0.47
   7   3   4   -0.12    0.65
   7   3  -4    0.59    0.68
   7  -3   4   -0.09    0.47
   7   3   4   -0.29    0.48
   7   4  -4    0.17    0.55
   7   4  -4    0.06    0.65
   7   4   4   -0.08    0.62
   7  -4   4    0.02    0.44
   7   4   4   -0.29    0.50
   7   5  -4    0.35    0.67
   7   5  -4    0.03    0.54
   7   5   4    0.11    0.68
   7   5   4   -0.23    0.53
   7   6  -4   -0.22    0.61
   7   6   4    0.06    0.53
   7   6  -4   -0.41    0.70
   7   7  -4    0.20    0.73
   7   7   4    0.13    0.56
   7   7  -4   -0.12    0.63
   7   8  -4   -0.23    0.76
   7   8   4    0.66    0.63
   7   9  -4    0.34    0.78
   7   9   4    0.45    0.66
   7  10  -4    0.45    0.81
   7  10   4   -0.40    0.72
   7  11  -4   -0.40    0.89
  -7  11  -4    0.14    1.03
   7  11   4    0.01    0.80
  -7  12  -4    0.04    1.17
  -7  12   4    0.48    1.19
   7  12  -4   -0.45    0.92
   7  12   4    0.17    0.81
   7  13  -4   -0.45    0.97
  -7  13   4   -0.52    1.41
   7  13   4    0.18    0.95
  -7  13  -4    0.26    1.20
   7  14   4   -0.49    1.01
  -7  14  -4   -0.61    1.32
   7  14  -4   -0.28    1.14
   7  15   4   -0.03    1.14
   7  15  -4    0.34    1.21
  -7  15  -4   -0.15    1.48
   7  16   4    0.05    1.29
   7  16  -4    0.60    1.33
  -7  16  -4   -1.10    1.72
   7  17   4    0.07    1.46
   8   0  -4    0.79    0.56
   8   0   4    3.13    0.84
   8   0  -4    0.60    0.83
   8   0   4    2.73    0.63
   8   1  -4   -0.42    0.81
   8   1  -4    0.23    0.56
   8  -1  -4   -0.01    0.53
   8  -1  -4   -0.46    0.84
   8   1   4   -0.54    0.74
   8  -1   4   -0.62    0.72
   8  -1   4    0.51    0.52
   8   1   4   -0.19    0.53
   8   2  -4  224.66    4.91
   8  -2  -4  232.46    4.58
   8   2   4  238.12    5.50
   8   2  -4  229.87    5.68
   8  -2   4  240.80    5.80
   8  -2  -4  249.26    5.98
   8  -2   4  250.57    4.62
   8   2   4  236.77    4.94
   8   3  -4   -0.05    0.61
   8  -3  -4   -0.46    0.57
   8   3   4    0.02    0.77
   8   3  -4   -0.69    0.77
   8  -3   4    0.27    0.71
   8  -3   4   -0.03    0.54
   8   3   4    0.01    0.57
   8   4  -4   44.33    2.33
   8   4   4   39.95    2.21
   8  -4   4   41.55    2.50
   8   4  -4   41.03    2.41
   8   4   4   38.09    2.08
   8   5  -4   -0.05    0.65
   8   5   4   -0.23    0.73
   8   5   4   -0.01    0.60
   8   5  -4   -0.53    0.79
   8   6  -4   74.24    3.17
   8   6  -4   69.70    3.13
   8   6   4   69.80    2.91
   8   7  -4    0.57    0.73
   8   7  -4   -0.02    0.82
   8   7   4    0.06    0.66
   8   8  -4    7.49    1.16
   8   8  -4    7.66    1.14
   8   8   4    6.84    1.03
   8   9  -4   -0.59    0.87
   8   9   4    0.29    0.72
   8  10  -4  126.91    4.39
   8  10   4  129.83    4.31
  -8  11  -4    0.18    1.21
   8  11  -4   -0.53    1.00
   8  11   4   -0.15    0.87
   8  12  -4   49.21    2.87
  -8  12  -4   55.22    3.38
   8  12   4   52.76    2.88
  -8  13  -4   -0.64    1.35
   8  13  -4   -0.59    1.14
   8  13   4    0.57    1.00
   8  14  -4  135.99    4.98
  -8  14  -4  147.32    5.64
   8  14   4  146.71    4.97
   8  15   4    0.27    1.23
   8  15  -4   -0.84    1.39
  -8  15  -4   -0.29    1.64
   8  16   4    2.75    1.42
   8  16  -4    2.69    1.57
   9   0  -4    0.25    0.91
   9   0  -4   -0.10    0.66
   9   0   4   -0.14    0.85
   9   0   4   -0.20    0.62
   9   1  -4    0.52    0.64
   9  -1  -4    0.31    0.63
   9   1   4   -0.16    0.87
   9  -1   4   -0.27    0.87
   9  -1  -4   -0.32    0.94
   9  -1   4   -0.34    0.63
   9   1   4   -0.01    0.63
   9   1  -4    0.48    0.88
   9   2  -4    0.88    0.67
   9  -2  -4    0.04    0.65
   9   2   4    0.30    0.84
   9  -2   4    0.40    0.84
   9  -2  -4   -0.36    0.95
   9   2  -4    0.02    0.88
   9  -2   4    0.00    0.62
   9   2   4   -0.56    0.63
   9  -3  -4   -0.33    0.94
   9   3  -4   -0.07    0.67
   9  -3  -4    0.11    0.68
   9   3  -4   -0.04    0.88
   9   3   4    1.27    0.89
   9  -3   4    0.16    0.87
   9   3   4   -0.19    0.64
   9   4  -4   -0.50    0.85
   9   4  -4    0.05    0.71
   9   4   4    0.57    0.90
   9  -4   4    0.00    0.84
   9   4   4    0.62    0.65
   9   5  -4    0.10    0.73
   9   5   4    0.86    0.93
   9  -5   4    0.00    0.85
   9   5   4   -0.04    0.66
   9   5  -4   -0.44    0.89
   9   6  -4    0.45    0.74
   9  -6   4    0.02    0.89
   9   6   4   -0.25    0.70
   9   6  -4    0.45    0.93
   9   7  -4   -0.24    0.84
   9  -7   4   -0.33    0.90
   9   7  -4    0.05    0.98
   9   7   4   -0.33    0.71
   9   8  -4   -0.19    0.89
   9   8  -4    0.61    0.96
   9   8   4    0.15    0.78
   9   9  -4   -0.31    0.91
   9   9  -4    0.72    1.02
   9   9   4    0.40    0.82
   9  10  -4    0.37    1.09
   9  10   4   -0.09    0.90
  -9  11  -4   -0.57    1.33
   9  11  -4   -0.17    1.20
   9  11   4   -0.06    0.96
  -9  12  -4    0.06    1.38
   9  12  -4   -0.78    1.27
   9  12   4   -0.86    1.05
  -9  13  -4   -0.49    1.48
   9  13   4   -0.85    1.17
   9  13  -4    0.44    1.44
   9  14   4   -1.07    1.25
   9  14  -4   -0.50    1.60
  -9  14  -4    0.15    1.61
   9  15  -4   -0.53    1.79
  10   0  -4    1.74    0.78
  10   0   4    2.32    1.02
  10   0   4    1.78    0.73
  10   0  -4    1.40    1.11
  10   1  -4   -0.54    0.78
  10  -1  -4   -0.47    1.16
  10  -1  -4   -0.56    0.77
  10   1   4    0.07    0.99
  10  -1   4   -0.41    1.01
  10   1  -4   -0.46    1.06
  10  -1   4   -0.34    0.77
  10   1   4   -0.22    0.75
  10   2  -4    3.58    0.85
  10  -2  -4    2.80    0.78
  10   2  -4    2.21    1.11
  10   2   4    3.40    1.06
  10  -2   4    4.19    1.03
  10  -2   4    4.23    0.73
  10   2   4    3.63    0.76
  10  -2  -4    4.34    1.08
  10   3  -4   -1.10    1.09
  10   3  -4    0.27    0.82
  10   3   4   -0.69    1.03
  10  -3  -4   -0.50    1.17
  10  -3   4    0.37    1.01
  10   3   4   -0.20    0.77
  10  -4  -4   14.62    1.67
  10   4  -4   12.42    1.41
  10   4   4   13.66    1.53
  10  -4   4   15.61    1.84
  10   4   4   14.07    1.45
  10   4  -4   12.26    1.45
  10   5  -4    0.31    0.84
  10  -5   4    0.08    1.03
  10   5   4   -0.05    0.81
  10   5  -4   -0.29    1.03
  10   6  -4   18.21    1.81
  10  -6   4   17.59    1.84
  10   6  -4   19.27    1.84
  10   6   4   19.83    1.73
  10   7  -4   -0.13    0.96
  10  -7   4    0.95    1.06
  10   7  -4    0.17    1.14
  10   7   4    0.31    0.86
  10   8  -4    2.61    1.02
  10   8  -4    2.52    1.17
  10  -8   4    3.05    1.10
  10   8   4    1.87    0.91
  10   9  -4   -0.10    1.08
  10   9  -4    0.48    1.26
  10  -9   4    0.22    1.14
  10   9   4   -0.43    0.97
  10 -10   4   26.13    2.39
  10  10  -4   22.43    2.05
  10  10   4   23.66    2.04
 -10  11  -4   -0.73    1.46
  10  11  -4   -0.18    1.43
  10 -11   4   -0.63    1.28
  10  11   4   -0.06    1.10
  10  12  -4    0.47    1.60
 -10  12  -4    1.74    1.55
  10  12   4   -0.16    1.22
  10  13  -4   -0.39    1.75
  10  14  -4   13.81    1.98
  11   0  -4    0.03    0.93
  11   0   4   -0.31    1.22
  11   0   4    1.56    0.92
  11   0  -4   -0.46    1.40
  11   1  -4    0.02    0.90
  11  -1  -4    0.21    0.95
  11   1  -4    0.21    1.31
  11   1   4    0.18    1.23
  11  -1   4    0.12    1.19
  11  -1   4   -0.54    0.95
  11   1   4    0.50    0.88
  11  -1  -4    0.07    1.33
  11   2  -4   -1.48    1.31
  11   2  -4   -0.99    0.93
  11  -2  -4    0.55    1.36
  11  -2  -4    0.11    0.98
  11   2   4    1.01    1.30
  11  -2   4   -0.77    1.21
  11   2   4    0.78    0.90
  11   3  -4    0.09    0.94
  11   3   4   -0.09    1.31
  11  -3   4   -0.32    1.17
  11   3   4    0.55    0.96
  11  -3  -4   -0.24    1.42
  11   3  -4   -0.27    1.33
  11   4  -4    0.09    0.97
  11   4   4    0.46    1.37
  11  -4   4   -0.48    1.23
  11   4   4    0.67    0.93
  11   5  -4    0.84    1.00
  11  -5   4   -0.43    1.19
  11   5   4   -0.41    0.98
  11   6  -4   -0.40    1.07
  11  -6   4    0.37    1.22
  11   6   4   -0.56    0.99
  11   7  -4    0.35    1.13
  11  -7   4   -0.53    1.24
  11   7   4   -0.15    1.00
  11   8  -4   -0.50    1.19
  11  -8   4   -0.19    1.29
  11   8   4   -1.07    1.08
  11   9  -4   -0.22    1.26
  11  -9   4   -0.61    1.31
  11   9   4    0.27    1.18
  11  10  -4    0.48    1.36
  11 -10   4    0.99    1.43
  11  10   4   -0.33    1.23
  12   0  -4  262.51    6.46
  12   0   4  260.57    7.53
  12   0   4  241.62    5.81
  12   1  -4    0.33    1.13
  12  -1  -4    0.89    1.19
  12   1   4    0.90    1.53
  12  -1   4    1.86    1.51
  12   1   4    0.69    1.09
  12   2  -4   18.49    1.81
  12   2   4   21.23    2.23
  12  -2   4   22.87    2.42
  12   2   4   19.44    1.81
  12   3  -4   -0.19    1.20
  12   3   4    0.28    1.67
  12  -3   4    0.94    1.44
  12   3   4    0.11    1.13
  12   4  -4   25.20    2.14
  12   4   4   24.32    2.25
  12  -4   4   24.89    2.50
  12   4   4   23.40    2.00
  12   5  -4    0.08    1.21
  12  -5   4    0.57    1.40
  12   5   4    1.13    1.14
  12   6  -4   15.29    1.83
  12  -6   4   18.88    2.22
  12   6   4   18.39    1.85
  12   7  -4    0.60    1.38
  12  -7   4   -0.05    1.49
  12   7   4   -0.37    1.25
  13   0  -4   -0.45    1.50
  13   0   4   -0.22    1.91
  13   1  -4    0.17    1.50
  13  -1  -4    0.98    1.48
  13   1   4    0.07    1.89
  13  -1   4    1.13    1.84
  13   2  -4   -0.87    1.46
  13   2   4   -0.58    2.05
  13  -2   4    0.98    1.86
  13   3  -4    0.02    1.45
  13   3   4    0.28    1.99
  13  -3   4    1.08    1.84
   0   0   5   -0.11    0.47
   0   0  -5    0.19    0.50
   0   1   5    0.30    0.47
   0  -1   5   -0.17    0.49
   0   1  -5    0.13    0.48
   0  -1  -5   -0.33    0.49
   0   2   5    0.05    0.48
   0  -2   5    0.32    0.48
   0   2  -5   -0.20    0.47
   0   3   5   -0.20    0.50
   0  -3   5    0.34    0.48
   0   3  -5   -0.09    0.48
   0  -4   5   -0.27    0.52
   0   4  -5    0.26    0.49
   0   4   5    0.11    0.52
   0   5  -5    0.03    0.47
   0  -5   5   -0.25    0.51
   0   5   5   -0.16    0.53
   0  -6   5   -0.01    0.56
   0   6  -5   -0.29    0.52
   0   6   5    0.10    0.58
   0  -7   5    0.33    0.53
   0   7  -5   -0.15    0.51
   0   7   5   -0.03    0.61
   0   8  -5    0.15    0.56
   0   8   5    0.30    0.66
   0   9  -5    0.35    0.58
   0   9   5    0.02    0.73
   0  10  -5   -0.12    0.63
   0  10   5   -0.13    0.76
   0  11  -5   -0.03    0.64
   0  11   5   -0.36    0.82
   0  12  -5   -0.42    0.71
   0  12   5   -0.04    0.91
   0  13   5   -0.18    0.82
   0  13   5    0.76    1.00
   0  13  -5    0.54    0.78
   0  14   5    0.37    0.89
   0  14   5   -0.32    1.10
   0  14  -5    0.00    0.87
   0  15   5    0.31    1.01
   0  15  -5   -0.19    0.94
   0  15   5    0.90    1.21
   0  16   5    0.81    1.11
   0  16  -5   -0.44    1.04
   0  16   5    0.21    1.37
   0  17   5    0.52    1.23
   0  17  -5    0.74    1.18
   0  17   5   -0.16    1.59
   0  18   5    0.18    1.41
   0  18  -5    0.23    1.36
  -1   0   5    0.16    0.50
  -1   0  -5    0.28    0.49
   1   0  -5    0.29    0.52
   1   0   5   -0.16    0.48
  -1   1  -5   74.60    2.62
   1   1  -5   83.46    2.97
  -1  -1  -5   74.78    2.67
   1  -1  -5   79.82    2.92
   1   1   5   84.35    2.91
   1  -1   5   79.40    2.74
  -1   1   5   82.22    3.00
  -1  -1   5   79.30    2.87
  -1   2   5   -0.15    0.51
   1   2  -5   -0.60    0.50
  -1   2  -5   -0.03    0.47
   1   2   5    0.12    0.51
   1  -2   5    0.16    0.47
  -1   3  -5   12.02    1.12
   1   3  -5   13.93    1.28
   1   3   5   11.14    1.15
   1  -3   5    8.13    0.90
  -1   3   5    9.31    1.08
  -1   4   5   -0.70    0.51
  -1   4  -5    0.09    0.48
   1   4  -5    0.04    0.50
   1   4   5   -0.38    0.52
   1  -4   5   -0.23    0.49
  -1   5  -5   70.70    2.55
   1   5  -5   73.41    2.82
   1   5   5   65.29    2.81
   1  -5   5   61.42    2.26
  -1   5   5   61.59    2.79
  -1   6   5   -0.37    0.58
  -1   6  -5    0.07    0.48
   1   6  -5   -0.26    0.54
   1   6   5    0.32    0.61
   1  -6   5   -0.24    0.50
  -1   7  -5  155.85    3.87
   1   7  -5  162.28    4.24
   1   7   5  163.55    4.57
  -1   7   5  164.94    4.71
  -1   8  -5    0.07    0.56
   1   8  -5   -0.50    0.58
   1   8   5    0.55    0.59
  -1   8   5   -0.46    0.68
  -1   9  -5   98.27    3.36
  -1   9  -5   92.88    3.11
   1   9  -5   88.78    3.25
   1   9   5   91.02    3.56
  -1   9   5   97.22    3.79
  -1  10   5   -0.66    0.64
  -1  10  -5   -0.09    0.61
   1  10  -5   -0.07    0.65
   1  10   5   -0.05    0.71
  -1  10   5    0.25    0.79
  -1  11   5   23.70    1.66
  -1  11  -5   28.38    1.85
   1  11  -5   28.81    1.94
   1  11   5   24.28    1.99
  -1  11   5   22.47    1.94
  -1  12  -5    0.09    0.72
   1  12  -5   -0.03    0.72
  -1  12   5    0.35    0.76
   1  12   5    0.09    0.89
  -1  12   5    0.36    0.92
   1  13  -5    3.87    0.91
  -1  13   5    2.44    0.83
   1  13   5    2.11    0.98
  -1  13   5    1.95    1.03
  -1  13  -5    3.66    0.82
  -1  14   5   -0.39    0.91
   1  14   5    0.78    1.09
  -1  14  -5   -0.11    0.86
  -1  14   5   -0.17    1.17
   1  14  -5   -0.72    0.91
  -1  15   5   39.65    2.47
  -1  15  -5   38.81    2.42
   1  15  -5   37.50    2.49
   1  15   5   39.40    2.74
  -1  15   5   32.79    2.50
  -1  16   5   -0.61    1.10
  -1  16  -5    0.37    1.02
   1  16  -5    0.21    1.09
   1  16   5    0.07    1.38
  -1  16   5    0.36    1.48
  -1  17   5   53.01    3.03
  -1  17  -5   49.69    2.90
   1  17  -5   54.29    3.16
   1  17   5   52.36    3.22
  -1  17   5   48.39    3.14
  -1  18   5   -0.16    1.41
  -1  18  -5    0.73    1.39
   1  18   5    0.80    1.74
  -2   0  -5    0.02    0.47
   2   0  -5    0.23    0.52
   2   0   5    0.28    0.49
  -2  -1  -5   -0.02    0.52
  -2   1  -5   -0.13    0.47
   2  -1  -5    0.05    0.51
   2   1  -5   -0.43    0.51
   2   1   5    0.62    0.47
   2  -1   5    0.15    0.49
   2   2  -5    0.08    0.53
  -2   2  -5    0.04    0.50
   2   2   5    0.00    0.47
   2  -2   5    0.16    0.48
  -2   3   5    0.33    0.54
  -2   3  -5   -0.16    0.47
   2   3  -5    0.13    0.54
   2   3   5    0.40    0.50
   2  -3   5    0.06    0.47
  -2   4   5    0.05    0.56
   2   4  -5    0.26    0.54
   2   4   5    0.13    0.49
   2  -4   5    0.08    0.51
  -2   4  -5   -0.14    0.48
  -2   5   5    0.02    0.65
   2   5  -5    0.06    0.54
  -2   5  -5   -0.07    0.47
   2   5   5   -0.22    0.54
   2  -5   5    0.36    0.50
  -2   6   5    0.15    0.59
  -2   6  -5    0.03    0.50
   2   6   5    0.04    0.55
   2   6  -5   -0.29    0.53
  -2   7   5    0.01    0.63
  -2   7  -5    0.42    0.54
   2   7  -5    0.71    0.56
   2   7   5    0.08    0.56
  -2   8   5    0.09    0.69
  -2   8  -5   -0.30    0.55
   2   8  -5    0.01    0.59
   2   8   5   -0.24    0.62
  -2   9  -5   -0.16    0.56
  -2   9   5   -0.15    0.64
   2   9  -5    0.00    0.61
  -2   9  -5   -0.11    0.87
   2   9   5    0.01    0.66
  -2   9   5    0.36    0.73
  -2  10  -5   -0.33    0.92
  -2  10  -5   -0.86    0.62
  -2  10   5    0.08    0.64
   2  10  -5   -0.08    0.66
   2  10   5    0.74    0.74
  -2  10   5   -0.14    0.83
  -2  11  -5   -0.43    0.68
  -2  11   5   -0.31    0.70
   2  11  -5    0.23    0.69
   2  11   5   -0.11    0.82
  -2  11   5    0.23    0.88
  -2  11  -5    0.86    1.03
   2  12  -5   -0.02    0.72
  -2  12   5   -0.29    0.77
   2  12   5   -0.17    0.88
  -2  12  -5   -0.49    1.07
  -2  12  -5    0.37    0.75
  -2  12   5   -0.06    1.00
   2  13  -5    0.20    0.83
  -2  13   5   -0.44    0.84
   2  13   5   -0.07    0.95
  -2  13  -5    0.15    0.79
  -2  13   5    1.20    1.10
   2  14  -5    0.20    0.90
  -2  14   5   -0.39    0.94
  -2  14  -5   -0.04    0.86
   2  14   5    0.41    1.08
  -2  14   5    0.30    1.16
  -2  15   5    0.55    1.05
  -2  15  -5    0.30    0.97
   2  15   5   -0.06    1.17
  -2  15   5   -0.06    1.37
   2  15  -5   -0.07    0.99
  -2  16   5    0.40    1.12
  -2  16  -5    0.33    1.13
   2  16   5    0.37    1.36
   2  16  -5   -0.89    1.12
  -2  16   5   -0.85    1.54
  -2  17   5    0.47    1.27
  -2  17  -5   -0.30    1.20
   2  17   5    1.32    1.57
   2  17  -5    0.45    1.26
  -2  18   5   -0.39    1.47
  -2  18  -5   -0.17    1.46
   2  18   5   -0.35    1.81
  -3   0  -5   -0.02    0.48
   3   0  -5    0.06    0.56
   3   0   5   -0.01    0.49
  -3  -1  -5    0.87    0.47
  -3   1  -5    0.35    0.48
   3  -1  -5   -0.15    0.59
   3   1  -5    0.05    0.57
   3   1   5    0.69    0.50
   3  -1   5    1.04    0.49
   3   2  -5    0.09    0.62
  -3   2  -5    0.69    0.48
  -3  -2  -5    0.15    0.50
   3   2   5    0.02    0.50
   3  -2   5    0.18    0.50
  -3   3  -5  177.79    3.64
   3   3  -5  183.51    4.75
   3   3   5  172.82    4.29
   3  -3   5  174.75    3.82
   3   4  -5    0.30    0.60
  -3   4  -5   -0.05    0.48
   3   4   5   -0.16    0.50
   3  -4   5    0.34    0.47
  -3   5  -5  128.27    3.17
   3   5  -5  120.36    3.87
   3   5   5  130.37    3.88
   3  -5   5  127.54    3.08
  -3   5   5  127.21    4.14
  -3   6   5    0.27    0.63
  -3   6  -5   -0.39    0.47
   3   6   5    0.43    0.55
   3   6  -5    0.18    0.59
  -3   7  -5   24.22    1.45
   3   7  -5   21.79    1.69
   3   7   5   26.23    1.87
  -3   7   5   25.46    1.96
  -3   8   5   -0.09    0.73
  -3   8  -5   -0.38    0.54
   3   8  -5    0.07    0.61
   3   8   5    0.32    0.62
  -3   9   5   49.18    2.11
  -3   9  -5   42.78    2.01
   3   9  -5   44.48    2.47
   3   9   5   45.57    2.55
  -3   9   5   48.36    2.77
  -3  10   5    0.05    0.91
  -3  10  -5   -0.19    0.65
  -3  10  -5    0.08    0.97
  -3  10   5    0.20    0.69
   3  10  -5    0.28    0.69
   3  10   5   -0.32    0.74
  -3  11   5   26.60    1.71
  -3  11  -5   26.02    1.71
  -3  11  -5   28.11    2.19
   3  11  -5   28.09    2.02
   3  11   5   25.07    2.02
  -3  11   5   27.25    2.22
   3  12  -5   -0.49    0.81
  -3  12   5    0.04    0.81
   3  12   5    0.16    0.89
  -3  12  -5   -0.33    0.76
  -3  12  -5   -0.23    1.17
  -3  12   5   -0.66    1.02
  -3  13   5   43.97    2.36
  -3  13  -5   43.40    2.31
   3  13  -5   42.73    2.61
  -3  13  -5   44.44    2.75
   3  13   5   40.56    2.63
  -3  13   5   37.15    2.62
   3  14  -5    0.05    0.99
  -3  14   5    0.64    0.96
  -3  14  -5   -0.16    0.95
   3  14   5   -0.01    1.07
  -3  14  -5    0.06    1.42
  -3  14   5   -0.32    1.27
  -3  15   5    8.22    1.21
  -3  15  -5    6.70    1.08
   3  15   5    8.58    1.42
  -3  15   5    6.27    1.39
   3  15  -5    8.41    1.34
  -3  16   5    0.10    1.23
  -3  16  -5   -0.62    1.21
   3  16   5   -0.48    1.35
   3  16  -5   -0.41    1.20
  -3  16   5    0.02    1.64
  -3  17   5    6.64    1.38
  -3  17  -5    4.41    1.30
   3  17   5    6.21    1.55
   3  17  -5    4.91    1.30
  -3  18   5    0.15    1.58
  -3  18  -5    0.00    1.54
   3  18   5   -0.03    1.90
   4   0  -5    0.03    0.58
   4   0   5   -0.47    0.50
   4  -1  -5   -0.25    0.58
   4   1  -5    0.14    0.58
   4  -1   5    0.30    0.50
   4   1   5    0.22    0.49
   4   2  -5   -0.22    0.60
   4  -2   5    0.00    0.49
   4   2   5    0.57    0.52
   4   3  -5   -0.01    0.61
   4  -3   5    0.20    0.49
   4   3   5   -0.16    0.55
   4   4  -5   -0.08    0.62
   4  -4   5    0.14    0.52
   4   4   5    0.33    0.56
   4   5  -5   -0.07    0.62
   4   5   5    0.25    0.55
   4   6   5    0.30    0.59
   4   6  -5   -0.17    0.61
  -4   7   5   -0.36    0.75
   4   7  -5    0.13    0.65
   4   7   5   -0.05    0.61
  -4   8   5   -0.06    0.80
   4   8  -5   -0.14    0.68
   4   8   5    0.28    0.63
  -4   9   5    0.47    0.87
   4   9  -5    0.14    0.73
   4   9   5    0.01    0.67
  -4  10   5    0.39    0.93
   4  10  -5    0.04    0.74
   4  10   5   -0.45    0.76
  -4  11   5    0.27    1.02
  -4  11  -5    0.26    1.08
   4  11  -5    0.63    0.80
   4  11   5   -0.24    0.85
   4  12  -5    0.27    0.87
   4  12   5    0.22    0.93
  -4  12  -5   -0.10    1.14
  -4  12   5   -0.31    1.12
   4  13  -5   -0.01    0.92
   4  13   5   -0.05    1.02
  -4  13  -5    0.43    1.30
  -4  13   5   -0.06    1.28
   4  14  -5    0.58    1.05
   4  14   5    0.71    1.10
  -4  14  -5    0.83    1.49
  -4  14   5   -0.71    1.39
  -4  15   5   -0.12    1.14
   4  15   5   -0.04    1.22
  -4  15  -5   -0.36    1.62
  -4  15   5    0.29    1.59
   4  15  -5   -0.67    1.16
  -4  16   5    0.17    1.31
   4  16   5    0.64    1.40
  -4  16  -5   -0.63    1.85
   4  16  -5   -0.39    1.27
  -4  17   5   -0.29    1.47
   4  17   5    0.87    1.63
   5   0  -5    0.02    0.65
   5   0   5    0.07    0.55
   5   1   5   31.31    1.76
   5  -1   5   31.21    1.73
   5   1   5   31.68    1.82
   5   2  -5    0.11    0.68
   5  -2   5    0.27    0.53
   5   2   5    0.41    0.52
   5   3  -5   24.55    1.92
   5  -3   5   30.31    1.63
   5   3   5   27.68    1.79
   5   4  -5    0.13    0.68
   5  -4   5    0.13    0.56
   5   4   5   -0.25    0.57
   5   5  -5   92.79    3.62
   5   5   5  105.72    3.56
   5   6   5   -0.54    0.59
   5   6  -5   -0.05    0.69
   5   7  -5   88.95    3.57
   5   7   5   89.49    3.42
   5   8  -5    0.04    0.73
   5   8   5    0.06    0.68
   5   9  -5   49.35    2.74
   5   9   5   44.80    2.57
  -5   9   5   48.45    2.90
  -5  10   5    0.42    1.01
   5  10  -5   -0.48    0.84
   5  10   5    0.00    0.76
  -5  11  -5   50.78    3.06
   5  11  -5   49.30    2.83
   5  11   5   52.31    2.88
  -5  11   5   49.66    3.04
  -5  12   5   -0.61    1.19
  -5  12  -5    0.03    1.22
   5  12  -5   -0.22    0.94
   5  12   5   -0.04    0.98
   5  13  -5   11.45    1.48
   5  13   5   17.06    1.79
  -5  13   5   16.09    1.82
  -5  13  -5   12.12    1.68
   5  14  -5    0.08    1.12
   5  14   5    0.43    1.15
  -5  14  -5   -0.58    1.53
  -5  14   5   -0.20    1.47
   5  15  -5   20.27    2.16
  -5  15  -5   19.20    2.16
   5  15   5   17.47    1.94
   5  16   5   -0.25    1.47
  -5  16  -5   -0.11    1.95
   5  16  -5    0.93    1.36
  -5  17  -5   40.46    3.12
   5  17   5   29.43    2.53
   6   0   5    0.32    0.78
   6   0   5   -0.26    0.60
   6   0  -5    0.03    0.72
   6   1  -5   -0.60    0.70
   6   1   5   -0.15    0.72
   6  -1   5    0.23    0.60
   6   1   5   -0.42    0.58
   6  -1  -5    0.33    0.73
   6  -2   5   -0.15    0.58
   6   2   5   -0.11    0.58
   6  -2  -5   -0.13    0.73
   6   2  -5   -0.18    0.75
   6   3  -5   -0.44    0.78
   6  -3   5    0.21    0.60
   6   3   5   -0.38    0.62
   6   4  -5   -0.43    0.76
   6   4   5    0.05    0.62
   6   5  -5   -0.14    0.75
   6   5   5   -0.09    0.65
   6   6   5   -0.13    0.66
   6   6  -5   -0.91    0.76
   6   7   5   -0.08    0.68
   6   7  -5   -0.27    0.80
   6   8  -5   -0.10    0.87
   6   8   5    0.27    0.74
   6   9  -5    0.69    0.91
   6   9   5   -0.02    0.77
  -6  10   5    0.10    1.12
   6  10  -5    0.29    0.95
   6  10   5    0.42    0.86
  -6  11   5    0.20    1.22
  -6  11  -5    0.71    1.23
   6  11  -5   -0.68    0.98
   6  11   5    0.46    0.91
  -6  12  -5   -0.61    1.38
  -6  12   5    0.14    1.35
   6  12  -5   -0.21    1.05
   6  12   5    0.00    1.01
  -6  13   5    0.29    1.52
   6  13  -5    0.59    1.12
   6  13   5   -0.19    1.09
  -6  13  -5    1.41    1.41
  -6  14   5    0.51    1.67
   6  14  -5   -0.63    1.26
   6  14   5   -0.38    1.21
  -6  14  -5    0.21    1.62
   6  15   5    0.85    1.38
  -6  15  -5   -0.80    1.81
   6  15  -5   -0.60    1.36
  -6  16  -5   -0.32    2.15
   7   0   5    0.33    0.83
   7   0  -5   -0.50    0.85
   7   0   5    0.01    0.63
   7   1  -5   43.68    2.15
   7   1   5   38.37    2.23
   7  -1   5   41.27    2.41
   7   1  -5   47.53    2.79
   7  -1  -5   42.66    2.65
   7  -1   5   39.48    2.03
   7   1   5   35.87    2.03
   7  -2   5    0.05    0.79
   7  -2  -5   -0.32    0.87
   7  -2   5    0.06    0.66
   7   2   5   -0.05    0.65
   7   2  -5   -0.40    0.88
   7   3  -5   16.56    1.77
   7   3   5   19.56    1.57
   7   4  -5   -0.78    0.89
   7   4   5    0.01    0.70
   7   5  -5   52.26    2.92
   7   5   5   65.87    2.94
   7   6   5   -0.62    0.72
   7   6  -5   -0.35    0.87
   7   7  -5   88.66    3.81
   7   7   5   79.36    3.37
   7   8  -5    0.37    0.98
   7   8   5   -0.09    0.84
   7   9  -5   62.07    3.26
   7   9   5   59.50    3.07
   7  10  -5    0.44    1.04
   7  10   5    0.09    0.96
   7  11  -5   25.28    2.16
   7  11   5   25.46    2.12
  -7  11   5   30.84    2.53
  -7  12  -5    0.46    1.45
  -7  12   5   -0.08    1.49
   7  12  -5    0.19    1.19
   7  12   5   -0.18    1.09
  -7  13  -5    6.42    1.57
  -7  13   5    6.16    1.65
   7  13  -5    4.08    1.29
   7  13   5    8.15    1.32
   7  14  -5    0.21    1.45
   7  14   5    0.77    1.30
  -7  14  -5    0.80    1.74
  -7  15  -5   25.17    2.64
   8   0  -5    0.15    0.95
   8   0   5    0.09    0.99
   8   0   5    0.28    0.71
   8   1  -5    0.46    0.79
   8   1   5    0.30    1.01
   8  -1   5    0.26    0.98
   8  -1   5    0.05    0.74
   8   1   5   -0.20    0.72
   8  -1  -5   -0.14    0.96
   8   1  -5   -0.14    0.99
   8   2  -5    0.16    0.76
   8  -2   5    0.04    0.98
   8  -2  -5    0.26    0.99
   8   2  -5    0.01    0.97
   8  -2   5   -0.11    0.72
   8   2   5    0.18    0.74
   8   3  -5   -0.20    0.78
   8   3  -5   -0.03    1.01
   8  -3   5    0.50    0.92
   8   3   5   -0.04    0.73
   8  -3  -5   -0.66    1.00
   8   4  -5   -0.59    0.99
   8  -4   5   -0.17    0.95
   8   4   5    0.28    0.77
   8   5  -5   -0.06    1.00
   8   5   5   -0.03    0.77
   8   6   5    0.80    0.81
   8   6  -5   -0.41    1.01
   8   7  -5    0.74    1.10
   8   7   5   -0.42    0.87
   8   8  -5   -0.02    1.08
   8   8   5   -0.64    0.88
   8   9  -5   -0.24    1.14
   8   9   5    0.37    0.95
   8  10  -5    0.03    1.28
   8  10   5   -0.13    1.03
   8  11  -5   -0.77    1.32
   8  11   5    1.34    1.12
  -8  12  -5    1.38    1.62
  -8  12   5    0.02    1.69
   8  12  -5    0.13    1.39
   8  12   5   -0.93    1.20
  -8  13  -5    0.98    1.73
   8  13  -5   -0.74    1.50
   8  13   5    0.10    1.32
   9   0  -5   -1.23    1.15
   9   0   5   -0.37    1.13
   9   0   5   -0.22    0.83
   9   1  -5    8.20    1.12
   9  -1  -5   10.22    1.56
   9   1   5    7.80    1.26
   9  -1   5    8.30    1.40
   9  -1   5    7.23    1.04
   9   1   5    8.91    1.14
   9   1  -5    6.58    1.36
   9   2  -5    0.36    0.92
   9  -2   5   -0.73    1.11
   9   2  -5   -0.30    1.19
   9   2   5    0.19    0.85
   9  -2  -5   -0.01    1.14
   9   3  -5   82.80    3.40
   9  -3   5   79.17    3.77
   9   3  -5   80.92    3.89
   9  -3  -5   83.68    3.96
   9   3   5   77.67    3.28
   9   4  -5   -0.51    1.17
   9  -4  -5    0.37    1.19
   9   4  -5    0.36    0.97
   9  -4   5    0.65    1.07
   9   4   5    0.08    0.86
   9   5  -5   67.05    3.23
   9  -5   5   61.79    3.42
   9   5  -5   62.82    3.38
   9   5   5   57.16    2.91
   9  -6   5    0.47    1.12
   9   6   5   -0.05    0.94
   9   6  -5   -1.05    1.17
   9   7  -5   17.16    1.94
   9   7   5   17.86    1.79
   9   8  -5   -0.39    1.26
   9   8   5    0.18    1.03
   9   9  -5   27.98    2.36
   9   9   5   32.72    2.39
   9  10  -5    0.67    1.43
   9  10   5    0.31    1.17
   9  11  -5   11.50    1.74
   9  11   5   10.11    1.50
   9  12  -5    0.72    1.64
  10   0   5    0.69    1.30
  10   0   5    0.45    1.00
  10   0  -5   -0.02    1.41
  10  -1  -5    0.62    1.39
  10   1   5   -0.24    1.36
  10  -1   5    0.08    1.33
  10   1  -5   -0.71    1.39
  10   1   5    0.13    0.98
  10   2  -5   -0.15    1.09
  10   2  -5   -0.76    1.35
  10  -2  -5    0.12    1.38
  10  -2   5   -0.35    1.34
  10   2   5    0.20    0.98
  10   3  -5    0.04    1.32
  10   3  -5   -0.81    1.08
  10  -3   5   -0.04    1.35
  10   3   5   -0.08    0.98
  10  -3  -5    0.13    1.34
  10   4  -5    0.64    1.13
  10  -4   5    0.28    1.28
  10  -4  -5   -0.13    1.44
  10   4   5   -0.20    0.99
  10   4  -5   -0.76    1.38
  10   5  -5    0.35    1.13
  10  -5   5    0.38    1.29
  10   5   5   -0.32    1.03
  10  -5  -5   -0.11    1.43
  10   5  -5   -0.30    1.43
  10   6  -5    0.26    1.19
  10  -6   5    0.35    1.31
  10   6   5   -0.24    1.07
  10   6  -5   -0.09    1.43
  10  -7   5   -0.48    1.34
  10   7  -5   -0.26    1.46
  10   7   5   -0.21    1.09
  10   8  -5    0.98    1.55
  10  -8   5    1.03    1.36
  10   8   5   -0.48    1.18
  10   9  -5   -1.15    1.67
  10  -9   5    0.04    1.38
  10   9   5    0.03    1.22
  10  10  -5    0.41    1.81
  10  11  -5   -0.55    1.91
  11   0   5    0.17    1.63
  11   0  -5   -0.74    1.80
  11  -1   5   26.78    2.63
  11   1  -5   25.36    2.34
  11  -1  -5   24.22    2.30
  11   1   5   24.96    2.02
  11  -2  -5   -0.57    1.76
  11   2  -5   -1.70    1.77
  11   2  -5   -0.29    1.22
  11  -2   5   -0.24    1.56
  11   2   5   -0.21    1.20
  11   3  -5    8.83    1.75
  11   3  -5    9.35    1.45
  11  -3  -5    7.45    1.71
  11  -3   5    6.20    1.58
  11   3   5    7.54    1.28
  11   4  -5   -0.14    1.29
  11  -4   5   -0.09    1.53
  11   4   5   -0.49    1.20
  11  -4  -5   -1.13    1.82
  11   4  -5   -1.41    1.76
  11   5  -5   37.05    2.69
  11  -5   5   33.54    2.80
  11   5  -5   42.77    2.96
  11  -5  -5   44.46    3.11
  11   5   5   32.98    2.42
  11   6  -5   -0.13    1.41
  11  -6  -5   -0.59    1.80
  11  -6   5    0.76    1.59
  11   6  -5   -0.88    1.80
  11   6   5    0.44    1.29
  11  -7   5   64.86    3.95
  11   7  -5   54.06    3.40
  11  -7  -5   56.26    3.46
  11   8  -5   -0.17    1.96
  11   9  -5   24.60    2.41
  12   0   5    0.28    2.10
  12  -1   5    0.37    2.01
  12  -2   5   -1.09    1.99
  12   2   5   -0.05    1.49
  12   3  -5    0.38    1.63
  12  -3   5    0.78    1.95
  12   3   5    0.21    1.47
  12   4  -5   -0.33    1.63
   0   0  -6   -0.16    0.67
   0   0   6    0.25    0.64
   0  -1   6   -0.32    0.66
   0   1  -6   -0.06    0.69
   0  -1  -6   -0.39    0.68
   0   1   6   -0.19    0.68
   0   2  -6   77.82    3.12
   0  -2  -6   74.95    3.06
   0   2   6   74.85    3.13
   0  -2   6   74.34    2.97
   0  -3   6    0.03    0.68
   0   3  -6   -0.39    0.71
   0   3   6   -0.39    0.66
   0  -4   6    0.29    0.72
   0   4  -6   -0.36    0.67
   0   4   6    0.42    0.69
   0  -5   6   -0.01    0.75
   0   5   6   -0.12    0.74
   0   5  -6   -0.01    0.67
   0   6  -6    7.44    1.09
   0   6   6    8.93    1.24
   0   7  -6    0.54    0.72
   0   7   6   -0.04    0.80
   0   8  -6    0.13    0.77
   0   8   6    2.33    0.86
   0   9  -6    0.06    0.82
   0   9   6   -0.28    0.90
   0  10  -6    0.42    0.83
   0  10   6    1.61    0.98
   0  11  -6   -0.47    0.91
   0  11   6    0.12    1.10
   0  12  -6   -0.34    1.00
   0  12   6    0.97    1.17
   0  13  -6   -0.23    1.06
   0  13   6   -1.25    1.33
   0  14   6    0.79    1.44
   0  14  -6    1.13    1.20
   0  15   6   -0.13    1.63
   0  15  -6   -0.57    1.34
   0  16   6    0.93    1.91
  -1   0   6   -0.39    0.66
  -1   0  -6    0.03    0.64
   1   0  -6    0.18    0.65
   1   0   6   -0.02    0.64
  -1   1   6   -0.41    0.66
  -1  -1   6    0.11    0.65
  -1  -1  -6    0.00    0.66
   1   1  -6    0.19    0.65
   1  -1  -6    0.28    0.68
  -1   1  -6   -0.28    0.68
   1   1   6    0.06    0.65
   1  -1   6   -0.02    0.64
  -1   2   6   -0.09    0.67
  -1  -2   6   -0.29    0.68
   1  -2  -6    0.23    0.66
  -1  -2  -6    0.10    0.68
  -1   2  -6    0.30    0.68
   1   2  -6    0.27    0.66
   1   2   6   -0.75    0.66
   1  -2   6    0.16    0.66
  -1   3   6    0.14    0.71
  -1  -3   6   -0.37    0.66
  -1   3  -6   -0.44    0.64
   1   3  -6   -0.15    0.69
   1   3   6   -0.27    0.68
   1  -3   6   -0.13    0.67
  -1   4   6   -0.04    0.71
  -1  -4   6   -0.12    0.72
  -1   4  -6    0.07    0.68
   1   4  -6    0.09    0.72
   1   4   6   -0.05    0.71
   1  -4   6    0.63    0.71
   1   5  -6   -0.13    0.72
  -1  -5   6    0.39    0.70
  -1   5  -6    0.25    0.69
   1   5   6    0.41    0.70
   1  -5   6   -0.14    0.70
  -1   5   6    0.39    0.72
  -1  -6   6   -0.27    0.76
  -1   6  -6   -0.07    0.70
   1   6  -6    0.26    0.72
   1   6   6   -0.05    0.72
  -1   6   6   -0.14    0.76
  -1   7  -6   -0.07    0.73
   1   7  -6   -0.63    0.72
   1   7   6   -0.48    0.82
  -1   7   6    0.04    0.83
  -1   8  -6    0.21    0.78
   1   8  -6   -0.07    0.79
   1   8   6   -0.08    0.84
  -1   8   6   -0.01    0.86
  -1   9  -6   -0.46    0.81
   1   9  -6    0.03    0.81
   1   9   6   -0.28    0.91
  -1   9   6   -0.01    0.93
  -1  10  -6    0.08    0.82
   1  10  -6    0.60    0.86
   1  10   6    0.08    0.98
  -1  10   6   -0.17    1.01
  -1  11  -6    0.13    0.89
   1  11  -6   -0.19    0.92
   1  11   6   -0.43    1.06
  -1  11   6   -0.33    1.10
  -1  12  -6   -0.12    0.99
   1  12  -6   -0.13    1.00
   1  12   6   -0.22    1.19
  -1  12   6    0.26    1.18
   1  13  -6   -0.61    1.10
   1  13   6    0.08    1.28
  -1  13   6   -0.02    1.34
  -1  13  -6   -0.09    1.09
   1  14  -6   -0.05    1.21
   1  14   6    0.50    1.43
  -1  14   6    0.94    1.50
  -1  14  -6    0.03    1.20
  -1  15  -6   -0.20    1.32
   1  15   6    3.61    1.63
  -1  15   6   -1.26    1.71
   1  15  -6    0.04    1.34
  -1  16  -6    0.90    1.54
   1  16   6    0.33    1.88
  -1  16   6   -1.05    1.98
  -2   0  -6   13.59    1.31
   2   0  -6   14.42    1.49
   2   0   6   18.97    1.56
  -2   0   6   21.58    1.72
  -2   1   6    0.51    0.71
  -2  -1   6    0.21    0.68
   2   1  -6   -0.17    0.72
   2  -1  -6   -0.04    0.70
  -2  -1  -6   -0.67    0.67
  -2   1  -6   -0.29    0.66
   2   1   6    0.41    0.64
   2  -1   6    0.12    0.65
  -2   2  -6  194.83    4.56
   2   2  -6  191.66    5.16
  -2  -2  -6  189.80    4.59
   2  -2  -6  192.71    5.15
   2   2   6  191.58    4.91
   2  -2   6  195.12    4.66
  -2   2   6  193.59    5.19
  -2  -2   6  196.11    4.99
  -2   3   6   -0.46    0.72
  -2   3  -6   -0.61    0.67
   2   3  -6   -0.26    0.74
  -2  -3  -6   -0.53    0.70
   2   3   6    0.06    0.69
   2  -3   6   -0.19    0.67
  -2   4  -6   74.10    2.79
   2   4  -6   76.51    3.30
   2   4   6   71.69    3.15
   2  -4   6   74.87    2.78
  -2   4   6   80.15    3.43
  -2   5   6   -0.06    0.78
   2   5  -6    0.30    0.74
  -2   5  -6   -0.59    0.65
   2   5   6   -0.24    0.69
  -2   6  -6   50.02    2.35
   2   6  -6   50.87    2.73
   2   6   6   51.78    2.78
  -2   6   6   44.34    2.70
  -2   7   6    0.46    0.82
  -2   7  -6    0.15    0.73
   2   7  -6   -0.03    0.80
   2   7   6    0.14    0.78
  -2   8  -6    1.78    0.76
   2   8  -6    1.68    0.81
   2   8   6    3.05    0.86
  -2   8   6    3.02    0.88
  -2   9  -6    0.19    0.76
   2   9  -6   -0.15    0.87
   2   9   6    0.11    0.88
  -2   9   6    0.24    0.96
  -2  10  -6  102.87    3.55
   2  10  -6  103.00    4.02
   2  10   6  105.27    4.31
  -2  10   6  109.67    4.49
  -2  11  -6    0.13    0.90
   2  11  -6   -0.51    0.98
   2  11   6    0.67    1.07
  -2  11   6    0.15    1.16
  -2  12  -6   81.15    3.37
   2  12  -6   88.67    3.86
   2  12   6   80.58    3.98
  -2  12   6   88.21    4.21
   2  13  -6    0.22    1.12
   2  13   6    0.64    1.28
  -2  13  -6    0.59    1.11
  -2  13   6    0.61    1.40
  -2  14  -6  107.80    4.04
   2  14  -6  111.96    4.57
   2  14   6  104.71    4.67
  -2  14   6  114.86    4.97
  -2  15  -6   -0.50    1.36
   2  15   6   -0.41    1.61
  -2  15   6   -0.11    1.76
   2  15  -6   -1.13    1.41
  -2  16  -6    3.20    1.59
  -2  16   6    3.47    2.08
   3   0  -6   -0.59    0.73
  -3   0  -6    0.69    0.68
   3   0   6    0.21    0.68
   3   1  -6   -0.13    0.73
  -3  -1  -6   -0.18    0.68
  -3   1  -6    0.08    0.65
   3  -1  -6    0.10    0.73
   3   1   6   -0.02    0.64
   3  -1   6   -0.05    0.66
  -3   2   6   -0.42    0.71
   3  -2  -6    0.00    0.70
  -3   2  -6    0.10    0.64
   3   2   6   -0.22    0.67
   3  -2   6    0.14    0.66
   3   2  -6    0.31    0.72
  -3  -2  -6   -0.12    0.67
  -3   3   6    0.31    0.75
  -3  -3  -6   -0.15    0.75
   3   3  -6    0.16    0.75
   3   3   6   -0.15    0.68
   3  -3   6   -0.22    0.72
  -3   3  -6   -0.12    0.68
  -3   4   6   -0.47    0.79
   3   4  -6   -0.06    0.80
  -3   4  -6    0.32    0.65
   3   4   6    0.63    0.72
   3  -4   6    0.00    0.69
  -3   5   6   -0.19    0.78
   3   5  -6   -0.15    0.76
  -3   5  -6    0.14    0.70
   3   5   6   -0.40    0.71
  -3   6   6   -0.27    0.84
  -3   6  -6    0.13    0.67
   3   6   6    0.37    0.75
   3   6  -6    0.20    0.80
  -3   7   6    0.36    0.89
  -3   7  -6   -0.32    0.68
   3   7  -6   -0.46    0.85
   3   7   6   -0.01    0.81
  -3   8   6   -0.19    0.96
   3   8  -6    0.04    0.86
   3   8   6    0.25    0.85
  -3   9   6   -0.39    1.02
   3   9  -6   -0.04    0.94
   3   9   6   -0.34    0.94
   3  10  -6    0.56    0.97
   3  10   6   -0.15    1.00
  -3  10   6    0.33    1.13
   3  11  -6   -0.25    1.01
   3  11   6   -0.02    1.09
  -3  11   6    0.00    1.22
   3  12  -6    0.06    1.10
   3  12   6    0.60    1.19
  -3  12   6    0.52    1.32
   3  13  -6    0.40    1.21
   3  13   6   -0.53    1.29
  -3  13   6   -0.41    1.48
   3  14  -6   -0.22    1.33
   3  14   6   -1.01    1.46
  -3  14   6   -0.38    1.68
   3  15   6    1.32    1.63
  -3  15   6    0.14    1.92
  -3  16   6    0.12    2.18
   4   0  -6    0.33    0.79
   4   0   6    0.91    0.70
   4   1  -6   -0.26    0.79
   4  -1  -6   -0.89    0.79
   4  -1   6   -0.06    0.71
   4   1   6    0.70    0.70
   4  -2  -6    2.79    0.87
   4  -2   6    5.30    0.89
   4   2   6    6.66    0.98
   4   2  -6    3.33    0.97
   4   3  -6   -0.08    0.84
   4  -3   6    0.26    0.70
   4   3   6    0.07    0.73
   4   4  -6   14.35    1.58
   4   4   6   16.65    1.57
  -4   5   6    0.13    0.85
   4   5  -6    0.59    0.85
   4   5   6    0.31    0.77
   4   6  -6   21.23    1.91
   4   6   6   21.40    1.81
  -4   6   6   22.03    2.01
  -4   7   6    0.00    0.96
   4   7  -6    0.02    0.90
   4   7   6   -0.40    0.83
  -4   8   6    3.22    1.03
   4   8  -6    3.45    0.96
   4   8   6    3.38    0.93
  -4   9   6   -0.53    1.08
   4   9  -6   -0.25    0.97
   4   9   6    0.19    0.91
   4  10  -6   26.07    2.14
   4  10   6   24.36    2.14
  -4  10   6   24.82    2.30
   4  11  -6   -0.23    1.14
   4  11   6   -0.20    1.14
  -4  11   6   -0.69    1.30
   4  12  -6    0.12    1.19
   4  12   6    2.31    1.21
  -4  12   6    1.08    1.44
   4  13  -6    0.03    1.25
   4  13   6   -0.34    1.34
  -4  13   6    0.41    1.55
   4  14  -6   20.88    2.12
   4  14   6   17.68    2.01
  -4  14   6   15.09    1.88
  -4  15   6    0.78    2.10
   5   0  -6   -0.29    0.82
   5   0   6   -0.03    0.76
   5   1  -6    0.15    0.85
   5  -1  -6    0.34    0.83
   5  -1   6   -0.45    0.73
   5   1   6    0.18    0.75
   5  -2  -6    0.03    0.84
   5   2  -6   -0.03    0.85
   5  -2   6    0.35    0.73
   5   2   6    0.44    0.76
   5  -3  -6    0.51    0.83
   5   3  -6   -0.25    0.87
   5   3   6   -0.15    0.77
   5   4  -6   -0.13    0.89
   5   4   6    0.08    0.80
   5   5  -6   -0.61    0.93
   5   5   6    0.05    0.78
   5   6   6    0.22    0.80
   5   6  -6   -0.12    0.94
  -5   7   6    0.27    1.06
   5   7  -6   -0.99    0.98
   5   7   6   -0.03    0.90
  -5   8   6    0.77    1.12
   5   8  -6    0.17    1.04
   5   8   6    0.47    0.93
  -5   9   6    0.78    1.18
   5   9  -6   -0.22    1.02
   5   9   6    0.71    1.01
  -5  10   6    0.43    1.26
   5  10  -6    0.75    1.09
   5  10   6    0.21    1.09
  -5  11   6   -0.33    1.42
  -5  11  -6    0.41    1.62
   5  11  -6    1.63    1.21
   5  11   6    0.16    1.15
  -5  12  -6    0.05    1.76
   5  12  -6    0.18    1.28
   5  12   6   -0.18    1.25
  -5  12   6   -0.54    1.52
   5  13  -6   -0.03    1.38
   5  13   6    0.11    1.38
  -5  13   6   -0.19    1.71
  -5  14   6    0.98    1.95
  -5  15   6    0.39    2.17
   6   0  -6  376.28    7.98
   6   0   6  354.58    6.61
   6  -1   6    0.47    0.83
   6   1   6   -0.55    0.80
   6  -1  -6   -0.26    0.91
   6   1  -6    0.01    0.94
   6  -2  -6    8.06    1.33
   6   2  -6    6.74    1.26
   6  -2   6    6.18    0.91
   6   2   6    7.81    1.06
   6   3  -6   -0.67    0.96
   6   3   6    0.76    0.85
   6  -3  -6   -0.37    0.95
   6   4  -6   40.32    2.75
   6   4   6   37.19    2.37
   6   5  -6   -0.69    1.02
   6   5   6   -0.01    0.88
   6   6   6    5.11    0.96
   6   6  -6    5.08    1.10
   6   7   6   -0.03    0.96
   6   7  -6    0.18    1.09
   6   8  -6  112.40    4.58
   6   8   6  106.51    4.26
  -6   8   6  111.89    4.74
  -6   9   6    0.41    1.33
   6   9  -6   -0.70    1.20
   6   9   6    0.01    1.10
  -6  10   6    4.98    1.42
   6  10  -6    4.36    1.25
   6  10   6    4.76    1.15
  -6  11   6   -0.09    1.53
  -6  11  -6   -0.96    1.71
   6  11  -6   -0.19    1.33
   6  11   6    0.19    1.22
  -6  12  -6   83.21    4.29
   6  12  -6   87.85    4.29
   6  12   6   88.09    4.18
  -6  12   6   87.65    4.43
  -6  13  -6   -0.97    2.05
  -6  13   6    0.22    1.95
  -6  14  -6    4.30    2.30
  -6  14   6    3.54    2.15
   7   0  -6   -0.21    1.04
   7   0   6   -0.18    0.90
   7  -1  -6    0.42    1.07
   7  -1   6    0.31    0.93
   7   1   6    0.01    0.86
   7   1  -6    0.47    1.06
   7  -2  -6   -0.40    1.08
   7   2  -6    0.16    1.09
   7   2   6   -0.14    0.91
   7   3  -6   -0.61    1.13
   7   3   6    0.19    0.90
   7  -3  -6    0.36    1.08
   7   4  -6    0.13    1.13
   7  -4  -6    0.09    1.11
   7   4   6    0.37    0.93
   7   5  -6   -0.26    1.12
   7   5   6    0.55    0.97
   7   6   6    0.19    0.99
   7   6  -6   -0.30    1.14
   7   7  -6   -0.71    1.20
   7   7   6    0.26    1.04
   7   8  -6    0.41    1.25
   7   8   6   -0.47    1.15
  -7   9   6    0.06    1.43
   7   9  -6   -0.20    1.33
   7   9   6   -0.44    1.18
  -7  10   6   -0.81    1.59
   7  10  -6    0.18    1.38
   7  10   6    1.12    1.27
  -7  11   6    0.79    1.74
  -7  11  -6   -0.21    1.90
   7  11  -6    0.21    1.47
  -7  12   6    0.97    1.94
  -7  12  -6    0.50    2.10
   8   0   6   -0.25    1.01
   8   0  -6   -0.18    1.24
   8  -1  -6   -0.20    1.22
   8   1  -6   -0.35    1.25
   8   1   6   -0.30    1.02
   8   2  -6    4.67    1.28
   8   2   6    3.93    1.02
   8  -2  -6    3.48    1.21
   8  -3  -6   -0.04    1.26
   8   3  -6   -0.46    1.26
   8  -3   6    0.24    1.30
   8   3   6    0.75    0.98
   8   4  -6   10.24    1.49
   8  -4  -6   12.63    1.64
   8  -4   6   11.11    1.42
   8   4   6   10.86    1.41
   8  -5  -6    0.14    1.26
   8   5   6    0.59    1.11
   8   5  -6    0.44    1.28
   8   6   6   12.80    1.52
   8   6  -6   11.17    1.66
   8   7  -6    0.24    1.41
   8   7   6   -0.01    1.16
   8   8  -6    3.85    1.48
   8   8   6    2.36    1.24
   8   9  -6    0.99    1.55
   8   9   6    0.51    1.31
  -8  10   6   14.32    1.91
   9   0  -6   -0.54    1.39
   9  -1  -6    0.04    1.43
   9   1  -6    0.21    1.39
   9   1   6   -0.24    1.18
   9  -2  -6    0.94    1.39
   9   2  -6    0.22    1.46
   9   2   6   -0.44    1.18
   9   3  -6   -0.82    1.48
   9  -3   6    0.82    1.45
   9   3   6    0.84    1.19
   9  -3  -6    0.62    1.46
   9   4  -6   -0.13    1.49
   9  -4  -6    0.62    1.50
   9  -4   6   -0.09    1.46
   9   4   6   -0.38    1.21
   9  -5  -6   -0.41    1.53
   9  -5   6    0.00    1.54
   9   5   6    0.18    1.23
   9   5  -6   -0.52    1.52
   9  -6  -6    0.31    1.57
   9  -6   6   -0.07    1.51
   9   6   6   -0.94    1.27
   9   6  -6    0.06    1.59
   9  -7   6    1.30    1.55
   9   7  -6   -0.44    1.69
   9   7   6   -0.25    1.29
   9   8  -6    0.78    1.72
  10   0  -6   48.67    3.30
  10   1  -6   -1.61    1.75
  10  -1  -6   -0.39    1.76
  10   2  -6   57.46    3.63
  10  -2  -6   60.47    3.74
  10   2   6   50.09    2.91
  10   3  -6    0.38    1.78
  10  -3  -6   -1.01    1.74
  10   3   6   -0.33    1.40
  10  -4   6   73.46    4.00
  10   4  -6   85.84    4.34
  10  -4  -6   87.23    4.44
  10   4   6   76.86    3.67
  10  -5  -6   -0.49    1.88
  10  -5   6    0.16    1.84
  10   5  -6   -1.52    1.81
  10  -6   6    7.97    1.84
   0   0   7    0.34    0.91
   0   0  -7   -0.21    0.93
   0  -1  -7    0.42    0.90
   0   1  -7   -0.05    0.95
   0   1   7    0.12    0.90
   0  -1   7    0.16    0.90
   0   2  -7   -0.34    0.93
   0  -2  -7    0.00    0.92
   0   2   7    0.48    0.91
   0  -2   7    0.40    0.92
   0   3  -7    0.17    0.98
   0  -3  -7   -0.27    0.95
   0   3   7    0.27    0.92
   0  -3   7    0.02    0.97
   0   4  -7    0.22    0.92
   0  -4  -7    0.41    0.93
   0   4   7    0.56    0.98
   0  -4   7    0.18    1.00
   0   5  -7   -0.30    0.98
   0   5   7    0.00    0.99
   0   6  -7    0.12    0.96
   0   6   7    0.50    1.05
   0   7  -7    0.06    1.03
   0   7   7   -0.26    1.08
   0   8  -7   -0.01    1.06
   0   8   7   -0.90    1.10
   0   9  -7   -0.14    1.12
   0   9   7    0.39    1.20
   0  10  -7    0.28    1.21
   0  10   7   -0.74    1.28
   0  11  -7   -0.28    1.30
   0  11   7   -0.38    1.45
   0  12  -7    0.24    1.44
  -1   0   7   -0.24    0.93
   1   0  -7   -0.48    0.91
  -1   0  -7   -0.17    0.88
   1   0   7    0.02    0.92
   1   1  -7   23.29    1.95
  -1  -1  -7   25.43    1.92
   1  -1  -7   20.89    1.85
   1   1   7   19.08    1.79
   1  -1   7   21.03    1.79
  -1   1   7   19.00    1.76
  -1  -1   7   19.12    1.77
  -1  -2   7    0.67    0.92
   1  -2  -7   -0.18    0.93
  -1   2  -7   -0.76    0.92
   1   2  -7   -0.61    0.98
  -1  -2  -7   -0.59    0.94
   1   2   7   -0.28    0.92
   1  -2   7    0.11    0.93
  -1   2   7   -0.66    0.91
  -1   3  -7   15.43    1.53
   1   3  -7   15.17    1.67
  -1  -3  -7   16.75    1.67
   1  -3  -7   12.25    1.49
   1   3   7   17.18    1.72
   1  -3   7   19.27    1.68
  -1   3   7   16.19    1.71
  -1  -3   7   18.03    1.70
  -1  -4   7    0.63    1.01
   1   4  -7   -0.25    0.98
  -1  -4  -7   -0.16    0.97
   1  -4  -7   -0.06    0.98
   1   4   7   -0.14    0.97
  -1   4  -7   -0.26    0.95
  -1   4   7    0.07    0.95
  -1   5  -7   55.36    2.79
   1   5  -7   57.55    2.98
   1   5   7   65.26    3.30
  -1   5   7   63.57    3.39
  -1   6  -7    0.03    1.03
   1   6  -7   -0.81    1.01
   1   6   7    0.45    1.03
  -1   6   7    0.19    1.03
  -1   7  -7   65.02    3.07
   1   7  -7   66.70    3.32
   1   7   7   56.91    3.25
  -1   7   7   61.72    3.41
  -1   8  -7    0.44    1.11
   1   8  -7    0.30    1.12
   1   8   7   -0.55    1.16
  -1   8   7    0.01    1.17
  -1   9  -7   40.50    2.50
   1   9  -7   41.11    2.69
   1   9   7   34.34    2.68
  -1   9   7   39.99    2.88
  -1  10  -7   -0.01    1.19
   1  10  -7   -0.32    1.23
   1  10   7    0.02    1.31
  -1  10   7    0.28    1.32
  -1  11  -7   25.99    2.13
   1  11  -7   26.47    2.22
   1  11   7   31.88    2.68
  -1  11   7   30.25    2.62
  -1  12  -7   -0.68    1.45
   1  12  -7    0.24    1.40
  -1  13  -7    6.05    1.57
  -2   0   7   -0.24    0.93
   2   0  -7   -0.23    0.94
  -2   0  -7   -0.56    0.99
   2   0   7   -0.52    0.92
  -2  -1  -7   -0.04    0.92
  -2   1   7    0.04    0.94
  -2  -1   7    0.70    0.93
  -2   1  -7   -0.14    0.97
   2  -1  -7    0.23    0.94
   2   1  -7   -0.14    0.94
   2   1   7    0.11    0.92
   2  -1   7    0.25    0.90
  -2   2   7    0.19    0.96
  -2  -2   7    0.02    0.95
   2  -2  -7    0.53    0.94
  -2   2  -7    0.01    0.91
  -2  -2  -7    1.01    1.00
   2   2  -7   -0.73    0.94
   2   2   7   -0.17    0.94
   2  -2   7    0.10    0.92
  -2   3   7    0.45    0.98
  -2   3  -7   -0.50    0.95
  -2  -3   7   -0.31    0.97
   2   3  -7    0.19    0.96
   2   3   7    0.07    0.94
   2  -3   7    0.47    0.97
   2  -3  -7   -0.41    0.94
  -2  -3  -7    0.03    0.98
  -2   4   7   -0.07    0.99
  -2  -4   7   -0.46    1.01
   2   4  -7    0.94    1.00
  -2   4  -7    0.13    0.98
   2   4   7    0.25    0.94
  -2  -4  -7   -0.14    0.96
   2  -4  -7    0.48    0.99
   2   5  -7   -0.18    1.03
  -2  -5   7   -0.15    1.09
  -2  -5  -7   -0.34    0.95
  -2   5  -7    0.34    0.94
   2   5   7    1.06    1.00
  -2   5   7   -0.08    1.03
   2   6  -7   -1.32    1.04
   2   6   7   -0.21    1.02
  -2   6   7    0.89    1.06
   2   7  -7    0.09    1.09
   2   7   7   -0.33    1.10
  -2   7   7    0.34    1.11
   2   8  -7    0.38    1.15
   2   8   7   -0.09    1.13
  -2   8   7    0.25    1.17
   2   9  -7    0.01    1.21
   2   9   7    0.31    1.24
  -2   9   7   -0.27    1.27
   2  10  -7   -1.24    1.30
   2  10   7    0.74    1.35
  -2  10   7    0.07    1.43
   2  11  -7    0.36    1.38
   2  11   7   -0.02    1.47
  -2  11   7    0.00    1.52
  -3   0   7    1.32    0.96
   3   0  -7   -0.36    1.03
   3   0   7   -0.68    0.95
  -3   1   7    4.36    1.02
  -3  -1   7    6.54    1.14
   3  -1  -7    3.38    1.02
   3   1  -7    3.10    1.06
   3   1   7    1.82    0.92
   3  -1   7    2.99    0.98
  -3   2   7   -0.81    1.02
   3  -2  -7   -0.61    1.01
  -3  -2   7    0.35    1.01
   3   2  -7   -0.29    1.06
   3   2   7   -0.56    0.95
   3  -2   7    0.12    0.95
   3   3  -7   85.08    3.86
   3  -3  -7   78.06    3.64
   3   3   7   76.33    3.50
  -3   3   7   78.45    3.71
  -3  -3   7   82.44    3.61
  -3   4   7    0.00    1.05
  -3  -4   7    0.38    1.07
   3   4  -7    0.14    1.06
   3  -4  -7   -0.56    0.99
   3   4   7    0.78    1.00
   3   5  -7   50.46    2.97
   3   5   7   52.61    3.00
  -3   5   7   61.63    3.40
  -3  -5   7   53.33    2.90
  -3   6   7   -0.03    1.15
   3   6   7    0.03    1.06
   3   6  -7    0.26    1.10
   3   7  -7   14.73    1.73
   3   7   7   16.65    1.81
  -3   7   7   17.55    1.99
   3   8  -7   -0.01    1.20
   3   8   7   -0.51    1.20
  -3   8   7   -0.06    1.29
   3   9  -7   29.77    2.39
   3   9   7   33.91    2.63
  -3   9   7   29.58    2.53
   3  10  -7   -0.35    1.33
   3  10   7   -0.28    1.34
  -3  10   7    0.10    1.48
  -3  11   7   13.06    1.89
  -4   0   7   -0.18    1.05
   4   0  -7    0.48    1.07
   4   0   7   -0.10    1.00
  -4   1   7    0.13    1.03
   4  -1  -7    0.02    1.03
   4   1  -7    0.45    1.07
   4  -1   7    0.21    1.03
   4   1   7   -0.06    0.98
  -4   2   7    0.05    1.04
   4   2  -7   -0.09    1.10
   4   2   7   -0.11    0.97
   4  -2  -7    0.79    1.08
  -4   3   7    0.14    1.11
   4   3  -7   -0.25    1.13
   4  -3  -7    0.13    1.07
   4   3   7    0.19    1.01
  -4   4   7    0.71    1.12
   4   4  -7   -0.74    1.14
   4   4   7    0.42    1.03
   4  -4  -7   -0.78    1.12
   4   5  -7    0.70    1.14
  -4   5   7    0.16    1.14
   4   5   7    0.14    1.09
  -4   6   7   -0.14    1.16
   4   6   7   -0.61    1.10
   4   6  -7    0.40    1.15
  -4   7   7    0.21    1.27
   4   7  -7   -0.77    1.20
   4   7   7    0.42    1.17
  -4   8   7    0.01    1.36
   4   8  -7   -0.34    1.27
   4   8   7    0.07    1.29
   4   9  -7    0.17    1.35
   4   9   7    0.14    1.29
  -4   9   7   -0.27    1.45
   4  10  -7    0.98    1.44
   4  10   7   -0.63    1.40
  -4  10   7    0.82    1.55
   5   0  -7    0.39    1.16
   5   0   7    0.39    1.10
   5   1  -7   27.05    2.30
   5  -1  -7   28.12    2.35
   5  -1   7   31.86    2.15
   5   1   7   33.65    2.32
   5   2  -7    0.14    1.22
   5   2   7   -0.40    1.05
   5  -2  -7   -0.93    1.18
  -5   3   7    5.33    1.19
   5   3  -7    5.65    1.18
   5  -3  -7    7.34    1.30
   5   3   7    4.73    1.09
  -5   4   7   -0.15    1.21
   5   4  -7   -0.07    1.20
   5  -4  -7   -0.22    1.17
   5   4   7    0.33    1.09
   5   5  -7   33.99    2.63
   5  -5  -7   36.21    2.64
   5   5   7   31.02    2.40
  -5   5   7   33.37    2.73
  -5   6   7   -0.76    1.30
   5   6   7    0.23    1.21
   5   6  -7    0.44    1.25
   5   7  -7   67.76    3.71
   5   7   7   75.30    3.77
  -5   7   7   72.61    3.94
  -5   8   7    0.14    1.47
   5   8  -7    0.07    1.39
   5   8   7    0.15    1.31
  -5   9   7   33.08    2.81
   6   0   7    0.28    1.17
   6   0  -7   -0.22    1.23
   6  -1  -7    0.20    1.24
   6   1  -7    0.18    1.27
   6   1   7   -0.79    1.18
   6   2  -7   -0.23    1.30
   6  -2  -7    0.39    1.22
   6   2   7    0.31    1.15
   6  -3  -7   -0.10    1.26
   6   3  -7    0.26    1.28
   6   3   7   -0.14    1.15
   6   4  -7    0.55    1.30
   6   4   7    0.07    1.21
   6  -4  -7    0.41    1.31
   6   5  -7   -0.55    1.33
   6  -5  -7   -0.17    1.38
  -6   5   7   -0.36    1.39
   6   5   7    0.01    1.20
  -6   6   7    0.84    1.43
   6   6   7    0.84    1.29
   6   6  -7    0.34    1.42
  -6   7   7   -0.66    1.51
   6   7  -7   -0.59    1.46
   6   7   7   -0.50    1.37
   7   0  -7   -0.65    1.40
   7   1  -7   28.01    2.53
   7  -1  -7   24.47    2.35
   7   1   7   24.69    2.02
   7  -2  -7   -0.32    1.37
   7   2  -7   -1.59    1.44
   7   2   7   -0.27    1.32
   7   3  -7    5.02    1.46
   7   3   7    6.02    1.29
   7  -3  -7    7.46    1.42
   7   4  -7    1.07    1.45
   7  -4  -7   -0.16    1.46
   7   4   7    0.07    1.32
   7  -5  -7   16.84    2.08
   7   5   7   16.77    1.82
   7   5  -7   13.46    1.93
   8   2   7    0.23    1.48
   8   3   7    0.32    1.54
   0   0  -8  242.56    6.47
   0   0   8  230.01    6.33
   0   1  -8    0.19    1.38
   0  -1  -8    0.50    1.36
   0   1   8    0.50    1.32
   0  -1   8   -0.34    1.34
   0  -2  -8   -1.32    1.34
   0   2  -8   -1.01    1.37
   0   2   8    1.47    1.32
   0  -2   8   -0.05    1.36
   0   3  -8    0.33    1.37
   0  -3  -8   -0.49    1.41
   0   3   8   -0.26    1.36
   0   4  -8   29.57    2.30
   0  -4  -8   27.30    2.25
   0   4   8   31.24    2.48
   0  -5  -8   -0.06    1.44
   0   5  -8   -0.63    1.42
   0   5   8    0.32    1.38
   0  -6  -8   -0.26    1.50
   0   6  -8    0.30    1.50
   0  -7  -8    0.65    1.57
   0   7  -8    0.70    1.58
   1   0  -8   -0.24    1.37
   1   0   8   -0.84    1.34
  -1   0   8   -0.17    1.32
   1   1  -8   -0.06    1.34
   1   1   8   -0.11    1.29
   1  -1  -8    0.55    1.37
   1  -1   8    0.11    1.37
  -1   1   8    0.67    1.31
  -1  -1   8   -0.87    1.36
   1  -2  -8   -0.10    1.32
   1   2  -8    0.18    1.40
   1   2   8    0.41    1.30
  -1   2   8   -0.36    1.31
  -1  -2   8    0.51    1.39
   1   3  -8    0.72    1.40
   1  -3  -8    0.08    1.39
   1   3   8   -0.88    1.30
  -1   3   8    0.34    1.34
  -1  -3   8    1.02    1.37
   1   4   8    0.41    1.32
  -1   4   8    0.66    1.36
   1  -4  -8    0.37    1.43
   1   4  -8    0.02    1.43
   1  -5  -8    0.14    1.49
   1   5  -8    0.78    1.49
   1   5   8    0.37    1.31
  -1   5   8    0.53    1.40
   1  -6  -8    1.40    1.55
   1   6  -8    0.32    1.55
   2   0  -8    2.03    1.42
   2   0   8    1.88    1.36
  -2   0   8    0.97    1.36
   2   1  -8    0.23    1.38
   2   1   8    0.41    1.32
   2  -1   8   -0.20    1.41
   2  -1  -8    0.14    1.36
  -2   1   8    0.16    1.33
  -2  -1   8   -0.35    1.38
   2  -2  -8    3.28    1.40
   2   2  -8    0.84    1.40
   2   2   8    3.57    1.36
  -2   2   8    2.57    1.35
  -2  -2   8    1.91    1.43
  -2  -3   8    0.87    1.53
   2   3  -8   -1.01    1.43
   2  -3  -8   -0.31    1.41
   2   3   8   -0.13    1.37
  -2   3   8   -0.44    1.37
   2  -4  -8   10.99    1.54
   2   4  -8    8.75    1.51
   2   4   8    8.33    1.44
  -2   4   8    7.78    1.47
   2  -5  -8   -0.09    1.44
   2   5  -8   -1.16    1.45
  -3   0   8    0.83    1.40
   3   0  -8   -1.22    1.44
   3   0   8   -0.46    1.48
  -3   1   8   -0.01    1.42
  -3  -1   8    0.26    1.46
   3   1  -8    0.00    1.45
   3   1   8   -0.43    1.46
   3  -1  -8    1.05    1.42
  -3   2   8    0.61    1.40
  -3  -2   8   -0.16    1.46
   3  -2  -8   -0.43    1.44
   3   2  -8    0.10    1.46
   3   2   8    0.37    1.43
  -3   3   8    0.06    1.37
  -3  -3   8   -0.02    1.56
   3   3  -8    0.09    1.45
   3  -3  -8    0.29    1.43
   3   3   8   -0.30    1.47
  -3  -4   8   -0.83    1.56
   3   4   8    1.05    1.42
   4   0   8   24.57    2.13
  -4   0   8   26.92    2.41
  -4  -1   8    0.33    1.54
   4   1   8   -0.97    1.51
   4   2   8   68.74    3.55
  -4  -2   8   69.87    3.67
  -4  -3   8    0.10    1.67
   4   3   8    0.30    1.53
  -4  -4   8   46.98    3.07
   5   1   8   -1.01    1.71
   0   0   0    0.00    0.00
;
_shelx_hkl_checksum              3922
#END Tags that were not found in dictionaries
loop_
_space_group_symop_operation_xyz
'x, y, z'
'-x, -y, z'
'x+1/4, -y+1/4, z+1/4'
'-x+1/4, y+1/4, z+1/4'
'x, y+1/2, z+1/2'
'-x, -y+1/2, z+1/2'
'x+1/4, -y+3/4, z+3/4'
'-x+1/4, y+3/4, z+3/4'
'x+1/2, y, z+1/2'
'-x+1/2, -y, z+1/2'
'x+3/4, -y+1/4, z+3/4'
'-x+3/4, y+1/4, z+3/4'
'x+1/2, y+1/2, z'
'-x+1/2, -y+1/2, z'
'x+3/4, -y+3/4, z+1/4'
'-x+3/4, y+3/4, z+1/4'
loop_
_atom_site_label
_atom_site_type_symbol
_atom_site_fract_x
_atom_site_fract_y
_atom_site_fract_z
_atom_site_U_iso_or_equiv
_atom_site_adp_type
_atom_site_occupancy
_atom_site_site_symmetry_order
_atom_site_calc_flag
_atom_site_refinement_flags_posn
_atom_site_refinement_flags_adp
_atom_site_refinement_flags_occupancy
Pd1 Pd 0.08942(4) 0.12636(3) 0.59737(2) 0.00943(12) Uani 1 1 d . . .
Ge Ge 0.0000 0.0000 0.3574(2) 0.00956(18) Uani 1 2 d S T P
Ca1 Ca 0.08432(11) 0.20303(7) 0.0985(4) 0.0110(2) Uani 1 1 d . . .
loop_
_atom_site_aniso_label
_atom_site_aniso_U_11
_atom_site_aniso_U_22
_atom_site_aniso_U_33
_atom_site_aniso_U_23
_atom_site_aniso_U_13
_atom_site_aniso_U_12
Pd1 0.00781(17) 0.01067(19) 0.00981(18) -0.0003(3) -0.00056(16) -0.00144(14)
Ge 0.0091(4) 0.0079(3) 0.0117(4) 0.000 0.000 0.0014(3)
Ca1 0.0103(4) 0.0130(5) 0.0095(4) 0.0006(11) 0.0004(5) 0.0001(4)
loop_
_atom_type_symbol
_atom_type_description
_atom_type_scat_dispersion_real
_atom_type_scat_dispersion_imag
_atom_type_scat_source
Ca Ca 0.2262 0.3064 'International Tables Vol C Tables 4.2.6.8 and 6.1.1.4'
Ge Ge 0.1547 1.8001 'International Tables Vol C Tables 4.2.6.8 and 6.1.1.4'
Pd Pd -0.9988 1.0072 'International Tables Vol C Tables 4.2.6.8 and 6.1.1.4'
loop_
_geom_angle_atom_site_label_1
_geom_angle_atom_site_label_2
_geom_angle_atom_site_label_3
_geom_angle
_geom_angle_site_symmetry_1
_geom_angle_site_symmetry_3
Ge Pd1 Ge 145.95(5) 3 .
Ge Pd1 Pd1 125.98(3) 3 11_454
Ge Pd1 Pd1 54.567(13) . 11_454
Ge Pd1 Pd1 55.575(19) 3 3
Ge Pd1 Pd1 123.88(2) . 3
Pd1 Pd1 Pd1 178.34(3) 11_454 3
Ge Pd1 Ca1 74.60(4) 3 .
Ge Pd1 Ca1 78.78(3) . .
Pd1 Pd1 Ca1 62.86(2) 11_454 .
Pd1 Pd1 Ca1 117.87(2) 3 .
Ge Pd1 Ca1 72.19(4) 3 1_556
Ge Pd1 Ca1 141.40(3) . 1_556
Pd1 Pd1 Ca1 115.99(2) 11_454 1_556
Pd1 Pd1 Ca1 64.73(2) 3 1_556
Ca1 Pd1 Ca1 134.16(3) . 1_556
Ge Pd1 Ca1 78.18(3) 3 3
Ge Pd1 Ca1 74.93(3) . 3
Pd1 Pd1 Ca1 118.29(4) 11_454 3
Pd1 Pd1 Ca1 60.96(3) 3 3
Ca1 Pd1 Ca1 75.67(5) . 3
Ca1 Pd1 Ca1 125.68(5) 1_556 3
Ge Pd1 Ca1 118.95(3) 3 8_545
Ge Pd1 Ca1 70.55(4) . 8_545
Pd1 Pd1 Ca1 114.97(3) 11_454 8_545
Pd1 Pd1 Ca1 63.45(3) 3 8_545
Ca1 Pd1 Ca1 138.92(6) . 8_545
Ca1 Pd1 Ca1 85.51(5) 1_556 8_545
Ca1 Pd1 Ca1 70.50(2) 3 8_545
Ge Pd1 Ca1 73.97(2) 3 6
Ge Pd1 Ca1 116.38(3) . 6
Pd1 Pd1 Ca1 61.88(3) 11_454 6
Pd1 Pd1 Ca1 119.70(4) 3 6
Ca1 Pd1 Ca1 70.60(3) . 6
Ca1 Pd1 Ca1 70.46(3) 1_556 6
Ca1 Pd1 Ca1 140.70(6) 3 6
Ca1 Pd1 Ca1 148.20(7) 8_545 6
Ge Pd1 Ca1 143.87(4) 3 11_455
Ge Pd1 Ca1 69.52(4) . 11_455
Pd1 Pd1 Ca1 60.11(3) 11_454 11_455
Pd1 Pd1 Ca1 119.16(3) 3 11_455
Ca1 Pd1 Ca1 122.96(5) . 11_455
Ca1 Pd1 Ca1 74.23(5) 1_556 11_455
Ca1 Pd1 Ca1 133.96(4) 3 11_455
Ca1 Pd1 Ca1 70.69(4) 8_545 11_455
Ca1 Pd1 Ca1 82.62(2) 6 11_455
Pd1 Ge Pd1 177.43(6) 8_544 11_454
Pd1 Ge Pd1 111.60(2) 8_544 .
Pd1 Ge Pd1 69.859(10) 11_454 .
Pd1 Ge Pd1 69.859(10) 8_544 2
Pd1 Ge Pd1 111.60(2) 11_454 2
Pd1 Ge Pd1 115.93(5) . 2
Pd1 Ge Ca1 61.55(3) 8_544 8_545
Pd1 Ge Ca1 120.92(4) 11_454 8_545
Pd1 Ge Ca1 63.03(3) . 8_545
Pd1 Ge Ca1 64.46(3) 2 8_545
Pd1 Ge Ca1 120.92(4) 8_544 11_455
Pd1 Ge Ca1 61.55(3) 11_454 11_455
Pd1 Ge Ca1 64.46(3) . 11_455
Pd1 Ge Ca1 63.03(3) 2 11_455
Ca1 Ge Ca1 67.02(6) 8_545 11_455
Pd1 Ge Ca1 117.64(4) 8_544 11_454
Pd1 Ge Ca1 59.89(3) 11_454 11_454
Pd1 Ge Ca1 117.25(2) . 11_454
Pd1 Ge Ca1 115.86(2) 2 11_454
Ca1 Ge Ca1 179.06(5) 8_545 11_454
Ca1 Ge Ca1 113.92(3) 11_455 11_454
Pd1 Ge Ca1 59.89(3) 8_544 8_544
Pd1 Ge Ca1 117.64(4) 11_454 8_544
Pd1 Ge Ca1 115.86(2) . 8_544
Pd1 Ge Ca1 117.25(2) 2 8_544
Ca1 Ge Ca1 113.92(3) 8_545 8_544
Ca1 Ge Ca1 179.06(5) 11_455 8_544
Ca1 Ge Ca1 65.14(6) 11_454 8_544
Pd1 Ge Ca1 118.16(2) 8_544 16_445
Pd1 Ge Ca1 61.80(2) 11_454 16_445
Pd1 Ge Ca1 121.15(4) . 16_445
Pd1 Ge Ca1 59.88(3) 2 16_445
Ca1 Ge Ca1 117.46(6) 8_545 16_445
Ca1 Ge Ca1 64.10(3) 11_455 16_445
Ca1 Ge Ca1 63.25(3) 11_454 16_445
Ca1 Ge Ca1 115.19(6) 8_544 16_445
Pd1 Ge Ca1 61.80(2) 8_544 3
Pd1 Ge Ca1 118.16(2) 11_454 3
Pd1 Ge Ca1 59.88(3) . 3
Pd1 Ge Ca1 121.15(4) 2 3
Ca1 Ge Ca1 64.10(3) 8_545 3
Ca1 Ge Ca1 117.46(6) 11_455 3
Ca1 Ge Ca1 115.19(6) 11_454 3
Ca1 Ge Ca1 63.25(3) 8_544 3
Ca1 Ge Ca1 178.33(9) 16_445 3
Pd1 Ge Ca1 120.51(3) 8_544 .
Pd1 Ge Ca1 58.26(2) 11_454 .
Pd1 Ge Ca1 56.86(3) . .
Pd1 Ge Ca1 168.36(4) 2 .
Ca1 Ge Ca1 114.37(3) 8_545 .
Ca1 Ge Ca1 105.53(3) 11_455 .
Ca1 Ge Ca1 65.52(4) 11_454 .
Ca1 Ge Ca1 74.15(4) 8_544 .
Ca1 Ge Ca1 114.39(4) 16_445 .
Ca1 Ge Ca1 64.86(3) 3 .
Pd1 Ge Ca1 58.26(2) 8_544 2
Pd1 Ge Ca1 120.51(3) 11_454 2
Pd1 Ge Ca1 168.36(4) . 2
Pd1 Ge Ca1 56.86(3) 2 2
Ca1 Ge Ca1 105.53(3) 8_545 2
Ca1 Ge Ca1 114.37(3) 11_455 2
Ca1 Ge Ca1 74.15(4) 11_454 2
Ca1 Ge Ca1 65.52(4) 8_544 2
Ca1 Ge Ca1 64.86(3) 16_445 2
Ca1 Ge Ca1 114.39(4) 3 2
Ca1 Ge Ca1 131.85(8) . 2
Pd1 Ca1 Pd1 134.16(3) . 1_554
Pd1 Ca1 Pd1 56.18(3) . 11_454
Pd1 Ca1 Pd1 105.98(4) 1_554 11_454
Pd1 Ca1 Pd1 138.20(6) . 4_554
Pd1 Ca1 Pd1 85.03(5) 1_554 4_554
Pd1 Ca1 Pd1 137.80(4) 11_454 4_554
Pd1 Ca1 Pd1 109.61(6) . 6_554
Pd1 Ca1 Pd1 109.32(5) 1_554 6_554
Pd1 Ca1 Pd1 83.57(3) 11_454 6_554
Pd1 Ca1 Pd1 54.671(19) 4_554 6_554
Pd1 Ca1 Pd1 104.10(4) . 3_554
Pd1 Ca1 Pd1 55.17(3) 1_554 3_554
Pd1 Ca1 Pd1 133.96(4) 11_454 3_554
Pd1 Ca1 Pd1 86.06(4) 4_554 3_554
Pd1 Ca1 Pd1 140.23(6) 6_554 3_554
Pd1 Ca1 Ge 147.65(4) . 3_554
Pd1 Ca1 Ge 46.26(3) 1_554 3_554
Pd1 Ca1 Ge 150.26(6) 11_454 3_554
Pd1 Ca1 Ge 46.41(3) 4_554 3_554
Pd1 Ca1 Ge 95.52(4) 6_554 3_554
Pd1 Ca1 Ge 46.02(2) 3_554 3_554
Pd1 Ca1 Ge 45.51(3) . 3
Pd1 Ca1 Ge 148.35(4) 1_554 3
Pd1 Ca1 Ge 95.71(6) 11_454 3
Pd1 Ca1 Ge 94.27(3) 4_554 3
Pd1 Ca1 Ge 95.56(4) 6_554 3
Pd1 Ca1 Ge 93.19(3) 3_554 3
Ge Ca1 Ge 113.92(3) 3_554 3
Pd1 Ca1 Ge 94.88(5) . 11_454
Pd1 Ca1 Ge 96.40(5) 1_554 11_454
Pd1 Ca1 Ge 45.19(2) 11_454 11_454
Pd1 Ca1 Ge 93.87(3) 4_554 11_454
Pd1 Ca1 Ge 44.232(15) 6_554 11_454
Pd1 Ca1 Ge 151.51(7) 3_554 11_454
Ge Ca1 Ge 117.46(6) 3_554 11_454
Ge Ca1 Ge 115.19(6) 3 11_454
Pd1 Ca1 Ge 44.35(3) . .
Pd1 Ca1 Ge 92.16(3) 1_554 .
Pd1 Ca1 Ge 43.56(2) 11_454 .
Pd1 Ca1 Ge 177.16(7) 4_554 .
Pd1 Ca1 Ge 127.00(4) 6_554 .
Pd1 Ca1 Ge 91.98(3) 3_554 .
Ge Ca1 Ge 130.91(5) 3_554 .
Ge Ca1 Ge 87.89(5) 3 .
Ge Ca1 Ge 86.87(3) 11_454 .
Pd1 Ca1 Ca1 56.359(19) . 6
Pd1 Ca1 Ca1 152.29(5) 1_554 6
Pd1 Ca1 Ca1 55.12(4) 11_454 6
Pd1 Ca1 Ca1 97.04(5) 4_554 6
Pd1 Ca1 Ca1 53.25(5) 6_554 6
Pd1 Ca1 Ca1 152.40(5) 3_554 6
Ge Ca1 Ca1 143.45(5) 3_554 6
Ge Ca1 Ca1 59.27(2) 3 6
Ge Ca1 Ca1 55.92(5) 11_454 6
Ge Ca1 Ca1 85.65(4) . 6
Pd1 Ca1 Ca1 152.31(5) . 6_554
Pd1 Ca1 Ca1 56.284(19) 1_554 6_554
Pd1 Ca1 Ca1 97.69(5) 11_454 6_554
Pd1 Ca1 Ca1 54.37(4) 4_554 6_554
Pd1 Ca1 Ca1 53.04(5) 6_554 6_554
Pd1 Ca1 Ca1 101.20(4) 3_554 6_554
Ge Ca1 Ca1 59.98(2) 3_554 6_554
Ge Ca1 Ca1 143.76(5) 3 6_554
Ge Ca1 Ca1 57.48(5) 11_454 6_554
Ge Ca1 Ca1 124.18(5) . 6_554
Ca1 Ca1 Ca1 102.83(5) 6 6_554
loop_
_geom_bond_atom_site_label_1
_geom_bond_atom_site_label_2
_geom_bond_distance
_geom_bond_site_symmetry_2
Pd1 Ge 2.4926(4) 3
Pd1 Ge 2.5234(7) .
Pd1 Pd1 2.87209(7) 11_454
Pd1 Pd1 2.87212(7) 3
Pd1 Ca1 3.022(2) .
Pd1 Ca1 3.034(2) 1_556
Pd1 Ca1 3.0764(15) 3
Pd1 Ca1 3.1049(13) 8_545
Pd1 Ca1 3.1490(12) 6
Pd1 Ca1 3.1641(14) 11_455
Ge Pd1 2.4926(4) 8_544
Ge Pd1 2.4926(4) 11_454
Ge Pd1 2.5234(7) 2
Ge Ca1 3.285(2) 8_545
Ge Ca1 3.285(2) 11_455
Ge Ca1 3.369(2) 11_454
Ge Ca1 3.369(2) 8_544
Ge Ca1 3.4343(11) 16_445
Ge Ca1 3.4343(11) 3
Ge Ca1 3.5406(14) .
Ge Ca1 3.5406(14) 2
Ca1 Pd1 3.034(2) 1_554
Ca1 Pd1 3.0764(14) 11_454
Ca1 Pd1 3.1050(13) 4_554
Ca1 Pd1 3.1490(12) 6_554
Ca1 Pd1 3.1641(14) 3_554
Ca1 Ge 3.285(2) 3_554
Ca1 Ge 3.369(2) 3
Ca1 Ge 3.4343(11) 11_454
Ca1 Ca1 3.5678(13) 6
Ca1 Ca1 3.5678(13) 6_554
